# generated using pymatgen
data_Y3Sn3Rh2Au
_symmetry_space_group_name_H-M   'P 1'
_cell_length_a   7.70145400
_cell_length_b   7.70145416
_cell_length_c   3.84786400
_cell_angle_alpha   90.00000000
_cell_angle_beta   90.00000000
_cell_angle_gamma   119.99999929
_symmetry_Int_Tables_number   1
_chemical_formula_structural   Y3Sn3Rh2Au
_chemical_formula_sum   'Y3 Sn3 Rh2 Au1'
_cell_volume   197.64954067
_cell_formula_units_Z   1
loop_
 _symmetry_equiv_pos_site_id
 _symmetry_equiv_pos_as_xyz
  1  'x, y, z'
loop_
 _atom_site_type_symbol
 _atom_site_label
 _atom_site_symmetry_multiplicity
 _atom_site_fract_x
 _atom_site_fract_y
 _atom_site_fract_z
 _atom_site_occupancy
  Y  Y0  1  0.409825  0.012727  0.500000  1
  Y  Y1  1  0.987273  0.397098  0.500000  1
  Y  Y2  1  0.602902  0.590175  0.500000  1
  Sn  Sn3  1  0.746630  0.006546  0.000000  1
  Sn  Sn4  1  0.993454  0.740084  0.000000  1
  Sn  Sn5  1  0.259916  0.253370  0.000000  1
  Rh  Rh6  1  0.666667  0.333333  0.000000  1
  Rh  Rh7  1  0.000000  0.000000  0.500000  1
  Au  Au8  1  0.333333  0.666667  0.000000  1
