# generated using pymatgen
data_Tm5Lu15Bi11Au
_symmetry_space_group_name_H-M   'P 1'
_cell_length_a   8.08727711
_cell_length_b   9.36766500
_cell_length_c   11.82082329
_cell_angle_alpha   90.00000000
_cell_angle_beta   89.62391072
_cell_angle_gamma   90.00000000
_symmetry_Int_Tables_number   1
_chemical_formula_structural   Tm5Lu15Bi11Au
_chemical_formula_sum   'Tm5 Lu15 Bi11 Au1'
_cell_volume   895.51330953
_cell_formula_units_Z   1
loop_
 _symmetry_equiv_pos_site_id
 _symmetry_equiv_pos_as_xyz
  1  'x, y, z'
loop_
 _atom_site_type_symbol
 _atom_site_label
 _atom_site_symmetry_multiplicity
 _atom_site_fract_x
 _atom_site_fract_y
 _atom_site_fract_z
 _atom_site_occupancy
  Tm  Tm0  1  0.149566  0.750000  0.780972  1
  Tm  Tm1  1  0.197190  0.250000  0.778496  1
  Tm  Tm2  1  0.808473  0.750000  0.216025  1
  Tm  Tm3  1  0.312960  0.750000  0.282415  1
  Tm  Tm4  1  0.670174  0.250000  0.708522  1
  Lu  Lu5  1  0.039525  0.250000  0.506654  1
  Lu  Lu6  1  0.982493  0.750000  0.491180  1
  Lu  Lu7  1  0.476838  0.750000  0.010855  1
  Lu  Lu8  1  0.524737  0.250000  0.990260  1
  Lu  Lu9  1  0.356258  0.250000  0.295732  1
  Lu  Lu10  1  0.651141  0.750000  0.717750  1
  Lu  Lu11  1  0.850998  0.250000  0.216406  1
  Lu  Lu12  1  0.192346  0.067542  0.062569  1
  Lu  Lu13  1  0.807085  0.932525  0.940461  1
  Lu  Lu14  1  0.310297  0.953883  0.559010  1
  Lu  Lu15  1  0.807085  0.567475  0.940461  1
  Lu  Lu16  1  0.683950  0.072976  0.445495  1
  Lu  Lu17  1  0.192346  0.432458  0.062569  1
  Lu  Lu18  1  0.683950  0.427024  0.445495  1
  Lu  Lu19  1  0.310297  0.546117  0.559010  1
  Bi  Bi20  1  0.596938  0.750000  0.458156  1
  Bi  Bi21  1  0.097625  0.750000  0.042514  1
  Bi  Bi22  1  0.904557  0.250000  0.953701  1
  Bi  Bi23  1  0.058369  0.001503  0.322807  1
  Bi  Bi24  1  0.935825  0.999295  0.675361  1
  Bi  Bi25  1  0.436963  0.995139  0.826782  1
  Bi  Bi26  1  0.935825  0.500705  0.675361  1
  Bi  Bi27  1  0.562994  0.004847  0.175193  1
  Bi  Bi28  1  0.058369  0.498497  0.322807  1
  Bi  Bi29  1  0.562994  0.495153  0.175193  1
  Bi  Bi30  1  0.436963  0.504861  0.826782  1
  Au  Au31  1  0.404863  0.250000  0.535002  1
