# generated using pymatgen
data_Ca4TiMn7(P2O9)4
_symmetry_space_group_name_H-M   'P 1'
_cell_length_a   6.56605500
_cell_length_b   7.43694820
_cell_length_c   14.37067641
_cell_angle_alpha   89.07588089
_cell_angle_beta   90.00000000
_cell_angle_gamma   90.00000000
_symmetry_Int_Tables_number   1
_chemical_formula_structural   Ca4TiMn7(P2O9)4
_chemical_formula_sum   'Ca4 Ti1 Mn7 P8 O36'
_cell_volume   701.64913088
_cell_formula_units_Z   1
loop_
 _symmetry_equiv_pos_site_id
 _symmetry_equiv_pos_as_xyz
  1  'x, y, z'
loop_
 _atom_site_type_symbol
 _atom_site_label
 _atom_site_symmetry_multiplicity
 _atom_site_fract_x
 _atom_site_fract_y
 _atom_site_fract_z
 _atom_site_occupancy
  Ca  Ca0  1  0.250000  0.884979  0.777663  1
  Ca  Ca1  1  0.250000  0.608194  0.282010  1
  Ca  Ca2  1  0.750000  0.385268  0.715264  1
  Ca  Ca3  1  0.750000  0.117227  0.222091  1
  Ti  Ti4  1  0.250000  0.349720  0.883900  1
  Mn  Mn5  1  0.750000  0.650698  0.120590  1
  Mn  Mn6  1  0.750000  0.849217  0.616278  1
  Mn  Mn7  1  0.250000  0.148522  0.383783  1
  Mn  Mn8  1  0.997208  0.996906  0.001286  1
  Mn  Mn9  1  0.999682  0.499603  0.499680  1
  Mn  Mn10  1  0.500318  0.499603  0.499680  1
  Mn  Mn11  1  0.502792  0.996906  0.001286  1
  P  P12  1  0.750000  0.368140  0.933768  1
  P  P13  1  0.250000  0.634539  0.067857  1
  P  P14  1  0.250000  0.872372  0.566069  1
  P  P15  1  0.750000  0.126983  0.434644  1
  P  P16  1  0.250000  0.397605  0.693925  1
  P  P17  1  0.250000  0.095906  0.197501  1
  P  P18  1  0.750000  0.901709  0.802609  1
  P  P19  1  0.750000  0.607909  0.306588  1
  O  O20  1  0.555991  0.593825  0.367163  1
  O  O21  1  0.056180  0.405659  0.633464  1
  O  O22  1  0.444502  0.100050  0.137155  1
  O  O23  1  0.944781  0.899790  0.862639  1
  O  O24  1  0.443820  0.405659  0.633464  1
  O  O25  1  0.944009  0.593825  0.367163  1
  O  O26  1  0.555219  0.899790  0.862639  1
  O  O27  1  0.055498  0.100050  0.137155  1
  O  O28  1  0.750000  0.299670  0.493506  1
  O  O29  1  0.250000  0.697817  0.508934  1
  O  O30  1  0.250000  0.818467  0.015343  1
  O  O31  1  0.750000  0.185075  0.987452  1
  O  O32  1  0.250000  0.133824  0.941342  1
  O  O33  1  0.750000  0.872564  0.053915  1
  O  O34  1  0.750000  0.608232  0.553606  1
  O  O35  1  0.250000  0.390502  0.446669  1
  O  O36  1  0.250000  0.222442  0.756046  1
  O  O37  1  0.750000  0.785788  0.248107  1
  O  O38  1  0.750000  0.728978  0.738495  1
  O  O39  1  0.250000  0.268425  0.261702  1
  O  O40  1  0.935508  0.127274  0.367578  1
  O  O41  1  0.435478  0.874911  0.633097  1
  O  O42  1  0.065504  0.616988  0.132711  1
  O  O43  1  0.560797  0.371581  0.866601  1
  O  O44  1  0.064522  0.874911  0.633097  1
  O  O45  1  0.564492  0.127274  0.367578  1
  O  O46  1  0.939203  0.371581  0.866601  1
  O  O47  1  0.434496  0.616988  0.132711  1
  O  O48  1  0.250000  0.490134  0.990662  1
  O  O49  1  0.750000  0.057938  0.729394  1
  O  O50  1  0.750000  0.459659  0.229909  1
  O  O51  1  0.250000  0.546512  0.769516  1
  O  O52  1  0.250000  0.039411  0.502408  1
  O  O53  1  0.750000  0.958253  0.497136  1
  O  O54  1  0.750000  0.524848  0.998487  1
  O  O55  1  0.250000  0.939298  0.270083  1
