# generated using pymatgen
data_Pa7O16
_symmetry_space_group_name_H-M   'P 1'
_cell_length_a   7.71163305
_cell_length_b   7.71163309
_cell_length_c   7.71059094
_cell_angle_alpha   60.00220035
_cell_angle_beta   60.00220173
_cell_angle_gamma   89.98820124
_symmetry_Int_Tables_number   1
_chemical_formula_structural   Pa7O16
_chemical_formula_sum   'Pa7 O16'
_cell_volume   324.29403138
_cell_formula_units_Z   1
loop_
 _symmetry_equiv_pos_site_id
 _symmetry_equiv_pos_as_xyz
  1  'x, y, z'
loop_
 _atom_site_type_symbol
 _atom_site_label
 _atom_site_symmetry_multiplicity
 _atom_site_fract_x
 _atom_site_fract_y
 _atom_site_fract_z
 _atom_site_occupancy
  Pa  Pa0  1  0.751796  0.248204  0.500000  1
  Pa  Pa1  1  0.251449  0.247775  0.499858  1
  Pa  Pa2  1  0.252016  0.747984  0.000000  1
  Pa  Pa3  1  0.750708  0.747993  0.001818  1
  Pa  Pa4  1  0.752225  0.748551  0.500142  1
  Pa  Pa5  1  0.751270  0.248730  0.000000  1
  Pa  Pa6  1  0.252007  0.249292  0.998182  1
  O  O7  1  0.631467  0.885661  0.742203  1
  O  O8  1  0.630140  0.368550  0.259509  1
  O  O9  1  0.111849  0.886971  0.778875  1
  O  O10  1  0.114339  0.368533  0.257797  1
  O  O11  1  0.390240  0.607760  0.222223  1
  O  O12  1  0.112777  0.330792  0.777543  1
  O  O13  1  0.113029  0.888151  0.221125  1
  O  O14  1  0.388248  0.126389  0.741870  1
  O  O15  1  0.873611  0.611752  0.258130  1
  O  O16  1  0.631450  0.369860  0.740491  1
  O  O17  1  0.872987  0.127232  0.741949  1
  O  O18  1  0.669208  0.887223  0.222457  1
  O  O19  1  0.872768  0.127013  0.258051  1
  O  O20  1  0.832128  0.608253  0.781017  1
  O  O21  1  0.391747  0.167872  0.218983  1
  O  O22  1  0.392240  0.609760  0.777777  1
