# generated using pymatgen
data_NbMo15
_symmetry_space_group_name_H-M   'P 1'
_cell_length_a   6.35404100
_cell_length_b   6.35404100
_cell_length_c   6.35596100
_cell_angle_alpha   90.00000000
_cell_angle_beta   90.00000000
_cell_angle_gamma   90.00000000
_symmetry_Int_Tables_number   1
_chemical_formula_structural   NbMo15
_chemical_formula_sum   'Nb1 Mo15'
_cell_volume   256.61453358
_cell_formula_units_Z   1
loop_
 _symmetry_equiv_pos_site_id
 _symmetry_equiv_pos_as_xyz
  1  'x, y, z'
loop_
 _atom_site_type_symbol
 _atom_site_label
 _atom_site_symmetry_multiplicity
 _atom_site_fract_x
 _atom_site_fract_y
 _atom_site_fract_z
 _atom_site_occupancy
  Nb  Nb0  1  0.000000  0.000000  0.500000  1
  Mo  Mo1  1  0.000000  0.000000  0.000000  1
  Mo  Mo2  1  0.500000  0.500000  0.000000  1
  Mo  Mo3  1  0.251083  0.251083  0.248810  1
  Mo  Mo4  1  0.748916  0.251083  0.248810  1
  Mo  Mo5  1  0.251083  0.748916  0.248810  1
  Mo  Mo6  1  0.748916  0.748916  0.248810  1
  Mo  Mo7  1  0.500000  0.000000  0.500000  1
  Mo  Mo8  1  0.000000  0.500000  0.500000  1
  Mo  Mo9  1  0.500000  0.500000  0.500000  1
  Mo  Mo10  1  0.251083  0.251083  0.751189  1
  Mo  Mo11  1  0.748916  0.251083  0.751189  1
  Mo  Mo12  1  0.251083  0.748916  0.751189  1
  Mo  Mo13  1  0.748916  0.748916  0.751189  1
  Mo  Mo14  1  0.500000  0.000000  0.000000  1
  Mo  Mo15  1  0.000000  0.500000  0.000000  1
