# generated using pymatgen
data_Tb2Yb6BiSb5
_symmetry_space_group_name_H-M   'P 1'
_cell_length_a   8.14810878
_cell_length_b   8.13874126
_cell_length_c   8.21561663
_cell_angle_alpha   109.49238780
_cell_angle_beta   109.59252855
_cell_angle_gamma   109.13402914
_symmetry_Int_Tables_number   1
_chemical_formula_structural   Tb2Yb6BiSb5
_chemical_formula_sum   'Tb2 Yb6 Bi1 Sb5'
_cell_volume   420.40302679
_cell_formula_units_Z   1
loop_
 _symmetry_equiv_pos_site_id
 _symmetry_equiv_pos_as_xyz
  1  'x, y, z'
loop_
 _atom_site_type_symbol
 _atom_site_label
 _atom_site_symmetry_multiplicity
 _atom_site_fract_x
 _atom_site_fract_y
 _atom_site_fract_z
 _atom_site_occupancy
  Tb  Tb0  1  0.997738  0.857868  0.500453  1
  Tb  Tb1  1  0.357117  0.498727  0.997157  1
  Yb  Yb2  1  0.502712  0.006722  0.355593  1
  Yb  Yb3  1  0.504921  0.002522  0.858622  1
  Yb  Yb4  1  0.647899  0.644541  0.650218  1
  Yb  Yb5  1  0.994810  0.352395  0.497438  1
  Yb  Yb6  1  0.143607  0.141697  0.146513  1
  Yb  Yb7  1  0.851346  0.495957  0.993451  1
  Bi  Bi8  1  0.249316  0.627009  0.372300  1
  Sb  Sb9  1  0.127189  0.748687  0.871497  1
  Sb  Sb10  1  0.882501  0.124410  0.750487  1
  Sb  Sb11  1  0.624079  0.382795  0.250376  1
  Sb  Sb12  1  0.369245  0.247240  0.627811  1
  Sb  Sb13  1  0.747519  0.869429  0.128085  1
