# generated using pymatgen
data_TbMn2Fe2P3W
_symmetry_space_group_name_H-M   'P 1'
_cell_length_a   3.68726200
_cell_length_b   10.54928200
_cell_length_c   12.19780500
_cell_angle_alpha   90.00000000
_cell_angle_beta   90.00000000
_cell_angle_gamma   90.00000000
_symmetry_Int_Tables_number   1
_chemical_formula_structural   TbMn2Fe2P3W
_chemical_formula_sum   'Tb4 Mn8 Fe8 P12 W4'
_cell_volume   474.46981204
_cell_formula_units_Z   4
loop_
 _symmetry_equiv_pos_site_id
 _symmetry_equiv_pos_as_xyz
  1  'x, y, z'
loop_
 _atom_site_type_symbol
 _atom_site_label
 _atom_site_symmetry_multiplicity
 _atom_site_fract_x
 _atom_site_fract_y
 _atom_site_fract_z
 _atom_site_occupancy
  Tb  Tb0  1  0.250000  0.582530  0.710286  1
  Tb  Tb1  1  0.250000  0.917470  0.210286  1
  Tb  Tb2  1  0.750000  0.417470  0.289714  1
  Tb  Tb3  1  0.750000  0.082530  0.789714  1
  Mn  Mn4  1  0.250000  0.407527  0.493174  1
  Mn  Mn5  1  0.250000  0.092473  0.993174  1
  Mn  Mn6  1  0.750000  0.592473  0.506826  1
  Mn  Mn7  1  0.750000  0.907527  0.006826  1
  Mn  Mn8  1  0.250000  0.217648  0.175924  1
  Mn  Mn9  1  0.250000  0.282352  0.675924  1
  Mn  Mn10  1  0.750000  0.782352  0.824076  1
  Mn  Mn11  1  0.750000  0.717648  0.324076  1
  Fe  Fe12  1  0.250000  0.877070  0.698452  1
  Fe  Fe13  1  0.250000  0.622930  0.198452  1
  Fe  Fe14  1  0.750000  0.122930  0.301548  1
  Fe  Fe15  1  0.750000  0.377070  0.801548  1
  Fe  Fe16  1  0.250000  0.462867  0.934621  1
  Fe  Fe17  1  0.250000  0.037133  0.434621  1
  Fe  Fe18  1  0.750000  0.537133  0.065379  1
  Fe  Fe19  1  0.750000  0.962867  0.565379  1
  P  P20  1  0.250000  0.428638  0.113260  1
  P  P21  1  0.250000  0.071362  0.613260  1
  P  P22  1  0.750000  0.571362  0.886740  1
  P  P23  1  0.750000  0.928638  0.386740  1
  P  P24  1  0.250000  0.268361  0.866402  1
  P  P25  1  0.250000  0.231639  0.366402  1
  P  P26  1  0.750000  0.731639  0.133598  1
  P  P27  1  0.750000  0.768361  0.633598  1
  P  P28  1  0.250000  0.591802  0.384370  1
  P  P29  1  0.250000  0.908198  0.884370  1
  P  P30  1  0.750000  0.408198  0.615630  1
  P  P31  1  0.750000  0.091802  0.115630  1
  W  W32  1  0.250000  0.704818  0.987592  1
  W  W33  1  0.250000  0.795182  0.487592  1
  W  W34  1  0.750000  0.295182  0.012408  1
  W  W35  1  0.750000  0.204818  0.512408  1
