# generated using pymatgen
data_Ce3ErLu4(ReB6)4
_symmetry_space_group_name_H-M   'P 1'
_cell_length_a   3.68182000
_cell_length_b   9.12655119
_cell_length_c   11.51832200
_cell_angle_alpha   90.06209162
_cell_angle_beta   90.00000000
_cell_angle_gamma   90.00000000
_symmetry_Int_Tables_number   1
_chemical_formula_structural   Ce3ErLu4(ReB6)4
_chemical_formula_sum   'Ce3 Er1 Lu4 Re4 B24'
_cell_volume   387.04209949
_cell_formula_units_Z   1
loop_
 _symmetry_equiv_pos_site_id
 _symmetry_equiv_pos_as_xyz
  1  'x, y, z'
loop_
 _atom_site_type_symbol
 _atom_site_label
 _atom_site_symmetry_multiplicity
 _atom_site_fract_x
 _atom_site_fract_y
 _atom_site_fract_z
 _atom_site_occupancy
  Ce  Ce0  1  0.000000  0.321434  0.414545  1
  Ce  Ce1  1  0.000000  0.678299  0.586197  1
  Ce  Ce2  1  0.000000  0.823274  0.085255  1
  Er  Er3  1  0.000000  0.177819  0.913917  1
  Lu  Lu4  1  0.000000  0.944994  0.372321  1
  Lu  Lu5  1  0.000000  0.055959  0.628528  1
  Lu  Lu6  1  0.000000  0.443180  0.127415  1
  Lu  Lu7  1  0.000000  0.555457  0.871965  1
  Re  Re8  1  0.000000  0.639322  0.319956  1
  Re  Re9  1  0.000000  0.361222  0.679761  1
  Re  Re10  1  0.000000  0.139495  0.179839  1
  Re  Re11  1  0.000000  0.860439  0.820291  1
  B  B12  1  0.500000  0.554807  0.431245  1
  B  B13  1  0.500000  0.444860  0.569060  1
  B  B14  1  0.500000  0.054894  0.067110  1
  B  B15  1  0.500000  0.946246  0.932141  1
  B  B16  1  0.500000  0.750833  0.418053  1
  B  B17  1  0.500000  0.248835  0.582703  1
  B  B18  1  0.500000  0.250356  0.080289  1
  B  B19  1  0.500000  0.750051  0.918108  1
  B  B20  1  0.500000  0.792506  0.265476  1
  B  B21  1  0.500000  0.206657  0.735418  1
  B  B22  1  0.500000  0.292265  0.233181  1
  B  B23  1  0.500000  0.707869  0.766187  1
  B  B24  1  0.500000  0.630435  0.184774  1
  B  B25  1  0.500000  0.368499  0.816035  1
  B  B26  1  0.500000  0.130873  0.314354  1
  B  B27  1  0.500000  0.870168  0.685834  1
  B  B28  1  0.500000  0.983478  0.212575  1
  B  B29  1  0.500000  0.018424  0.787310  1
  B  B30  1  0.500000  0.482832  0.286214  1
  B  B31  1  0.500000  0.516450  0.714198  1
  B  B32  1  0.500000  0.599887  0.027525  1
  B  B33  1  0.500000  0.397630  0.971565  1
  B  B34  1  0.500000  0.102135  0.472261  1
  B  B35  1  0.500000  0.898121  0.528397  1
