# generated using pymatgen
data_Cs4Dy11ErTe20
_symmetry_space_group_name_H-M   'P 1'
_cell_length_a   4.42093600
_cell_length_b   13.36819848
_cell_length_c   23.83413600
_cell_angle_alpha   90.01529236
_cell_angle_beta   90.00000000
_cell_angle_gamma   90.00000000
_symmetry_Int_Tables_number   1
_chemical_formula_structural   Cs4Dy11ErTe20
_chemical_formula_sum   'Cs4 Dy11 Er1 Te20'
_cell_volume   1408.59619330
_cell_formula_units_Z   1
loop_
 _symmetry_equiv_pos_site_id
 _symmetry_equiv_pos_as_xyz
  1  'x, y, z'
loop_
 _atom_site_type_symbol
 _atom_site_label
 _atom_site_symmetry_multiplicity
 _atom_site_fract_x
 _atom_site_fract_y
 _atom_site_fract_z
 _atom_site_occupancy
  Cs  Cs0  1  0.250000  0.353578  0.089983  1
  Cs  Cs1  1  0.750000  0.646317  0.910004  1
  Cs  Cs2  1  0.750000  0.853626  0.410051  1
  Cs  Cs3  1  0.250000  0.146423  0.589956  1
  Dy  Dy4  1  0.750000  0.545300  0.302154  1
  Dy  Dy5  1  0.750000  0.954665  0.802159  1
  Dy  Dy6  1  0.250000  0.045309  0.197846  1
  Dy  Dy7  1  0.250000  0.796263  0.674623  1
  Dy  Dy8  1  0.750000  0.203524  0.325391  1
  Dy  Dy9  1  0.750000  0.296578  0.825344  1
  Dy  Dy10  1  0.250000  0.703526  0.174599  1
  Dy  Dy11  1  0.250000  0.392392  0.444526  1
  Dy  Dy12  1  0.750000  0.607601  0.555655  1
  Dy  Dy13  1  0.750000  0.892343  0.055582  1
  Dy  Dy14  1  0.250000  0.107671  0.944423  1
  Er  Er15  1  0.250000  0.454311  0.697848  1
  Te  Te16  1  0.250000  0.444779  0.569384  1
  Te  Te17  1  0.750000  0.555229  0.431062  1
  Te  Te18  1  0.750000  0.944739  0.931040  1
  Te  Te19  1  0.250000  0.055294  0.068963  1
  Te  Te20  1  0.250000  0.767724  0.546538  1
  Te  Te21  1  0.750000  0.232307  0.453492  1
  Te  Te22  1  0.750000  0.267774  0.953482  1
  Te  Te23  1  0.250000  0.732296  0.046509  1
  Te  Te24  1  0.250000  0.799878  0.803115  1
  Te  Te25  1  0.750000  0.200104  0.196875  1
  Te  Te26  1  0.750000  0.301251  0.696816  1
  Te  Te27  1  0.250000  0.700116  0.303126  1
  Te  Te28  1  0.250000  0.453041  0.825948  1
  Te  Te29  1  0.750000  0.547122  0.173407  1
  Te  Te30  1  0.750000  0.952825  0.673431  1
  Te  Te31  1  0.250000  0.047117  0.326576  1
  Te  Te32  1  0.250000  0.374876  0.313377  1
  Te  Te33  1  0.750000  0.624052  0.686726  1
  Te  Te34  1  0.750000  0.874894  0.186645  1
  Te  Te35  1  0.250000  0.125154  0.813343  1
