# generated using pymatgen
data_Sr5CoOs3O16
_symmetry_space_group_name_H-M   'P 1'
_cell_length_a   5.69887719
_cell_length_b   5.70101397
_cell_length_c   10.41371359
_cell_angle_alpha   93.54430974
_cell_angle_beta   93.49062693
_cell_angle_gamma   90.55038221
_symmetry_Int_Tables_number   1
_chemical_formula_structural   Sr5CoOs3O16
_chemical_formula_sum   'Sr5 Co1 Os3 O16'
_cell_volume   337.03110166
_cell_formula_units_Z   1
loop_
 _symmetry_equiv_pos_site_id
 _symmetry_equiv_pos_as_xyz
  1  'x, y, z'
loop_
 _atom_site_type_symbol
 _atom_site_label
 _atom_site_symmetry_multiplicity
 _atom_site_fract_x
 _atom_site_fract_y
 _atom_site_fract_z
 _atom_site_occupancy
  Sr  Sr0  1  0.515965  0.027945  0.194678  1
  Sr  Sr1  1  0.028845  0.515560  0.195107  1
  Sr  Sr2  1  0.000026  0.000013  0.500029  1
  Sr  Sr3  1  0.971176  0.484422  0.804859  1
  Sr  Sr4  1  0.484003  0.972064  0.805291  1
  Co  Co5  1  0.499986  0.499987  0.000003  1
  Os  Os6  1  0.999988  0.999990  0.999987  1
  Os  Os7  1  0.560607  0.560431  0.386565  1
  Os  Os8  1  0.439428  0.439655  0.613403  1
  O  O9  1  0.754859  0.237610  0.999693  1
  O  O10  1  0.767613  0.760790  0.029296  1
  O  O11  1  0.058065  0.059619  0.176631  1
  O  O12  1  0.464561  0.463674  0.202192  1
  O  O13  1  0.771869  0.772171  0.323251  1
  O  O14  1  0.307407  0.758104  0.374276  1
  O  O15  1  0.759249  0.308052  0.374553  1
  O  O16  1  0.316705  0.315770  0.442244  1
  O  O17  1  0.683320  0.684256  0.557760  1
  O  O18  1  0.240712  0.691996  0.625480  1
  O  O19  1  0.692688  0.241824  0.625754  1
  O  O20  1  0.228090  0.227790  0.676763  1
  O  O21  1  0.535459  0.536348  0.797820  1
  O  O22  1  0.941915  0.940369  0.823369  1
  O  O23  1  0.232352  0.239185  0.970702  1
  O  O24  1  0.245112  0.762366  0.000304  1
