# generated using pymatgen
data_YbLu(FeB)8
_symmetry_space_group_name_H-M   'P 1'
_cell_length_a   6.89409400
_cell_length_b   6.89409400
_cell_length_c   3.86286300
_cell_angle_alpha   90.00000000
_cell_angle_beta   90.00000000
_cell_angle_gamma   90.00000000
_symmetry_Int_Tables_number   1
_chemical_formula_structural   YbLu(FeB)8
_chemical_formula_sum   'Yb1 Lu1 Fe8 B8'
_cell_volume   183.59620802
_cell_formula_units_Z   1
loop_
 _symmetry_equiv_pos_site_id
 _symmetry_equiv_pos_as_xyz
  1  'x, y, z'
loop_
 _atom_site_type_symbol
 _atom_site_label
 _atom_site_symmetry_multiplicity
 _atom_site_fract_x
 _atom_site_fract_y
 _atom_site_fract_z
 _atom_site_occupancy
  Yb  Yb0  1  0.500000  0.500000  0.500000  1
  Lu  Lu1  1  0.000000  0.000000  0.000000  1
  Fe  Fe2  1  0.869946  0.379729  0.118005  1
  Fe  Fe3  1  0.130054  0.620271  0.118005  1
  Fe  Fe4  1  0.879613  0.632898  0.616748  1
  Fe  Fe5  1  0.120387  0.367102  0.616748  1
  Fe  Fe6  1  0.632898  0.120387  0.383252  1
  Fe  Fe7  1  0.367102  0.879613  0.383252  1
  Fe  Fe8  1  0.620271  0.869946  0.881995  1
  Fe  Fe9  1  0.379729  0.130054  0.881995  1
  B  B10  1  0.330328  0.807080  0.888805  1
  B  B11  1  0.669672  0.192920  0.888805  1
  B  B12  1  0.305902  0.167122  0.387728  1
  B  B13  1  0.694098  0.832878  0.387728  1
  B  B14  1  0.167122  0.694098  0.612272  1
  B  B15  1  0.832878  0.305902  0.612272  1
  B  B16  1  0.192920  0.330328  0.111195  1
  B  B17  1  0.807080  0.669672  0.111195  1
