# generated using pymatgen
data_Sm3Y13(LuSn4)4
_symmetry_space_group_name_H-M   'P 1'
_cell_length_a   8.04556788
_cell_length_b   8.19362245
_cell_length_c   15.50786000
_cell_angle_alpha   90.00947515
_cell_angle_beta   90.20174993
_cell_angle_gamma   89.89657973
_symmetry_Int_Tables_number   1
_chemical_formula_structural   Sm3Y13(LuSn4)4
_chemical_formula_sum   'Sm3 Y13 Lu4 Sn16'
_cell_volume   1022.30649034
_cell_formula_units_Z   1
loop_
 _symmetry_equiv_pos_site_id
 _symmetry_equiv_pos_as_xyz
  1  'x, y, z'
loop_
 _atom_site_type_symbol
 _atom_site_label
 _atom_site_symmetry_multiplicity
 _atom_site_fract_x
 _atom_site_fract_y
 _atom_site_fract_z
 _atom_site_occupancy
  Sm  Sm0  1  0.982807  0.821138  0.403354  1
  Sm  Sm1  1  0.516506  0.321427  0.595842  1
  Sm  Sm2  1  0.017433  0.178725  0.904390  1
  Y  Y3  1  0.366027  0.836819  0.877656  1
  Y  Y4  1  0.864327  0.663570  0.622748  1
  Y  Y5  1  0.635539  0.162839  0.376451  1
  Y  Y6  1  0.133921  0.337218  0.122209  1
  Y  Y7  1  0.633538  0.162761  0.122647  1
  Y  Y8  1  0.134747  0.337136  0.376824  1
  Y  Y9  1  0.365813  0.837145  0.623160  1
  Y  Y10  1  0.867694  0.662576  0.877664  1
  Y  Y11  1  0.521724  0.321956  0.902062  1
  Y  Y12  1  0.020138  0.179268  0.597667  1
  Y  Y13  1  0.480776  0.678953  0.402691  1
  Y  Y14  1  0.979253  0.820120  0.097993  1
  Y  Y15  1  0.479548  0.678156  0.096591  1
  Lu  Lu16  1  0.197793  0.503082  0.750453  1
  Lu  Lu17  1  0.697543  0.997123  0.750341  1
  Lu  Lu18  1  0.802359  0.497229  0.249360  1
  Lu  Lu19  1  0.302645  0.002764  0.249518  1
  Sn  Sn20  1  0.294892  0.034002  0.043783  1
  Sn  Sn21  1  0.796000  0.463086  0.456693  1
  Sn  Sn22  1  0.704486  0.964590  0.542781  1
  Sn  Sn23  1  0.208053  0.536574  0.957841  1
  Sn  Sn24  1  0.703433  0.960265  0.958808  1
  Sn  Sn25  1  0.202129  0.540330  0.541176  1
  Sn  Sn26  1  0.297838  0.039392  0.458212  1
  Sn  Sn27  1  0.793320  0.463116  0.042374  1
  Sn  Sn28  1  0.562538  0.618837  0.750488  1
  Sn  Sn29  1  0.062195  0.881031  0.750102  1
  Sn  Sn30  1  0.437799  0.381691  0.249787  1
  Sn  Sn31  1  0.938077  0.118790  0.249573  1
  Sn  Sn32  1  0.328471  0.148623  0.750703  1
  Sn  Sn33  1  0.828857  0.351340  0.749350  1
  Sn  Sn34  1  0.669490  0.849855  0.249506  1
  Sn  Sn35  1  0.172288  0.648473  0.249203  1
