# generated using pymatgen
data_FeIr8(PdO8)3
_symmetry_space_group_name_H-M   'P 1'
_cell_length_a   4.57626197
_cell_length_b   9.15863594
_cell_length_c   9.52697500
_cell_angle_alpha   90.00000000
_cell_angle_beta   90.00000000
_cell_angle_gamma   90.13059235
_symmetry_Int_Tables_number   1
_chemical_formula_structural   FeIr8(PdO8)3
_chemical_formula_sum   'Fe1 Ir8 Pd3 O24'
_cell_volume   399.29656287
_cell_formula_units_Z   1
loop_
 _symmetry_equiv_pos_site_id
 _symmetry_equiv_pos_as_xyz
  1  'x, y, z'
loop_
 _atom_site_type_symbol
 _atom_site_label
 _atom_site_symmetry_multiplicity
 _atom_site_fract_x
 _atom_site_fract_y
 _atom_site_fract_z
 _atom_site_occupancy
  Fe  Fe0  1  0.500000  0.250000  0.500000  1
  Ir  Ir1  1  0.999898  0.000144  0.333797  1
  Ir  Ir2  1  0.000102  0.499856  0.333797  1
  Ir  Ir3  1  0.500000  0.250000  0.831014  1
  Ir  Ir4  1  0.500000  0.750000  0.832846  1
  Ir  Ir5  1  0.500000  0.250000  0.168986  1
  Ir  Ir6  1  0.500000  0.750000  0.167154  1
  Ir  Ir7  1  0.999898  0.000144  0.666203  1
  Ir  Ir8  1  0.000102  0.499856  0.666203  1
  Pd  Pd9  1  0.000088  0.499434  0.000000  1
  Pd  Pd10  1  0.500000  0.750000  0.500000  1
  Pd  Pd11  1  0.999912  0.000566  0.000000  1
  O  O12  1  0.313190  0.157297  0.000000  1
  O  O13  1  0.313506  0.656989  0.000000  1
  O  O14  1  0.189951  0.404441  0.500000  1
  O  O15  1  0.185840  0.907283  0.500000  1
  O  O16  1  0.810049  0.095559  0.500000  1
  O  O17  1  0.814160  0.592717  0.500000  1
  O  O18  1  0.686810  0.342703  0.000000  1
  O  O19  1  0.686494  0.843011  0.000000  1
  O  O20  1  0.304619  0.152150  0.333499  1
  O  O21  1  0.303196  0.651238  0.330426  1
  O  O22  1  0.197738  0.400131  0.827542  1
  O  O23  1  0.198919  0.901475  0.828536  1
  O  O24  1  0.802262  0.099869  0.827542  1
  O  O25  1  0.801081  0.598525  0.828536  1
  O  O26  1  0.802262  0.099869  0.172458  1
  O  O27  1  0.801081  0.598525  0.171464  1
  O  O28  1  0.197738  0.400131  0.172458  1
  O  O29  1  0.198919  0.901475  0.171464  1
  O  O30  1  0.695381  0.347850  0.333499  1
  O  O31  1  0.696804  0.848762  0.330426  1
  O  O32  1  0.304619  0.152150  0.666501  1
  O  O33  1  0.303196  0.651238  0.669574  1
  O  O34  1  0.695381  0.347850  0.666501  1
  O  O35  1  0.696804  0.848762  0.669574  1
