# generated using pymatgen
data_BrNO2
_symmetry_space_group_name_H-M   'P 1'
_cell_length_a   5.29558932
_cell_length_b   5.29558819
_cell_length_c   8.11937985
_cell_angle_alpha   76.61378412
_cell_angle_beta   76.61378492
_cell_angle_gamma   69.18448370
_symmetry_Int_Tables_number   1
_chemical_formula_structural   BrNO2
_chemical_formula_sum   'Br2 N2 O4'
_cell_volume   204.24223909
_cell_formula_units_Z   2
loop_
 _symmetry_equiv_pos_site_id
 _symmetry_equiv_pos_as_xyz
  1  'x, y, z'
loop_
 _atom_site_type_symbol
 _atom_site_label
 _atom_site_symmetry_multiplicity
 _atom_site_fract_x
 _atom_site_fract_y
 _atom_site_fract_z
 _atom_site_occupancy
  Br  Br0  1  0.108506  0.891494  0.750000  1
  Br  Br1  1  0.891494  0.108506  0.250000  1
  N  N2  1  0.448961  0.551039  0.750000  1
  N  N3  1  0.551039  0.448961  0.250000  1
  O  O4  1  0.422786  0.358034  0.858358  1
  O  O5  1  0.641966  0.577214  0.641642  1
  O  O6  1  0.577214  0.641966  0.141642  1
  O  O7  1  0.358034  0.422786  0.358358  1
