# generated using pymatgen
data_BaPr2(Si3Pd10)2
_symmetry_space_group_name_H-M   'P 1'
_cell_length_a   8.82220419
_cell_length_b   8.82220369
_cell_length_c   8.82220400
_cell_angle_alpha   59.99999885
_cell_angle_beta   60.00000071
_cell_angle_gamma   59.99999861
_symmetry_Int_Tables_number   1
_chemical_formula_structural   BaPr2(Si3Pd10)2
_chemical_formula_sum   'Ba1 Pr2 Si6 Pd20'
_cell_volume   485.53023353
_cell_formula_units_Z   1
loop_
 _symmetry_equiv_pos_site_id
 _symmetry_equiv_pos_as_xyz
  1  'x, y, z'
loop_
 _atom_site_type_symbol
 _atom_site_label
 _atom_site_symmetry_multiplicity
 _atom_site_fract_x
 _atom_site_fract_y
 _atom_site_fract_z
 _atom_site_occupancy
  Ba  Ba0  1  0.750000  0.750000  0.750000  1
  Pr  Pr1  1  0.250000  0.250000  0.250000  1
  Pr  Pr2  1  0.000000  0.000000  0.000000  1
  Si  Si3  1  0.732735  0.732735  0.267265  1
  Si  Si4  1  0.267265  0.267265  0.732735  1
  Si  Si5  1  0.732735  0.267265  0.732735  1
  Si  Si6  1  0.267265  0.732735  0.267265  1
  Si  Si7  1  0.267265  0.732735  0.732735  1
  Si  Si8  1  0.732735  0.267265  0.267265  1
  Pd  Pd9  1  0.611061  0.611061  0.611061  1
  Pd  Pd10  1  0.384621  0.384621  0.384621  1
  Pd  Pd11  1  0.166816  0.611061  0.611061  1
  Pd  Pd12  1  0.611061  0.166816  0.611061  1
  Pd  Pd13  1  0.846140  0.384621  0.384621  1
  Pd  Pd14  1  0.384621  0.846140  0.384621  1
  Pd  Pd15  1  0.611061  0.611061  0.166816  1
  Pd  Pd16  1  0.384621  0.384621  0.846140  1
  Pd  Pd17  1  0.003671  0.003671  0.650252  1
  Pd  Pd18  1  0.003671  0.003671  0.342405  1
  Pd  Pd19  1  0.342405  0.650252  0.003671  1
  Pd  Pd20  1  0.650252  0.342405  0.003671  1
  Pd  Pd21  1  0.003671  0.650252  0.003671  1
  Pd  Pd22  1  0.650252  0.003671  0.342405  1
  Pd  Pd23  1  0.003671  0.342405  0.003671  1
  Pd  Pd24  1  0.342405  0.003671  0.650252  1
  Pd  Pd25  1  0.650252  0.003671  0.003671  1
  Pd  Pd26  1  0.342405  0.003671  0.003671  1
  Pd  Pd27  1  0.003671  0.650252  0.342405  1
  Pd  Pd28  1  0.003671  0.342405  0.650252  1
