# generated using pymatgen
data_Lu2Mn5Fe4P6W
_symmetry_space_group_name_H-M   'P 1'
_cell_length_a   3.64850600
_cell_length_b   10.39875000
_cell_length_c   12.08772700
_cell_angle_alpha   90.00000000
_cell_angle_beta   90.00000000
_cell_angle_gamma   90.00000000
_symmetry_Int_Tables_number   1
_chemical_formula_structural   Lu2Mn5Fe4P6W
_chemical_formula_sum   'Lu4 Mn10 Fe8 P12 W2'
_cell_volume   458.60717497
_cell_formula_units_Z   2
loop_
 _symmetry_equiv_pos_site_id
 _symmetry_equiv_pos_as_xyz
  1  'x, y, z'
loop_
 _atom_site_type_symbol
 _atom_site_label
 _atom_site_symmetry_multiplicity
 _atom_site_fract_x
 _atom_site_fract_y
 _atom_site_fract_z
 _atom_site_occupancy
  Lu  Lu0  1  0.250000  0.580576  0.709949  1
  Lu  Lu1  1  0.250000  0.919424  0.209949  1
  Lu  Lu2  1  0.750000  0.418878  0.289589  1
  Lu  Lu3  1  0.750000  0.081122  0.789589  1
  Mn  Mn4  1  0.750000  0.294775  0.011656  1
  Mn  Mn5  1  0.750000  0.205225  0.511656  1
  Mn  Mn6  1  0.250000  0.403326  0.493813  1
  Mn  Mn7  1  0.250000  0.096674  0.993813  1
  Mn  Mn8  1  0.750000  0.588420  0.508496  1
  Mn  Mn9  1  0.750000  0.911580  0.008496  1
  Mn  Mn10  1  0.250000  0.220086  0.173026  1
  Mn  Mn11  1  0.250000  0.279914  0.673026  1
  Mn  Mn12  1  0.750000  0.781572  0.823590  1
  Mn  Mn13  1  0.750000  0.718428  0.323590  1
  Fe  Fe14  1  0.250000  0.875894  0.699764  1
  Fe  Fe15  1  0.250000  0.624106  0.199764  1
  Fe  Fe16  1  0.750000  0.125621  0.301456  1
  Fe  Fe17  1  0.750000  0.374379  0.801456  1
  Fe  Fe18  1  0.250000  0.459116  0.935464  1
  Fe  Fe19  1  0.250000  0.040884  0.435464  1
  Fe  Fe20  1  0.750000  0.534877  0.065990  1
  Fe  Fe21  1  0.750000  0.965123  0.565990  1
  P  P22  1  0.250000  0.426811  0.114743  1
  P  P23  1  0.250000  0.073189  0.614743  1
  P  P24  1  0.750000  0.569792  0.885293  1
  P  P25  1  0.750000  0.930208  0.385293  1
  P  P26  1  0.250000  0.264412  0.865670  1
  P  P27  1  0.250000  0.235588  0.365670  1
  P  P28  1  0.750000  0.734307  0.133485  1
  P  P29  1  0.750000  0.765693  0.633485  1
  P  P30  1  0.250000  0.588036  0.384672  1
  P  P31  1  0.250000  0.911964  0.884672  1
  P  P32  1  0.750000  0.403492  0.616154  1
  P  P33  1  0.750000  0.096508  0.116154  1
  W  W34  1  0.250000  0.706458  0.987192  1
  W  W35  1  0.250000  0.793542  0.487192  1
