# generated using pymatgen
data_La2PdN2
_symmetry_space_group_name_H-M   'P 1'
_cell_length_a   3.73810166
_cell_length_b   3.73805876
_cell_length_c   6.97726869
_cell_angle_alpha   105.51727803
_cell_angle_beta   105.53797242
_cell_angle_gamma   90.00000621
_symmetry_Int_Tables_number   1
_chemical_formula_structural   La2PdN2
_chemical_formula_sum   'La2 Pd1 N2'
_cell_volume   90.23800884
_cell_formula_units_Z   1
loop_
 _symmetry_equiv_pos_site_id
 _symmetry_equiv_pos_as_xyz
  1  'x, y, z'
loop_
 _atom_site_type_symbol
 _atom_site_label
 _atom_site_symmetry_multiplicity
 _atom_site_fract_x
 _atom_site_fract_y
 _atom_site_fract_z
 _atom_site_occupancy
  La  La0  1  0.151066  0.151166  0.802131  1
  La  La1  1  0.848934  0.848834  0.197869  1
  Pd  Pd2  1  0.500000  0.500000  0.500000  1
  N  N3  1  0.665290  0.665100  0.830579  1
  N  N4  1  0.334710  0.334900  0.169421  1
