# generated using pymatgen
data_CaTb2MnVC6
_symmetry_space_group_name_H-M   'P 1'
_cell_length_a   8.19020028
_cell_length_b   8.19252054
_cell_length_c   5.01546600
_cell_angle_alpha   90.00000000
_cell_angle_beta   90.00000000
_cell_angle_gamma   120.24558880
_symmetry_Int_Tables_number   1
_chemical_formula_structural   CaTb2MnVC6
_chemical_formula_sum   'Ca2 Tb4 Mn2 V2 C12'
_cell_volume   290.71932371
_cell_formula_units_Z   2
loop_
 _symmetry_equiv_pos_site_id
 _symmetry_equiv_pos_as_xyz
  1  'x, y, z'
loop_
 _atom_site_type_symbol
 _atom_site_label
 _atom_site_symmetry_multiplicity
 _atom_site_fract_x
 _atom_site_fract_y
 _atom_site_fract_z
 _atom_site_occupancy
  Ca  Ca0  1  0.608814  0.679504  0.750000  1
  Ca  Ca1  1  0.926647  0.609047  0.250000  1
  Tb  Tb2  1  0.683441  0.065394  0.250000  1
  Tb  Tb3  1  0.314451  0.934617  0.750000  1
  Tb  Tb4  1  0.065550  0.384563  0.750000  1
  Tb  Tb5  1  0.382432  0.318591  0.250000  1
  Mn  Mn6  1  0.666166  0.329998  0.750000  1
  Mn  Mn7  1  0.335466  0.668473  0.250000  1
  V  V8  1  0.998899  0.998229  0.500159  1
  V  V9  1  0.998899  0.998229  0.999841  1
  C  C10  1  0.956621  0.764609  0.750000  1
  C  C11  1  0.197151  0.962379  0.250000  1
  C  C12  1  0.768780  0.813803  0.250000  1
  C  C13  1  0.234173  0.195741  0.750000  1
  C  C14  1  0.811878  0.042545  0.750000  1
  C  C15  1  0.040173  0.234014  0.250000  1
  C  C16  1  0.859760  0.573084  0.750000  1
  C  C17  1  0.287342  0.860564  0.250000  1
  C  C18  1  0.577038  0.715576  0.250000  1
  C  C19  1  0.427842  0.285693  0.750000  1
  C  C20  1  0.143175  0.427445  0.250000  1
  C  C21  1  0.715302  0.137902  0.750000  1
