# generated using pymatgen
data_Lu20Bi8Os3Rh
_symmetry_space_group_name_H-M   'P 1'
_cell_length_a   7.78874036
_cell_length_b   8.81035900
_cell_length_c   12.16904900
_cell_angle_alpha   90.00000000
_cell_angle_beta   90.07877791
_cell_angle_gamma   90.00000000
_symmetry_Int_Tables_number   1
_chemical_formula_structural   Lu20Bi8Os3Rh
_chemical_formula_sum   'Lu20 Bi8 Os3 Rh1'
_cell_volume   835.05880830
_cell_formula_units_Z   1
loop_
 _symmetry_equiv_pos_site_id
 _symmetry_equiv_pos_as_xyz
  1  'x, y, z'
loop_
 _atom_site_type_symbol
 _atom_site_label
 _atom_site_symmetry_multiplicity
 _atom_site_fract_x
 _atom_site_fract_y
 _atom_site_fract_z
 _atom_site_occupancy
  Lu  Lu0  1  0.833506  0.750000  0.787215  1
  Lu  Lu1  1  0.164908  0.250000  0.210371  1
  Lu  Lu2  1  0.336136  0.250000  0.710380  1
  Lu  Lu3  1  0.661228  0.750000  0.292523  1
  Lu  Lu4  1  0.375841  0.750000  0.691988  1
  Lu  Lu5  1  0.622765  0.250000  0.308688  1
  Lu  Lu6  1  0.876562  0.250000  0.809623  1
  Lu  Lu7  1  0.124582  0.750000  0.189610  1
  Lu  Lu8  1  0.941780  0.750000  0.502813  1
  Lu  Lu9  1  0.058911  0.250000  0.496253  1
  Lu  Lu10  1  0.443084  0.250000  0.997887  1
  Lu  Lu11  1  0.555490  0.750000  0.002590  1
  Lu  Lu12  1  0.672283  0.044687  0.564853  1
  Lu  Lu13  1  0.327178  0.954723  0.435433  1
  Lu  Lu14  1  0.173100  0.957419  0.933831  1
  Lu  Lu15  1  0.327178  0.545277  0.435433  1
  Lu  Lu16  1  0.827550  0.048014  0.065808  1
  Lu  Lu17  1  0.672283  0.455313  0.564853  1
  Lu  Lu18  1  0.827550  0.451986  0.065808  1
  Lu  Lu19  1  0.173100  0.542581  0.933831  1
  Bi  Bi20  1  0.566030  0.491324  0.828224  1
  Bi  Bi21  1  0.434947  0.509000  0.172126  1
  Bi  Bi22  1  0.065621  0.508075  0.672216  1
  Bi  Bi23  1  0.434947  0.991000  0.172126  1
  Bi  Bi24  1  0.934508  0.492211  0.326864  1
  Bi  Bi25  1  0.566030  0.008676  0.828224  1
  Bi  Bi26  1  0.934508  0.007789  0.326864  1
  Bi  Bi27  1  0.065621  0.991925  0.672216  1
  Os  Os28  1  0.578353  0.750000  0.511495  1
  Os  Os29  1  0.422360  0.250000  0.490749  1
  Os  Os30  1  0.077987  0.250000  0.990783  1
  Rh  Rh31  1  0.924070  0.750000  0.008314  1
