# generated using pymatgen
data_ZnInGaF6
_symmetry_space_group_name_H-M   'P 1'
_cell_length_a   9.98649600
_cell_length_b   6.99350654
_cell_length_c   7.40940948
_cell_angle_alpha   89.73173385
_cell_angle_beta   90.00000000
_cell_angle_gamma   90.00000000
_symmetry_Int_Tables_number   1
_chemical_formula_structural   ZnInGaF6
_chemical_formula_sum   'Zn4 In4 Ga4 F24'
_cell_volume   517.47211713
_cell_formula_units_Z   4
loop_
 _symmetry_equiv_pos_site_id
 _symmetry_equiv_pos_as_xyz
  1  'x, y, z'
loop_
 _atom_site_type_symbol
 _atom_site_label
 _atom_site_symmetry_multiplicity
 _atom_site_fract_x
 _atom_site_fract_y
 _atom_site_fract_z
 _atom_site_occupancy
  Zn  Zn0  1  0.729306  0.190881  0.249954  1
  Zn  Zn1  1  0.229306  0.309119  0.750046  1
  Zn  Zn2  1  0.270694  0.809119  0.750046  1
  Zn  Zn3  1  0.770694  0.690881  0.249954  1
  In  In4  1  0.111191  0.488673  0.249081  1
  In  In5  1  0.888809  0.511327  0.750919  1
  In  In6  1  0.611191  0.011327  0.750919  1
  In  In7  1  0.388809  0.988673  0.249081  1
  Ga  Ga8  1  0.000000  0.000000  0.500000  1
  Ga  Ga9  1  0.500000  0.500000  0.000000  1
  Ga  Ga10  1  0.000000  0.000000  0.000000  1
  Ga  Ga11  1  0.500000  0.500000  0.500000  1
  F  F12  1  0.926286  0.758061  0.432956  1
  F  F13  1  0.967648  0.925062  0.750007  1
  F  F14  1  0.827813  0.111789  0.489571  1
  F  F15  1  0.171694  0.886668  0.990081  1
  F  F16  1  0.828306  0.113332  0.009919  1
  F  F17  1  0.342365  0.076679  0.750833  1
  F  F18  1  0.467648  0.574938  0.249993  1
  F  F19  1  0.532352  0.425062  0.750007  1
  F  F20  1  0.573714  0.258061  0.432956  1
  F  F21  1  0.073714  0.241939  0.567044  1
  F  F22  1  0.328306  0.386668  0.990081  1
  F  F23  1  0.327813  0.388211  0.510429  1
  F  F24  1  0.157635  0.576679  0.750833  1
  F  F25  1  0.671694  0.613332  0.009919  1
  F  F26  1  0.425532  0.741733  0.932233  1
  F  F27  1  0.032352  0.074938  0.249993  1
  F  F28  1  0.172187  0.888211  0.510429  1
  F  F29  1  0.672187  0.611789  0.489571  1
  F  F30  1  0.842365  0.423321  0.249167  1
  F  F31  1  0.074468  0.241733  0.932233  1
  F  F32  1  0.657635  0.923321  0.249167  1
  F  F33  1  0.574468  0.258267  0.067767  1
  F  F34  1  0.925532  0.758267  0.067767  1
  F  F35  1  0.426286  0.741939  0.567044  1
