# generated using pymatgen
data_SrEu3Hf3WO14
_symmetry_space_group_name_H-M   'P 1'
_cell_length_a   7.57848091
_cell_length_b   7.55961056
_cell_length_c   7.59801471
_cell_angle_alpha   60.16433304
_cell_angle_beta   60.08501100
_cell_angle_gamma   59.91739766
_symmetry_Int_Tables_number   1
_chemical_formula_structural   SrEu3Hf3WO14
_chemical_formula_sum   'Sr1 Eu3 Hf3 W1 O14'
_cell_volume   308.18341327
_cell_formula_units_Z   1
loop_
 _symmetry_equiv_pos_site_id
 _symmetry_equiv_pos_as_xyz
  1  'x, y, z'
loop_
 _atom_site_type_symbol
 _atom_site_label
 _atom_site_symmetry_multiplicity
 _atom_site_fract_x
 _atom_site_fract_y
 _atom_site_fract_z
 _atom_site_occupancy
  Sr  Sr0  1  0.125000  0.625000  0.125000  1
  Eu  Eu1  1  0.625000  0.125000  0.125000  1
  Eu  Eu2  1  0.125000  0.125000  0.625000  1
  Eu  Eu3  1  0.125000  0.125000  0.125000  1
  Hf  Hf4  1  0.125000  0.625000  0.625000  1
  Hf  Hf5  1  0.625000  0.125000  0.625000  1
  Hf  Hf6  1  0.625000  0.625000  0.625000  1
  W  W7  1  0.625000  0.625000  0.125000  1
  O  O8  1  0.258375  0.231405  0.251843  1
  O  O9  1  0.991625  0.018595  0.998157  1
  O  O10  1  0.689879  0.693302  0.297133  1
  O  O11  1  0.295249  0.293994  0.713813  1
  O  O12  1  0.696945  0.293994  0.713813  1
  O  O13  1  0.319685  0.693302  0.297133  1
  O  O14  1  0.296264  0.701293  0.706178  1
  O  O15  1  0.692064  0.318541  0.297331  1
  O  O16  1  0.560121  0.556698  0.952867  1
  O  O17  1  0.954751  0.956006  0.536187  1
  O  O18  1  0.553055  0.956006  0.536187  1
  O  O19  1  0.930315  0.556698  0.952867  1
  O  O20  1  0.953736  0.548707  0.543822  1
  O  O21  1  0.557936  0.931459  0.952669  1
