# generated using pymatgen
data_TbY3(Er3Ru2)2
_symmetry_space_group_name_H-M   'P 1'
_cell_length_a   6.32100938
_cell_length_b   7.26646064
_cell_length_c   8.46507390
_cell_angle_alpha   96.83627390
_cell_angle_beta   112.04985150
_cell_angle_gamma   89.97338425
_symmetry_Int_Tables_number   1
_chemical_formula_structural   TbY3(Er3Ru2)2
_chemical_formula_sum   'Tb1 Y3 Er6 Ru4'
_cell_volume   357.39823731
_cell_formula_units_Z   1
loop_
 _symmetry_equiv_pos_site_id
 _symmetry_equiv_pos_as_xyz
  1  'x, y, z'
loop_
 _atom_site_type_symbol
 _atom_site_label
 _atom_site_symmetry_multiplicity
 _atom_site_fract_x
 _atom_site_fract_y
 _atom_site_fract_z
 _atom_site_occupancy
  Tb  Tb0  1  0.022013  0.083816  0.811484  1
  Y  Y1  1  0.789112  0.582628  0.811639  1
  Y  Y2  1  0.977666  0.916814  0.188262  1
  Y  Y3  1  0.210558  0.417189  0.188592  1
  Er  Er4  1  0.204382  0.685442  0.565928  1
  Er  Er5  1  0.639167  0.815105  0.434670  1
  Er  Er6  1  0.795794  0.314726  0.434429  1
  Er  Er7  1  0.360991  0.184821  0.564882  1
  Er  Er8  1  0.420763  0.749648  0.999303  1
  Er  Er9  1  0.578871  0.250368  0.000387  1
  Ru  Ru10  1  0.598889  0.926363  0.778193  1
  Ru  Ru11  1  0.818262  0.575226  0.221971  1
  Ru  Ru12  1  0.403289  0.074342  0.222268  1
  Ru  Ru13  1  0.180243  0.423511  0.777992  1
