# generated using pymatgen
data_Hf6AlAsN2
_symmetry_space_group_name_H-M   'P 1'
_cell_length_a   5.87257979
_cell_length_b   5.87257968
_cell_length_c   8.62375200
_cell_angle_alpha   90.00000000
_cell_angle_beta   90.00000000
_cell_angle_gamma   146.38020686
_symmetry_Int_Tables_number   1
_chemical_formula_structural   Hf6AlAsN2
_chemical_formula_sum   'Hf6 Al1 As1 N2'
_cell_volume   164.66919180
_cell_formula_units_Z   1
loop_
 _symmetry_equiv_pos_site_id
 _symmetry_equiv_pos_as_xyz
  1  'x, y, z'
loop_
 _atom_site_type_symbol
 _atom_site_label
 _atom_site_symmetry_multiplicity
 _atom_site_fract_x
 _atom_site_fract_y
 _atom_site_fract_z
 _atom_site_occupancy
  Hf  Hf0  1  0.631087  0.368913  0.446075  1
  Hf  Hf1  1  0.372198  0.627802  0.546734  1
  Hf  Hf2  1  0.631087  0.368913  0.053925  1
  Hf  Hf3  1  0.372198  0.627802  0.953266  1
  Hf  Hf4  1  0.942320  0.057680  0.250000  1
  Hf  Hf5  1  0.047515  0.952485  0.750000  1
  Al  Al6  1  0.746510  0.253490  0.750000  1
  As  As7  1  0.254567  0.745433  0.250000  1
  N  N8  1  0.001259  0.998741  0.495823  1
  N  N9  1  0.001259  0.998741  0.004177  1
