# generated using pymatgen
data_Sc2Re2B4IrRu2
_symmetry_space_group_name_H-M   'P 1'
_cell_length_a   3.05257200
_cell_length_b   8.55016903
_cell_length_c   10.06437001
_cell_angle_alpha   89.99783154
_cell_angle_beta   90.00000000
_cell_angle_gamma   90.00000000
_symmetry_Int_Tables_number   1
_chemical_formula_structural   Sc2Re2B4IrRu2
_chemical_formula_sum   'Sc4 Re4 B8 Ir2 Ru4'
_cell_volume   262.68012319
_cell_formula_units_Z   2
loop_
 _symmetry_equiv_pos_site_id
 _symmetry_equiv_pos_as_xyz
  1  'x, y, z'
loop_
 _atom_site_type_symbol
 _atom_site_label
 _atom_site_symmetry_multiplicity
 _atom_site_fract_x
 _atom_site_fract_y
 _atom_site_fract_z
 _atom_site_occupancy
  Sc  Sc0  1  0.500000  0.839658  0.185131  1
  Sc  Sc1  1  0.500000  0.160342  0.814869  1
  Sc  Sc2  1  0.500000  0.660341  0.685105  1
  Sc  Sc3  1  0.500000  0.339659  0.314895  1
  Re  Re4  1  0.000000  0.661293  0.954446  1
  Re  Re5  1  0.000000  0.338707  0.045554  1
  Re  Re6  1  0.000000  0.838712  0.454418  1
  Re  Re7  1  0.000000  0.161288  0.545582  1
  B  B8  1  0.500000  0.965501  0.588615  1
  B  B9  1  0.500000  0.034499  0.411385  1
  B  B10  1  0.500000  0.846579  0.898678  1
  B  B11  1  0.500000  0.153421  0.101322  1
  B  B12  1  0.500000  0.653415  0.398657  1
  B  B13  1  0.500000  0.346585  0.601343  1
  B  B14  1  0.500000  0.465546  0.911385  1
  B  B15  1  0.500000  0.534454  0.088615  1
  Ir  Ir16  1  0.000000  0.000000  0.000000  1
  Ir  Ir17  1  0.000000  0.500000  0.500000  1
  Ru  Ru18  1  0.000000  0.406843  0.759586  1
  Ru  Ru19  1  0.000000  0.593157  0.240414  1
  Ru  Ru20  1  0.000000  0.906826  0.740423  1
  Ru  Ru21  1  0.000000  0.093174  0.259577  1
