# generated using pymatgen
data_Er2Tm4Co17TcP12
_symmetry_space_group_name_H-M   'P 1'
_cell_length_a   3.67404700
_cell_length_b   10.47159700
_cell_length_c   12.14069300
_cell_angle_alpha   90.00000000
_cell_angle_beta   90.00000000
_cell_angle_gamma   90.00000000
_symmetry_Int_Tables_number   1
_chemical_formula_structural   Er2Tm4Co17TcP12
_chemical_formula_sum   'Er2 Tm4 Co17 Tc1 P12'
_cell_volume   467.09057594
_cell_formula_units_Z   1
loop_
 _symmetry_equiv_pos_site_id
 _symmetry_equiv_pos_as_xyz
  1  'x, y, z'
loop_
 _atom_site_type_symbol
 _atom_site_label
 _atom_site_symmetry_multiplicity
 _atom_site_fract_x
 _atom_site_fract_y
 _atom_site_fract_z
 _atom_site_occupancy
  Er  Er0  1  0.000000  0.500000  0.524541  1
  Er  Er1  1  0.500000  0.000000  0.477421  1
  Tm  Tm2  1  0.500000  0.817915  0.206846  1
  Tm  Tm3  1  0.500000  0.182085  0.206846  1
  Tm  Tm4  1  0.000000  0.682460  0.794980  1
  Tm  Tm5  1  0.000000  0.317540  0.794980  1
  Co  Co6  1  0.000000  0.000000  0.839367  1
  Co  Co7  1  0.500000  0.500000  0.703201  1
  Co  Co8  1  0.000000  0.000000  0.296237  1
  Co  Co9  1  0.000000  0.500000  0.987365  1
  Co  Co10  1  0.500000  0.000000  0.014787  1
  Co  Co11  1  0.500000  0.331761  0.990652  1
  Co  Co12  1  0.500000  0.668239  0.990652  1
  Co  Co13  1  0.000000  0.166492  0.005818  1
  Co  Co14  1  0.000000  0.833508  0.005818  1
  Co  Co15  1  0.500000  0.296634  0.431010  1
  Co  Co16  1  0.500000  0.703366  0.431010  1
  Co  Co17  1  0.000000  0.203032  0.568989  1
  Co  Co18  1  0.000000  0.796968  0.568989  1
  Co  Co19  1  0.500000  0.878418  0.708738  1
  Co  Co20  1  0.500000  0.121582  0.708738  1
  Co  Co21  1  0.000000  0.621588  0.292175  1
  Co  Co22  1  0.000000  0.378412  0.292175  1
  Tc  Tc23  1  0.500000  0.500000  0.157192  1
  P  P24  1  0.500000  0.500000  0.880749  1
  P  P25  1  0.000000  0.000000  0.118042  1
  P  P26  1  0.500000  0.500000  0.350219  1
  P  P27  1  0.000000  0.000000  0.654604  1
  P  P28  1  0.500000  0.311980  0.617195  1
  P  P29  1  0.500000  0.688020  0.617195  1
  P  P30  1  0.000000  0.187569  0.383644  1
  P  P31  1  0.000000  0.812431  0.383644  1
  P  P32  1  0.500000  0.849130  0.891121  1
  P  P33  1  0.500000  0.150870  0.891121  1
  P  P34  1  0.000000  0.656470  0.106968  1
  P  P35  1  0.000000  0.343530  0.106968  1
