# generated using pymatgen
data_Rb3Nb2AsS11
_symmetry_space_group_name_H-M   'P 1'
_cell_length_a   9.97128353
_cell_length_b   9.97128407
_cell_length_c   9.82367894
_cell_angle_alpha   83.75245824
_cell_angle_beta   83.75245724
_cell_angle_gamma   83.89096866
_symmetry_Int_Tables_number   1
_chemical_formula_structural   Rb3Nb2AsS11
_chemical_formula_sum   'Rb6 Nb4 As2 S22'
_cell_volume   960.73586252
_cell_formula_units_Z   2
loop_
 _symmetry_equiv_pos_site_id
 _symmetry_equiv_pos_as_xyz
  1  'x, y, z'
loop_
 _atom_site_type_symbol
 _atom_site_label
 _atom_site_symmetry_multiplicity
 _atom_site_fract_x
 _atom_site_fract_y
 _atom_site_fract_z
 _atom_site_occupancy
  Rb  Rb0  1  0.306325  0.461254  0.339084  1
  Rb  Rb1  1  0.461254  0.306325  0.839084  1
  Rb  Rb2  1  0.567436  0.700147  0.669521  1
  Rb  Rb3  1  0.700147  0.567436  0.169521  1
  Rb  Rb4  1  0.933073  0.095500  0.926605  1
  Rb  Rb5  1  0.095500  0.933073  0.426605  1
  Nb  Nb6  1  0.204203  0.661396  0.946215  1
  Nb  Nb7  1  0.661396  0.204203  0.446215  1
  Nb  Nb8  1  0.953308  0.537415  0.762107  1
  Nb  Nb9  1  0.537415  0.953308  0.262107  1
  As  As10  1  0.006207  0.324000  0.504263  1
  As  As11  1  0.324000  0.006207  0.004263  1
  S  S12  1  0.219446  0.636847  0.695228  1
  S  S13  1  0.636847  0.219446  0.195228  1
  S  S14  1  0.230731  0.832850  0.746273  1
  S  S15  1  0.832850  0.230731  0.246273  1
  S  S16  1  0.413299  0.583193  0.999181  1
  S  S17  1  0.583193  0.413299  0.499181  1
  S  S18  1  0.121146  0.336956  0.693151  1
  S  S19  1  0.336956  0.121146  0.193151  1
  S  S20  1  0.554058  0.053079  0.636807  1
  S  S21  1  0.053079  0.554058  0.136807  1
  S  S22  1  0.769923  0.434754  0.849405  1
  S  S23  1  0.434754  0.769923  0.349405  1
  S  S24  1  0.917917  0.541762  0.512128  1
  S  S25  1  0.541762  0.917917  0.012128  1
  S  S26  1  0.882417  0.781023  0.707134  1
  S  S27  1  0.781023  0.882417  0.207134  1
  S  S28  1  0.855244  0.174108  0.596230  1
  S  S29  1  0.174108  0.855244  0.096230  1
  S  S30  1  0.097357  0.439524  0.970129  1
  S  S31  1  0.439524  0.097357  0.470129  1
  S  S32  1  0.926373  0.728228  0.907890  1
  S  S33  1  0.728228  0.926373  0.407890  1
