# generated using pymatgen
data_Zr7Os
_symmetry_space_group_name_H-M   'P 1'
_cell_length_a   5.86304726
_cell_length_b   5.86065290
_cell_length_c   6.06093702
_cell_angle_alpha   99.48223486
_cell_angle_beta   58.75763280
_cell_angle_gamma   94.92305762
_symmetry_Int_Tables_number   1
_chemical_formula_structural   Zr7Os
_chemical_formula_sum   'Zr7 Os1'
_cell_volume   175.62679670
_cell_formula_units_Z   1
loop_
 _symmetry_equiv_pos_site_id
 _symmetry_equiv_pos_as_xyz
  1  'x, y, z'
loop_
 _atom_site_type_symbol
 _atom_site_label
 _atom_site_symmetry_multiplicity
 _atom_site_fract_x
 _atom_site_fract_y
 _atom_site_fract_z
 _atom_site_occupancy
  Zr  Zr0  1  0.688133  0.018309  0.087296  1
  Zr  Zr1  1  0.137018  0.781805  0.475838  1
  Zr  Zr2  1  0.685409  0.544313  0.314437  1
  Zr  Zr3  1  0.585053  0.018528  0.639507  1
  Zr  Zr4  1  0.137089  0.331891  0.738893  1
  Zr  Zr5  1  0.137201  0.237050  0.221987  1
  Zr  Zr6  1  0.589883  0.544794  0.863019  1
  Os  Os7  1  0.137077  0.783088  0.978989  1
