# generated using pymatgen
data_Na4TbSbO6
_symmetry_space_group_name_H-M   'P 1'
_cell_length_a   5.77562442
_cell_length_b   5.77562503
_cell_length_c   5.88582551
_cell_angle_alpha   99.69830869
_cell_angle_beta   99.69831522
_cell_angle_gamma   119.89262350
_symmetry_Int_Tables_number   1
_chemical_formula_structural   Na4TbSbO6
_chemical_formula_sum   'Na4 Tb1 Sb1 O6'
_cell_volume   160.29884612
_cell_formula_units_Z   1
loop_
 _symmetry_equiv_pos_site_id
 _symmetry_equiv_pos_as_xyz
  1  'x, y, z'
loop_
 _atom_site_type_symbol
 _atom_site_label
 _atom_site_symmetry_multiplicity
 _atom_site_fract_x
 _atom_site_fract_y
 _atom_site_fract_z
 _atom_site_occupancy
  Na  Na0  1  0.499284  0.500717  0.000000  1
  Na  Na1  1  0.011516  0.988482  0.499999  1
  Na  Na2  1  0.656502  0.343496  0.499999  1
  Na  Na3  1  0.335438  0.664560  0.499999  1
  Tb  Tb4  1  0.832985  0.167016  0.000000  1
  Sb  Sb5  1  0.167149  0.832852  0.000000  1
  O  O6  1  0.219368  0.188150  0.214313  1
  O  O7  1  0.539586  0.924322  0.214035  1
  O  O8  1  0.954671  0.604032  0.206787  1
  O  O9  1  0.395969  0.045329  0.793213  1
  O  O10  1  0.075677  0.460412  0.785965  1
  O  O11  1  0.811848  0.780631  0.785687  1
