# generated using pymatgen
data_Gd16Er3ThSn16
_symmetry_space_group_name_H-M   'P 1'
_cell_length_a   8.06081040
_cell_length_b   8.18267722
_cell_length_c   15.48429200
_cell_angle_alpha   90.03314786
_cell_angle_beta   89.67037444
_cell_angle_gamma   89.85898190
_symmetry_Int_Tables_number   1
_chemical_formula_structural   Gd16Er3ThSn16
_chemical_formula_sum   'Gd16 Er3 Th1 Sn16'
_cell_volume   1021.30839042
_cell_formula_units_Z   1
loop_
 _symmetry_equiv_pos_site_id
 _symmetry_equiv_pos_as_xyz
  1  'x, y, z'
loop_
 _atom_site_type_symbol
 _atom_site_label
 _atom_site_symmetry_multiplicity
 _atom_site_fract_x
 _atom_site_fract_y
 _atom_site_fract_z
 _atom_site_occupancy
  Gd  Gd0  1  0.365177  0.835867  0.878128  1
  Gd  Gd1  1  0.867813  0.662700  0.620552  1
  Gd  Gd2  1  0.631468  0.161979  0.378471  1
  Gd  Gd3  1  0.133947  0.337595  0.123247  1
  Gd  Gd4  1  0.634472  0.161732  0.122838  1
  Gd  Gd5  1  0.132084  0.339131  0.378177  1
  Gd  Gd6  1  0.368920  0.837814  0.620885  1
  Gd  Gd7  1  0.866119  0.661487  0.878123  1
  Gd  Gd8  1  0.520695  0.320551  0.903610  1
  Gd  Gd9  1  0.021397  0.179747  0.597159  1
  Gd  Gd10  1  0.479684  0.680880  0.403448  1
  Gd  Gd11  1  0.981145  0.819877  0.097128  1
  Gd  Gd12  1  0.482627  0.680159  0.097029  1
  Gd  Gd13  1  0.979903  0.819781  0.403220  1
  Gd  Gd14  1  0.519321  0.321085  0.595024  1
  Gd  Gd15  1  0.197292  0.501866  0.749168  1
  Er  Er16  1  0.696753  0.996145  0.749075  1
  Er  Er17  1  0.802469  0.497093  0.250873  1
  Er  Er18  1  0.302944  0.002951  0.250253  1
  Th  Th19  1  0.016305  0.180761  0.904155  1
  Sn  Sn20  1  0.294580  0.035831  0.042964  1
  Sn  Sn21  1  0.791897  0.464367  0.456633  1
  Sn  Sn22  1  0.708328  0.966614  0.543093  1
  Sn  Sn23  1  0.206372  0.535531  0.958381  1
  Sn  Sn24  1  0.703231  0.961502  0.957972  1
  Sn  Sn25  1  0.206950  0.537416  0.541349  1
  Sn  Sn26  1  0.291834  0.036007  0.456884  1
  Sn  Sn27  1  0.795046  0.462043  0.042687  1
  Sn  Sn28  1  0.565464  0.618025  0.749270  1
  Sn  Sn29  1  0.063437  0.884087  0.750465  1
  Sn  Sn30  1  0.436869  0.384322  0.250204  1
  Sn  Sn31  1  0.936661  0.115549  0.251106  1
  Sn  Sn32  1  0.329118  0.145786  0.749983  1
  Sn  Sn33  1  0.823456  0.353016  0.748338  1
  Sn  Sn34  1  0.672728  0.851378  0.250166  1
  Sn  Sn35  1  0.173492  0.649320  0.249945  1
