# generated using pymatgen
data_CsRb(VN2)2
_symmetry_space_group_name_H-M   'P 1'
_cell_length_a   5.91516015
_cell_length_b   5.91516100
_cell_length_c   5.91516100
_cell_angle_alpha   60.00000558
_cell_angle_beta   60.00000084
_cell_angle_gamma   60.00000208
_symmetry_Int_Tables_number   1
_chemical_formula_structural   CsRb(VN2)2
_chemical_formula_sum   'Cs1 Rb1 V2 N4'
_cell_volume   146.34728738
_cell_formula_units_Z   1
loop_
 _symmetry_equiv_pos_site_id
 _symmetry_equiv_pos_as_xyz
  1  'x, y, z'
loop_
 _atom_site_type_symbol
 _atom_site_label
 _atom_site_symmetry_multiplicity
 _atom_site_fract_x
 _atom_site_fract_y
 _atom_site_fract_z
 _atom_site_occupancy
  Cs  Cs0  1  0.000000  0.000000  0.000000  1
  Rb  Rb1  1  0.250000  0.250000  0.250000  1
  V  V2  1  0.750000  0.750000  0.750000  1
  V  V3  1  0.500000  0.500000  0.500000  1
  N  N4  1  0.624874  0.624874  0.624874  1
  N  N5  1  0.125378  0.624874  0.624874  1
  N  N6  1  0.624874  0.125378  0.624874  1
  N  N7  1  0.624874  0.624874  0.125378  1
