# generated using pymatgen
data_Er6Al18Fe5(Si2Ru)3
_symmetry_space_group_name_H-M   'P 1'
_cell_length_a   8.55961570
_cell_length_b   8.56170770
_cell_length_c   9.36176623
_cell_angle_alpha   90.05859635
_cell_angle_beta   89.97495845
_cell_angle_gamma   120.33543487
_symmetry_Int_Tables_number   1
_chemical_formula_structural   Er6Al18Fe5(Si2Ru)3
_chemical_formula_sum   'Er6 Al18 Fe5 Si6 Ru3'
_cell_volume   592.14077717
_cell_formula_units_Z   1
loop_
 _symmetry_equiv_pos_site_id
 _symmetry_equiv_pos_as_xyz
  1  'x, y, z'
loop_
 _atom_site_type_symbol
 _atom_site_label
 _atom_site_symmetry_multiplicity
 _atom_site_fract_x
 _atom_site_fract_y
 _atom_site_fract_z
 _atom_site_occupancy
  Er  Er0  1  0.193084  0.387539  0.248483  1
  Er  Er1  1  0.806916  0.612461  0.751517  1
  Er  Er2  1  0.607371  0.807113  0.249341  1
  Er  Er3  1  0.392629  0.192887  0.750659  1
  Er  Er4  1  0.197327  0.807301  0.249210  1
  Er  Er5  1  0.802673  0.192699  0.750790  1
  Al  Al6  1  0.158442  0.325029  0.577317  1
  Al  Al7  1  0.841558  0.674971  0.422683  1
  Al  Al8  1  0.677012  0.838179  0.576616  1
  Al  Al9  1  0.841645  0.674740  0.076646  1
  Al  Al10  1  0.322988  0.161821  0.423384  1
  Al  Al11  1  0.158355  0.325260  0.923354  1
  Al  Al12  1  0.158242  0.832597  0.575579  1
  Al  Al13  1  0.325337  0.159396  0.075267  1
  Al  Al14  1  0.841758  0.167403  0.424421  1
  Al  Al15  1  0.674663  0.840604  0.924733  1
  Al  Al16  1  0.837507  0.164881  0.074456  1
  Al  Al17  1  0.162493  0.835119  0.925544  1
  Al  Al18  1  0.877706  0.436018  0.249623  1
  Al  Al19  1  0.122294  0.563982  0.750377  1
  Al  Al20  1  0.561325  0.432689  0.249666  1
  Al  Al21  1  0.438675  0.567311  0.750334  1
  Al  Al22  1  0.999426  0.998678  0.249642  1
  Al  Al23  1  0.000574  0.001322  0.750358  1
  Fe  Fe24  1  0.500000  0.000000  0.000000  1
  Fe  Fe25  1  0.000000  0.500000  0.000000  1
  Fe  Fe26  1  0.000000  0.500000  0.500000  1
  Fe  Fe27  1  0.000000  0.000000  0.000000  1
  Fe  Fe28  1  0.000000  0.000000  0.500000  1
  Si  Si29  1  0.327414  0.666378  0.034079  1
  Si  Si30  1  0.672586  0.333622  0.965921  1
  Si  Si31  1  0.676746  0.340487  0.535732  1
  Si  Si32  1  0.323254  0.659513  0.464268  1
  Si  Si33  1  0.561643  0.123649  0.243897  1
  Si  Si34  1  0.438357  0.876351  0.756103  1
  Ru  Ru35  1  0.500000  0.000000  0.500000  1
  Ru  Ru36  1  0.500000  0.500000  0.000000  1
  Ru  Ru37  1  0.500000  0.500000  0.500000  1
