# generated using pymatgen
data_Er12OsRh3
_symmetry_space_group_name_H-M   'P 1'
_cell_length_a   6.29233045
_cell_length_b   7.22177298
_cell_length_c   9.13913900
_cell_angle_alpha   90.00000000
_cell_angle_beta   90.00000000
_cell_angle_gamma   90.10268640
_symmetry_Int_Tables_number   1
_chemical_formula_structural   Er12OsRh3
_chemical_formula_sum   'Er12 Os1 Rh3'
_cell_volume   415.29809584
_cell_formula_units_Z   1
loop_
 _symmetry_equiv_pos_site_id
 _symmetry_equiv_pos_as_xyz
  1  'x, y, z'
loop_
 _atom_site_type_symbol
 _atom_site_label
 _atom_site_symmetry_multiplicity
 _atom_site_fract_x
 _atom_site_fract_y
 _atom_site_fract_z
 _atom_site_occupancy
  Er  Er0  1  0.332846  0.677442  0.059281  1
  Er  Er1  1  0.170285  0.178079  0.437191  1
  Er  Er2  1  0.670999  0.323688  0.564034  1
  Er  Er3  1  0.826218  0.820180  0.935735  1
  Er  Er4  1  0.670999  0.323688  0.935966  1
  Er  Er5  1  0.826218  0.820180  0.564265  1
  Er  Er6  1  0.332846  0.677442  0.440719  1
  Er  Er7  1  0.170285  0.178079  0.062809  1
  Er  Er8  1  0.871354  0.535700  0.250000  1
  Er  Er9  1  0.630179  0.035255  0.250000  1
  Er  Er10  1  0.128673  0.465786  0.750000  1
  Er  Er11  1  0.371485  0.964203  0.750000  1
  Os  Os12  1  0.541546  0.616520  0.750000  1
  Rh  Rh13  1  0.045220  0.883997  0.250000  1
  Rh  Rh14  1  0.454719  0.382976  0.250000  1
  Rh  Rh15  1  0.956130  0.116783  0.750000  1
