# generated using pymatgen
data_Dy9Tm6Sc5Bi12
_symmetry_space_group_name_H-M   'P 1'
_cell_length_a   8.07922714
_cell_length_b   9.34931950
_cell_length_c   11.92536065
_cell_angle_alpha   89.95932866
_cell_angle_beta   90.06048662
_cell_angle_gamma   89.98786165
_symmetry_Int_Tables_number   1
_chemical_formula_structural   Dy9Tm6Sc5Bi12
_chemical_formula_sum   'Dy9 Tm6 Sc5 Bi12'
_cell_volume   900.78465716
_cell_formula_units_Z   1
loop_
 _symmetry_equiv_pos_site_id
 _symmetry_equiv_pos_as_xyz
  1  'x, y, z'
loop_
 _atom_site_type_symbol
 _atom_site_label
 _atom_site_symmetry_multiplicity
 _atom_site_fract_x
 _atom_site_fract_y
 _atom_site_fract_z
 _atom_site_occupancy
  Dy  Dy0  1  0.352835  0.247485  0.282721  1
  Dy  Dy1  1  0.643722  0.749241  0.716169  1
  Dy  Dy2  1  0.145686  0.748440  0.784298  1
  Dy  Dy3  1  0.854888  0.248944  0.215263  1
  Dy  Dy4  1  0.183999  0.249364  0.780750  1
  Dy  Dy5  1  0.815007  0.749087  0.219501  1
  Dy  Dy6  1  0.315541  0.750519  0.280621  1
  Dy  Dy7  1  0.683913  0.249312  0.720431  1
  Dy  Dy8  1  0.805897  0.936131  0.941194  1
  Tm  Tm9  1  0.304300  0.933720  0.558637  1
  Tm  Tm10  1  0.806523  0.566619  0.942056  1
  Tm  Tm11  1  0.694970  0.066107  0.441190  1
  Tm  Tm12  1  0.195395  0.435186  0.058723  1
  Tm  Tm13  1  0.695369  0.433608  0.441204  1
  Tm  Tm14  1  0.304754  0.566464  0.558840  1
  Sc  Sc15  1  0.023805  0.249558  0.511810  1
  Sc  Sc16  1  0.976723  0.749649  0.486694  1
  Sc  Sc17  1  0.476086  0.749861  0.012569  1
  Sc  Sc18  1  0.521624  0.247933  0.988721  1
  Sc  Sc19  1  0.195435  0.069491  0.057369  1
  Bi  Bi20  1  0.401576  0.250304  0.542232  1
  Bi  Bi21  1  0.598857  0.749836  0.457275  1
  Bi  Bi22  1  0.101943  0.756961  0.044156  1
  Bi  Bi23  1  0.905693  0.250590  0.958844  1
  Bi  Bi24  1  0.065925  0.004057  0.330556  1
  Bi  Bi25  1  0.934317  0.995409  0.667620  1
  Bi  Bi26  1  0.432020  0.995530  0.833123  1
  Bi  Bi27  1  0.934043  0.503529  0.667870  1
  Bi  Bi28  1  0.563381  0.003853  0.167412  1
  Bi  Bi29  1  0.066027  0.495423  0.331316  1
  Bi  Bi30  1  0.565342  0.494710  0.168183  1
  Bi  Bi31  1  0.434403  0.503080  0.832651  1
