# generated using pymatgen
data_Ho2Tm2ScOs7
_symmetry_space_group_name_H-M   'P 1'
_cell_length_a   5.37787502
_cell_length_b   5.37798491
_cell_length_c   8.85612300
_cell_angle_alpha   90.00000433
_cell_angle_beta   89.99851549
_cell_angle_gamma   59.99932780
_symmetry_Int_Tables_number   1
_chemical_formula_structural   Ho2Tm2ScOs7
_chemical_formula_sum   'Ho2 Tm2 Sc1 Os7'
_cell_volume   221.82046645
_cell_formula_units_Z   1
loop_
 _symmetry_equiv_pos_site_id
 _symmetry_equiv_pos_as_xyz
  1  'x, y, z'
loop_
 _atom_site_type_symbol
 _atom_site_label
 _atom_site_symmetry_multiplicity
 _atom_site_fract_x
 _atom_site_fract_y
 _atom_site_fract_z
 _atom_site_occupancy
  Ho  Ho0  1  0.333348  0.333325  0.577977  1
  Ho  Ho1  1  0.666652  0.666675  0.422023  1
  Tm  Tm2  1  0.666661  0.666670  0.059284  1
  Tm  Tm3  1  0.333339  0.333330  0.940716  1
  Sc  Sc4  1  0.000000  0.000000  0.500000  1
  Os  Os5  1  0.000000  0.000000  0.000000  1
  Os  Os6  1  0.827436  0.345148  0.756251  1
  Os  Os7  1  0.345115  0.827442  0.756258  1
  Os  Os8  1  0.827436  0.827416  0.756251  1
  Os  Os9  1  0.172564  0.654852  0.243749  1
  Os  Os10  1  0.654885  0.172558  0.243742  1
  Os  Os11  1  0.172564  0.172584  0.243749  1
