# generated using pymatgen
data_HoRe2NiC
_symmetry_space_group_name_H-M   'P 1'
_cell_length_a   5.62416002
_cell_length_b   5.62415826
_cell_length_c   7.57678100
_cell_angle_alpha   90.00000000
_cell_angle_beta   90.00000000
_cell_angle_gamma   140.44807650
_symmetry_Int_Tables_number   1
_chemical_formula_structural   HoRe2NiC
_chemical_formula_sum   'Ho2 Re4 Ni2 C2'
_cell_volume   152.61157113
_cell_formula_units_Z   2
loop_
 _symmetry_equiv_pos_site_id
 _symmetry_equiv_pos_as_xyz
  1  'x, y, z'
loop_
 _atom_site_type_symbol
 _atom_site_label
 _atom_site_symmetry_multiplicity
 _atom_site_fract_x
 _atom_site_fract_y
 _atom_site_fract_z
 _atom_site_occupancy
  Ho  Ho0  1  0.532130  0.467870  0.250000  1
  Ho  Ho1  1  0.467870  0.532130  0.750000  1
  Re  Re2  1  0.822033  0.177967  0.065782  1
  Re  Re3  1  0.177967  0.822033  0.934218  1
  Re  Re4  1  0.177967  0.822033  0.565782  1
  Re  Re5  1  0.822033  0.177967  0.434218  1
  Ni  Ni6  1  0.252560  0.747440  0.250000  1
  Ni  Ni7  1  0.747440  0.252560  0.750000  1
  C  C8  1  0.000000  0.000000  0.000000  1
  C  C9  1  0.000000  0.000000  0.500000  1
