# generated using pymatgen
data_Y5Ho(RhI3)2
_symmetry_space_group_name_H-M   'P 1'
_cell_length_a   4.23389100
_cell_length_b   8.87047908
_cell_length_c   12.38245548
_cell_angle_alpha   86.32619362
_cell_angle_beta   90.00000000
_cell_angle_gamma   90.00000000
_symmetry_Int_Tables_number   1
_chemical_formula_structural   Y5Ho(RhI3)2
_chemical_formula_sum   'Y5 Ho1 Rh2 I6'
_cell_volume   464.08778484
_cell_formula_units_Z   1
loop_
 _symmetry_equiv_pos_site_id
 _symmetry_equiv_pos_as_xyz
  1  'x, y, z'
loop_
 _atom_site_type_symbol
 _atom_site_label
 _atom_site_symmetry_multiplicity
 _atom_site_fract_x
 _atom_site_fract_y
 _atom_site_fract_z
 _atom_site_occupancy
  Y  Y0  1  0.250000  0.862832  0.871708  1
  Y  Y1  1  0.750000  0.098801  0.682976  1
  Y  Y2  1  0.250000  0.901448  0.316851  1
  Y  Y3  1  0.250000  0.258969  0.897033  1
  Y  Y4  1  0.750000  0.740931  0.103161  1
  Ho  Ho5  1  0.750000  0.135597  0.127431  1
  Rh  Rh6  1  0.750000  0.054933  0.908144  1
  Rh  Rh7  1  0.250000  0.946403  0.092661  1
  I  I8  1  0.250000  0.353838  0.636826  1
  I  I9  1  0.750000  0.646138  0.363179  1
  I  I10  1  0.750000  0.141397  0.392415  1
  I  I11  1  0.250000  0.858625  0.607605  1
  I  I12  1  0.250000  0.424410  0.132839  1
  I  I13  1  0.750000  0.575679  0.867170  1
