# generated using pymatgen
data_Tm4LuIn4PtAu
_symmetry_space_group_name_H-M   'P 1'
_cell_length_a   3.60890800
_cell_length_b   8.09566339
_cell_length_c   18.16091833
_cell_angle_alpha   90.11718944
_cell_angle_beta   90.00000000
_cell_angle_gamma   90.00000000
_symmetry_Int_Tables_number   1
_chemical_formula_structural   Tm4LuIn4PtAu
_chemical_formula_sum   'Tm8 Lu2 In8 Pt2 Au2'
_cell_volume   530.59744013
_cell_formula_units_Z   2
loop_
 _symmetry_equiv_pos_site_id
 _symmetry_equiv_pos_as_xyz
  1  'x, y, z'
loop_
 _atom_site_type_symbol
 _atom_site_label
 _atom_site_symmetry_multiplicity
 _atom_site_fract_x
 _atom_site_fract_y
 _atom_site_fract_z
 _atom_site_occupancy
  Tm  Tm0  1  0.000000  0.119774  0.419075  1
  Tm  Tm1  1  0.000000  0.880226  0.580925  1
  Tm  Tm2  1  0.000000  0.383122  0.916306  1
  Tm  Tm3  1  0.000000  0.616878  0.083694  1
  Tm  Tm4  1  0.000000  0.255827  0.217360  1
  Tm  Tm5  1  0.000000  0.744173  0.782640  1
  Tm  Tm6  1  0.000000  0.000000  0.000000  1
  Tm  Tm7  1  0.000000  0.500000  0.500000  1
  Lu  Lu8  1  0.000000  0.265855  0.722375  1
  Lu  Lu9  1  0.000000  0.734145  0.277625  1
  In  In10  1  0.500000  0.423940  0.352748  1
  In  In11  1  0.500000  0.576060  0.647252  1
  In  In12  1  0.500000  0.075907  0.853315  1
  In  In13  1  0.500000  0.924093  0.146685  1
  In  In14  1  0.500000  0.292242  0.064980  1
  In  In15  1  0.500000  0.707758  0.935020  1
  In  In16  1  0.500000  0.210359  0.567324  1
  In  In17  1  0.500000  0.789641  0.432676  1
  Pt  Pt18  1  0.500000  0.469441  0.803702  1
  Pt  Pt19  1  0.500000  0.530559  0.196298  1
  Au  Au20  1  0.500000  0.028834  0.301881  1
  Au  Au21  1  0.500000  0.971166  0.698119  1
