# generated using pymatgen
data_K8EuYEr2F20
_symmetry_space_group_name_H-M   'P 1'
_cell_length_a   6.69743414
_cell_length_b   7.33941300
_cell_length_c   10.97099200
_cell_angle_alpha   90.00000000
_cell_angle_beta   90.01162609
_cell_angle_gamma   90.00000000
_symmetry_Int_Tables_number   1
_chemical_formula_structural   K8EuYEr2F20
_chemical_formula_sum   'K8 Eu1 Y1 Er2 F20'
_cell_volume   539.28168080
_cell_formula_units_Z   1
loop_
 _symmetry_equiv_pos_site_id
 _symmetry_equiv_pos_as_xyz
  1  'x, y, z'
loop_
 _atom_site_type_symbol
 _atom_site_label
 _atom_site_symmetry_multiplicity
 _atom_site_fract_x
 _atom_site_fract_y
 _atom_site_fract_z
 _atom_site_occupancy
  K  K0  1  0.534440  0.995438  0.830158  1
  K  K1  1  0.465972  0.498804  0.169643  1
  K  K2  1  0.966677  0.995184  0.328574  1
  K  K3  1  0.031689  0.499132  0.671930  1
  K  K4  1  0.534440  0.504562  0.830158  1
  K  K5  1  0.465972  0.001196  0.169643  1
  K  K6  1  0.966677  0.504816  0.328574  1
  K  K7  1  0.031689  0.000868  0.671930  1
  Eu  Eu8  1  0.561892  0.250000  0.502327  1
  Y  Y9  1  0.435670  0.750000  0.497599  1
  Er  Er10  1  0.937366  0.250000  0.002375  1
  Er  Er11  1  0.062273  0.750000  0.997672  1
  F  F12  1  0.876288  0.750000  0.834414  1
  F  F13  1  0.122976  0.250000  0.165744  1
  F  F14  1  0.626551  0.750000  0.332614  1
  F  F15  1  0.374684  0.250000  0.671795  1
  F  F16  1  0.842826  0.250000  0.810759  1
  F  F17  1  0.156596  0.750000  0.188845  1
  F  F18  1  0.662457  0.250000  0.306777  1
  F  F19  1  0.339378  0.750000  0.691806  1
  F  F20  1  0.649301  0.959730  0.576859  1
  F  F21  1  0.350416  0.470289  0.421545  1
  F  F22  1  0.853582  0.964538  0.072615  1
  F  F23  1  0.145449  0.465086  0.927389  1
  F  F24  1  0.387753  0.750000  0.985721  1
  F  F25  1  0.611995  0.250000  0.014378  1
  F  F26  1  0.105073  0.750000  0.487496  1
  F  F27  1  0.901169  0.250000  0.512252  1
  F  F28  1  0.145449  0.034914  0.927389  1
  F  F29  1  0.853582  0.535462  0.072615  1
  F  F30  1  0.350416  0.029711  0.421545  1
  F  F31  1  0.649301  0.540270  0.576859  1
