# generated using pymatgen
data_Gd3Zn4CdPt4
_symmetry_space_group_name_H-M   'P 1'
_cell_length_a   4.29022000
_cell_length_b   6.97532205
_cell_length_c   8.21578100
_cell_angle_alpha   88.33555437
_cell_angle_beta   90.00000000
_cell_angle_gamma   90.00000000
_symmetry_Int_Tables_number   1
_chemical_formula_structural   Gd3Zn4CdPt4
_chemical_formula_sum   'Gd3 Zn4 Cd1 Pt4'
_cell_volume   245.75898432
_cell_formula_units_Z   1
loop_
 _symmetry_equiv_pos_site_id
 _symmetry_equiv_pos_as_xyz
  1  'x, y, z'
loop_
 _atom_site_type_symbol
 _atom_site_label
 _atom_site_symmetry_multiplicity
 _atom_site_fract_x
 _atom_site_fract_y
 _atom_site_fract_z
 _atom_site_occupancy
  Gd  Gd0  1  0.250000  0.536259  0.190467  1
  Gd  Gd1  1  0.750000  0.967263  0.668241  1
  Gd  Gd2  1  0.750000  0.460708  0.819082  1
  Zn  Zn3  1  0.250000  0.640951  0.560492  1
  Zn  Zn4  1  0.250000  0.136943  0.944262  1
  Zn  Zn5  1  0.750000  0.356752  0.438022  1
  Zn  Zn6  1  0.750000  0.867034  0.062238  1
  Cd  Cd7  1  0.250000  0.035256  0.319304  1
  Pt  Pt8  1  0.250000  0.260921  0.624885  1
  Pt  Pt9  1  0.250000  0.759462  0.872725  1
  Pt  Pt10  1  0.750000  0.738425  0.375019  1
  Pt  Pt11  1  0.750000  0.240026  0.125263  1
