# generated using pymatgen
data_Tb2Dy10Co4TcBi
_symmetry_space_group_name_H-M   'P 1'
_cell_length_a   8.33954240
_cell_length_b   8.33952558
_cell_length_c   8.33911701
_cell_angle_alpha   111.62581363
_cell_angle_beta   110.40632702
_cell_angle_gamma   106.42852801
_symmetry_Int_Tables_number   1
_chemical_formula_structural   Tb2Dy10Co4TcBi
_chemical_formula_sum   'Tb2 Dy10 Co4 Tc1 Bi1'
_cell_volume   445.45459049
_cell_formula_units_Z   1
loop_
 _symmetry_equiv_pos_site_id
 _symmetry_equiv_pos_as_xyz
  1  'x, y, z'
loop_
 _atom_site_type_symbol
 _atom_site_label
 _atom_site_symmetry_multiplicity
 _atom_site_fract_x
 _atom_site_fract_y
 _atom_site_fract_z
 _atom_site_occupancy
  Tb  Tb0  1  0.817701  0.715658  0.533359  1
  Tb  Tb1  1  0.182299  0.284342  0.466641  1
  Dy  Dy2  1  0.182313  0.715690  0.898002  1
  Dy  Dy3  1  0.817687  0.284310  0.101998  1
  Dy  Dy4  1  0.689513  0.380577  0.691113  1
  Dy  Dy5  1  0.310487  0.619423  0.308887  1
  Dy  Dy6  1  0.689464  0.998400  0.308887  1
  Dy  Dy7  1  0.310536  0.001600  0.691113  1
  Dy  Dy8  1  0.590878  0.787117  0.803823  1
  Dy  Dy9  1  0.409122  0.212883  0.196177  1
  Dy  Dy10  1  0.983294  0.787054  0.196177  1
  Dy  Dy11  1  0.016706  0.212946  0.803823  1
  Co  Co12  1  0.621373  0.000012  0.621385  1
  Co  Co13  1  0.378627  0.999988  0.378615  1
  Co  Co14  1  0.110629  0.610629  0.500000  1
  Co  Co15  1  0.889371  0.389371  0.500000  1
  Tc  Tc16  1  0.000000  0.000000  0.000000  1
  Bi  Bi17  1  0.500000  0.500000  0.000000  1
