# generated using pymatgen
data_Er15Tm(HfIr3)4
_symmetry_space_group_name_H-M   'P 1'
_cell_length_a   10.75332703
_cell_length_b   10.75275203
_cell_length_c   6.21277601
_cell_angle_alpha   90.00505244
_cell_angle_beta   90.00542858
_cell_angle_gamma   90.00643651
_symmetry_Int_Tables_number   1
_chemical_formula_structural   Er15Tm(HfIr3)4
_chemical_formula_sum   'Er15 Tm1 Hf4 Ir12'
_cell_volume   718.36997836
_cell_formula_units_Z   1
loop_
 _symmetry_equiv_pos_site_id
 _symmetry_equiv_pos_as_xyz
  1  'x, y, z'
loop_
 _atom_site_type_symbol
 _atom_site_label
 _atom_site_symmetry_multiplicity
 _atom_site_fract_x
 _atom_site_fract_y
 _atom_site_fract_z
 _atom_site_occupancy
  Er  Er0  1  0.289611  0.086316  0.373966  1
  Er  Er1  1  0.289611  0.913819  0.874058  1
  Er  Er2  1  0.710338  0.086269  0.874106  1
  Er  Er3  1  0.710383  0.913927  0.374082  1
  Er  Er4  1  0.586117  0.789694  0.873966  1
  Er  Er5  1  0.586213  0.210337  0.374137  1
  Er  Er6  1  0.413779  0.789665  0.374082  1
  Er  Er7  1  0.413790  0.210360  0.874077  1
  Er  Er8  1  0.210252  0.413749  0.625992  1
  Er  Er9  1  0.210321  0.586000  0.125889  1
  Er  Er10  1  0.789803  0.413729  0.125887  1
  Er  Er11  1  0.789613  0.586056  0.625982  1
  Er  Er12  1  0.913900  0.710295  0.125977  1
  Er  Er13  1  0.913916  0.289635  0.625840  1
  Er  Er14  1  0.086206  0.710339  0.625918  1
  Tm  Tm15  1  0.086048  0.289796  0.125771  1
  Hf  Hf16  1  0.000006  0.000009  0.500002  1
  Hf  Hf17  1  0.000053  0.000142  0.000077  1
  Hf  Hf18  1  0.499992  0.499999  0.999981  1
  Hf  Hf19  1  0.500006  0.499987  0.500021  1
  Ir  Ir20  1  0.855467  0.144781  0.249914  1
  Ir  Ir21  1  0.855315  0.855301  0.749972  1
  Ir  Ir22  1  0.144615  0.144815  0.750282  1
  Ir  Ir23  1  0.144670  0.855311  0.250004  1
  Ir  Ir24  1  0.644683  0.355330  0.749989  1
  Ir  Ir25  1  0.644690  0.644684  0.250036  1
  Ir  Ir26  1  0.355150  0.355292  0.249949  1
  Ir  Ir27  1  0.355297  0.644657  0.750015  1
  Ir  Ir28  1  0.499984  0.999995  0.122619  1
  Ir  Ir29  1  0.500000  0.999995  0.622597  1
  Ir  Ir30  1  0.000090  0.499853  0.877560  1
  Ir  Ir31  1  0.000081  0.499862  0.377252  1
