# generated using pymatgen
data_Y3TlIn2PdPt2
_symmetry_space_group_name_H-M   'P 1'
_cell_length_a   7.84606600
_cell_length_b   7.81634427
_cell_length_c   3.77571200
_cell_angle_alpha   90.00000000
_cell_angle_beta   90.00000000
_cell_angle_gamma   120.12586595
_symmetry_Int_Tables_number   1
_chemical_formula_structural   Y3TlIn2PdPt2
_chemical_formula_sum   'Y3 Tl1 In2 Pd1 Pt2'
_cell_volume   200.27784540
_cell_formula_units_Z   1
loop_
 _symmetry_equiv_pos_site_id
 _symmetry_equiv_pos_as_xyz
  1  'x, y, z'
loop_
 _atom_site_type_symbol
 _atom_site_label
 _atom_site_symmetry_multiplicity
 _atom_site_fract_x
 _atom_site_fract_y
 _atom_site_fract_z
 _atom_site_occupancy
  Y  Y0  1  0.409356  0.000000  0.500000  1
  Y  Y1  1  0.000436  0.409261  0.500000  1
  Y  Y2  1  0.591175  0.590739  0.500000  1
  Tl  Tl3  1  0.737702  0.000000  0.000000  1
  In  In4  1  0.262158  0.261164  0.000000  1
  In  In5  1  0.000994  0.738836  0.000000  1
  Pd  Pd6  1  0.008283  0.000000  0.500000  1
  Pt  Pt7  1  0.665274  0.340653  0.000000  1
  Pt  Pt8  1  0.324621  0.659347  0.000000  1
