# generated using pymatgen
data_ErNi3BIr
_symmetry_space_group_name_H-M   'P 1'
_cell_length_a   5.13436379
_cell_length_b   5.13436410
_cell_length_c   7.05634100
_cell_angle_alpha   90.00000000
_cell_angle_beta   90.00000000
_cell_angle_gamma   122.37184562
_symmetry_Int_Tables_number   1
_chemical_formula_structural   ErNi3BIr
_chemical_formula_sum   'Er2 Ni6 B2 Ir2'
_cell_volume   157.10838771
_cell_formula_units_Z   2
loop_
 _symmetry_equiv_pos_site_id
 _symmetry_equiv_pos_as_xyz
  1  'x, y, z'
loop_
 _atom_site_type_symbol
 _atom_site_label
 _atom_site_symmetry_multiplicity
 _atom_site_fract_x
 _atom_site_fract_y
 _atom_site_fract_z
 _atom_site_occupancy
  Er  Er0  1  0.000000  0.000000  0.500000  1
  Er  Er1  1  0.000000  0.000000  0.000000  1
  Ni  Ni2  1  0.331083  0.668917  0.000000  1
  Ni  Ni3  1  0.668917  0.331083  0.000000  1
  Ni  Ni4  1  0.500000  0.000000  0.290211  1
  Ni  Ni5  1  0.000000  0.500000  0.290211  1
  Ni  Ni6  1  0.500000  0.000000  0.709789  1
  Ni  Ni7  1  0.000000  0.500000  0.709789  1
  B  B8  1  0.673398  0.326602  0.500000  1
  B  B9  1  0.326602  0.673398  0.500000  1
  Ir  Ir10  1  0.500000  0.500000  0.289125  1
  Ir  Ir11  1  0.500000  0.500000  0.710875  1
