# generated using pymatgen
data_CrOF8
_symmetry_space_group_name_H-M   'P 1'
_cell_length_a   5.35108142
_cell_length_b   5.64358199
_cell_length_c   10.24106993
_cell_angle_alpha   89.58592351
_cell_angle_beta   92.64403638
_cell_angle_gamma   89.81308660
_symmetry_Int_Tables_number   1
_chemical_formula_structural   CrOF8
_chemical_formula_sum   'Cr2 O2 F16'
_cell_volume   308.93348479
_cell_formula_units_Z   2
loop_
 _symmetry_equiv_pos_site_id
 _symmetry_equiv_pos_as_xyz
  1  'x, y, z'
loop_
 _atom_site_type_symbol
 _atom_site_label
 _atom_site_symmetry_multiplicity
 _atom_site_fract_x
 _atom_site_fract_y
 _atom_site_fract_z
 _atom_site_occupancy
  Cr  Cr0  1  0.000000  0.000000  0.000000  1
  Cr  Cr1  1  0.000000  0.000000  0.500000  1
  O  O2  1  0.543165  0.564001  0.750647  1
  O  O3  1  0.456835  0.435999  0.249353  1
  F  F4  1  0.738822  0.048468  0.096013  1
  F  F5  1  0.261178  0.951532  0.903987  1
  F  F6  1  0.712069  0.968818  0.410751  1
  F  F7  1  0.287931  0.031182  0.589249  1
  F  F8  1  0.389738  0.466451  0.845606  1
  F  F9  1  0.610262  0.533549  0.154394  1
  F  F10  1  0.408880  0.531434  0.630387  1
  F  F11  1  0.591120  0.468566  0.369613  1
  F  F12  1  0.859332  0.737572  0.937773  1
  F  F13  1  0.140668  0.262428  0.062227  1
  F  F14  1  0.886794  0.821514  0.626748  1
  F  F15  1  0.113206  0.178486  0.373252  1
  F  F16  1  0.854714  0.164986  0.870600  1
  F  F17  1  0.145286  0.835014  0.129400  1
  F  F18  1  0.884949  0.256398  0.576001  1
  F  F19  1  0.115051  0.743602  0.423999  1
