# generated using pymatgen
data_Y2ErUN4
_symmetry_space_group_name_H-M   'P 1'
_cell_length_a   5.96643409
_cell_length_b   5.96650598
_cell_length_c   4.88948300
_cell_angle_alpha   65.81029869
_cell_angle_beta   65.81185430
_cell_angle_gamma   48.37784338
_symmetry_Int_Tables_number   1
_chemical_formula_structural   Y2ErUN4
_chemical_formula_sum   'Y2 Er1 U1 N4'
_cell_volume   116.25127772
_cell_formula_units_Z   1
loop_
 _symmetry_equiv_pos_site_id
 _symmetry_equiv_pos_as_xyz
  1  'x, y, z'
loop_
 _atom_site_type_symbol
 _atom_site_label
 _atom_site_symmetry_multiplicity
 _atom_site_fract_x
 _atom_site_fract_y
 _atom_site_fract_z
 _atom_site_occupancy
  Y  Y0  1  0.746969  0.753031  0.753031  1
  Y  Y1  1  0.246969  0.253031  0.253031  1
  Er  Er2  1  0.496920  0.503080  0.503080  1
  U  U3  1  0.997180  0.002820  0.002820  1
  N  N4  1  0.996992  0.003008  0.503303  1
  N  N5  1  0.228946  0.234739  0.771054  1
  N  N6  1  0.496697  0.503303  0.003008  1
  N  N7  1  0.765261  0.771054  0.234739  1
