# generated using pymatgen
data_YHoAl20RuRh3
_symmetry_space_group_name_H-M   'P 1'
_cell_length_a   6.84671872
_cell_length_b   6.84479920
_cell_length_c   9.14983215
_cell_angle_alpha   90.11620575
_cell_angle_beta   90.09164038
_cell_angle_gamma   97.20838029
_symmetry_Int_Tables_number   1
_chemical_formula_structural   YHoAl20RuRh3
_chemical_formula_sum   'Y1 Ho1 Al20 Ru1 Rh3'
_cell_volume   425.41081832
_cell_formula_units_Z   1
loop_
 _symmetry_equiv_pos_site_id
 _symmetry_equiv_pos_as_xyz
  1  'x, y, z'
loop_
 _atom_site_type_symbol
 _atom_site_label
 _atom_site_symmetry_multiplicity
 _atom_site_fract_x
 _atom_site_fract_y
 _atom_site_fract_z
 _atom_site_occupancy
  Y  Y0  1  0.868856  0.128130  0.749961  1
  Ho  Ho1  1  0.131188  0.871875  0.250053  1
  Al  Al2  1  0.621213  0.375926  0.547933  1
  Al  Al3  1  0.378649  0.624200  0.451898  1
  Al  Al4  1  0.378050  0.622592  0.049593  1
  Al  Al5  1  0.621813  0.377545  0.950586  1
  Al  Al6  1  0.222097  0.220477  0.499142  1
  Al  Al7  1  0.778046  0.779387  0.500611  1
  Al  Al8  1  0.777145  0.777341  0.000142  1
  Al  Al9  1  0.222990  0.222517  0.000117  1
  Al  Al10  1  0.845805  0.154750  0.103453  1
  Al  Al11  1  0.154428  0.845032  0.896781  1
  Al  Al12  1  0.155424  0.846244  0.602075  1
  Al  Al13  1  0.844803  0.153528  0.397701  1
  Al  Al14  1  0.856856  0.589502  0.749500  1
  Al  Al15  1  0.143257  0.410748  0.250499  1
  Al  Al16  1  0.410515  0.142428  0.749006  1
  Al  Al17  1  0.589230  0.857476  0.250984  1
  Al  Al18  1  0.225391  0.480461  0.749943  1
  Al  Al19  1  0.774831  0.519743  0.250064  1
  Al  Al20  1  0.518929  0.776017  0.746933  1
  Al  Al21  1  0.480855  0.223771  0.253061  1
  Ru  Ru22  1  0.499735  0.999909  0.499805  1
  Rh  Rh23  1  0.000066  0.500228  0.499867  1
  Rh  Rh24  1  0.000063  0.500237  0.000137  1
  Rh  Rh25  1  0.499765  0.999939  0.000155  1
