# generated using pymatgen
data_Zr6Ta3TiGa12Rh7
_symmetry_space_group_name_H-M   'P 1'
_cell_length_a   8.84061347
_cell_length_b   8.84061446
_cell_length_c   8.84061522
_cell_angle_alpha   60.02090312
_cell_angle_beta   60.02089853
_cell_angle_gamma   60.02090380
_symmetry_Int_Tables_number   1
_chemical_formula_structural   Zr6Ta3TiGa12Rh7
_chemical_formula_sum   'Zr6 Ta3 Ti1 Ga12 Rh7'
_cell_volume   488.80774623
_cell_formula_units_Z   1
loop_
 _symmetry_equiv_pos_site_id
 _symmetry_equiv_pos_as_xyz
  1  'x, y, z'
loop_
 _atom_site_type_symbol
 _atom_site_label
 _atom_site_symmetry_multiplicity
 _atom_site_fract_x
 _atom_site_fract_y
 _atom_site_fract_z
 _atom_site_occupancy
  Zr  Zr0  1  0.696334  0.696334  0.303118  1
  Zr  Zr1  1  0.304436  0.695300  0.304436  1
  Zr  Zr2  1  0.695300  0.304436  0.304436  1
  Zr  Zr3  1  0.304436  0.304436  0.695300  1
  Zr  Zr4  1  0.696334  0.303118  0.696334  1
  Zr  Zr5  1  0.303118  0.696334  0.696334  1
  Ta  Ta6  1  0.877714  0.877714  0.366676  1
  Ta  Ta7  1  0.877714  0.366676  0.877714  1
  Ta  Ta8  1  0.366676  0.877714  0.877714  1
  Ti  Ti9  1  0.877856  0.877856  0.877856  1
  Ga  Ga10  1  0.119846  0.119846  0.636531  1
  Ga  Ga11  1  0.119846  0.636531  0.119846  1
  Ga  Ga12  1  0.636531  0.119846  0.119846  1
  Ga  Ga13  1  0.121281  0.121281  0.121281  1
  Ga  Ga14  1  0.657653  0.657653  0.031096  1
  Ga  Ga15  1  0.657653  0.031096  0.657653  1
  Ga  Ga16  1  0.031096  0.657653  0.657653  1
  Ga  Ga17  1  0.654894  0.654894  0.654894  1
  Ga  Ga18  1  0.343161  0.343161  0.971209  1
  Ga  Ga19  1  0.343161  0.971209  0.343161  1
  Ga  Ga20  1  0.971209  0.343161  0.343161  1
  Ga  Ga21  1  0.342663  0.342663  0.342663  1
  Rh  Rh22  1  0.000224  0.000224  0.000224  1
  Rh  Rh23  1  0.996302  0.996302  0.502521  1
  Rh  Rh24  1  0.504959  0.995822  0.504959  1
  Rh  Rh25  1  0.995822  0.504959  0.504959  1
  Rh  Rh26  1  0.504959  0.504959  0.995822  1
  Rh  Rh27  1  0.996302  0.502521  0.996302  1
  Rh  Rh28  1  0.502521  0.996302  0.996302  1
