# generated using pymatgen
data_Tb2Al3Pt4
_symmetry_space_group_name_H-M   'P 1'
_cell_length_a   8.17553863
_cell_length_b   8.17553840
_cell_length_c   7.63992100
_cell_angle_alpha   90.00000000
_cell_angle_beta   90.00000000
_cell_angle_gamma   140.10996537
_symmetry_Int_Tables_number   1
_chemical_formula_structural   Tb2Al3Pt4
_chemical_formula_sum   'Tb4 Al6 Pt8'
_cell_volume   327.48680733
_cell_formula_units_Z   2
loop_
 _symmetry_equiv_pos_site_id
 _symmetry_equiv_pos_as_xyz
  1  'x, y, z'
loop_
 _atom_site_type_symbol
 _atom_site_label
 _atom_site_symmetry_multiplicity
 _atom_site_fract_x
 _atom_site_fract_y
 _atom_site_fract_z
 _atom_site_occupancy
  Tb  Tb0  1  0.107171  0.892829  0.408035  1
  Tb  Tb1  1  0.892829  0.107171  0.591965  1
  Tb  Tb2  1  0.392829  0.607171  0.908035  1
  Tb  Tb3  1  0.607171  0.392829  0.091965  1
  Al  Al4  1  0.000000  0.000000  0.000000  1
  Al  Al5  1  0.500000  0.500000  0.500000  1
  Al  Al6  1  0.023412  0.476588  0.250000  1
  Al  Al7  1  0.476588  0.023412  0.750000  1
  Al  Al8  1  0.976588  0.523412  0.750000  1
  Al  Al9  1  0.523412  0.976588  0.250000  1
  Pt  Pt10  1  0.190761  0.309239  0.250000  1
  Pt  Pt11  1  0.309239  0.190761  0.750000  1
  Pt  Pt12  1  0.809239  0.690761  0.750000  1
  Pt  Pt13  1  0.690761  0.809239  0.250000  1
  Pt  Pt14  1  0.184215  0.815785  0.028348  1
  Pt  Pt15  1  0.815785  0.184215  0.971652  1
  Pt  Pt16  1  0.315785  0.684215  0.528348  1
  Pt  Pt17  1  0.684215  0.315785  0.471652  1
