# generated using pymatgen
data_NaSm(CuO2)4
_symmetry_space_group_name_H-M   'P 1'
_cell_length_a   6.28591630
_cell_length_b   6.28591525
_cell_length_c   6.28591500
_cell_angle_alpha   124.51737061
_cell_angle_beta   124.51736402
_cell_angle_gamma   82.33898004
_symmetry_Int_Tables_number   1
_chemical_formula_structural   NaSm(CuO2)4
_chemical_formula_sum   'Na1 Sm1 Cu4 O8'
_cell_volume   162.04219725
_cell_formula_units_Z   1
loop_
 _symmetry_equiv_pos_site_id
 _symmetry_equiv_pos_as_xyz
  1  'x, y, z'
loop_
 _atom_site_type_symbol
 _atom_site_label
 _atom_site_symmetry_multiplicity
 _atom_site_fract_x
 _atom_site_fract_y
 _atom_site_fract_z
 _atom_site_occupancy
  Na  Na0  1  0.000000  0.000000  0.000000  1
  Sm  Sm1  1  0.750000  0.250000  0.500000  1
  Cu  Cu2  1  0.875455  0.631908  0.258393  1
  Cu  Cu3  1  0.382938  0.124545  0.756454  1
  Cu  Cu4  1  0.368092  0.626484  0.243546  1
  Cu  Cu5  1  0.373516  0.617062  0.741607  1
  O  O6  1  0.353761  0.969646  0.921230  1
  O  O7  1  0.683384  0.828056  0.407788  1
  O  O8  1  0.724403  0.316616  0.144673  1
  O  O9  1  0.567469  0.646239  0.615885  1
  O  O10  1  0.171944  0.579730  0.855327  1
  O  O11  1  0.030354  0.951584  0.384115  1
  O  O12  1  0.048416  0.432531  0.078770  1
  O  O13  1  0.420270  0.275597  0.592212  1
