# generated using pymatgen
data_Ho3Tm(Ga3Ir)6
_symmetry_space_group_name_H-M   'P 1'
_cell_length_a   7.58323283
_cell_length_b   7.58382042
_cell_length_c   9.46606500
_cell_angle_alpha   90.00000000
_cell_angle_beta   90.00000000
_cell_angle_gamma   120.02472518
_symmetry_Int_Tables_number   1
_chemical_formula_structural   Ho3Tm(Ga3Ir)6
_chemical_formula_sum   'Ho3 Tm1 Ga18 Ir6'
_cell_volume   471.33998986
_cell_formula_units_Z   1
loop_
 _symmetry_equiv_pos_site_id
 _symmetry_equiv_pos_as_xyz
  1  'x, y, z'
loop_
 _atom_site_type_symbol
 _atom_site_label
 _atom_site_symmetry_multiplicity
 _atom_site_fract_x
 _atom_site_fract_y
 _atom_site_fract_z
 _atom_site_occupancy
  Ho  Ho0  1  0.997099  0.667872  0.750000  1
  Ho  Ho1  1  0.002990  0.332221  0.250000  1
  Ho  Ho2  1  0.667874  0.997113  0.750000  1
  Tm  Tm3  1  0.332217  0.002915  0.250000  1
  Ga  Ga4  1  0.126959  0.126961  0.750000  1
  Ga  Ga5  1  0.873168  0.873047  0.250000  1
  Ga  Ga6  1  0.998601  0.333754  0.581399  1
  Ga  Ga7  1  0.001586  0.666429  0.418541  1
  Ga  Ga8  1  0.001586  0.666429  0.081459  1
  Ga  Ga9  1  0.333754  0.998605  0.918731  1
  Ga  Ga10  1  0.998601  0.333754  0.918601  1
  Ga  Ga11  1  0.665951  0.001359  0.081461  1
  Ga  Ga12  1  0.665951  0.001359  0.418539  1
  Ga  Ga13  1  0.333754  0.998605  0.581269  1
  Ga  Ga14  1  0.332260  0.332059  0.065796  1
  Ga  Ga15  1  0.667743  0.667743  0.934431  1
  Ga  Ga16  1  0.667743  0.667743  0.565569  1
  Ga  Ga17  1  0.332260  0.332059  0.434204  1
  Ga  Ga18  1  0.339327  0.546690  0.750000  1
  Ga  Ga19  1  0.660575  0.453242  0.250000  1
  Ga  Ga20  1  0.546666  0.339313  0.750000  1
  Ga  Ga21  1  0.453380  0.660816  0.250000  1
  Ir  Ir22  1  0.671472  0.328290  0.499961  1
  Ir  Ir23  1  0.328356  0.671625  0.499966  1
  Ir  Ir24  1  0.328356  0.671625  0.000034  1
  Ir  Ir25  1  0.671472  0.328290  0.000039  1
  Ir  Ir26  1  0.000150  0.000042  0.499947  1
  Ir  Ir27  1  0.000150  0.000042  0.000053  1
