# generated using pymatgen
data_U9(PaSe10)2
_symmetry_space_group_name_H-M   'P 1'
_cell_length_a   10.75832685
_cell_length_b   10.73530474
_cell_length_c   6.72647700
_cell_angle_alpha   90.06074729
_cell_angle_beta   90.30240614
_cell_angle_gamma   89.91875882
_symmetry_Int_Tables_number   1
_chemical_formula_structural   U9(PaSe10)2
_chemical_formula_sum   'U9 Pa2 Se20'
_cell_volume   776.85514570
_cell_formula_units_Z   1
loop_
 _symmetry_equiv_pos_site_id
 _symmetry_equiv_pos_as_xyz
  1  'x, y, z'
loop_
 _atom_site_type_symbol
 _atom_site_label
 _atom_site_symmetry_multiplicity
 _atom_site_fract_x
 _atom_site_fract_y
 _atom_site_fract_z
 _atom_site_occupancy
  U  U0  1  0.158818  0.653284  0.751964  1
  U  U1  1  0.161356  0.348798  0.251125  1
  U  U2  1  0.651395  0.843087  0.750389  1
  U  U3  1  0.649269  0.159474  0.250417  1
  U  U4  1  0.350193  0.839916  0.251481  1
  U  U5  1  0.348140  0.157232  0.752202  1
  U  U6  1  0.497369  0.500590  0.641332  1
  U  U7  1  0.000741  0.998805  0.855478  1
  U  U8  1  0.001257  0.001063  0.356197  1
  Pa  Pa9  1  0.839070  0.651919  0.250554  1
  Pa  Pa10  1  0.841964  0.345548  0.750711  1
  Se  Se11  1  0.289493  0.589604  0.389786  1
  Se  Se12  1  0.289627  0.411832  0.880906  1
  Se  Se13  1  0.711070  0.587390  0.881165  1
  Se  Se14  1  0.709776  0.412706  0.390869  1
  Se  Se15  1  0.590470  0.290565  0.878172  1
  Se  Se16  1  0.591296  0.708149  0.386319  1
  Se  Se17  1  0.411528  0.290732  0.390310  1
  Se  Se18  1  0.412966  0.709608  0.880358  1
  Se  Se19  1  0.208572  0.912143  0.615298  1
  Se  Se20  1  0.209290  0.088721  0.116035  1
  Se  Se21  1  0.792085  0.910179  0.114170  1
  Se  Se22  1  0.792765  0.088686  0.612487  1
  Se  Se23  1  0.910275  0.208798  0.113529  1
  Se  Se24  1  0.911311  0.791635  0.610756  1
  Se  Se25  1  0.086381  0.209795  0.616847  1
  Se  Se26  1  0.087688  0.789692  0.117492  1
  Se  Se27  1  0.997777  0.499836  0.501384  1
  Se  Se28  1  0.998471  0.500420  0.002091  1
  Se  Se29  1  0.499918  0.999401  0.002609  1
  Se  Se30  1  0.499668  0.000390  0.501570  1
