# generated using pymatgen
data_YbPa3Pt4
_symmetry_space_group_name_H-M   'P 1'
_cell_length_a   4.42679400
_cell_length_b   5.68999622
_cell_length_c   7.12819774
_cell_angle_alpha   90.34087618
_cell_angle_beta   90.00000000
_cell_angle_gamma   90.00000000
_symmetry_Int_Tables_number   1
_chemical_formula_structural   YbPa3Pt4
_chemical_formula_sum   'Yb1 Pa3 Pt4'
_cell_volume   179.54501153
_cell_formula_units_Z   1
loop_
 _symmetry_equiv_pos_site_id
 _symmetry_equiv_pos_as_xyz
  1  'x, y, z'
loop_
 _atom_site_type_symbol
 _atom_site_label
 _atom_site_symmetry_multiplicity
 _atom_site_fract_x
 _atom_site_fract_y
 _atom_site_fract_z
 _atom_site_occupancy
  Yb  Yb0  1  0.250000  0.848566  0.682417  1
  Pa  Pa1  1  0.250000  0.656537  0.180506  1
  Pa  Pa2  1  0.750000  0.347876  0.812013  1
  Pa  Pa3  1  0.750000  0.146099  0.323240  1
  Pt  Pt4  1  0.250000  0.181758  0.054444  1
  Pt  Pt5  1  0.750000  0.829564  0.961749  1
  Pt  Pt6  1  0.750000  0.654453  0.441086  1
  Pt  Pt7  1  0.250000  0.335147  0.544547  1
