# generated using pymatgen
data_Tb19HoFe2(CoBi4)2
_symmetry_space_group_name_H-M   'P 1'
_cell_length_a   8.01247216
_cell_length_b   8.92668139
_cell_length_c   12.44546923
_cell_angle_alpha   90.00953278
_cell_angle_beta   89.89578222
_cell_angle_gamma   89.96741827
_symmetry_Int_Tables_number   1
_chemical_formula_structural   Tb19HoFe2(CoBi4)2
_chemical_formula_sum   'Tb19 Ho1 Fe2 Co2 Bi8'
_cell_volume   890.15789629
_cell_formula_units_Z   1
loop_
 _symmetry_equiv_pos_site_id
 _symmetry_equiv_pos_as_xyz
  1  'x, y, z'
loop_
 _atom_site_type_symbol
 _atom_site_label
 _atom_site_symmetry_multiplicity
 _atom_site_fract_x
 _atom_site_fract_y
 _atom_site_fract_z
 _atom_site_occupancy
  Tb  Tb0  1  0.346565  0.750050  0.700631  1
  Tb  Tb1  1  0.653404  0.249971  0.299425  1
  Tb  Tb2  1  0.848766  0.249874  0.799856  1
  Tb  Tb3  1  0.151387  0.750069  0.200086  1
  Tb  Tb4  1  0.885660  0.750159  0.810449  1
  Tb  Tb5  1  0.114593  0.249815  0.189509  1
  Tb  Tb6  1  0.384575  0.249975  0.688269  1
  Tb  Tb7  1  0.615396  0.750019  0.311735  1
  Tb  Tb8  1  0.676354  0.537906  0.563647  1
  Tb  Tb9  1  0.323619  0.462122  0.436373  1
  Tb  Tb10  1  0.174708  0.463756  0.937767  1
  Tb  Tb11  1  0.323642  0.037924  0.436343  1
  Tb  Tb12  1  0.825114  0.536185  0.062270  1
  Tb  Tb13  1  0.676363  0.962037  0.563663  1
  Tb  Tb14  1  0.825395  0.963642  0.062168  1
  Tb  Tb15  1  0.051594  0.749996  0.496610  1
  Tb  Tb16  1  0.948459  0.249980  0.503402  1
  Tb  Tb17  1  0.555435  0.249947  0.003863  1
  Tb  Tb18  1  0.444311  0.750112  0.996116  1
  Ho  Ho19  1  0.174240  0.036522  0.937794  1
  Fe  Fe20  1  0.071301  0.750040  0.990157  1
  Fe  Fe21  1  0.929265  0.249815  0.009766  1
  Co  Co22  1  0.565867  0.250026  0.507919  1
  Co  Co23  1  0.434142  0.749989  0.492059  1
  Bi  Bi24  1  0.572166  0.508448  0.826762  1
  Bi  Bi25  1  0.427839  0.491532  0.173236  1
  Bi  Bi26  1  0.072574  0.491456  0.673152  1
  Bi  Bi27  1  0.427906  0.008498  0.173224  1
  Bi  Bi28  1  0.927414  0.508537  0.326840  1
  Bi  Bi29  1  0.571891  0.991558  0.826819  1
  Bi  Bi30  1  0.927408  0.991460  0.326838  1
  Bi  Bi31  1  0.072645  0.008578  0.673251  1
