# generated using pymatgen
data_La4TmRuRh
_symmetry_space_group_name_H-M   'P 1'
_cell_length_a   6.62429315
_cell_length_b   7.26135255
_cell_length_c   9.13771042
_cell_angle_alpha   95.14802464
_cell_angle_beta   111.25196870
_cell_angle_gamma   90.00000526
_symmetry_Int_Tables_number   1
_chemical_formula_structural   La4TmRuRh
_chemical_formula_sum   'La8 Tm2 Ru2 Rh2'
_cell_volume   407.74259000
_cell_formula_units_Z   2
loop_
 _symmetry_equiv_pos_site_id
 _symmetry_equiv_pos_as_xyz
  1  'x, y, z'
loop_
 _atom_site_type_symbol
 _atom_site_label
 _atom_site_symmetry_multiplicity
 _atom_site_fract_x
 _atom_site_fract_y
 _atom_site_fract_z
 _atom_site_occupancy
  La  La0  1  0.806182  0.085031  0.818299  1
  La  La1  1  0.987884  0.414969  0.181701  1
  La  La2  1  0.204326  0.909212  0.182852  1
  La  La3  1  0.021473  0.590788  0.817148  1
  La  La4  1  0.213741  0.182812  0.580630  1
  La  La5  1  0.633113  0.317188  0.419370  1
  La  La6  1  0.786464  0.812694  0.427064  1
  La  La7  1  0.359399  0.687306  0.572936  1
  Tm  Tm8  1  0.433620  0.250000  0.000000  1
  Tm  Tm9  1  0.568363  0.750000  0.000000  1
  Ru  Ru10  1  0.398915  0.575137  0.216059  1
  Ru  Ru11  1  0.182857  0.924863  0.783941  1
  Rh  Rh12  1  0.597050  0.424759  0.790436  1
  Rh  Rh13  1  0.806613  0.075241  0.209564  1
