# generated using pymatgen
data_Sc8Ti4V7Si16Mo
_symmetry_space_group_name_H-M   'P 1'
_cell_length_a   6.71100994
_cell_length_b   6.71584041
_cell_length_c   12.40688340
_cell_angle_alpha   90.00650063
_cell_angle_beta   89.96140481
_cell_angle_gamma   90.00923252
_symmetry_Int_Tables_number   1
_chemical_formula_structural   Sc8Ti4V7Si16Mo
_chemical_formula_sum   'Sc8 Ti4 V7 Si16 Mo1'
_cell_volume   559.17898694
_cell_formula_units_Z   1
loop_
 _symmetry_equiv_pos_site_id
 _symmetry_equiv_pos_as_xyz
  1  'x, y, z'
loop_
 _atom_site_type_symbol
 _atom_site_label
 _atom_site_symmetry_multiplicity
 _atom_site_fract_x
 _atom_site_fract_y
 _atom_site_fract_z
 _atom_site_occupancy
  Sc  Sc0  1  0.000960  0.662514  0.030759  1
  Sc  Sc1  1  0.836883  0.499413  0.280943  1
  Sc  Sc2  1  0.163366  0.499715  0.780448  1
  Sc  Sc3  1  0.500580  0.837065  0.719063  1
  Sc  Sc4  1  0.500073  0.163004  0.219120  1
  Sc  Sc5  1  0.999179  0.337195  0.531227  1
  Sc  Sc6  1  0.663536  0.000930  0.969064  1
  Sc  Sc7  1  0.337078  0.998528  0.469743  1
  Ti  Ti8  1  0.331852  0.332955  0.999528  1
  Ti  Ti9  1  0.166915  0.832947  0.250570  1
  Ti  Ti10  1  0.832388  0.166701  0.749355  1
  Ti  Ti11  1  0.667343  0.667103  0.500246  1
  V  V12  1  0.342880  0.507172  0.377082  1
  V  V13  1  0.657140  0.492454  0.876848  1
  V  V14  1  0.508099  0.342520  0.622809  1
  V  V15  1  0.492162  0.657975  0.122925  1
  V  V16  1  0.992298  0.842798  0.627191  1
  V  V17  1  0.156303  0.007916  0.873132  1
  V  V18  1  0.843248  0.992041  0.372956  1
  Si  Si19  1  0.298091  0.957660  0.061224  1
  Si  Si20  1  0.540478  0.794449  0.312965  1
  Si  Si21  1  0.458670  0.205685  0.811938  1
  Si  Si22  1  0.794372  0.541402  0.687668  1
  Si  Si23  1  0.208242  0.461731  0.188879  1
  Si  Si24  1  0.705861  0.040789  0.562060  1
  Si  Si25  1  0.958067  0.296889  0.935208  1
  Si  Si26  1  0.041007  0.705551  0.438162  1
  Si  Si27  1  0.702641  0.372541  0.069374  1
  Si  Si28  1  0.131540  0.207132  0.323146  1
  Si  Si29  1  0.870005  0.794002  0.820546  1
  Si  Si30  1  0.206037  0.129901  0.679286  1
  Si  Si31  1  0.792095  0.865168  0.180461  1
  Si  Si32  1  0.294114  0.629649  0.570825  1
  Si  Si33  1  0.370053  0.705713  0.928667  1
  Si  Si34  1  0.630290  0.293842  0.429413  1
  Mo  Mo35  1  0.006156  0.156946  0.127171  1
