# generated using pymatgen
data_Mn8Co4Mo12CN3
_symmetry_space_group_name_H-M   'P 1'
_cell_length_a   7.84581866
_cell_length_b   7.82724071
_cell_length_c   7.85457126
_cell_angle_alpha   59.88355812
_cell_angle_beta   59.90842560
_cell_angle_gamma   59.82571652
_symmetry_Int_Tables_number   1
_chemical_formula_structural   Mn8Co4Mo12CN3
_chemical_formula_sum   'Mn8 Co4 Mo12 C1 N3'
_cell_volume   340.09196086
_cell_formula_units_Z   1
loop_
 _symmetry_equiv_pos_site_id
 _symmetry_equiv_pos_as_xyz
  1  'x, y, z'
loop_
 _atom_site_type_symbol
 _atom_site_label
 _atom_site_symmetry_multiplicity
 _atom_site_fract_x
 _atom_site_fract_y
 _atom_site_fract_z
 _atom_site_occupancy
  Mn  Mn0  1  0.120766  0.125295  0.624888  1
  Mn  Mn1  1  0.327983  0.325340  0.021753  1
  Mn  Mn2  1  0.023385  0.323279  0.329006  1
  Mn  Mn3  1  0.925442  0.926929  0.921039  1
  Mn  Mn4  1  0.121215  0.624921  0.124917  1
  Mn  Mn5  1  0.626603  0.122566  0.123902  1
  Mn  Mn6  1  0.122692  0.127654  0.126251  1
  Mn  Mn7  1  0.925184  0.924252  0.228172  1
  Co  Co8  1  0.242177  0.920156  0.919600  1
  Co  Co9  1  0.921426  0.240229  0.919539  1
  Co  Co10  1  0.331719  0.330196  0.330417  1
  Co  Co11  1  0.331220  0.009483  0.330928  1
  Mo  Mo12  1  0.547523  0.547010  0.951699  1
  Mo  Mo13  1  0.948250  0.949973  0.549955  1
  Mo  Mo14  1  0.700694  0.698738  0.300116  1
  Mo  Mo15  1  0.297332  0.701213  0.702420  1
  Mo  Mo16  1  0.702463  0.298114  0.299210  1
  Mo  Mo17  1  0.296631  0.297001  0.703803  1
  Mo  Mo18  1  0.546793  0.953194  0.546291  1
  Mo  Mo19  1  0.296383  0.703635  0.297938  1
  Mo  Mo20  1  0.949552  0.550734  0.949404  1
  Mo  Mo21  1  0.950772  0.549098  0.547988  1
  Mo  Mo22  1  0.699262  0.299256  0.699710  1
  Mo  Mo23  1  0.548056  0.952265  0.951202  1
  C  C24  1  0.624165  0.625870  0.625813  1
  N  N25  1  0.623754  0.625010  0.124727  1
  N  N26  1  0.126280  0.623898  0.624247  1
  N  N27  1  0.622277  0.124690  0.625066  1
