# generated using pymatgen
data_Y3Mn2W3O14
_symmetry_space_group_name_H-M   'P 1'
_cell_length_a   7.20564681
_cell_length_b   7.20550781
_cell_length_c   7.20558487
_cell_angle_alpha   117.18471556
_cell_angle_beta   62.81589886
_cell_angle_gamma   117.18448290
_symmetry_Int_Tables_number   1
_chemical_formula_structural   Y3Mn2W3O14
_chemical_formula_sum   'Y3 Mn2 W3 O14'
_cell_volume   281.09940639
_cell_formula_units_Z   1
loop_
 _symmetry_equiv_pos_site_id
 _symmetry_equiv_pos_as_xyz
  1  'x, y, z'
loop_
 _atom_site_type_symbol
 _atom_site_label
 _atom_site_symmetry_multiplicity
 _atom_site_fract_x
 _atom_site_fract_y
 _atom_site_fract_z
 _atom_site_occupancy
  Y  Y0  1  0.999961  0.499993  0.000022  1
  Y  Y1  1  0.500009  0.000029  0.000001  1
  Y  Y2  1  0.500016  0.500001  0.499964  1
  Mn  Mn3  1  0.499991  0.500009  0.000003  1
  Mn  Mn4  1  0.000022  0.000034  0.500002  1
  W  W5  1  0.500007  0.999943  0.500012  1
  W  W6  1  0.000029  0.500012  0.499979  1
  W  W7  1  0.000014  0.999995  0.000020  1
  O  O8  1  0.621547  0.378449  0.121546  1
  O  O9  1  0.378422  0.621563  0.878430  1
  O  O10  1  0.085157  0.324137  0.175846  1
  O  O11  1  0.675840  0.914842  0.175855  1
  O  O12  1  0.675836  0.324143  0.585159  1
  O  O13  1  0.914832  0.675845  0.824155  1
  O  O14  1  0.324153  0.085147  0.824137  1
  O  O15  1  0.324146  0.675861  0.414855  1
  O  O16  1  0.643254  0.903223  0.596776  1
  O  O17  1  0.096767  0.356749  0.596767  1
  O  O18  1  0.096760  0.903226  0.143254  1
  O  O19  1  0.356761  0.096783  0.403221  1
  O  O20  1  0.903239  0.643254  0.403248  1
  O  O21  1  0.903238  0.096766  0.856749  1
