# generated using pymatgen
data_CsNb(CuS2)2
_symmetry_space_group_name_H-M   'P 1'
_cell_length_a   10.15479774
_cell_length_b   10.15479805
_cell_length_c   7.70523200
_cell_angle_alpha   90.00000000
_cell_angle_beta   90.00000000
_cell_angle_gamma   148.04603480
_symmetry_Int_Tables_number   1
_chemical_formula_structural   CsNb(CuS2)2
_chemical_formula_sum   'Cs2 Nb2 Cu4 S8'
_cell_volume   420.51266406
_cell_formula_units_Z   2
loop_
 _symmetry_equiv_pos_site_id
 _symmetry_equiv_pos_as_xyz
  1  'x, y, z'
loop_
 _atom_site_type_symbol
 _atom_site_label
 _atom_site_symmetry_multiplicity
 _atom_site_fract_x
 _atom_site_fract_y
 _atom_site_fract_z
 _atom_site_occupancy
  Cs  Cs0  1  0.169759  0.533002  0.750000  1
  Cs  Cs1  1  0.533002  0.169759  0.250000  1
  Nb  Nb2  1  0.709537  0.500271  0.750000  1
  Nb  Nb3  1  0.500271  0.709537  0.250000  1
  Cu  Cu4  1  0.618623  0.618623  0.500000  1
  Cu  Cu5  1  0.003370  0.204177  0.250000  1
  Cu  Cu6  1  0.204177  0.003370  0.750000  1
  Cu  Cu7  1  0.618623  0.618623  0.000000  1
  S  S8  1  0.749588  0.948884  0.007366  1
  S  S9  1  0.375663  0.364490  0.750000  1
  S  S10  1  0.364490  0.375663  0.250000  1
  S  S11  1  0.948884  0.749588  0.507366  1
  S  S12  1  0.545699  0.151643  0.750000  1
  S  S13  1  0.948884  0.749588  0.992634  1
  S  S14  1  0.151643  0.545699  0.250000  1
  S  S15  1  0.749588  0.948884  0.492634  1
