# generated using pymatgen
data_Tb2YbGd4CoBr12
_symmetry_space_group_name_H-M   'P 1'
_cell_length_a   9.26601612
_cell_length_b   9.26373419
_cell_length_c   9.18044200
_cell_angle_alpha   107.20083020
_cell_angle_beta   106.79111707
_cell_angle_gamma   106.80779696
_symmetry_Int_Tables_number   1
_chemical_formula_structural   Tb2YbGd4CoBr12
_chemical_formula_sum   'Tb2 Yb1 Gd4 Co1 Br12'
_cell_volume   657.46191018
_cell_formula_units_Z   1
loop_
 _symmetry_equiv_pos_site_id
 _symmetry_equiv_pos_as_xyz
  1  'x, y, z'
loop_
 _atom_site_type_symbol
 _atom_site_label
 _atom_site_symmetry_multiplicity
 _atom_site_fract_x
 _atom_site_fract_y
 _atom_site_fract_z
 _atom_site_occupancy
  Tb  Tb0  1  0.901691  0.705000  0.975506  1
  Tb  Tb1  1  0.689729  0.976966  0.895720  1
  Yb  Yb2  1  0.499792  0.500812  0.500166  1
  Gd  Gd3  1  0.027681  0.105899  0.315644  1
  Gd  Gd4  1  0.097638  0.297787  0.024872  1
  Gd  Gd5  1  0.314371  0.023476  0.105046  1
  Gd  Gd6  1  0.973748  0.892896  0.684655  1
  Co  Co7  1  0.000362  0.001501  0.999848  1
  Br  Br8  1  0.159854  0.458809  0.383578  1
  Br  Br9  1  0.455817  0.376054  0.156412  1
  Br  Br10  1  0.382918  0.163311  0.463949  1
  Br  Br11  1  0.839341  0.540825  0.621514  1
  Br  Br12  1  0.546414  0.627570  0.845397  1
  Br  Br13  1  0.618374  0.839173  0.538950  1
  Br  Br14  1  0.680406  0.072504  0.222934  1
  Br  Br15  1  0.070868  0.218786  0.679729  1
  Br  Br16  1  0.215429  0.677473  0.067691  1
  Br  Br17  1  0.321941  0.927110  0.774869  1
  Br  Br18  1  0.926718  0.776712  0.316097  1
  Br  Br19  1  0.776912  0.317336  0.927425  1
