# generated using pymatgen
data_Lu6TlCoRu
_symmetry_space_group_name_H-M   'P 1'
_cell_length_a   8.25072890
_cell_length_b   8.25072905
_cell_length_c   8.25072900
_cell_angle_alpha   112.59668600
_cell_angle_beta   110.98986332
_cell_angle_gamma   104.92505578
_symmetry_Int_Tables_number   1
_chemical_formula_structural   Lu6TlCoRu
_chemical_formula_sum   'Lu12 Tl2 Co2 Ru2'
_cell_volume   430.25702910
_cell_formula_units_Z   2
loop_
 _symmetry_equiv_pos_site_id
 _symmetry_equiv_pos_as_xyz
  1  'x, y, z'
loop_
 _atom_site_type_symbol
 _atom_site_label
 _atom_site_symmetry_multiplicity
 _atom_site_fract_x
 _atom_site_fract_y
 _atom_site_fract_z
 _atom_site_occupancy
  Lu  Lu0  1  0.447511  0.243254  0.204258  1
  Lu  Lu1  1  0.552489  0.756746  0.795742  1
  Lu  Lu2  1  0.038996  0.243254  0.795742  1
  Lu  Lu3  1  0.961004  0.756746  0.204258  1
  Lu  Lu4  1  0.185311  0.287033  0.472343  1
  Lu  Lu5  1  0.814689  0.712967  0.527657  1
  Lu  Lu6  1  0.185311  0.712967  0.898278  1
  Lu  Lu7  1  0.814689  0.287033  0.101722  1
  Lu  Lu8  1  0.322771  0.638028  0.315257  1
  Lu  Lu9  1  0.677229  0.361972  0.684743  1
  Lu  Lu10  1  0.322771  0.007514  0.684743  1
  Lu  Lu11  1  0.677229  0.992486  0.315257  1
  Tl  Tl12  1  0.500000  0.500000  0.000000  1
  Tl  Tl13  1  0.000000  0.000000  0.000000  1
  Co  Co14  1  0.113931  0.613931  0.500000  1
  Co  Co15  1  0.886069  0.386069  0.500000  1
  Ru  Ru16  1  0.332033  0.000000  0.332033  1
  Ru  Ru17  1  0.667967  0.000000  0.667967  1
