# generated using pymatgen
data_Tm2Lu10Os3Ru
_symmetry_space_group_name_H-M   'P 1'
_cell_length_a   6.16531911
_cell_length_b   7.31454640
_cell_length_c   8.83284200
_cell_angle_alpha   90.00000000
_cell_angle_beta   90.00000000
_cell_angle_gamma   89.90615894
_symmetry_Int_Tables_number   1
_chemical_formula_structural   Tm2Lu10Os3Ru
_chemical_formula_sum   'Tm2 Lu10 Os3 Ru1'
_cell_volume   398.32983732
_cell_formula_units_Z   1
loop_
 _symmetry_equiv_pos_site_id
 _symmetry_equiv_pos_as_xyz
  1  'x, y, z'
loop_
 _atom_site_type_symbol
 _atom_site_label
 _atom_site_symmetry_multiplicity
 _atom_site_fract_x
 _atom_site_fract_y
 _atom_site_fract_z
 _atom_site_occupancy
  Tm  Tm0  1  0.870796  0.539562  0.250000  1
  Tm  Tm1  1  0.626641  0.040962  0.250000  1
  Lu  Lu2  1  0.335351  0.674866  0.061609  1
  Lu  Lu3  1  0.164057  0.173687  0.438874  1
  Lu  Lu4  1  0.666453  0.324705  0.563913  1
  Lu  Lu5  1  0.834632  0.825367  0.937471  1
  Lu  Lu6  1  0.666453  0.324705  0.936087  1
  Lu  Lu7  1  0.834632  0.825367  0.562529  1
  Lu  Lu8  1  0.335351  0.674866  0.438391  1
  Lu  Lu9  1  0.164057  0.173687  0.061126  1
  Lu  Lu10  1  0.127645  0.460872  0.750000  1
  Lu  Lu11  1  0.373407  0.960441  0.750000  1
  Os  Os12  1  0.039800  0.882660  0.250000  1
  Os  Os13  1  0.962633  0.117857  0.750000  1
  Os  Os14  1  0.538138  0.617265  0.750000  1
  Ru  Ru15  1  0.459955  0.383129  0.250000  1
