# generated using pymatgen
data_TbIrO4
_symmetry_space_group_name_H-M   'P 1'
_cell_length_a   5.37351900
_cell_length_b   7.64469557
_cell_length_c   7.43083169
_cell_angle_alpha   80.83069956
_cell_angle_beta   90.00000000
_cell_angle_gamma   90.00000000
_symmetry_Int_Tables_number   1
_chemical_formula_structural   TbIrO4
_chemical_formula_sum   'Tb4 Ir4 O16'
_cell_volume   301.34996182
_cell_formula_units_Z   4
loop_
 _symmetry_equiv_pos_site_id
 _symmetry_equiv_pos_as_xyz
  1  'x, y, z'
loop_
 _atom_site_type_symbol
 _atom_site_label
 _atom_site_symmetry_multiplicity
 _atom_site_fract_x
 _atom_site_fract_y
 _atom_site_fract_z
 _atom_site_occupancy
  Tb  Tb0  1  0.281829  0.650273  0.608165  1
  Tb  Tb1  1  0.218171  0.650273  0.108165  1
  Tb  Tb2  1  0.781829  0.349727  0.891835  1
  Tb  Tb3  1  0.718171  0.349727  0.391835  1
  Ir  Ir4  1  0.771766  0.839770  0.799252  1
  Ir  Ir5  1  0.728234  0.839770  0.299252  1
  Ir  Ir6  1  0.271766  0.160230  0.700748  1
  Ir  Ir7  1  0.228234  0.160230  0.200748  1
  O  O8  1  0.091930  0.939788  0.693119  1
  O  O9  1  0.408070  0.939788  0.193119  1
  O  O10  1  0.624781  0.832854  0.554366  1
  O  O11  1  0.875219  0.832854  0.054366  1
  O  O12  1  0.488630  0.687471  0.879352  1
  O  O13  1  0.977393  0.612308  0.825145  1
  O  O14  1  0.011370  0.687471  0.379352  1
  O  O15  1  0.522607  0.612308  0.325145  1
  O  O16  1  0.477393  0.387692  0.674855  1
  O  O17  1  0.988630  0.312529  0.620648  1
  O  O18  1  0.022607  0.387692  0.174855  1
  O  O19  1  0.511370  0.312529  0.120648  1
  O  O20  1  0.124781  0.167146  0.945634  1
  O  O21  1  0.375219  0.167146  0.445634  1
  O  O22  1  0.591930  0.060212  0.806881  1
  O  O23  1  0.908070  0.060212  0.306881  1
