# generated using pymatgen
data_LuCuH6Os
_symmetry_space_group_name_H-M   'P 1'
_cell_length_a   4.74666347
_cell_length_b   4.74666381
_cell_length_c   4.74666400
_cell_angle_alpha   59.99999867
_cell_angle_beta   59.99999634
_cell_angle_gamma   60.00000794
_symmetry_Int_Tables_number   1
_chemical_formula_structural   LuCuH6Os
_chemical_formula_sum   'Lu1 Cu1 H6 Os1'
_cell_volume   75.62239333
_cell_formula_units_Z   1
loop_
 _symmetry_equiv_pos_site_id
 _symmetry_equiv_pos_as_xyz
  1  'x, y, z'
loop_
 _atom_site_type_symbol
 _atom_site_label
 _atom_site_symmetry_multiplicity
 _atom_site_fract_x
 _atom_site_fract_y
 _atom_site_fract_z
 _atom_site_occupancy
  Lu  Lu0  1  0.250000  0.250000  0.250000  1
  Cu  Cu1  1  0.750000  0.750000  0.750000  1
  H  H2  1  0.745931  0.254069  0.254069  1
  H  H3  1  0.254069  0.745931  0.745931  1
  H  H4  1  0.254069  0.745931  0.254069  1
  H  H5  1  0.745931  0.254069  0.745931  1
  H  H6  1  0.254069  0.254069  0.745931  1
  H  H7  1  0.745931  0.745931  0.254069  1
  Os  Os8  1  0.000000  0.000000  0.000000  1
