# generated using pymatgen
data_Eu3Al12FeOs3
_symmetry_space_group_name_H-M   'P 1'
_cell_length_a   8.84849400
_cell_length_b   8.84849349
_cell_length_c   9.54739300
_cell_angle_alpha   90.00000000
_cell_angle_beta   90.00000000
_cell_angle_gamma   120.00000191
_symmetry_Int_Tables_number   1
_chemical_formula_structural   Eu3Al12FeOs3
_chemical_formula_sum   'Eu6 Al24 Fe2 Os6'
_cell_volume   647.37231027
_cell_formula_units_Z   2
loop_
 _symmetry_equiv_pos_site_id
 _symmetry_equiv_pos_as_xyz
  1  'x, y, z'
loop_
 _atom_site_type_symbol
 _atom_site_label
 _atom_site_symmetry_multiplicity
 _atom_site_fract_x
 _atom_site_fract_y
 _atom_site_fract_z
 _atom_site_occupancy
  Eu  Eu0  1  0.194745  0.389489  0.250000  1
  Eu  Eu1  1  0.805255  0.610511  0.750000  1
  Eu  Eu2  1  0.610511  0.805255  0.250000  1
  Eu  Eu3  1  0.389489  0.194745  0.750000  1
  Eu  Eu4  1  0.194745  0.805255  0.250000  1
  Eu  Eu5  1  0.805255  0.194745  0.750000  1
  Al  Al6  1  0.333333  0.666667  0.998053  1
  Al  Al7  1  0.666667  0.333333  0.001947  1
  Al  Al8  1  0.666667  0.333333  0.498053  1
  Al  Al9  1  0.333333  0.666667  0.501947  1
  Al  Al10  1  0.157754  0.315508  0.575165  1
  Al  Al11  1  0.842246  0.684492  0.424835  1
  Al  Al12  1  0.684492  0.842246  0.575165  1
  Al  Al13  1  0.842246  0.684492  0.075165  1
  Al  Al14  1  0.315508  0.157754  0.424835  1
  Al  Al15  1  0.157754  0.315508  0.924835  1
  Al  Al16  1  0.157754  0.842246  0.575165  1
  Al  Al17  1  0.315508  0.157754  0.075165  1
  Al  Al18  1  0.842246  0.157754  0.424835  1
  Al  Al19  1  0.684492  0.842246  0.924835  1
  Al  Al20  1  0.842246  0.157754  0.075165  1
  Al  Al21  1  0.157754  0.842246  0.924835  1
  Al  Al22  1  0.561712  0.123425  0.250000  1
  Al  Al23  1  0.438288  0.876575  0.750000  1
  Al  Al24  1  0.876575  0.438288  0.250000  1
  Al  Al25  1  0.123425  0.561712  0.750000  1
  Al  Al26  1  0.561712  0.438288  0.250000  1
  Al  Al27  1  0.438288  0.561712  0.750000  1
  Al  Al28  1  0.000000  0.000000  0.250000  1
  Al  Al29  1  0.000000  0.000000  0.750000  1
  Fe  Fe30  1  0.000000  0.000000  0.000000  1
  Fe  Fe31  1  0.000000  0.000000  0.500000  1
  Os  Os32  1  0.500000  0.000000  0.000000  1
  Os  Os33  1  0.000000  0.500000  0.000000  1
  Os  Os34  1  0.500000  0.000000  0.500000  1
  Os  Os35  1  0.500000  0.500000  0.000000  1
  Os  Os36  1  0.000000  0.500000  0.500000  1
  Os  Os37  1  0.500000  0.500000  0.500000  1
