# generated using pymatgen
data_DyTm4(Tl2Pt)2
_symmetry_space_group_name_H-M   'P 1'
_cell_length_a   3.60538000
_cell_length_b   8.08091700
_cell_length_c   18.12479600
_cell_angle_alpha   90.00000000
_cell_angle_beta   90.00000000
_cell_angle_gamma   90.00000000
_symmetry_Int_Tables_number   1
_chemical_formula_structural   DyTm4(Tl2Pt)2
_chemical_formula_sum   'Dy2 Tm8 Tl8 Pt4'
_cell_volume   528.06188117
_cell_formula_units_Z   2
loop_
 _symmetry_equiv_pos_site_id
 _symmetry_equiv_pos_as_xyz
  1  'x, y, z'
loop_
 _atom_site_type_symbol
 _atom_site_label
 _atom_site_symmetry_multiplicity
 _atom_site_fract_x
 _atom_site_fract_y
 _atom_site_fract_z
 _atom_site_occupancy
  Dy  Dy0  1  0.000000  0.000000  0.000000  1
  Dy  Dy1  1  0.000000  0.500000  0.500000  1
  Tm  Tm2  1  0.000000  0.116264  0.413718  1
  Tm  Tm3  1  0.000000  0.883736  0.586282  1
  Tm  Tm4  1  0.000000  0.383736  0.913718  1
  Tm  Tm5  1  0.000000  0.616264  0.086282  1
  Tm  Tm6  1  0.000000  0.243580  0.220439  1
  Tm  Tm7  1  0.000000  0.756420  0.779561  1
  Tm  Tm8  1  0.000000  0.256420  0.720439  1
  Tm  Tm9  1  0.000000  0.743580  0.279561  1
  Tl  Tl10  1  0.500000  0.421345  0.352246  1
  Tl  Tl11  1  0.500000  0.578655  0.647754  1
  Tl  Tl12  1  0.500000  0.078655  0.852246  1
  Tl  Tl13  1  0.500000  0.921345  0.147754  1
  Tl  Tl14  1  0.500000  0.293789  0.065246  1
  Tl  Tl15  1  0.500000  0.706211  0.934754  1
  Tl  Tl16  1  0.500000  0.206211  0.565246  1
  Tl  Tl17  1  0.500000  0.793789  0.434754  1
  Pt  Pt18  1  0.500000  0.027203  0.303573  1
  Pt  Pt19  1  0.500000  0.972797  0.696427  1
  Pt  Pt20  1  0.500000  0.472797  0.803573  1
  Pt  Pt21  1  0.500000  0.527203  0.196427  1
