# generated using pymatgen
data_HoHf(Si7Ir3)2
_symmetry_space_group_name_H-M   'P 1'
_cell_length_a   8.00453153
_cell_length_b   8.00453094
_cell_length_c   8.00453203
_cell_angle_alpha   56.67820275
_cell_angle_beta   56.67820137
_cell_angle_gamma   56.67820241
_symmetry_Int_Tables_number   1
_chemical_formula_structural   HoHf(Si7Ir3)2
_chemical_formula_sum   'Ho1 Hf1 Si14 Ir6'
_cell_volume   334.83381126
_cell_formula_units_Z   1
loop_
 _symmetry_equiv_pos_site_id
 _symmetry_equiv_pos_as_xyz
  1  'x, y, z'
loop_
 _atom_site_type_symbol
 _atom_site_label
 _atom_site_symmetry_multiplicity
 _atom_site_fract_x
 _atom_site_fract_y
 _atom_site_fract_z
 _atom_site_occupancy
  Ho  Ho0  1  0.000000  0.000000  0.000000  1
  Hf  Hf1  1  0.500000  0.500000  0.500000  1
  Si  Si2  1  0.750263  0.750263  0.750263  1
  Si  Si3  1  0.249737  0.249737  0.249737  1
  Si  Si4  1  0.850244  0.066785  0.670980  1
  Si  Si5  1  0.670980  0.850244  0.066785  1
  Si  Si6  1  0.066785  0.670980  0.850244  1
  Si  Si7  1  0.648133  0.825534  0.437205  1
  Si  Si8  1  0.437205  0.648133  0.825534  1
  Si  Si9  1  0.825534  0.437205  0.648133  1
  Si  Si10  1  0.174466  0.562795  0.351867  1
  Si  Si11  1  0.562795  0.351867  0.174466  1
  Si  Si12  1  0.351867  0.174466  0.562795  1
  Si  Si13  1  0.933215  0.329020  0.149756  1
  Si  Si14  1  0.329020  0.149756  0.933215  1
  Si  Si15  1  0.149756  0.933215  0.329020  1
  Ir  Ir16  1  0.073566  0.429927  0.747518  1
  Ir  Ir17  1  0.252482  0.926434  0.570073  1
  Ir  Ir18  1  0.570073  0.252482  0.926434  1
  Ir  Ir19  1  0.926434  0.570073  0.252482  1
  Ir  Ir20  1  0.429927  0.747518  0.073566  1
  Ir  Ir21  1  0.747518  0.073566  0.429927  1
