# generated using pymatgen
data_Li4Tb3Dy5(ScSi2)8
_symmetry_space_group_name_H-M   'P 1'
_cell_length_a   6.89798815
_cell_length_b   7.40634007
_cell_length_c   14.07992035
_cell_angle_alpha   90.01266896
_cell_angle_beta   90.02210828
_cell_angle_gamma   89.99101824
_symmetry_Int_Tables_number   1
_chemical_formula_structural   Li4Tb3Dy5(ScSi2)8
_chemical_formula_sum   'Li4 Tb3 Dy5 Sc8 Si16'
_cell_volume   719.32680268
_cell_formula_units_Z   1
loop_
 _symmetry_equiv_pos_site_id
 _symmetry_equiv_pos_as_xyz
  1  'x, y, z'
loop_
 _atom_site_type_symbol
 _atom_site_label
 _atom_site_symmetry_multiplicity
 _atom_site_fract_x
 _atom_site_fract_y
 _atom_site_fract_z
 _atom_site_occupancy
  Li  Li0  1  0.159098  0.505174  0.749933  1
  Li  Li1  1  0.840860  0.494774  0.250029  1
  Li  Li2  1  0.340933  0.005244  0.250033  1
  Li  Li3  1  0.659093  0.994823  0.749937  1
  Tb  Tb4  1  0.013688  0.181770  0.099305  1
  Tb  Tb5  1  0.986230  0.818340  0.900755  1
  Tb  Tb6  1  0.486275  0.681649  0.900795  1
  Dy  Dy7  1  0.986207  0.818068  0.599291  1
  Dy  Dy8  1  0.513772  0.318140  0.099353  1
  Dy  Dy9  1  0.013789  0.181944  0.400672  1
  Dy  Dy10  1  0.513812  0.318069  0.400753  1
  Dy  Dy11  1  0.486236  0.681906  0.599280  1
  Sc  Sc12  1  0.330240  0.179270  0.626366  1
  Sc  Sc13  1  0.669746  0.820726  0.373566  1
  Sc  Sc14  1  0.169801  0.679240  0.373565  1
  Sc  Sc15  1  0.669675  0.820722  0.126557  1
  Sc  Sc16  1  0.830242  0.320725  0.626356  1
  Sc  Sc17  1  0.330342  0.179276  0.873518  1
  Sc  Sc18  1  0.830222  0.320745  0.873496  1
  Sc  Sc19  1  0.169832  0.679158  0.126526  1
  Si  Si20  1  0.031627  0.104673  0.749815  1
  Si  Si21  1  0.968333  0.895432  0.250157  1
  Si  Si22  1  0.468512  0.604419  0.250051  1
  Si  Si23  1  0.531606  0.395361  0.749823  1
  Si  Si24  1  0.282060  0.882148  0.749700  1
  Si  Si25  1  0.717746  0.118056  0.250185  1
  Si  Si26  1  0.218218  0.381928  0.250148  1
  Si  Si27  1  0.782067  0.617835  0.749694  1
  Si  Si28  1  0.158088  0.463171  0.535262  1
  Si  Si29  1  0.841911  0.536858  0.464726  1
  Si  Si30  1  0.341919  0.963166  0.464720  1
  Si  Si31  1  0.841870  0.536825  0.035307  1
  Si  Si32  1  0.658073  0.036826  0.535262  1
  Si  Si33  1  0.157878  0.462924  0.964845  1
  Si  Si34  1  0.657693  0.037328  0.964920  1
  Si  Si35  1  0.342305  0.963288  0.035300  1
