# generated using pymatgen
data_LuSi3PRh6
_symmetry_space_group_name_H-M   'P 1'
_cell_length_a   7.06269457
_cell_length_b   7.06269482
_cell_length_c   3.71815900
_cell_angle_alpha   90.00000000
_cell_angle_beta   90.00000000
_cell_angle_gamma   120.53705383
_symmetry_Int_Tables_number   1
_chemical_formula_structural   LuSi3PRh6
_chemical_formula_sum   'Lu1 Si3 P1 Rh6'
_cell_volume   159.74366662
_cell_formula_units_Z   1
loop_
 _symmetry_equiv_pos_site_id
 _symmetry_equiv_pos_as_xyz
  1  'x, y, z'
loop_
 _atom_site_type_symbol
 _atom_site_label
 _atom_site_symmetry_multiplicity
 _atom_site_fract_x
 _atom_site_fract_y
 _atom_site_fract_z
 _atom_site_occupancy
  Lu  Lu0  1  0.332716  0.667284  0.000000  1
  Si  Si1  1  0.666717  0.333283  0.000000  1
  Si  Si2  1  0.725997  0.864284  0.500000  1
  Si  Si3  1  0.135716  0.274003  0.500000  1
  P  P4  1  0.140978  0.859022  0.500000  1
  Rh  Rh5  1  0.264466  0.132014  0.000000  1
  Rh  Rh6  1  0.867986  0.735534  0.000000  1
  Rh  Rh7  1  0.867020  0.132980  0.000000  1
  Rh  Rh8  1  0.941064  0.472473  0.500000  1
  Rh  Rh9  1  0.527527  0.058936  0.500000  1
  Rh  Rh10  1  0.529813  0.470187  0.500000  1
