# generated using pymatgen
data_KHgRhF6
_symmetry_space_group_name_H-M   'P 1'
_cell_length_a   5.96716700
_cell_length_b   5.96716743
_cell_length_c   10.38633500
_cell_angle_alpha   90.00000000
_cell_angle_beta   90.00000000
_cell_angle_gamma   119.99999205
_symmetry_Int_Tables_number   1
_chemical_formula_structural   KHgRhF6
_chemical_formula_sum   'K2 Hg2 Rh2 F12'
_cell_volume   320.27969702
_cell_formula_units_Z   2
loop_
 _symmetry_equiv_pos_site_id
 _symmetry_equiv_pos_as_xyz
  1  'x, y, z'
loop_
 _atom_site_type_symbol
 _atom_site_label
 _atom_site_symmetry_multiplicity
 _atom_site_fract_x
 _atom_site_fract_y
 _atom_site_fract_z
 _atom_site_occupancy
  K  K0  1  0.000000  0.000000  0.250000  1
  K  K1  1  0.000000  0.000000  0.750000  1
  Hg  Hg2  1  0.666667  0.333333  0.000000  1
  Hg  Hg3  1  0.333333  0.666666  0.500000  1
  Rh  Rh4  1  0.333333  0.666666  0.000000  1
  Rh  Rh5  1  0.666667  0.333333  0.500000  1
  F  F6  1  0.045449  0.388966  0.104171  1
  F  F7  1  0.611033  0.656483  0.104171  1
  F  F8  1  0.343518  0.954550  0.104171  1
  F  F9  1  0.656483  0.045450  0.395831  1
  F  F10  1  0.388967  0.343517  0.395831  1
  F  F11  1  0.954550  0.611033  0.395831  1
  F  F12  1  0.388966  0.045450  0.604170  1
  F  F13  1  0.954551  0.343517  0.604170  1
  F  F14  1  0.656483  0.611033  0.604170  1
  F  F15  1  0.343518  0.388966  0.895830  1
  F  F16  1  0.045450  0.656483  0.895830  1
  F  F17  1  0.611032  0.954550  0.895830  1
