# generated using pymatgen
data_MoOs5Ru2
_symmetry_space_group_name_H-M   'P 1'
_cell_length_a   5.52306099
_cell_length_b   5.52305907
_cell_length_c   4.37110900
_cell_angle_alpha   90.00000000
_cell_angle_beta   90.00000000
_cell_angle_gamma   120.11921444
_symmetry_Int_Tables_number   1
_chemical_formula_structural   MoOs5Ru2
_chemical_formula_sum   'Mo1 Os5 Ru2'
_cell_volume   115.33439178
_cell_formula_units_Z   1
loop_
 _symmetry_equiv_pos_site_id
 _symmetry_equiv_pos_as_xyz
  1  'x, y, z'
loop_
 _atom_site_type_symbol
 _atom_site_label
 _atom_site_symmetry_multiplicity
 _atom_site_fract_x
 _atom_site_fract_y
 _atom_site_fract_z
 _atom_site_occupancy
  Mo  Mo0  1  0.834040  0.165960  0.750000  1
  Os  Os1  1  0.170885  0.333634  0.249998  1
  Os  Os2  1  0.666366  0.829114  0.249998  1
  Os  Os3  1  0.165742  0.834257  0.249998  1
  Os  Os4  1  0.838404  0.671185  0.750000  1
  Os  Os5  1  0.328813  0.161593  0.750000  1
  Ru  Ru6  1  0.330938  0.669064  0.750000  1
  Ru  Ru7  1  0.664809  0.335191  0.249998  1
