# generated using pymatgen
data_Li8Cr4MoP12(WO16)3
_symmetry_space_group_name_H-M   'P 1'
_cell_length_a   8.66663300
_cell_length_b   8.86213900
_cell_length_c   12.29759100
_cell_angle_alpha   90.00000000
_cell_angle_beta   90.00000000
_cell_angle_gamma   90.00000000
_symmetry_Int_Tables_number   1
_chemical_formula_structural   Li8Cr4MoP12(WO16)3
_chemical_formula_sum   'Li8 Cr4 Mo1 P12 W3 O48'
_cell_volume   944.51532457
_cell_formula_units_Z   1
loop_
 _symmetry_equiv_pos_site_id
 _symmetry_equiv_pos_as_xyz
  1  'x, y, z'
loop_
 _atom_site_type_symbol
 _atom_site_label
 _atom_site_symmetry_multiplicity
 _atom_site_fract_x
 _atom_site_fract_y
 _atom_site_fract_z
 _atom_site_occupancy
  Li  Li0  1  0.469632  0.783239  0.683755  1
  Li  Li1  1  0.533294  0.274804  0.821463  1
  Li  Li2  1  0.530465  0.216062  0.183824  1
  Li  Li3  1  0.466594  0.725570  0.322082  1
  Li  Li4  1  0.033468  0.225662  0.321979  1
  Li  Li5  1  0.969493  0.716068  0.183821  1
  Li  Li6  1  0.966552  0.774284  0.821977  1
  Li  Li7  1  0.030670  0.284026  0.683910  1
  Cr  Cr8  1  0.495969  0.962453  0.886684  1
  Cr  Cr9  1  0.503897  0.037461  0.386776  1
  Cr  Cr10  1  0.996046  0.537690  0.386721  1
  Cr  Cr11  1  0.004024  0.462495  0.886724  1
  Mo  Mo12  1  0.502443  0.464525  0.615950  1
  P  P13  1  0.708911  0.751662  0.495522  1
  P  P14  1  0.290949  0.247827  0.995280  1
  P  P15  1  0.790454  0.252485  0.495390  1
  P  P16  1  0.209073  0.747836  0.995312  1
  P  P17  1  0.648152  0.608036  0.853392  1
  P  P18  1  0.360742  0.102515  0.646942  1
  P  P19  1  0.351862  0.391927  0.353954  1
  P  P20  1  0.639365  0.897914  0.147066  1
  P  P21  1  0.860626  0.397922  0.147062  1
  P  P22  1  0.148285  0.891903  0.353661  1
  P  P23  1  0.139967  0.601891  0.646919  1
  P  P24  1  0.851670  0.108149  0.853662  1
  W  W25  1  0.497877  0.535190  0.116126  1
  W  W26  1  0.002159  0.035202  0.116147  1
  W  W27  1  0.997770  0.964793  0.616214  1
  O  O28  1  0.595985  0.559531  0.967173  1
  O  O29  1  0.408006  0.062983  0.531667  1
  O  O30  1  0.404276  0.440086  0.467967  1
  O  O31  1  0.591980  0.936974  0.031751  1
  O  O32  1  0.908019  0.436951  0.031746  1
  O  O33  1  0.095928  0.940461  0.467355  1
  O  O34  1  0.092147  0.563027  0.531628  1
  O  O35  1  0.903981  0.059582  0.967324  1
  O  O36  1  0.602122  0.672973  0.580299  1
  O  O37  1  0.397569  0.161462  0.916230  1
  O  O38  1  0.397891  0.326133  0.080080  1
  O  O39  1  0.602364  0.838329  0.416506  1
  O  O40  1  0.897162  0.338915  0.416450  1
  O  O41  1  0.102107  0.826119  0.080086  1
  O  O42  1  0.102435  0.661456  0.916270  1
  O  O43  1  0.897261  0.174288  0.580260  1
  O  O44  1  0.585995  0.765299  0.822392  1
  O  O45  1  0.417381  0.262068  0.682221  1
  O  O46  1  0.414075  0.234823  0.322563  1
  O  O47  1  0.582611  0.738531  0.182608  1
  O  O48  1  0.917375  0.238565  0.182649  1
  O  O49  1  0.085982  0.734797  0.322393  1
  O  O50  1  0.083160  0.761333  0.682459  1
  O  O51  1  0.914072  0.265212  0.822386  1
  O  O52  1  0.303887  0.859139  0.929547  1
  O  O53  1  0.693779  0.365087  0.563852  1
  O  O54  1  0.695819  0.141099  0.429639  1
  O  O55  1  0.305368  0.635625  0.063695  1
  O  O56  1  0.194640  0.135639  0.063680  1
  O  O57  1  0.803970  0.640785  0.429535  1
  O  O58  1  0.805235  0.864106  0.563781  1
  O  O59  1  0.196048  0.359128  0.929584  1
  O  O60  1  0.422262  0.983064  0.727699  1
  O  O61  1  0.578050  0.485133  0.774358  1
  O  O62  1  0.577837  0.017238  0.227823  1
  O  O63  1  0.421840  0.515035  0.275038  1
  O  O64  1  0.078204  0.015031  0.274848  1
  O  O65  1  0.922183  0.517247  0.227801  1
  O  O66  1  0.921838  0.984958  0.774835  1
  O  O67  1  0.078065  0.482822  0.727770  1
  O  O68  1  0.321494  0.606562  0.655332  1
  O  O69  1  0.674808  0.104815  0.843287  1
  O  O70  1  0.679149  0.392640  0.155727  1
  O  O71  1  0.325165  0.895195  0.343287  1
  O  O72  1  0.174950  0.395277  0.343499  1
  O  O73  1  0.820851  0.892639  0.155734  1
  O  O74  1  0.825118  0.604730  0.843241  1
  O  O75  1  0.179147  0.107518  0.655617  1
