# generated using pymatgen
data_Er2VO5
_symmetry_space_group_name_H-M   'P 1'
_cell_length_a   3.69906100
_cell_length_b   10.28677900
_cell_length_c   11.21214100
_cell_angle_alpha   90.00000000
_cell_angle_beta   90.00000000
_cell_angle_gamma   90.00000000
_symmetry_Int_Tables_number   1
_chemical_formula_structural   Er2VO5
_chemical_formula_sum   'Er8 V4 O20'
_cell_volume   426.63792009
_cell_formula_units_Z   4
loop_
 _symmetry_equiv_pos_site_id
 _symmetry_equiv_pos_as_xyz
  1  'x, y, z'
loop_
 _atom_site_type_symbol
 _atom_site_label
 _atom_site_symmetry_multiplicity
 _atom_site_fract_x
 _atom_site_fract_y
 _atom_site_fract_z
 _atom_site_occupancy
  Er  Er0  1  0.250000  0.123073  0.272249  1
  Er  Er1  1  0.250000  0.136623  0.944621  1
  Er  Er2  1  0.750000  0.363377  0.444621  1
  Er  Er3  1  0.750000  0.376927  0.772249  1
  Er  Er4  1  0.250000  0.623073  0.227751  1
  Er  Er5  1  0.250000  0.636623  0.555379  1
  Er  Er6  1  0.750000  0.863377  0.055379  1
  Er  Er7  1  0.750000  0.876927  0.727751  1
  V  V8  1  0.250000  0.166759  0.615918  1
  V  V9  1  0.750000  0.333241  0.115918  1
  V  V10  1  0.250000  0.666759  0.884082  1
  V  V11  1  0.750000  0.833241  0.384082  1
  O  O12  1  0.750000  0.004224  0.894302  1
  O  O13  1  0.250000  0.002185  0.651862  1
  O  O14  1  0.250000  0.226765  0.454606  1
  O  O15  1  0.750000  0.246108  0.267992  1
  O  O16  1  0.750000  0.232702  0.613558  1
  O  O17  1  0.250000  0.267298  0.113558  1
  O  O18  1  0.250000  0.253892  0.767992  1
  O  O19  1  0.750000  0.273235  0.954606  1
  O  O20  1  0.750000  0.497815  0.151862  1
  O  O21  1  0.250000  0.495776  0.394302  1
  O  O22  1  0.750000  0.504224  0.605698  1
  O  O23  1  0.250000  0.502185  0.848138  1
  O  O24  1  0.250000  0.726765  0.045394  1
  O  O25  1  0.750000  0.746108  0.232008  1
  O  O26  1  0.750000  0.732702  0.886442  1
  O  O27  1  0.250000  0.767298  0.386442  1
  O  O28  1  0.250000  0.753892  0.732008  1
  O  O29  1  0.750000  0.773235  0.545394  1
  O  O30  1  0.750000  0.997815  0.348138  1
  O  O31  1  0.250000  0.995776  0.105698  1
