# generated using pymatgen
data_ErThGa2RuRh
_symmetry_space_group_name_H-M   'P 1'
_cell_length_a   4.17131100
_cell_length_b   6.99420900
_cell_length_c   8.07490200
_cell_angle_alpha   90.00000000
_cell_angle_beta   90.00000000
_cell_angle_gamma   90.00000000
_symmetry_Int_Tables_number   1
_chemical_formula_structural   ErThGa2RuRh
_chemical_formula_sum   'Er2 Th2 Ga4 Ru2 Rh2'
_cell_volume   235.58543492
_cell_formula_units_Z   2
loop_
 _symmetry_equiv_pos_site_id
 _symmetry_equiv_pos_as_xyz
  1  'x, y, z'
loop_
 _atom_site_type_symbol
 _atom_site_label
 _atom_site_symmetry_multiplicity
 _atom_site_fract_x
 _atom_site_fract_y
 _atom_site_fract_z
 _atom_site_occupancy
  Er  Er0  1  0.750000  0.035468  0.690917  1
  Er  Er1  1  0.750000  0.535468  0.809083  1
  Th  Th2  1  0.250000  0.971225  0.314014  1
  Th  Th3  1  0.250000  0.471225  0.185986  1
  Ga  Ga4  1  0.250000  0.351829  0.573061  1
  Ga  Ga5  1  0.250000  0.851829  0.926939  1
  Ga  Ga6  1  0.750000  0.641983  0.444053  1
  Ga  Ga7  1  0.750000  0.141983  0.055947  1
  Ru  Ru8  1  0.750000  0.759782  0.123421  1
  Ru  Ru9  1  0.750000  0.259782  0.376579  1
  Rh  Rh10  1  0.250000  0.239712  0.882979  1
  Rh  Rh11  1  0.250000  0.739712  0.617021  1
