# generated using pymatgen
data_Y8Nb11Si16Os
_symmetry_space_group_name_H-M   'P 1'
_cell_length_a   7.05045681
_cell_length_b   7.06136856
_cell_length_c   13.05571508
_cell_angle_alpha   89.73992650
_cell_angle_beta   89.93871375
_cell_angle_gamma   90.07000630
_symmetry_Int_Tables_number   1
_chemical_formula_structural   Y8Nb11Si16Os
_chemical_formula_sum   'Y8 Nb11 Si16 Os1'
_cell_volume   649.98262952
_cell_formula_units_Z   1
loop_
 _symmetry_equiv_pos_site_id
 _symmetry_equiv_pos_as_xyz
  1  'x, y, z'
loop_
 _atom_site_type_symbol
 _atom_site_label
 _atom_site_symmetry_multiplicity
 _atom_site_fract_x
 _atom_site_fract_y
 _atom_site_fract_z
 _atom_site_occupancy
  Y  Y0  1  0.998831  0.341244  0.219760  1
  Y  Y1  1  0.001380  0.659837  0.716160  1
  Y  Y2  1  0.159397  0.500722  0.467415  1
  Y  Y3  1  0.500010  0.840990  0.033752  1
  Y  Y4  1  0.840050  0.500835  0.967472  1
  Y  Y5  1  0.499080  0.158312  0.531709  1
  Y  Y6  1  0.340515  0.999576  0.781758  1
  Y  Y7  1  0.659827  0.000524  0.282347  1
  Nb  Nb8  1  0.170174  0.170912  0.000925  1
  Nb  Nb9  1  0.826248  0.829452  0.500060  1
  Nb  Nb10  1  0.328638  0.667099  0.249317  1
  Nb  Nb11  1  0.669279  0.330299  0.749827  1
  Nb  Nb12  1  0.845608  0.007424  0.875672  1
  Nb  Nb13  1  0.505217  0.657647  0.623834  1
  Nb  Nb14  1  0.344959  0.492467  0.874205  1
  Nb  Nb15  1  0.488541  0.341169  0.127782  1
  Nb  Nb16  1  0.656220  0.506743  0.374477  1
  Nb  Nb17  1  0.995106  0.154724  0.622990  1
  Nb  Nb18  1  0.005886  0.845160  0.123950  1
  Si  Si19  1  0.290495  0.040198  0.190274  1
  Si  Si20  1  0.707077  0.956116  0.687376  1
  Si  Si21  1  0.451450  0.793344  0.434844  1
  Si  Si22  1  0.206073  0.544917  0.062663  1
  Si  Si23  1  0.544424  0.205902  0.937057  1
  Si  Si24  1  0.792218  0.454717  0.562959  1
  Si  Si25  1  0.044430  0.293953  0.812660  1
  Si  Si26  1  0.961622  0.715830  0.313478  1
  Si  Si27  1  0.369276  0.291200  0.319263  1
  Si  Si28  1  0.630980  0.705858  0.817128  1
  Si  Si29  1  0.200996  0.870323  0.564097  1
  Si  Si30  1  0.131569  0.795741  0.932341  1
  Si  Si31  1  0.795946  0.132348  0.067967  1
  Si  Si32  1  0.875476  0.197429  0.432315  1
  Si  Si33  1  0.296054  0.368527  0.681935  1
  Si  Si34  1  0.703913  0.629204  0.183732  1
  Os  Os35  1  0.163027  0.999260  0.376497  1
