# generated using pymatgen
data_LuGa2Co2Cu
_symmetry_space_group_name_H-M   'P 1'
_cell_length_a   8.71666300
_cell_length_b   8.71666310
_cell_length_c   4.05573400
_cell_angle_alpha   90.00000000
_cell_angle_beta   90.00000000
_cell_angle_gamma   119.99999582
_symmetry_Int_Tables_number   1
_chemical_formula_structural   LuGa2Co2Cu
_chemical_formula_sum   'Lu3 Ga6 Co6 Cu3'
_cell_volume   266.87053741
_cell_formula_units_Z   3
loop_
 _symmetry_equiv_pos_site_id
 _symmetry_equiv_pos_as_xyz
  1  'x, y, z'
loop_
 _atom_site_type_symbol
 _atom_site_label
 _atom_site_symmetry_multiplicity
 _atom_site_fract_x
 _atom_site_fract_y
 _atom_site_fract_z
 _atom_site_occupancy
  Lu  Lu0  1  0.666667  0.333333  0.500000  1
  Lu  Lu1  1  0.333333  0.666667  0.500000  1
  Lu  Lu2  1  0.000000  0.000000  0.000000  1
  Ga  Ga3  1  0.488317  0.488317  0.000000  1
  Ga  Ga4  1  0.511683  0.000000  0.000000  1
  Ga  Ga5  1  0.000000  0.511683  0.000000  1
  Ga  Ga6  1  0.723323  0.723323  0.500000  1
  Ga  Ga7  1  0.276677  0.000000  0.500000  1
  Ga  Ga8  1  0.000000  0.276677  0.500000  1
  Co  Co9  1  0.822503  0.194066  0.000000  1
  Co  Co10  1  0.805934  0.628437  0.000000  1
  Co  Co11  1  0.371563  0.177497  0.000000  1
  Co  Co12  1  0.194066  0.822503  0.000000  1
  Co  Co13  1  0.628437  0.805934  0.000000  1
  Co  Co14  1  0.177497  0.371563  0.000000  1
  Cu  Cu15  1  0.292943  0.292943  0.500000  1
  Cu  Cu16  1  0.707057  0.000000  0.500000  1
  Cu  Cu17  1  0.000000  0.707057  0.500000  1
