# generated using pymatgen
data_Sr8Cd(Si4Pt)3
_symmetry_space_group_name_H-M   'P 1'
_cell_length_a   11.85897070
_cell_length_b   10.27575674
_cell_length_c   8.36292459
_cell_angle_alpha   78.28842199
_cell_angle_beta   58.03929459
_cell_angle_gamma   43.67239318
_symmetry_Int_Tables_number   1
_chemical_formula_structural   Sr8Cd(Si4Pt)3
_chemical_formula_sum   'Sr8 Cd1 Si12 Pt3'
_cell_volume   568.20916584
_cell_formula_units_Z   1
loop_
 _symmetry_equiv_pos_site_id
 _symmetry_equiv_pos_as_xyz
  1  'x, y, z'
loop_
 _atom_site_type_symbol
 _atom_site_label
 _atom_site_symmetry_multiplicity
 _atom_site_fract_x
 _atom_site_fract_y
 _atom_site_fract_z
 _atom_site_occupancy
  Sr  Sr0  1  0.119230  0.126880  0.884809  1
  Sr  Sr1  1  0.884804  0.869163  0.119190  1
  Sr  Sr2  1  0.119192  0.125038  0.373532  1
  Sr  Sr3  1  0.373295  0.382160  0.119431  1
  Sr  Sr4  1  0.631593  0.615680  0.371205  1
  Sr  Sr5  1  0.371132  0.381472  0.631529  1
  Sr  Sr6  1  0.624904  0.621387  0.876323  1
  Sr  Sr7  1  0.876495  0.877391  0.624664  1
  Cd  Cd8  1  0.416472  0.083409  0.416533  1
  Si  Si9  1  0.915935  0.579563  0.416122  1
  Si  Si10  1  0.064308  0.438583  0.592068  1
  Si  Si11  1  0.416203  0.088542  0.915830  1
  Si  Si12  1  0.592295  0.905307  0.064064  1
  Si  Si13  1  0.335255  0.669576  0.831861  1
  Si  Si14  1  0.663872  0.329968  0.168641  1
  Si  Si15  1  0.831711  0.163222  0.335345  1
  Si  Si16  1  0.168503  0.837364  0.664057  1
  Si  Si17  1  0.918975  0.581222  0.918834  1
  Si  Si18  1  0.593279  0.906855  0.593137  1
  Si  Si19  1  0.332151  0.667851  0.332075  1
  Si  Si20  1  0.667189  0.332498  0.667579  1
  Pt  Pt21  1  0.083156  0.416717  0.083266  1
  Pt  Pt22  1  0.833425  0.166677  0.833361  1
  Pt  Pt23  1  0.166631  0.833482  0.166543  1
