# generated using pymatgen
data_Sr4Ca2ReSbO12
_symmetry_space_group_name_H-M   'P 1'
_cell_length_a   5.84823595
_cell_length_b   5.95940099
_cell_length_c   8.30784904
_cell_angle_alpha   89.87734080
_cell_angle_beta   90.32788053
_cell_angle_gamma   89.94997808
_symmetry_Int_Tables_number   1
_chemical_formula_structural   Sr4Ca2ReSbO12
_chemical_formula_sum   'Sr4 Ca2 Re1 Sb1 O12'
_cell_volume   289.53949642
_cell_formula_units_Z   1
loop_
 _symmetry_equiv_pos_site_id
 _symmetry_equiv_pos_as_xyz
  1  'x, y, z'
loop_
 _atom_site_type_symbol
 _atom_site_label
 _atom_site_symmetry_multiplicity
 _atom_site_fract_x
 _atom_site_fract_y
 _atom_site_fract_z
 _atom_site_occupancy
  Sr  Sr0  1  0.491829  0.541222  0.237138  1
  Sr  Sr1  1  0.009641  0.044852  0.237364  1
  Sr  Sr2  1  0.990358  0.955147  0.762636  1
  Sr  Sr3  1  0.508172  0.458777  0.762862  1
  Ca  Ca4  1  0.499999  0.000000  0.000000  1
  Ca  Ca5  1  0.000000  0.500000  0.500001  1
  Re  Re6  1  0.500001  0.000000  0.500001  1
  Sb  Sb7  1  0.000000  0.500000  0.000000  1
  O  O8  1  0.275199  0.304717  0.042619  1
  O  O9  1  0.190369  0.775490  0.047610  1
  O  O10  1  0.913567  0.471446  0.234942  1
  O  O11  1  0.579909  0.976483  0.278783  1
  O  O12  1  0.322253  0.262618  0.454490  1
  O  O13  1  0.237778  0.817837  0.460133  1
  O  O14  1  0.762221  0.182162  0.539867  1
  O  O15  1  0.677748  0.737382  0.545510  1
  O  O16  1  0.420091  0.023518  0.721217  1
  O  O17  1  0.086433  0.528553  0.765058  1
  O  O18  1  0.809631  0.224509  0.952391  1
  O  O19  1  0.724801  0.695282  0.957381  1
