# generated using pymatgen
data_BaAc2Cd11
_symmetry_space_group_name_H-M   'P 1'
_cell_length_a   9.42209025
_cell_length_b   9.42393274
_cell_length_c   9.42377173
_cell_angle_alpha   147.70269851
_cell_angle_beta   117.18582672
_cell_angle_gamma   72.41432356
_symmetry_Int_Tables_number   1
_chemical_formula_structural   BaAc2Cd11
_chemical_formula_sum   'Ba1 Ac2 Cd11'
_cell_volume   391.43420468
_cell_formula_units_Z   1
loop_
 _symmetry_equiv_pos_site_id
 _symmetry_equiv_pos_as_xyz
  1  'x, y, z'
loop_
 _atom_site_type_symbol
 _atom_site_label
 _atom_site_symmetry_multiplicity
 _atom_site_fract_x
 _atom_site_fract_y
 _atom_site_fract_z
 _atom_site_occupancy
  Ba  Ba0  1  0.000000  0.000001  0.000001  1
  Ac  Ac1  1  0.302884  0.302863  0.000010  1
  Ac  Ac2  1  0.697116  0.697135  0.999988  1
  Cd  Cd3  1  0.684243  0.499990  0.184224  1
  Cd  Cd4  1  0.426988  0.141433  0.285556  1
  Cd  Cd5  1  0.144153  0.858575  0.285577  1
  Cd  Cd6  1  0.690089  0.334737  0.355360  1
  Cd  Cd7  1  0.020624  0.665258  0.355346  1
  Cd  Cd8  1  0.500000  0.000000  0.500000  1
  Cd  Cd9  1  0.979376  0.334743  0.644654  1
  Cd  Cd10  1  0.309911  0.665264  0.644641  1
  Cd  Cd11  1  0.855848  0.141425  0.714425  1
  Cd  Cd12  1  0.573012  0.858569  0.714446  1
  Cd  Cd13  1  0.315757  0.500011  0.815777  1
