# generated using pymatgen
data_Nd2Zn4CdIn
_symmetry_space_group_name_H-M   'P 1'
_cell_length_a   4.64418200
_cell_length_b   7.40522500
_cell_length_c   10.24580600
_cell_angle_alpha   90.00000000
_cell_angle_beta   90.00000000
_cell_angle_gamma   90.00000000
_symmetry_Int_Tables_number   1
_chemical_formula_structural   Nd2Zn4CdIn
_chemical_formula_sum   'Nd4 Zn8 Cd2 In2'
_cell_volume   352.36569293
_cell_formula_units_Z   2
loop_
 _symmetry_equiv_pos_site_id
 _symmetry_equiv_pos_as_xyz
  1  'x, y, z'
loop_
 _atom_site_type_symbol
 _atom_site_label
 _atom_site_symmetry_multiplicity
 _atom_site_fract_x
 _atom_site_fract_y
 _atom_site_fract_z
 _atom_site_occupancy
  Nd  Nd0  1  0.250000  0.312060  0.675599  1
  Nd  Nd1  1  0.250000  0.812060  0.824401  1
  Nd  Nd2  1  0.750000  0.691045  0.329451  1
  Nd  Nd3  1  0.750000  0.191045  0.170549  1
  Zn  Zn4  1  0.250000  0.906715  0.144724  1
  Zn  Zn5  1  0.250000  0.406715  0.355276  1
  Zn  Zn6  1  0.750000  0.095491  0.854289  1
  Zn  Zn7  1  0.750000  0.595491  0.645711  1
  Zn  Zn8  1  0.250000  0.178092  0.963338  1
  Zn  Zn9  1  0.250000  0.678092  0.536662  1
  Zn  Zn10  1  0.750000  0.816177  0.036315  1
  Zn  Zn11  1  0.750000  0.316177  0.463685  1
  Cd  Cd12  1  0.750000  0.475896  0.902098  1
  Cd  Cd13  1  0.750000  0.975896  0.597902  1
  In  In14  1  0.250000  0.524522  0.095875  1
  In  In15  1  0.250000  0.024522  0.404125  1
