# generated using pymatgen
data_Cs2Sm2InAgTe6
_symmetry_space_group_name_H-M   'P 1'
_cell_length_a   9.01718669
_cell_length_b   9.01718573
_cell_length_c   12.00719800
_cell_angle_alpha   90.00000000
_cell_angle_beta   90.00000000
_cell_angle_gamma   150.44706862
_symmetry_Int_Tables_number   1
_chemical_formula_structural   Cs2Sm2InAgTe6
_chemical_formula_sum   'Cs2 Sm2 In1 Ag1 Te6'
_cell_volume   481.53842793
_cell_formula_units_Z   1
loop_
 _symmetry_equiv_pos_site_id
 _symmetry_equiv_pos_as_xyz
  1  'x, y, z'
loop_
 _atom_site_type_symbol
 _atom_site_label
 _atom_site_symmetry_multiplicity
 _atom_site_fract_x
 _atom_site_fract_y
 _atom_site_fract_z
 _atom_site_occupancy
  Cs  Cs0  1  0.247507  0.752492  0.250000  1
  Cs  Cs1  1  0.745916  0.254083  0.750000  1
  Sm  Sm2  1  0.505114  0.494886  0.977803  1
  Sm  Sm3  1  0.505114  0.494886  0.522197  1
  In  In4  1  0.963015  0.036984  0.250000  1
  Ag  Ag5  1  0.034210  0.965789  0.750000  1
  Te  Te6  1  0.880850  0.119149  0.052363  1
  Te  Te7  1  0.563244  0.436755  0.250000  1
  Te  Te8  1  0.880850  0.119149  0.447637  1
  Te  Te9  1  0.122293  0.877706  0.550652  1
  Te  Te10  1  0.429587  0.570412  0.750000  1
  Te  Te11  1  0.122293  0.877706  0.949349  1
