# generated using pymatgen
data_Ta4Pd(RhS6)2
_symmetry_space_group_name_H-M   'P 1'
_cell_length_a   7.15352204
_cell_length_b   7.15352152
_cell_length_c   19.03281832
_cell_angle_alpha   69.35214857
_cell_angle_beta   69.35215039
_cell_angle_gamma   27.62566837
_symmetry_Int_Tables_number   1
_chemical_formula_structural   Ta4Pd(RhS6)2
_chemical_formula_sum   'Ta4 Pd1 Rh2 S12'
_cell_volume   420.79297509
_cell_formula_units_Z   1
loop_
 _symmetry_equiv_pos_site_id
 _symmetry_equiv_pos_as_xyz
  1  'x, y, z'
loop_
 _atom_site_type_symbol
 _atom_site_label
 _atom_site_symmetry_multiplicity
 _atom_site_fract_x
 _atom_site_fract_y
 _atom_site_fract_z
 _atom_site_occupancy
  Ta  Ta0  1  0.624790  0.624790  0.849762  1
  Ta  Ta1  1  0.375210  0.375210  0.150238  1
  Ta  Ta2  1  0.744813  0.744813  0.592846  1
  Ta  Ta3  1  0.255187  0.255187  0.407154  1
  Pd  Pd4  1  0.000000  0.000000  0.000000  1
  Rh  Rh5  1  0.231685  0.231685  0.717907  1
  Rh  Rh6  1  0.768315  0.768315  0.282093  1
  S  S7  1  0.984034  0.984034  0.881145  1
  S  S8  1  0.015966  0.015966  0.118855  1
  S  S9  1  0.630659  0.630659  0.404866  1
  S  S10  1  0.369341  0.369341  0.595134  1
  S  S11  1  0.146728  0.146728  0.551005  1
  S  S12  1  0.853272  0.853272  0.448995  1
  S  S13  1  0.805100  0.805100  0.768184  1
  S  S14  1  0.194900  0.194900  0.231816  1
  S  S15  1  0.177877  0.177877  0.924951  1
  S  S16  1  0.822123  0.822123  0.075049  1
  S  S17  1  0.609794  0.609794  0.718854  1
  S  S18  1  0.390206  0.390206  0.281146  1
