# generated using pymatgen
data_Zr12Nb8Si15B
_symmetry_space_group_name_H-M   'P 1'
_cell_length_a   6.95424623
_cell_length_b   6.96617525
_cell_length_c   12.81166100
_cell_angle_alpha   90.30473051
_cell_angle_beta   90.15993066
_cell_angle_gamma   89.76880763
_symmetry_Int_Tables_number   1
_chemical_formula_structural   Zr12Nb8Si15B
_chemical_formula_sum   'Zr12 Nb8 Si15 B1'
_cell_volume   620.63827430
_cell_formula_units_Z   1
loop_
 _symmetry_equiv_pos_site_id
 _symmetry_equiv_pos_as_xyz
  1  'x, y, z'
loop_
 _atom_site_type_symbol
 _atom_site_label
 _atom_site_symmetry_multiplicity
 _atom_site_fract_x
 _atom_site_fract_y
 _atom_site_fract_z
 _atom_site_occupancy
  Zr  Zr0  1  0.649426  0.496827  0.876358  1
  Zr  Zr1  1  0.498385  0.354186  0.620427  1
  Zr  Zr2  1  0.500892  0.647089  0.125993  1
  Zr  Zr3  1  0.147605  0.999768  0.873109  1
  Zr  Zr4  1  0.001291  0.653710  0.035854  1
  Zr  Zr5  1  0.000974  0.354657  0.527342  1
  Zr  Zr6  1  0.653635  0.997274  0.968220  1
  Zr  Zr7  1  0.152452  0.497840  0.782106  1
  Zr  Zr8  1  0.855109  0.508330  0.289209  1
  Zr  Zr9  1  0.501062  0.154291  0.220497  1
  Zr  Zr10  1  0.498183  0.843963  0.710873  1
  Zr  Zr11  1  0.338475  0.998808  0.466455  1
  Nb  Nb12  1  0.343589  0.511354  0.376603  1
  Nb  Nb13  1  0.863369  0.984096  0.378964  1
  Nb  Nb14  1  0.008050  0.147873  0.128098  1
  Nb  Nb15  1  0.993382  0.849423  0.619390  1
  Nb  Nb16  1  0.678622  0.674477  0.498076  1
  Nb  Nb17  1  0.827843  0.171414  0.747898  1
  Nb  Nb18  1  0.170569  0.827412  0.257409  1
  Nb  Nb19  1  0.328084  0.324013  0.001873  1
  Si  Si20  1  0.955495  0.299070  0.938747  1
  Si  Si21  1  0.702606  0.048311  0.560792  1
  Si  Si22  1  0.200402  0.450225  0.188677  1
  Si  Si23  1  0.801714  0.547975  0.683520  1
  Si  Si24  1  0.452849  0.196624  0.812136  1
  Si  Si25  1  0.550354  0.800009  0.316717  1
  Si  Si26  1  0.298764  0.953162  0.067216  1
  Si  Si27  1  0.854625  0.797188  0.816225  1
  Si  Si28  1  0.137031  0.209298  0.324436  1
  Si  Si29  1  0.799365  0.864248  0.182041  1
  Si  Si30  1  0.279837  0.644623  0.563343  1
  Si  Si31  1  0.711178  0.352420  0.075223  1
  Si  Si32  1  0.639005  0.292254  0.422833  1
  Si  Si33  1  0.354467  0.702367  0.930164  1
  Si  Si34  1  0.197668  0.138984  0.673863  1
  B  B35  1  0.053638  0.706440  0.439314  1
