# generated using pymatgen
data_LaNdWO6
_symmetry_space_group_name_H-M   'P 1'
_cell_length_a   5.50650400
_cell_length_b   9.47561300
_cell_length_c   10.37073200
_cell_angle_alpha   90.00000000
_cell_angle_beta   90.00000000
_cell_angle_gamma   90.00000000
_symmetry_Int_Tables_number   1
_chemical_formula_structural   LaNdWO6
_chemical_formula_sum   'La4 Nd4 W4 O24'
_cell_volume   541.11887813
_cell_formula_units_Z   4
loop_
 _symmetry_equiv_pos_site_id
 _symmetry_equiv_pos_as_xyz
  1  'x, y, z'
loop_
 _atom_site_type_symbol
 _atom_site_label
 _atom_site_symmetry_multiplicity
 _atom_site_fract_x
 _atom_site_fract_y
 _atom_site_fract_z
 _atom_site_occupancy
  La  La0  1  0.530766  0.220297  0.362164  1
  La  La1  1  0.030766  0.279703  0.637836  1
  La  La2  1  0.469234  0.720297  0.137836  1
  La  La3  1  0.969234  0.779703  0.862164  1
  Nd  Nd4  1  0.522003  0.103048  0.957431  1
  Nd  Nd5  1  0.022003  0.396952  0.042569  1
  Nd  Nd6  1  0.477997  0.603048  0.542569  1
  Nd  Nd7  1  0.977997  0.896952  0.457431  1
  W  W8  1  0.462666  0.993842  0.642913  1
  W  W9  1  0.962666  0.506158  0.357087  1
  W  W10  1  0.537334  0.493842  0.857087  1
  W  W11  1  0.037334  0.006158  0.142913  1
  O  O12  1  0.303809  0.137582  0.171957  1
  O  O13  1  0.803809  0.362418  0.828043  1
  O  O14  1  0.696191  0.637582  0.328043  1
  O  O15  1  0.196191  0.862418  0.671957  1
  O  O16  1  0.723462  0.109252  0.562327  1
  O  O17  1  0.223462  0.390748  0.437673  1
  O  O18  1  0.276538  0.609252  0.937673  1
  O  O19  1  0.776538  0.890748  0.062327  1
  O  O20  1  0.679037  0.634544  0.744728  1
  O  O21  1  0.179037  0.865456  0.255272  1
  O  O22  1  0.320963  0.134544  0.755272  1
  O  O23  1  0.820963  0.365456  0.244728  1
  O  O24  1  0.667237  0.948995  0.785535  1
  O  O25  1  0.167237  0.551005  0.214465  1
  O  O26  1  0.332763  0.448995  0.714465  1
  O  O27  1  0.832763  0.051005  0.285535  1
  O  O28  1  0.255223  0.083759  0.505496  1
  O  O29  1  0.755223  0.416241  0.494504  1
  O  O30  1  0.744777  0.583759  0.994504  1
  O  O31  1  0.244777  0.916241  0.005496  1
  O  O32  1  0.085947  0.655202  0.471558  1
  O  O33  1  0.585947  0.844798  0.528442  1
  O  O34  1  0.914053  0.155202  0.028442  1
  O  O35  1  0.414053  0.344798  0.971558  1
