# generated using pymatgen
data_Zr6Al6NiAu5
_symmetry_space_group_name_H-M   'P 1'
_cell_length_a   6.83596300
_cell_length_b   6.83596308
_cell_length_c   8.25608000
_cell_angle_alpha   90.00000000
_cell_angle_beta   90.00000000
_cell_angle_gamma   119.99999477
_symmetry_Int_Tables_number   1
_chemical_formula_structural   Zr6Al6NiAu5
_chemical_formula_sum   'Zr6 Al6 Ni1 Au5'
_cell_volume   334.12114355
_cell_formula_units_Z   1
loop_
 _symmetry_equiv_pos_site_id
 _symmetry_equiv_pos_as_xyz
  1  'x, y, z'
loop_
 _atom_site_type_symbol
 _atom_site_label
 _atom_site_symmetry_multiplicity
 _atom_site_fract_x
 _atom_site_fract_y
 _atom_site_fract_z
 _atom_site_occupancy
  Zr  Zr0  1  0.599267  0.998551  0.750000  1
  Zr  Zr1  1  0.001449  0.600715  0.750000  1
  Zr  Zr2  1  0.399285  0.400733  0.750000  1
  Zr  Zr3  1  0.999140  0.580691  0.250000  1
  Zr  Zr4  1  0.581551  0.000860  0.250000  1
  Zr  Zr5  1  0.419309  0.418449  0.250000  1
  Al  Al6  1  0.757711  0.757107  0.989331  1
  Al  Al7  1  0.242893  0.000603  0.989331  1
  Al  Al8  1  0.999397  0.242289  0.989331  1
  Al  Al9  1  0.757711  0.757107  0.510669  1
  Al  Al10  1  0.242893  0.000603  0.510669  1
  Al  Al11  1  0.999397  0.242289  0.510669  1
  Ni  Ni12  1  0.000000  0.000000  0.750000  1
  Au  Au13  1  0.000000  0.000000  0.250000  1
  Au  Au14  1  0.666667  0.333333  0.997712  1
  Au  Au15  1  0.666667  0.333333  0.502288  1
  Au  Au16  1  0.333333  0.666667  0.500135  1
  Au  Au17  1  0.333333  0.666667  0.999865  1
