# generated using pymatgen
data_La5TcSn2
_symmetry_space_group_name_H-M   'P 1'
_cell_length_a   8.38380700
_cell_length_b   9.39928500
_cell_length_c   12.92518700
_cell_angle_alpha   90.00000000
_cell_angle_beta   90.00000000
_cell_angle_gamma   90.00000000
_symmetry_Int_Tables_number   1
_chemical_formula_structural   La5TcSn2
_chemical_formula_sum   'La20 Tc4 Sn8'
_cell_volume   1018.52788950
_cell_formula_units_Z   4
loop_
 _symmetry_equiv_pos_site_id
 _symmetry_equiv_pos_as_xyz
  1  'x, y, z'
loop_
 _atom_site_type_symbol
 _atom_site_label
 _atom_site_symmetry_multiplicity
 _atom_site_fract_x
 _atom_site_fract_y
 _atom_site_fract_z
 _atom_site_occupancy
  La  La0  1  0.351021  0.750000  0.705847  1
  La  La1  1  0.648979  0.250000  0.294153  1
  La  La2  1  0.851021  0.250000  0.794153  1
  La  La3  1  0.148979  0.750000  0.205847  1
  La  La4  1  0.881675  0.750000  0.806348  1
  La  La5  1  0.118325  0.250000  0.193652  1
  La  La6  1  0.381675  0.250000  0.693652  1
  La  La7  1  0.618325  0.750000  0.306348  1
  La  La8  1  0.681221  0.526432  0.568990  1
  La  La9  1  0.318779  0.473568  0.431010  1
  La  La10  1  0.181221  0.473568  0.931010  1
  La  La11  1  0.318779  0.026432  0.431010  1
  La  La12  1  0.818779  0.526432  0.068990  1
  La  La13  1  0.681221  0.973568  0.568990  1
  La  La14  1  0.818779  0.973568  0.068990  1
  La  La15  1  0.181221  0.026432  0.931010  1
  La  La16  1  0.045863  0.750000  0.496644  1
  La  La17  1  0.954137  0.250000  0.503356  1
  La  La18  1  0.545863  0.250000  0.003356  1
  La  La19  1  0.454137  0.750000  0.996644  1
  Tc  Tc20  1  0.084921  0.750000  0.984557  1
  Tc  Tc21  1  0.915079  0.250000  0.015443  1
  Tc  Tc22  1  0.584921  0.250000  0.515443  1
  Tc  Tc23  1  0.415079  0.750000  0.484557  1
  Sn  Sn24  1  0.573693  0.505824  0.828953  1
  Sn  Sn25  1  0.426307  0.494176  0.171047  1
  Sn  Sn26  1  0.073693  0.494176  0.671047  1
  Sn  Sn27  1  0.426307  0.005824  0.171047  1
  Sn  Sn28  1  0.926307  0.505824  0.328953  1
  Sn  Sn29  1  0.573693  0.994176  0.828953  1
  Sn  Sn30  1  0.926307  0.994176  0.328953  1
  Sn  Sn31  1  0.073693  0.005824  0.671047  1
