# generated using pymatgen
data_Pa2TiCdPt12
_symmetry_space_group_name_H-M   'P 1'
_cell_length_a   5.77300700
_cell_length_b   5.77300749
_cell_length_c   9.50753800
_cell_angle_alpha   90.00000000
_cell_angle_beta   90.00000000
_cell_angle_gamma   120.00000290
_symmetry_Int_Tables_number   1
_chemical_formula_structural   Pa2TiCdPt12
_chemical_formula_sum   'Pa2 Ti1 Cd1 Pt12'
_cell_volume   274.41187058
_cell_formula_units_Z   1
loop_
 _symmetry_equiv_pos_site_id
 _symmetry_equiv_pos_as_xyz
  1  'x, y, z'
loop_
 _atom_site_type_symbol
 _atom_site_label
 _atom_site_symmetry_multiplicity
 _atom_site_fract_x
 _atom_site_fract_y
 _atom_site_fract_z
 _atom_site_occupancy
  Pa  Pa0  1  0.000000  0.000000  0.496070  1
  Pa  Pa1  1  0.000000  0.000000  0.003930  1
  Ti  Ti2  1  0.666667  0.333333  0.750000  1
  Cd  Cd3  1  0.333333  0.666667  0.250000  1
  Pt  Pt4  1  0.503496  0.496504  0.509369  1
  Pt  Pt5  1  0.503496  0.006992  0.509369  1
  Pt  Pt6  1  0.993008  0.496504  0.509369  1
  Pt  Pt7  1  0.503496  0.496504  0.990631  1
  Pt  Pt8  1  0.503496  0.006992  0.990631  1
  Pt  Pt9  1  0.993008  0.496504  0.990631  1
  Pt  Pt10  1  0.828649  0.657298  0.250000  1
  Pt  Pt11  1  0.342702  0.171351  0.250000  1
  Pt  Pt12  1  0.828649  0.171351  0.250000  1
  Pt  Pt13  1  0.169253  0.338505  0.750000  1
  Pt  Pt14  1  0.661495  0.830747  0.750000  1
  Pt  Pt15  1  0.169253  0.830747  0.750000  1
