# generated using pymatgen
data_Ta12Tc11B12Ir
_symmetry_space_group_name_H-M   'P 1'
_cell_length_a   3.16983000
_cell_length_b   9.06344763
_cell_length_c   15.70308037
_cell_angle_alpha   89.79212964
_cell_angle_beta   90.00000000
_cell_angle_gamma   90.00000000
_symmetry_Int_Tables_number   1
_chemical_formula_structural   Ta12Tc11B12Ir
_chemical_formula_sum   'Ta12 Tc11 B12 Ir1'
_cell_volume   451.14006373
_cell_formula_units_Z   1
loop_
 _symmetry_equiv_pos_site_id
 _symmetry_equiv_pos_as_xyz
  1  'x, y, z'
loop_
 _atom_site_type_symbol
 _atom_site_label
 _atom_site_symmetry_multiplicity
 _atom_site_fract_x
 _atom_site_fract_y
 _atom_site_fract_z
 _atom_site_occupancy
  Ta  Ta0  1  0.000000  0.805103  0.494618  1
  Ta  Ta1  1  0.000000  0.195140  0.506967  1
  Ta  Ta2  1  0.000000  0.304924  0.006147  1
  Ta  Ta3  1  0.000000  0.693709  0.992568  1
  Ta  Ta4  1  0.000000  0.517307  0.595554  1
  Ta  Ta5  1  0.000000  0.484526  0.404480  1
  Ta  Ta6  1  0.000000  0.016584  0.903916  1
  Ta  Ta7  1  0.000000  0.983412  0.094510  1
  Ta  Ta8  1  0.000000  0.675383  0.206463  1
  Ta  Ta9  1  0.000000  0.320619  0.792595  1
  Ta  Ta10  1  0.000000  0.186691  0.294628  1
  Ta  Ta11  1  0.000000  0.820525  0.707346  1
  Tc  Tc12  1  0.500000  0.719180  0.357358  1
  Tc  Tc13  1  0.500000  0.282622  0.641809  1
  Tc  Tc14  1  0.500000  0.214687  0.142462  1
  Tc  Tc15  1  0.500000  0.782507  0.858067  1
  Tc  Tc16  1  0.500000  0.518214  0.095878  1
  Tc  Tc17  1  0.500000  0.481643  0.905952  1
  Tc  Tc18  1  0.500000  0.019795  0.402878  1
  Tc  Tc19  1  0.500000  0.981302  0.593418  1
  Tc  Tc20  1  0.500000  0.567762  0.732196  1
  Tc  Tc21  1  0.500000  0.432356  0.267619  1
  Tc  Tc22  1  0.500000  0.069241  0.767161  1
  B  B23  1  0.500000  0.604935  0.493745  1
  B  B24  1  0.500000  0.396039  0.506063  1
  B  B25  1  0.500000  0.104169  0.005119  1
  B  B26  1  0.500000  0.894958  0.994452  1
  B  B27  1  0.000000  0.609562  0.832148  1
  B  B28  1  0.000000  0.388612  0.166838  1
  B  B29  1  0.000000  0.108988  0.666918  1
  B  B30  1  0.000000  0.887977  0.338276  1
  B  B31  1  0.500000  0.718249  0.603474  1
  B  B32  1  0.500000  0.284216  0.398226  1
  B  B33  1  0.500000  0.217121  0.897534  1
  B  B34  1  0.500000  0.780235  0.100394  1
  Ir  Ir35  1  0.500000  0.931707  0.232224  1
