# generated using pymatgen
data_LaTaCo2P3Rh2
_symmetry_space_group_name_H-M   'P 1'
_cell_length_a   3.86452400
_cell_length_b   10.97295100
_cell_length_c   12.62227300
_cell_angle_alpha   90.00000000
_cell_angle_beta   90.00000000
_cell_angle_gamma   90.00000000
_symmetry_Int_Tables_number   1
_chemical_formula_structural   LaTaCo2P3Rh2
_chemical_formula_sum   'La4 Ta4 Co8 P12 Rh8'
_cell_volume   535.25042112
_cell_formula_units_Z   4
loop_
 _symmetry_equiv_pos_site_id
 _symmetry_equiv_pos_as_xyz
  1  'x, y, z'
loop_
 _atom_site_type_symbol
 _atom_site_label
 _atom_site_symmetry_multiplicity
 _atom_site_fract_x
 _atom_site_fract_y
 _atom_site_fract_z
 _atom_site_occupancy
  La  La0  1  0.250000  0.579948  0.707374  1
  La  La1  1  0.250000  0.920052  0.207374  1
  La  La2  1  0.750000  0.420052  0.292626  1
  La  La3  1  0.750000  0.079948  0.792626  1
  Ta  Ta4  1  0.250000  0.700761  0.988572  1
  Ta  Ta5  1  0.250000  0.799239  0.488572  1
  Ta  Ta6  1  0.750000  0.299239  0.011428  1
  Ta  Ta7  1  0.750000  0.200761  0.511428  1
  Co  Co8  1  0.250000  0.887086  0.691839  1
  Co  Co9  1  0.250000  0.612914  0.191839  1
  Co  Co10  1  0.750000  0.112914  0.308161  1
  Co  Co11  1  0.750000  0.387086  0.808161  1
  Co  Co12  1  0.250000  0.465189  0.936640  1
  Co  Co13  1  0.250000  0.034811  0.436640  1
  Co  Co14  1  0.750000  0.534811  0.063360  1
  Co  Co15  1  0.750000  0.965189  0.563360  1
  P  P16  1  0.250000  0.429236  0.110166  1
  P  P17  1  0.250000  0.070764  0.610166  1
  P  P18  1  0.750000  0.570764  0.889834  1
  P  P19  1  0.750000  0.929236  0.389834  1
  P  P20  1  0.250000  0.276431  0.869346  1
  P  P21  1  0.250000  0.223569  0.369346  1
  P  P22  1  0.750000  0.723569  0.130654  1
  P  P23  1  0.750000  0.776431  0.630654  1
  P  P24  1  0.250000  0.602590  0.386607  1
  P  P25  1  0.250000  0.897410  0.886607  1
  P  P26  1  0.750000  0.397410  0.613393  1
  P  P27  1  0.750000  0.102590  0.113393  1
  Rh  Rh28  1  0.250000  0.402912  0.487391  1
  Rh  Rh29  1  0.250000  0.097088  0.987391  1
  Rh  Rh30  1  0.750000  0.597088  0.512609  1
  Rh  Rh31  1  0.750000  0.902912  0.012609  1
  Rh  Rh32  1  0.250000  0.224860  0.181800  1
  Rh  Rh33  1  0.250000  0.275140  0.681800  1
  Rh  Rh34  1  0.750000  0.775140  0.818200  1
  Rh  Rh35  1  0.750000  0.724860  0.318200  1
