# generated using pymatgen
data_Zr3GaTc3As2
_symmetry_space_group_name_H-M   'P 1'
_cell_length_a   7.82540917
_cell_length_b   7.82541025
_cell_length_c   7.82541000
_cell_angle_alpha   126.85549209
_cell_angle_beta   126.96316521
_cell_angle_gamma   78.39869533
_symmetry_Int_Tables_number   1
_chemical_formula_structural   Zr3GaTc3As2
_chemical_formula_sum   'Zr6 Ga2 Tc6 As4'
_cell_volume   296.67939397
_cell_formula_units_Z   2
loop_
 _symmetry_equiv_pos_site_id
 _symmetry_equiv_pos_as_xyz
  1  'x, y, z'
loop_
 _atom_site_type_symbol
 _atom_site_label
 _atom_site_symmetry_multiplicity
 _atom_site_fract_x
 _atom_site_fract_y
 _atom_site_fract_z
 _atom_site_occupancy
  Zr  Zr0  1  0.451395  0.656126  0.704731  1
  Zr  Zr1  1  0.548605  0.253335  0.204731  1
  Zr  Zr2  1  0.749929  0.850918  0.600989  1
  Zr  Zr3  1  0.250071  0.851061  0.100989  1
  Zr  Zr4  1  0.049025  0.253294  0.704269  1
  Zr  Zr5  1  0.950975  0.655243  0.204269  1
  Ga  Ga6  1  0.250407  0.253783  0.503377  1
  Ga  Ga7  1  0.749593  0.252969  0.003377  1
  Tc  Tc8  1  0.500000  0.509971  0.009971  1
  Tc  Tc9  1  0.000000  0.509971  0.509971  1
  Tc  Tc10  1  0.127843  0.253256  0.124439  1
  Tc  Tc11  1  0.872157  0.996596  0.125413  1
  Tc  Tc12  1  0.371183  0.996596  0.624439  1
  Tc  Tc13  1  0.628817  0.253256  0.625413  1
  As  As14  1  0.333205  0.586639  0.253180  1
  As  As15  1  0.666795  0.919975  0.253433  1
  As  As16  1  0.166542  0.919975  0.753180  1
  As  As17  1  0.833458  0.586639  0.753433  1
