# generated using pymatgen
data_Pr4DyHoIn10
_symmetry_space_group_name_H-M   'P 1'
_cell_length_a   6.57315972
_cell_length_b   6.57316111
_cell_length_c   10.53801400
_cell_angle_alpha   90.00000000
_cell_angle_beta   90.00000000
_cell_angle_gamma   102.77155808
_symmetry_Int_Tables_number   1
_chemical_formula_structural   Pr4DyHoIn10
_chemical_formula_sum   'Pr4 Dy1 Ho1 In10'
_cell_volume   444.04531772
_cell_formula_units_Z   1
loop_
 _symmetry_equiv_pos_site_id
 _symmetry_equiv_pos_as_xyz
  1  'x, y, z'
loop_
 _atom_site_type_symbol
 _atom_site_label
 _atom_site_symmetry_multiplicity
 _atom_site_fract_x
 _atom_site_fract_y
 _atom_site_fract_z
 _atom_site_occupancy
  Pr  Pr0  1  0.203438  0.796471  0.500065  1
  Pr  Pr1  1  0.203438  0.796471  0.999935  1
  Pr  Pr2  1  0.796471  0.203438  0.500065  1
  Pr  Pr3  1  0.796471  0.203438  0.999935  1
  Dy  Dy4  1  0.629081  0.629081  0.250000  1
  Ho  Ho5  1  0.370767  0.370767  0.750000  1
  In  In6  1  0.011248  0.011248  0.250000  1
  In  In7  1  0.988829  0.988829  0.750000  1
  In  In8  1  0.312820  0.312820  0.047662  1
  In  In9  1  0.687211  0.687211  0.952187  1
  In  In10  1  0.312820  0.312820  0.452338  1
  In  In11  1  0.687211  0.687211  0.547813  1
  In  In12  1  0.500975  0.070194  0.250000  1
  In  In13  1  0.929991  0.499035  0.750000  1
  In  In14  1  0.499035  0.929991  0.750000  1
  In  In15  1  0.070194  0.500975  0.250000  1
