# generated using pymatgen
data_SmTm(SiTc2)4
_symmetry_space_group_name_H-M   'P 1'
_cell_length_a   7.37638885
_cell_length_b   7.37638916
_cell_length_c   4.13697500
_cell_angle_alpha   90.00000000
_cell_angle_beta   90.00000000
_cell_angle_gamma   91.61756196
_symmetry_Int_Tables_number   1
_chemical_formula_structural   SmTm(SiTc2)4
_chemical_formula_sum   'Sm1 Tm1 Si4 Tc8'
_cell_volume   225.00772250
_cell_formula_units_Z   1
loop_
 _symmetry_equiv_pos_site_id
 _symmetry_equiv_pos_as_xyz
  1  'x, y, z'
loop_
 _atom_site_type_symbol
 _atom_site_label
 _atom_site_symmetry_multiplicity
 _atom_site_fract_x
 _atom_site_fract_y
 _atom_site_fract_z
 _atom_site_occupancy
  Sm  Sm0  1  0.000000  0.000000  0.500000  1
  Tm  Tm1  1  0.500000  0.500000  0.000000  1
  Si  Si2  1  0.705054  0.705054  0.500000  1
  Si  Si3  1  0.294946  0.294946  0.500000  1
  Si  Si4  1  0.213315  0.786685  0.000000  1
  Si  Si5  1  0.786685  0.213315  0.000000  1
  Tc  Tc6  1  0.588101  0.160728  0.500000  1
  Tc  Tc7  1  0.411899  0.839272  0.500000  1
  Tc  Tc8  1  0.098801  0.349544  0.000000  1
  Tc  Tc9  1  0.901199  0.650456  0.000000  1
  Tc  Tc10  1  0.160728  0.588101  0.500000  1
  Tc  Tc11  1  0.839272  0.411899  0.500000  1
  Tc  Tc12  1  0.349544  0.098801  0.000000  1
  Tc  Tc13  1  0.650456  0.901199  0.000000  1
