# generated using pymatgen
data_Tm7Lu3(SiPb3)2
_symmetry_space_group_name_H-M   'P 1'
_cell_length_a   9.18622200
_cell_length_b   9.18622147
_cell_length_c   6.43725000
_cell_angle_alpha   90.00000000
_cell_angle_beta   90.00000000
_cell_angle_gamma   120.00000192
_symmetry_Int_Tables_number   1
_chemical_formula_structural   Tm7Lu3(SiPb3)2
_chemical_formula_sum   'Tm7 Lu3 Si2 Pb6'
_cell_volume   470.44065635
_cell_formula_units_Z   1
loop_
 _symmetry_equiv_pos_site_id
 _symmetry_equiv_pos_as_xyz
  1  'x, y, z'
loop_
 _atom_site_type_symbol
 _atom_site_label
 _atom_site_symmetry_multiplicity
 _atom_site_fract_x
 _atom_site_fract_y
 _atom_site_fract_z
 _atom_site_occupancy
  Tm  Tm0  1  0.249174  0.000071  0.749671  1
  Tm  Tm1  1  0.750897  0.000071  0.250329  1
  Tm  Tm2  1  0.999929  0.249103  0.749671  1
  Tm  Tm3  1  0.999929  0.750826  0.250329  1
  Tm  Tm4  1  0.750897  0.750826  0.749671  1
  Tm  Tm5  1  0.249174  0.249103  0.250329  1
  Tm  Tm6  1  0.333333  0.666667  0.500000  1
  Lu  Lu7  1  0.666667  0.333333  0.500000  1
  Lu  Lu8  1  0.666667  0.333333  0.000000  1
  Lu  Lu9  1  0.333333  0.666667  0.000000  1
  Si  Si10  1  0.000000  0.000000  0.500000  1
  Si  Si11  1  0.000000  0.000000  0.000000  1
  Pb  Pb12  1  0.605812  0.000426  0.749929  1
  Pb  Pb13  1  0.394614  0.000426  0.250071  1
  Pb  Pb14  1  0.999574  0.605386  0.749929  1
  Pb  Pb15  1  0.999574  0.394188  0.250071  1
  Pb  Pb16  1  0.394614  0.394188  0.749929  1
  Pb  Pb17  1  0.605812  0.605386  0.250071  1
