# generated using pymatgen
data_LiLa4Pr4CdIr2
_symmetry_space_group_name_H-M   'P 1'
_cell_length_a   10.09071243
_cell_length_b   10.09071239
_cell_length_c   10.10663200
_cell_angle_alpha   59.94780459
_cell_angle_beta   59.94780471
_cell_angle_gamma   60.60858491
_symmetry_Int_Tables_number   1
_chemical_formula_structural   LiLa4Pr4CdIr2
_chemical_formula_sum   'Li2 La8 Pr8 Cd2 Ir4'
_cell_volume   730.37614776
_cell_formula_units_Z   2
loop_
 _symmetry_equiv_pos_site_id
 _symmetry_equiv_pos_as_xyz
  1  'x, y, z'
loop_
 _atom_site_type_symbol
 _atom_site_label
 _atom_site_symmetry_multiplicity
 _atom_site_fract_x
 _atom_site_fract_y
 _atom_site_fract_z
 _atom_site_occupancy
  Li  Li0  1  0.572011  0.572011  0.575616  1
  Li  Li1  1  0.572011  0.572011  0.280361  1
  La  La2  1  0.346242  0.346242  0.348606  1
  La  La3  1  0.346242  0.346242  0.958911  1
  La  La4  1  0.347416  0.962405  0.345089  1
  La  La5  1  0.962405  0.347416  0.345089  1
  La  La6  1  0.812488  0.188172  0.188380  1
  La  La7  1  0.188172  0.812488  0.810960  1
  La  La8  1  0.188172  0.812488  0.188380  1
  La  La9  1  0.812488  0.188172  0.810960  1
  Pr  Pr10  1  0.195142  0.195142  0.804858  1
  Pr  Pr11  1  0.812260  0.812260  0.187740  1
  Pr  Pr12  1  0.937404  0.563220  0.564330  1
  Pr  Pr13  1  0.563220  0.937404  0.935046  1
  Pr  Pr14  1  0.563220  0.937404  0.564330  1
  Pr  Pr15  1  0.937404  0.563220  0.935046  1
  Pr  Pr16  1  0.562486  0.562486  0.937514  1
  Pr  Pr17  1  0.938043  0.938043  0.561957  1
  Cd  Cd18  1  0.582164  0.255560  0.581138  1
  Cd  Cd19  1  0.255560  0.582164  0.581138  1
  Ir  Ir20  1  0.139616  0.139616  0.145004  1
  Ir  Ir21  1  0.139616  0.139616  0.575763  1
  Ir  Ir22  1  0.148960  0.577256  0.136892  1
  Ir  Ir23  1  0.577256  0.148960  0.136892  1
