# generated using pymatgen
data_Y3CdIn3Ni2
_symmetry_space_group_name_H-M   'P 1'
_cell_length_a   7.85245800
_cell_length_b   7.85245704
_cell_length_c   3.69007700
_cell_angle_alpha   90.00000000
_cell_angle_beta   90.00000000
_cell_angle_gamma   120.00000405
_symmetry_Int_Tables_number   1
_chemical_formula_structural   Y3CdIn3Ni2
_chemical_formula_sum   'Y3 Cd1 In3 Ni2'
_cell_volume   197.05036051
_cell_formula_units_Z   1
loop_
 _symmetry_equiv_pos_site_id
 _symmetry_equiv_pos_as_xyz
  1  'x, y, z'
loop_
 _atom_site_type_symbol
 _atom_site_label
 _atom_site_symmetry_multiplicity
 _atom_site_fract_x
 _atom_site_fract_y
 _atom_site_fract_z
 _atom_site_occupancy
  Y  Y0  1  0.034176  0.613598  0.500000  1
  Y  Y1  1  0.579422  0.965824  0.500000  1
  Y  Y2  1  0.386402  0.420578  0.500000  1
  Cd  Cd3  1  0.666667  0.333333  0.000000  1
  In  In4  1  0.994885  0.247726  0.000000  1
  In  In5  1  0.252841  0.005115  0.000000  1
  In  In6  1  0.752274  0.747159  0.000000  1
  Ni  Ni7  1  0.000000  0.000000  0.500000  1
  Ni  Ni8  1  0.333333  0.666667  0.000000  1
