# generated using pymatgen
data_SrFeSb12Os2Ru
_symmetry_space_group_name_H-M   'P 1'
_cell_length_a   8.12276091
_cell_length_b   8.12340453
_cell_length_c   8.13248992
_cell_angle_alpha   109.40670137
_cell_angle_beta   109.41540477
_cell_angle_gamma   109.30895668
_symmetry_Int_Tables_number   1
_chemical_formula_structural   SrFeSb12Os2Ru
_chemical_formula_sum   'Sr1 Fe1 Sb12 Os2 Ru1'
_cell_volume   414.52289459
_cell_formula_units_Z   1
loop_
 _symmetry_equiv_pos_site_id
 _symmetry_equiv_pos_as_xyz
  1  'x, y, z'
loop_
 _atom_site_type_symbol
 _atom_site_label
 _atom_site_symmetry_multiplicity
 _atom_site_fract_x
 _atom_site_fract_y
 _atom_site_fract_z
 _atom_site_occupancy
  Sr  Sr0  1  0.000000  0.000000  0.000000  1
  Fe  Fe1  1  0.500000  0.500000  0.500000  1
  Sb  Sb2  1  0.165796  0.498219  0.343233  1
  Sb  Sb3  1  0.501937  0.656684  0.834248  1
  Sb  Sb4  1  0.340758  0.841924  0.183562  1
  Sb  Sb5  1  0.816960  0.660101  0.158912  1
  Sb  Sb6  1  0.656845  0.834097  0.501649  1
  Sb  Sb7  1  0.183040  0.339899  0.841088  1
  Sb  Sb8  1  0.659242  0.158076  0.816438  1
  Sb  Sb9  1  0.343155  0.165903  0.498351  1
  Sb  Sb10  1  0.498063  0.343316  0.165752  1
  Sb  Sb11  1  0.834204  0.501781  0.656767  1
  Sb  Sb12  1  0.841908  0.182837  0.340920  1
  Sb  Sb13  1  0.158092  0.817163  0.659080  1
  Os  Os14  1  0.500000  0.000000  0.000000  1
  Os  Os15  1  0.000000  0.500000  0.000000  1
  Ru  Ru16  1  0.000000  0.000000  0.500000  1
