# generated using pymatgen
data_Tm4MnCu2Ru5
_symmetry_space_group_name_H-M   'P 1'
_cell_length_a   5.29596057
_cell_length_b   5.10943116
_cell_length_c   8.74371900
_cell_angle_alpha   90.00000000
_cell_angle_beta   90.00000000
_cell_angle_gamma   119.87125655
_symmetry_Int_Tables_number   1
_chemical_formula_structural   Tm4MnCu2Ru5
_chemical_formula_sum   'Tm4 Mn1 Cu2 Ru5'
_cell_volume   205.16632119
_cell_formula_units_Z   1
loop_
 _symmetry_equiv_pos_site_id
 _symmetry_equiv_pos_as_xyz
  1  'x, y, z'
loop_
 _atom_site_type_symbol
 _atom_site_label
 _atom_site_symmetry_multiplicity
 _atom_site_fract_x
 _atom_site_fract_y
 _atom_site_fract_z
 _atom_site_occupancy
  Tm  Tm0  1  0.677038  0.342043  0.564334  1
  Tm  Tm1  1  0.339495  0.669819  0.436066  1
  Tm  Tm2  1  0.339495  0.669819  0.063934  1
  Tm  Tm3  1  0.677038  0.342043  0.935666  1
  Mn  Mn4  1  0.162292  0.323122  0.750000  1
  Cu  Cu5  1  0.815126  0.655632  0.250000  1
  Cu  Cu6  1  0.816153  0.161748  0.250000  1
  Ru  Ru7  1  0.015285  0.011760  0.499306  1
  Ru  Ru8  1  0.015285  0.011760  0.000694  1
  Ru  Ru9  1  0.176607  0.829556  0.750000  1
  Ru  Ru10  1  0.649801  0.825684  0.750000  1
  Ru  Ru11  1  0.316384  0.157016  0.250000  1
