# generated using pymatgen
data_LiPr2ZnPt2
_symmetry_space_group_name_H-M   'P 1'
_cell_length_a   4.17037800
_cell_length_b   7.26524900
_cell_length_c   8.54516300
_cell_angle_alpha   90.00000000
_cell_angle_beta   90.00000000
_cell_angle_gamma   90.00000000
_symmetry_Int_Tables_number   1
_chemical_formula_structural   LiPr2ZnPt2
_chemical_formula_sum   'Li2 Pr4 Zn2 Pt4'
_cell_volume   258.90848032
_cell_formula_units_Z   2
loop_
 _symmetry_equiv_pos_site_id
 _symmetry_equiv_pos_as_xyz
  1  'x, y, z'
loop_
 _atom_site_type_symbol
 _atom_site_label
 _atom_site_symmetry_multiplicity
 _atom_site_fract_x
 _atom_site_fract_y
 _atom_site_fract_z
 _atom_site_occupancy
  Li  Li0  1  0.250000  0.629919  0.558674  1
  Li  Li1  1  0.250000  0.129919  0.941326  1
  Pr  Pr2  1  0.750000  0.460012  0.810947  1
  Pr  Pr3  1  0.250000  0.042139  0.312163  1
  Pr  Pr4  1  0.750000  0.960012  0.689053  1
  Pr  Pr5  1  0.250000  0.542139  0.187837  1
  Zn  Zn6  1  0.750000  0.367209  0.438211  1
  Zn  Zn7  1  0.750000  0.867209  0.061789  1
  Pt  Pt8  1  0.250000  0.755567  0.885603  1
  Pt  Pt9  1  0.250000  0.255567  0.614397  1
  Pt  Pt10  1  0.750000  0.745154  0.382740  1
  Pt  Pt11  1  0.750000  0.245154  0.117260  1
