# generated using pymatgen
data_Tm4ZnRe2Ru5
_symmetry_space_group_name_H-M   'P 1'
_cell_length_a   5.36220300
_cell_length_b   5.14573026
_cell_length_c   8.92941900
_cell_angle_alpha   90.00000000
_cell_angle_beta   90.00000000
_cell_angle_gamma   119.78184591
_symmetry_Int_Tables_number   1
_chemical_formula_structural   Tm4ZnRe2Ru5
_chemical_formula_sum   'Tm4 Zn1 Re2 Ru5'
_cell_volume   213.84278642
_cell_formula_units_Z   1
loop_
 _symmetry_equiv_pos_site_id
 _symmetry_equiv_pos_as_xyz
  1  'x, y, z'
loop_
 _atom_site_type_symbol
 _atom_site_label
 _atom_site_symmetry_multiplicity
 _atom_site_fract_x
 _atom_site_fract_y
 _atom_site_fract_z
 _atom_site_occupancy
  Tm  Tm0  1  0.669044  0.333447  0.565506  1
  Tm  Tm1  1  0.327120  0.660071  0.435835  1
  Tm  Tm2  1  0.327120  0.660071  0.064165  1
  Tm  Tm3  1  0.669044  0.333447  0.934494  1
  Zn  Zn4  1  0.169555  0.335918  0.750000  1
  Re  Re5  1  0.842870  0.679704  0.250000  1
  Re  Re6  1  0.832472  0.179117  0.250000  1
  Ru  Ru7  1  0.982286  0.980460  0.501578  1
  Ru  Ru8  1  0.982286  0.980460  0.998422  1
  Ru  Ru9  1  0.183319  0.839330  0.750000  1
  Ru  Ru10  1  0.659609  0.837844  0.750000  1
  Ru  Ru11  1  0.355274  0.180135  0.250000  1
