# generated using pymatgen
data_Sm2Dy2GeBr6
_symmetry_space_group_name_H-M   'P 1'
_cell_length_a   4.13453000
_cell_length_b   13.42645400
_cell_length_c   14.18920200
_cell_angle_alpha   90.00000000
_cell_angle_beta   90.00000000
_cell_angle_gamma   90.00000000
_symmetry_Int_Tables_number   1
_chemical_formula_structural   Sm2Dy2GeBr6
_chemical_formula_sum   'Sm4 Dy4 Ge2 Br12'
_cell_volume   787.67207196
_cell_formula_units_Z   2
loop_
 _symmetry_equiv_pos_site_id
 _symmetry_equiv_pos_as_xyz
  1  'x, y, z'
loop_
 _atom_site_type_symbol
 _atom_site_label
 _atom_site_symmetry_multiplicity
 _atom_site_fract_x
 _atom_site_fract_y
 _atom_site_fract_z
 _atom_site_occupancy
  Sm  Sm0  1  0.000000  0.120619  0.580074  1
  Sm  Sm1  1  0.000000  0.879381  0.419926  1
  Sm  Sm2  1  0.000000  0.620619  0.919926  1
  Sm  Sm3  1  0.000000  0.379381  0.080074  1
  Dy  Dy4  1  0.500000  0.118196  0.340754  1
  Dy  Dy5  1  0.500000  0.881804  0.659246  1
  Dy  Dy6  1  0.500000  0.618196  0.159246  1
  Dy  Dy7  1  0.500000  0.381804  0.840754  1
  Ge  Ge8  1  0.500000  0.000000  0.500000  1
  Ge  Ge9  1  0.500000  0.500000  0.000000  1
  Br  Br10  1  0.500000  0.241169  0.165699  1
  Br  Br11  1  0.500000  0.758831  0.834301  1
  Br  Br12  1  0.500000  0.741169  0.334301  1
  Br  Br13  1  0.500000  0.258831  0.665699  1
  Br  Br14  1  0.000000  0.253085  0.408152  1
  Br  Br15  1  0.000000  0.746915  0.591848  1
  Br  Br16  1  0.000000  0.753085  0.091848  1
  Br  Br17  1  0.000000  0.246915  0.908152  1
  Br  Br18  1  0.000000  0.005498  0.244069  1
  Br  Br19  1  0.000000  0.994502  0.755931  1
  Br  Br20  1  0.000000  0.505498  0.255931  1
  Br  Br21  1  0.000000  0.494502  0.744069  1
