# generated using pymatgen
data_Tb6ScCo16P12W
_symmetry_space_group_name_H-M   'P 1'
_cell_length_a   3.72752600
_cell_length_b   10.63524900
_cell_length_c   12.34308300
_cell_angle_alpha   90.00000000
_cell_angle_beta   90.00000000
_cell_angle_gamma   90.00000000
_symmetry_Int_Tables_number   1
_chemical_formula_structural   Tb6ScCo16P12W
_chemical_formula_sum   'Tb6 Sc1 Co16 P12 W1'
_cell_volume   489.31890269
_cell_formula_units_Z   1
loop_
 _symmetry_equiv_pos_site_id
 _symmetry_equiv_pos_as_xyz
  1  'x, y, z'
loop_
 _atom_site_type_symbol
 _atom_site_label
 _atom_site_symmetry_multiplicity
 _atom_site_fract_x
 _atom_site_fract_y
 _atom_site_fract_z
 _atom_site_occupancy
  Tb  Tb0  1  0.000000  0.500000  0.527195  1
  Tb  Tb1  1  0.500000  0.000000  0.475564  1
  Tb  Tb2  1  0.500000  0.821071  0.205473  1
  Tb  Tb3  1  0.500000  0.178929  0.205473  1
  Tb  Tb4  1  0.000000  0.680792  0.795295  1
  Tb  Tb5  1  0.000000  0.319208  0.795295  1
  Sc  Sc6  1  0.500000  0.500000  0.153381  1
  Co  Co7  1  0.500000  0.500000  0.703057  1
  Co  Co8  1  0.000000  0.000000  0.297545  1
  Co  Co9  1  0.000000  0.500000  0.984454  1
  Co  Co10  1  0.500000  0.000000  0.010208  1
  Co  Co11  1  0.500000  0.327928  0.990546  1
  Co  Co12  1  0.500000  0.672072  0.990546  1
  Co  Co13  1  0.000000  0.163978  0.005425  1
  Co  Co14  1  0.000000  0.836022  0.005425  1
  Co  Co15  1  0.500000  0.294312  0.434099  1
  Co  Co16  1  0.500000  0.705688  0.434099  1
  Co  Co17  1  0.000000  0.203537  0.569816  1
  Co  Co18  1  0.000000  0.796463  0.569816  1
  Co  Co19  1  0.500000  0.879554  0.706662  1
  Co  Co20  1  0.500000  0.120446  0.706662  1
  Co  Co21  1  0.000000  0.622530  0.297141  1
  Co  Co22  1  0.000000  0.377470  0.297141  1
  P  P23  1  0.500000  0.500000  0.883678  1
  P  P24  1  0.000000  0.000000  0.117221  1
  P  P25  1  0.500000  0.500000  0.357333  1
  P  P26  1  0.000000  0.000000  0.648917  1
  P  P27  1  0.500000  0.309225  0.616762  1
  P  P28  1  0.500000  0.690775  0.616762  1
  P  P29  1  0.000000  0.189778  0.385765  1
  P  P30  1  0.000000  0.810222  0.385765  1
  P  P31  1  0.500000  0.845333  0.889807  1
  P  P32  1  0.500000  0.154667  0.889807  1
  P  P33  1  0.000000  0.661218  0.103251  1
  P  P34  1  0.000000  0.338782  0.103251  1
  W  W35  1  0.000000  0.000000  0.841365  1
