# generated using pymatgen
data_La3Pa(Al3Rh)6
_symmetry_space_group_name_H-M   'P 1'
_cell_length_a   7.67637503
_cell_length_b   7.65812331
_cell_length_c   9.57676000
_cell_angle_alpha   90.00000000
_cell_angle_beta   90.00000000
_cell_angle_gamma   119.46760711
_symmetry_Int_Tables_number   1
_chemical_formula_structural   La3Pa(Al3Rh)6
_chemical_formula_sum   'La3 Pa1 Al18 Rh6'
_cell_volume   490.15421767
_cell_formula_units_Z   1
loop_
 _symmetry_equiv_pos_site_id
 _symmetry_equiv_pos_as_xyz
  1  'x, y, z'
loop_
 _atom_site_type_symbol
 _atom_site_label
 _atom_site_symmetry_multiplicity
 _atom_site_fract_x
 _atom_site_fract_y
 _atom_site_fract_z
 _atom_site_occupancy
  La  La0  1  0.004540  0.328784  0.750000  1
  La  La1  1  0.671382  0.995556  0.250000  1
  La  La2  1  0.329664  0.004685  0.750000  1
  Pa  Pa3  1  0.996987  0.671854  0.250000  1
  Al  Al4  1  0.132518  0.128604  0.250000  1
  Al  Al5  1  0.868838  0.868469  0.750000  1
  Al  Al6  1  0.003634  0.336448  0.076849  1
  Al  Al7  1  0.996136  0.664696  0.927113  1
  Al  Al8  1  0.996136  0.664696  0.572887  1
  Al  Al9  1  0.334819  0.003060  0.423313  1
  Al  Al10  1  0.003634  0.336448  0.423151  1
  Al  Al11  1  0.664779  0.995945  0.574496  1
  Al  Al12  1  0.664779  0.995945  0.925504  1
  Al  Al13  1  0.334819  0.003060  0.076687  1
  Al  Al14  1  0.335213  0.335263  0.545201  1
  Al  Al15  1  0.665087  0.664532  0.451762  1
  Al  Al16  1  0.665087  0.664532  0.048238  1
  Al  Al17  1  0.335213  0.335263  0.954799  1
  Al  Al18  1  0.335795  0.544885  0.250000  1
  Al  Al19  1  0.659414  0.453710  0.750000  1
  Al  Al20  1  0.549707  0.346767  0.250000  1
  Al  Al21  1  0.453776  0.658789  0.750000  1
  Rh  Rh22  1  0.673198  0.331465  0.003405  1
  Rh  Rh23  1  0.327005  0.671220  0.003753  1
  Rh  Rh24  1  0.327005  0.671220  0.496247  1
  Rh  Rh25  1  0.673198  0.331465  0.496595  1
  Rh  Rh26  1  0.998818  0.996320  0.004323  1
  Rh  Rh27  1  0.998818  0.996320  0.495677  1
