# generated using pymatgen
data_Tm3Al2RuC
_symmetry_space_group_name_H-M   'P 1'
_cell_length_a   9.01119288
_cell_length_b   9.01092099
_cell_length_c   9.01156500
_cell_angle_alpha   60.00004035
_cell_angle_beta   60.00045842
_cell_angle_gamma   59.99823890
_symmetry_Int_Tables_number   1
_chemical_formula_structural   Tm3Al2RuC
_chemical_formula_sum   'Tm12 Al8 Ru4 C4'
_cell_volume   517.40729261
_cell_formula_units_Z   4
loop_
 _symmetry_equiv_pos_site_id
 _symmetry_equiv_pos_as_xyz
  1  'x, y, z'
loop_
 _atom_site_type_symbol
 _atom_site_label
 _atom_site_symmetry_multiplicity
 _atom_site_fract_x
 _atom_site_fract_y
 _atom_site_fract_z
 _atom_site_occupancy
  Tm  Tm0  1  0.546973  0.953217  0.546707  1
  Tm  Tm1  1  0.296811  0.703229  0.703148  1
  Tm  Tm2  1  0.702825  0.296851  0.296967  1
  Tm  Tm3  1  0.296785  0.703009  0.297058  1
  Tm  Tm4  1  0.703006  0.703356  0.296827  1
  Tm  Tm5  1  0.296843  0.297039  0.702984  1
  Tm  Tm6  1  0.546977  0.546657  0.953173  1
  Tm  Tm7  1  0.953195  0.546780  0.546845  1
  Tm  Tm8  1  0.547195  0.953145  0.953010  1
  Tm  Tm9  1  0.953147  0.952952  0.547038  1
  Tm  Tm10  1  0.703027  0.296790  0.703296  1
  Tm  Tm11  1  0.953216  0.547010  0.952935  1
  Al  Al12  1  0.924585  0.924665  0.924571  1
  Al  Al13  1  0.024600  0.325124  0.325208  1
  Al  Al14  1  0.325316  0.024067  0.325376  1
  Al  Al15  1  0.325381  0.325338  0.023981  1
  Al  Al16  1  0.924690  0.225914  0.924629  1
  Al  Al17  1  0.924628  0.924655  0.226009  1
  Al  Al18  1  0.225386  0.924873  0.924798  1
  Al  Al19  1  0.325416  0.325336  0.325436  1
  Ru  Ru20  1  0.125005  0.125000  0.125001  1
  Ru  Ru21  1  0.624995  0.125008  0.125005  1
  Ru  Ru22  1  0.125002  0.624994  0.125003  1
  Ru  Ru23  1  0.124998  0.125009  0.624998  1
  C  C24  1  0.624996  0.624995  0.624999  1
  C  C25  1  0.125007  0.624993  0.624999  1
  C  C26  1  0.624998  0.125001  0.624996  1
  C  C27  1  0.624997  0.624996  0.125003  1
