# generated using pymatgen
data_Er4FeMoRu6
_symmetry_space_group_name_H-M   'P 1'
_cell_length_a   5.36417586
_cell_length_b   5.18854432
_cell_length_c   8.96002600
_cell_angle_alpha   90.00000000
_cell_angle_beta   90.00000000
_cell_angle_gamma   121.63414675
_symmetry_Int_Tables_number   1
_chemical_formula_structural   Er4FeMoRu6
_chemical_formula_sum   'Er4 Fe1 Mo1 Ru6'
_cell_volume   212.32388471
_cell_formula_units_Z   1
loop_
 _symmetry_equiv_pos_site_id
 _symmetry_equiv_pos_as_xyz
  1  'x, y, z'
loop_
 _atom_site_type_symbol
 _atom_site_label
 _atom_site_symmetry_multiplicity
 _atom_site_fract_x
 _atom_site_fract_y
 _atom_site_fract_z
 _atom_site_occupancy
  Er  Er0  1  0.333113  0.665851  0.431792  1
  Er  Er1  1  0.670049  0.342879  0.561993  1
  Er  Er2  1  0.670049  0.342879  0.938007  1
  Er  Er3  1  0.333113  0.665851  0.068208  1
  Fe  Fe4  1  0.331596  0.164035  0.250000  1
  Mo  Mo5  1  0.163776  0.327133  0.750000  1
  Ru  Ru6  1  0.171268  0.822241  0.750000  1
  Ru  Ru7  1  0.823575  0.647800  0.250000  1
  Ru  Ru8  1  0.654029  0.824396  0.750000  1
  Ru  Ru9  1  0.009740  0.014237  0.003424  1
  Ru  Ru10  1  0.829951  0.168460  0.250000  1
  Ru  Ru11  1  0.009740  0.014237  0.496576  1
