# generated using pymatgen
data_YbSmCo6(SiB)2
_symmetry_space_group_name_H-M   'P 1'
_cell_length_a   5.19073800
_cell_length_b   5.19167142
_cell_length_c   6.31610100
_cell_angle_alpha   90.00000000
_cell_angle_beta   90.00000000
_cell_angle_gamma   119.99560369
_symmetry_Int_Tables_number   1
_chemical_formula_structural   YbSmCo6(SiB)2
_chemical_formula_sum   'Yb1 Sm1 Co6 Si2 B2'
_cell_volume   147.41281579
_cell_formula_units_Z   1
loop_
 _symmetry_equiv_pos_site_id
 _symmetry_equiv_pos_as_xyz
  1  'x, y, z'
loop_
 _atom_site_type_symbol
 _atom_site_label
 _atom_site_symmetry_multiplicity
 _atom_site_fract_x
 _atom_site_fract_y
 _atom_site_fract_z
 _atom_site_occupancy
  Yb  Yb0  1  0.999990  0.000000  0.500000  1
  Sm  Sm1  1  0.999975  0.000001  0.000000  1
  Co  Co2  1  0.499987  0.000001  0.285772  1
  Co  Co3  1  0.499985  0.500002  0.285770  1
  Co  Co4  1  0.999984  0.499998  0.285772  1
  Co  Co5  1  0.499987  0.000001  0.714228  1
  Co  Co6  1  0.499985  0.500002  0.714229  1
  Co  Co7  1  0.999984  0.499998  0.714227  1
  Si  Si8  1  0.333239  0.666569  0.000000  1
  Si  Si9  1  0.666716  0.333429  0.000000  1
  B  B10  1  0.333330  0.666656  0.500000  1
  B  B11  1  0.666637  0.333344  0.500000  1
