# generated using pymatgen
data_La2NdEu(Pd2O5)2
_symmetry_space_group_name_H-M   'P 1'
_cell_length_a   6.69857081
_cell_length_b   6.66530108
_cell_length_c   5.63827200
_cell_angle_alpha   90.00000000
_cell_angle_beta   90.00000000
_cell_angle_gamma   90.28399206
_symmetry_Int_Tables_number   1
_chemical_formula_structural   La2NdEu(Pd2O5)2
_chemical_formula_sum   'La2 Nd1 Eu1 Pd4 O10'
_cell_volume   251.73442661
_cell_formula_units_Z   1
loop_
 _symmetry_equiv_pos_site_id
 _symmetry_equiv_pos_as_xyz
  1  'x, y, z'
loop_
 _atom_site_type_symbol
 _atom_site_label
 _atom_site_symmetry_multiplicity
 _atom_site_fract_x
 _atom_site_fract_y
 _atom_site_fract_z
 _atom_site_occupancy
  La  La0  1  0.257801  0.890995  0.500000  1
  La  La1  1  0.104897  0.263374  0.000000  1
  Nd  Nd2  1  0.738090  0.106088  0.500000  1
  Eu  Eu3  1  0.890298  0.740698  0.000000  1
  Pd  Pd4  1  0.595651  0.308177  0.000000  1
  Pd  Pd5  1  0.307603  0.405331  0.500000  1
  Pd  Pd6  1  0.406374  0.693573  0.000000  1
  Pd  Pd7  1  0.694897  0.596787  0.500000  1
  O  O8  1  0.603369  0.803519  0.254776  1
  O  O9  1  0.802912  0.404438  0.757301  1
  O  O10  1  0.405843  0.196808  0.740202  1
  O  O11  1  0.405843  0.196808  0.259798  1
  O  O12  1  0.994245  0.995651  0.752256  1
  O  O13  1  0.195826  0.597074  0.760745  1
  O  O14  1  0.195826  0.597074  0.239255  1
  O  O15  1  0.603369  0.803519  0.745224  1
  O  O16  1  0.994245  0.995651  0.247744  1
  O  O17  1  0.802912  0.404438  0.242699  1
