# generated using pymatgen
data_Li3Tm4ZnPt4
_symmetry_space_group_name_H-M   'P 1'
_cell_length_a   3.96504300
_cell_length_b   6.97169140
_cell_length_c   8.36327600
_cell_angle_alpha   89.90394190
_cell_angle_beta   90.00000000
_cell_angle_gamma   90.00000000
_symmetry_Int_Tables_number   1
_chemical_formula_structural   Li3Tm4ZnPt4
_chemical_formula_sum   'Li3 Tm4 Zn1 Pt4'
_cell_volume   231.18618361
_cell_formula_units_Z   1
loop_
 _symmetry_equiv_pos_site_id
 _symmetry_equiv_pos_as_xyz
  1  'x, y, z'
loop_
 _atom_site_type_symbol
 _atom_site_label
 _atom_site_symmetry_multiplicity
 _atom_site_fract_x
 _atom_site_fract_y
 _atom_site_fract_z
 _atom_site_occupancy
  Li  Li0  1  0.250000  0.625223  0.559447  1
  Li  Li1  1  0.750000  0.374896  0.440852  1
  Li  Li2  1  0.750000  0.875875  0.057066  1
  Tm  Tm3  1  0.250000  0.549331  0.180939  1
  Tm  Tm4  1  0.750000  0.445532  0.822834  1
  Tm  Tm5  1  0.750000  0.952946  0.681384  1
  Tm  Tm6  1  0.250000  0.053153  0.318695  1
  Zn  Zn7  1  0.250000  0.121416  0.939150  1
  Pt  Pt8  1  0.250000  0.740866  0.874191  1
  Pt  Pt9  1  0.750000  0.256166  0.125781  1
  Pt  Pt10  1  0.750000  0.761950  0.372851  1
  Pt  Pt11  1  0.250000  0.242646  0.626810  1
