# generated using pymatgen
data_Mn3Be(SiRu3)2
_symmetry_space_group_name_H-M   'P 1'
_cell_length_a   4.16167301
_cell_length_b   5.86984301
_cell_length_c   12.45131602
_cell_angle_alpha   90.00541939
_cell_angle_beta   90.00421403
_cell_angle_gamma   89.99504645
_symmetry_Int_Tables_number   1
_chemical_formula_structural   Mn3Be(SiRu3)2
_chemical_formula_sum   'Mn6 Be2 Si4 Ru12'
_cell_volume   304.16531681
_cell_formula_units_Z   2
loop_
 _symmetry_equiv_pos_site_id
 _symmetry_equiv_pos_as_xyz
  1  'x, y, z'
loop_
 _atom_site_type_symbol
 _atom_site_label
 _atom_site_symmetry_multiplicity
 _atom_site_fract_x
 _atom_site_fract_y
 _atom_site_fract_z
 _atom_site_occupancy
  Mn  Mn0  1  0.000183  0.999691  0.003559  1
  Mn  Mn1  1  0.499672  0.500305  0.163166  1
  Mn  Mn2  1  0.000194  0.000150  0.326647  1
  Mn  Mn3  1  0.499994  0.499885  0.497989  1
  Mn  Mn4  1  0.000010  0.000044  0.668684  1
  Mn  Mn5  1  0.500065  0.500079  0.839946  1
  Be  Be6  1  0.000004  0.499912  0.000042  1
  Be  Be7  1  0.499947  0.000070  0.166620  1
  Si  Si8  1  0.000019  0.499969  0.330678  1
  Si  Si9  1  0.500003  0.999961  0.499191  1
  Si  Si10  1  0.999997  0.500000  0.667477  1
  Si  Si11  1  0.500005  0.000031  0.836004  1
  Ru  Ru12  1  0.500066  0.250590  0.001366  1
  Ru  Ru13  1  0.500060  0.749319  0.001326  1
  Ru  Ru14  1  0.999851  0.249457  0.165286  1
  Ru  Ru15  1  0.999859  0.750626  0.165343  1
  Ru  Ru16  1  0.500062  0.249262  0.332798  1
  Ru  Ru17  1  0.500068  0.750784  0.332832  1
  Ru  Ru18  1  0.999990  0.249029  0.499655  1
  Ru  Ru19  1  0.999999  0.750934  0.499642  1
  Ru  Ru20  1  0.499993  0.250918  0.667013  1
  Ru  Ru21  1  0.499996  0.749056  0.667015  1
  Ru  Ru22  1  0.999981  0.250730  0.833875  1
  Ru  Ru23  1  0.999982  0.749197  0.833846  1
