# generated using pymatgen
data_Pr3NbSn(MoN4)3
_symmetry_space_group_name_H-M   'P 1'
_cell_length_a   11.41268218
_cell_length_b   11.41268175
_cell_length_c   11.41268207
_cell_angle_alpha   109.42923168
_cell_angle_beta   109.55523214
_cell_angle_gamma   109.42922956
_symmetry_Int_Tables_number   1
_chemical_formula_structural   Pr3NbSn(MoN4)3
_chemical_formula_sum   'Pr12 Nb4 Sn4 Mo12 N48'
_cell_volume   1144.30175563
_cell_formula_units_Z   4
loop_
 _symmetry_equiv_pos_site_id
 _symmetry_equiv_pos_as_xyz
  1  'x, y, z'
loop_
 _atom_site_type_symbol
 _atom_site_label
 _atom_site_symmetry_multiplicity
 _atom_site_fract_x
 _atom_site_fract_y
 _atom_site_fract_z
 _atom_site_occupancy
  Pr  Pr0  1  0.374450  0.750000  0.124451  1
  Pr  Pr1  1  0.257391  0.377508  0.130070  1
  Pr  Pr2  1  0.379883  0.127321  0.257391  1
  Pr  Pr3  1  0.869931  0.627321  0.247438  1
  Pr  Pr4  1  0.752562  0.122493  0.379883  1
  Pr  Pr5  1  0.124450  0.250000  0.374450  1
  Pr  Pr6  1  0.875550  0.750000  0.625550  1
  Pr  Pr7  1  0.247438  0.877509  0.620117  1
  Pr  Pr8  1  0.130071  0.372679  0.752562  1
  Pr  Pr9  1  0.620117  0.872679  0.742609  1
  Pr  Pr10  1  0.625550  0.250000  0.875551  1
  Pr  Pr11  1  0.742609  0.622492  0.869930  1
  Nb  Nb12  1  0.500000  0.500000  0.000000  1
  Nb  Nb13  1  0.000000  0.000000  0.500001  1
  Nb  Nb14  1  0.500001  0.500001  0.500001  1
  Nb  Nb15  1  0.500000  0.000000  0.500000  1
  Sn  Sn16  1  0.000000  0.000000  0.000000  1
  Sn  Sn17  1  0.500001  0.000000  0.000000  1
  Sn  Sn18  1  0.000000  0.500001  0.000000  1
  Sn  Sn19  1  0.000000  0.500000  0.500000  1
  Mo  Mo20  1  0.875000  0.250000  0.125000  1
  Mo  Mo21  1  0.750622  0.873865  0.126958  1
  Mo  Mo22  1  0.623243  0.376336  0.249378  1
  Mo  Mo23  1  0.126958  0.876336  0.253093  1
  Mo  Mo24  1  0.253093  0.626135  0.376757  1
  Mo  Mo25  1  0.625000  0.750000  0.375000  1
  Mo  Mo26  1  0.375000  0.250000  0.625000  1
  Mo  Mo27  1  0.746907  0.373865  0.623243  1
  Mo  Mo28  1  0.873042  0.123664  0.746907  1
  Mo  Mo29  1  0.376757  0.623664  0.750622  1
  Mo  Mo30  1  0.249378  0.126135  0.873042  1
  Mo  Mo31  1  0.125000  0.750000  0.875000  1
  N  N32  1  0.207015  0.120667  0.014560  1
  N  N33  1  0.313104  0.897532  0.019576  1
  N  N34  1  0.877956  0.397532  0.084427  1
  N  N35  1  0.697822  0.681272  0.082623  1
  N  N36  1  0.985440  0.692455  0.106108  1
  N  N37  1  0.613397  0.415435  0.099146  1
  N  N38  1  0.019576  0.206471  0.122044  1
  N  N39  1  0.605074  0.916479  0.123154  1
  N  N40  1  0.206675  0.583521  0.188596  1
  N  N41  1  0.488115  0.602352  0.185779  1
  N  N42  1  0.586348  0.192455  0.207014  1
  N  N43  1  0.123155  0.018080  0.206676  1
  N  N44  1  0.316289  0.915435  0.302038  1
  N  N45  1  0.483449  0.384801  0.302178  1
  N  N46  1  0.915573  0.293529  0.313104  1
  N  N47  1  0.900854  0.014251  0.316289  1
  N  N48  1  0.583428  0.897649  0.385764  1
  N  N49  1  0.302038  0.485749  0.386604  1
  N  N50  1  0.811405  0.518080  0.394926  1
  N  N51  1  0.082623  0.884800  0.401351  1
  N  N52  1  0.106108  0.620667  0.413652  1
  N  N53  1  0.814221  0.802335  0.416572  1
  N  N54  1  0.598649  0.181272  0.483449  1
  N  N55  1  0.385764  0.302335  0.488115  1
  N  N56  1  0.614236  0.697664  0.511884  1
  N  N57  1  0.401352  0.818729  0.516551  1
  N  N58  1  0.185779  0.197664  0.583428  1
  N  N59  1  0.893893  0.379334  0.586348  1
  N  N60  1  0.917377  0.115199  0.598648  1
  N  N61  1  0.188596  0.481920  0.605075  1
  N  N62  1  0.416572  0.102352  0.614237  1
  N  N63  1  0.697961  0.514250  0.613396  1
  N  N64  1  0.084427  0.706471  0.686896  1
  N  N65  1  0.099146  0.985749  0.683711  1
  N  N66  1  0.683711  0.084565  0.697962  1
  N  N67  1  0.516550  0.615199  0.697821  1
  N  N68  1  0.876846  0.981921  0.793325  1
  N  N69  1  0.413652  0.807545  0.792985  1
  N  N70  1  0.511885  0.397649  0.814222  1
  N  N71  1  0.793324  0.416479  0.811404  1
  N  N72  1  0.394925  0.083521  0.876845  1
  N  N73  1  0.980425  0.793530  0.877957  1
  N  N74  1  0.014560  0.307545  0.893892  1
  N  N75  1  0.386604  0.584565  0.900855  1
  N  N76  1  0.302178  0.318728  0.917377  1
  N  N77  1  0.122043  0.602467  0.915573  1
  N  N78  1  0.686896  0.102468  0.980424  1
  N  N79  1  0.792986  0.879334  0.985441  1
