# generated using pymatgen
data_YEr2ZnSn3Ir2
_symmetry_space_group_name_H-M   'P 1'
_cell_length_a   7.46062795
_cell_length_b   7.48047516
_cell_length_c   4.02358500
_cell_angle_alpha   90.00000000
_cell_angle_beta   90.00000000
_cell_angle_gamma   120.02997732
_symmetry_Int_Tables_number   1
_chemical_formula_structural   YEr2ZnSn3Ir2
_chemical_formula_sum   'Y1 Er2 Zn1 Sn3 Ir2'
_cell_volume   194.40933420
_cell_formula_units_Z   1
loop_
 _symmetry_equiv_pos_site_id
 _symmetry_equiv_pos_as_xyz
  1  'x, y, z'
loop_
 _atom_site_type_symbol
 _atom_site_label
 _atom_site_symmetry_multiplicity
 _atom_site_fract_x
 _atom_site_fract_y
 _atom_site_fract_z
 _atom_site_occupancy
  Y  Y0  1  0.394343  0.409476  0.500000  1
  Er  Er1  1  0.590185  0.983031  0.500000  1
  Er  Er2  1  0.017093  0.607426  0.500000  1
  Zn  Zn3  1  0.667431  0.333201  0.000000  1
  Sn  Sn4  1  0.744874  0.742837  0.000000  1
  Sn  Sn5  1  0.257520  0.001343  0.000000  1
  Sn  Sn6  1  0.997601  0.255540  0.000000  1
  Ir  Ir7  1  0.332494  0.668521  0.000000  1
  Ir  Ir8  1  0.998460  0.998625  0.500000  1
