# generated using pymatgen
data_ErLu2Fe8Os
_symmetry_space_group_name_H-M   'P 1'
_cell_length_a   8.69682214
_cell_length_b   8.69682271
_cell_length_c   8.69682100
_cell_angle_alpha   33.81207908
_cell_angle_beta   33.81207269
_cell_angle_gamma   33.81207004
_symmetry_Int_Tables_number   1
_chemical_formula_structural   ErLu2Fe8Os
_chemical_formula_sum   'Er1 Lu2 Fe8 Os1'
_cell_volume   181.50637357
_cell_formula_units_Z   1
loop_
 _symmetry_equiv_pos_site_id
 _symmetry_equiv_pos_as_xyz
  1  'x, y, z'
loop_
 _atom_site_type_symbol
 _atom_site_label
 _atom_site_symmetry_multiplicity
 _atom_site_fract_x
 _atom_site_fract_y
 _atom_site_fract_z
 _atom_site_occupancy
  Er  Er0  1  0.000000  0.000000  0.000000  1
  Lu  Lu1  1  0.141996  0.141996  0.141996  1
  Lu  Lu2  1  0.858004  0.858004  0.858004  1
  Fe  Fe3  1  0.417568  0.417568  0.922380  1
  Fe  Fe4  1  0.922380  0.417568  0.417568  1
  Fe  Fe5  1  0.582432  0.077620  0.582432  1
  Fe  Fe6  1  0.582432  0.582432  0.077620  1
  Fe  Fe7  1  0.417568  0.922380  0.417568  1
  Fe  Fe8  1  0.077620  0.582432  0.582432  1
  Fe  Fe9  1  0.332839  0.332839  0.332839  1
  Fe  Fe10  1  0.667161  0.667161  0.667161  1
  Os  Os11  1  0.500000  0.500000  0.500000  1
