# generated using pymatgen
data_Ti8Al15Fe6Cu
_symmetry_space_group_name_H-M   'P 1'
_cell_length_a   8.50445279
_cell_length_b   8.46418361
_cell_length_c   8.47687522
_cell_angle_alpha   120.17037425
_cell_angle_beta   119.85300431
_cell_angle_gamma   89.98106424
_symmetry_Int_Tables_number   1
_chemical_formula_structural   Ti8Al15Fe6Cu
_chemical_formula_sum   'Ti8 Al15 Fe6 Cu1'
_cell_volume   431.38712610
_cell_formula_units_Z   1
loop_
 _symmetry_equiv_pos_site_id
 _symmetry_equiv_pos_as_xyz
  1  'x, y, z'
loop_
 _atom_site_type_symbol
 _atom_site_label
 _atom_site_symmetry_multiplicity
 _atom_site_fract_x
 _atom_site_fract_y
 _atom_site_fract_z
 _atom_site_occupancy
  Ti  Ti0  1  0.790034  0.283727  0.066560  1
  Ti  Ti1  1  0.220176  0.283642  0.493109  1
  Ti  Ti2  1  0.217453  0.710176  0.498826  1
  Ti  Ti3  1  0.216673  0.722325  0.933025  1
  Ti  Ti4  1  0.783785  0.719621  0.507951  1
  Ti  Ti5  1  0.774888  0.283057  0.500154  1
  Ti  Ti6  1  0.393103  0.125277  0.749823  1
  Ti  Ti7  1  0.381236  0.639472  0.260473  1
  Al  Al8  1  0.996698  0.496351  0.500497  1
  Al  Al9  1  0.158989  0.341473  0.182349  1
  Al  Al10  1  0.160591  0.973804  0.818621  1
  Al  Al11  1  0.157401  0.348574  0.815199  1
  Al  Al12  1  0.530508  0.343262  0.186493  1
  Al  Al13  1  0.843162  0.656372  0.816011  1
  Al  Al14  1  0.839224  0.031483  0.182130  1
  Al  Al15  1  0.838282  0.651717  0.181254  1
  Al  Al16  1  0.472238  0.656485  0.815252  1
  Al  Al17  1  0.380228  0.119927  0.258889  1
  Al  Al18  1  0.858188  0.123600  0.744865  1
  Al  Al19  1  0.612713  0.875556  0.253050  1
  Al  Al20  1  0.619055  0.362354  0.741486  1
  Al  Al21  1  0.618746  0.877905  0.740528  1
  Al  Al22  1  0.141090  0.876839  0.254989  1
  Fe  Fe23  1  0.497666  0.999570  0.997509  1
  Fe  Fe24  1  0.497949  0.498411  0.000313  1
  Fe  Fe25  1  0.498871  0.499443  0.497691  1
  Fe  Fe26  1  0.001950  0.500778  0.004011  1
  Fe  Fe27  1  0.999318  0.999744  0.998178  1
  Fe  Fe28  1  0.498692  0.999044  0.500999  1
  Cu  Cu29  1  0.001089  0.000010  0.499764  1
