# generated using pymatgen
data_Y3ErThIr3
_symmetry_space_group_name_H-M   'P 1'
_cell_length_a   11.09717800
_cell_length_b   10.99215100
_cell_length_c   6.33856900
_cell_angle_alpha   90.00000000
_cell_angle_beta   90.00000000
_cell_angle_gamma   90.00000000
_symmetry_Int_Tables_number   1
_chemical_formula_structural   Y3ErThIr3
_chemical_formula_sum   'Y12 Er4 Th4 Ir12'
_cell_volume   773.19041259
_cell_formula_units_Z   4
loop_
 _symmetry_equiv_pos_site_id
 _symmetry_equiv_pos_as_xyz
  1  'x, y, z'
loop_
 _atom_site_type_symbol
 _atom_site_label
 _atom_site_symmetry_multiplicity
 _atom_site_fract_x
 _atom_site_fract_y
 _atom_site_fract_z
 _atom_site_occupancy
  Y  Y0  1  0.588530  0.783658  0.878476  1
  Y  Y1  1  0.588530  0.216342  0.378476  1
  Y  Y2  1  0.411470  0.783658  0.378476  1
  Y  Y3  1  0.411470  0.216342  0.878476  1
  Y  Y4  1  0.207384  0.413570  0.620549  1
  Y  Y5  1  0.207384  0.586430  0.120549  1
  Y  Y6  1  0.792616  0.413570  0.120549  1
  Y  Y7  1  0.792616  0.586430  0.620549  1
  Y  Y8  1  0.914808  0.707732  0.116438  1
  Y  Y9  1  0.914808  0.292268  0.616438  1
  Y  Y10  1  0.085192  0.707732  0.616438  1
  Y  Y11  1  0.085192  0.292268  0.116438  1
  Er  Er12  1  0.000000  0.000000  0.499769  1
  Er  Er13  1  0.000000  0.000000  0.999769  1
  Er  Er14  1  0.500000  0.500000  0.012499  1
  Er  Er15  1  0.500000  0.500000  0.512499  1
  Th  Th16  1  0.292929  0.093499  0.379492  1
  Th  Th17  1  0.292929  0.906501  0.879492  1
  Th  Th18  1  0.707071  0.093499  0.879492  1
  Th  Th19  1  0.707071  0.906501  0.379492  1
  Ir  Ir20  1  0.845247  0.149129  0.244857  1
  Ir  Ir21  1  0.845247  0.850871  0.744857  1
  Ir  Ir22  1  0.154753  0.149129  0.744857  1
  Ir  Ir23  1  0.154753  0.850871  0.244857  1
  Ir  Ir24  1  0.652525  0.347364  0.758619  1
  Ir  Ir25  1  0.652525  0.652636  0.258619  1
  Ir  Ir26  1  0.347475  0.347364  0.258619  1
  Ir  Ir27  1  0.347475  0.652636  0.758619  1
  Ir  Ir28  1  0.500000  0.000000  0.117911  1
  Ir  Ir29  1  0.500000  0.000000  0.617911  1
  Ir  Ir30  1  0.000000  0.500000  0.872959  1
  Ir  Ir31  1  0.000000  0.500000  0.372959  1
