# generated using pymatgen
data_Ti3ReTc5Mo3
_symmetry_space_group_name_H-M   'P 1'
_cell_length_a   4.39057700
_cell_length_b   6.24628900
_cell_length_c   13.28427600
_cell_angle_alpha   90.00000000
_cell_angle_beta   90.00004766
_cell_angle_gamma   90.00000000
_symmetry_Int_Tables_number   1
_chemical_formula_structural   Ti3ReTc5Mo3
_chemical_formula_sum   'Ti6 Re2 Tc10 Mo6'
_cell_volume   364.31878273
_cell_formula_units_Z   2
loop_
 _symmetry_equiv_pos_site_id
 _symmetry_equiv_pos_as_xyz
  1  'x, y, z'
loop_
 _atom_site_type_symbol
 _atom_site_label
 _atom_site_symmetry_multiplicity
 _atom_site_fract_x
 _atom_site_fract_y
 _atom_site_fract_z
 _atom_site_occupancy
  Ti  Ti0  1  0.000000  0.500000  0.000000  1
  Ti  Ti1  1  0.499884  0.000000  0.167582  1
  Ti  Ti2  1  0.999881  0.500000  0.333314  1
  Ti  Ti3  1  0.500000  0.000000  0.500000  1
  Ti  Ti4  1  0.000119  0.500000  0.666686  1
  Ti  Ti5  1  0.500115  0.000000  0.832418  1
  Re  Re6  1  0.500000  0.249813  0.000000  1
  Re  Re7  1  0.500000  0.750187  0.000000  1
  Tc  Tc8  1  0.999902  0.250402  0.166980  1
  Tc  Tc9  1  0.999902  0.749598  0.166980  1
  Tc  Tc10  1  0.499906  0.249228  0.333645  1
  Tc  Tc11  1  0.499906  0.750771  0.333645  1
  Tc  Tc12  1  0.000000  0.250538  0.500000  1
  Tc  Tc13  1  0.000000  0.749462  0.500000  1
  Tc  Tc14  1  0.500095  0.249228  0.666355  1
  Tc  Tc15  1  0.500095  0.750771  0.666355  1
  Tc  Tc16  1  0.000096  0.250402  0.833020  1
  Tc  Tc17  1  0.000096  0.749598  0.833020  1
  Mo  Mo18  1  0.000000  0.000000  0.000000  1
  Mo  Mo19  1  0.499892  0.500000  0.166292  1
  Mo  Mo20  1  0.999892  0.000000  0.333707  1
  Mo  Mo21  1  0.500000  0.500000  0.500000  1
  Mo  Mo22  1  0.000109  0.000000  0.666293  1
  Mo  Mo23  1  0.500108  0.500000  0.833708  1
