# generated using pymatgen
data_Eu4Tl2WO12
_symmetry_space_group_name_H-M   'P 1'
_cell_length_a   6.70245825
_cell_length_b   6.71464392
_cell_length_c   6.76075400
_cell_angle_alpha   98.63638074
_cell_angle_beta   98.35796815
_cell_angle_gamma   98.31344961
_symmetry_Int_Tables_number   1
_chemical_formula_structural   Eu4Tl2WO12
_chemical_formula_sum   'Eu4 Tl2 W1 O12'
_cell_volume   293.28140210
_cell_formula_units_Z   1
loop_
 _symmetry_equiv_pos_site_id
 _symmetry_equiv_pos_as_xyz
  1  'x, y, z'
loop_
 _atom_site_type_symbol
 _atom_site_label
 _atom_site_symmetry_multiplicity
 _atom_site_fract_x
 _atom_site_fract_y
 _atom_site_fract_z
 _atom_site_occupancy
  Eu  Eu0  1  0.294881  0.614842  0.132639  1
  Eu  Eu1  1  0.609386  0.135761  0.287516  1
  Eu  Eu2  1  0.868762  0.701340  0.393433  1
  Eu  Eu3  1  0.127207  0.292992  0.610421  1
  Tl  Tl4  1  0.421642  0.860429  0.686226  1
  Tl  Tl5  1  0.687356  0.411258  0.854625  1
  W  W6  1  0.004531  0.003618  0.003258  1
  O  O7  1  0.946767  0.711683  0.043806  1
  O  O8  1  0.287946  0.976750  0.094749  1
  O  O9  1  0.606613  0.434525  0.151865  1
  O  O10  1  0.961150  0.070250  0.299166  1
  O  O11  1  0.572013  0.817364  0.387001  1
  O  O12  1  0.165660  0.577640  0.420805  1
  O  O13  1  0.808490  0.406038  0.578045  1
  O  O14  1  0.425937  0.154999  0.604157  1
  O  O15  1  0.013794  0.927232  0.719469  1
  O  O16  1  0.393696  0.587868  0.808258  1
  O  O17  1  0.713395  0.028950  0.949127  1
  O  O18  1  0.090774  0.286468  0.975435  1
