# generated using pymatgen
data_Co21ReB6Sb
_symmetry_space_group_name_H-M   'P 1'
_cell_length_a   7.41435990
_cell_length_b   7.41435941
_cell_length_c   7.41436000
_cell_angle_alpha   59.99999737
_cell_angle_beta   59.99999956
_cell_angle_gamma   60.00000009
_symmetry_Int_Tables_number   1
_chemical_formula_structural   Co21ReB6Sb
_chemical_formula_sum   'Co21 Re1 B6 Sb1'
_cell_volume   288.20795217
_cell_formula_units_Z   1
loop_
 _symmetry_equiv_pos_site_id
 _symmetry_equiv_pos_as_xyz
  1  'x, y, z'
loop_
 _atom_site_type_symbol
 _atom_site_label
 _atom_site_symmetry_multiplicity
 _atom_site_fract_x
 _atom_site_fract_y
 _atom_site_fract_z
 _atom_site_occupancy
  Co  Co0  1  0.000000  0.000000  0.000000  1
  Co  Co1  1  0.615006  0.615006  0.154984  1
  Co  Co2  1  0.615006  0.154984  0.615006  1
  Co  Co3  1  0.154984  0.615006  0.615006  1
  Co  Co4  1  0.615006  0.615006  0.615006  1
  Co  Co5  1  0.380352  0.380352  0.858943  1
  Co  Co6  1  0.380352  0.858943  0.380352  1
  Co  Co7  1  0.858943  0.380352  0.380352  1
  Co  Co8  1  0.380352  0.380352  0.380352  1
  Co  Co9  1  0.003288  0.003288  0.333294  1
  Co  Co10  1  0.660129  0.003288  0.333294  1
  Co  Co11  1  0.003288  0.660129  0.333294  1
  Co  Co12  1  0.660129  0.333294  0.003288  1
  Co  Co13  1  0.003288  0.333294  0.003288  1
  Co  Co14  1  0.003288  0.333294  0.660129  1
  Co  Co15  1  0.333294  0.660129  0.003288  1
  Co  Co16  1  0.333294  0.003288  0.660129  1
  Co  Co17  1  0.333294  0.003288  0.003288  1
  Co  Co18  1  0.003288  0.003288  0.660129  1
  Co  Co19  1  0.003288  0.660129  0.003288  1
  Co  Co20  1  0.660129  0.003288  0.003288  1
  Re  Re21  1  0.250000  0.250000  0.250000  1
  B  B22  1  0.724578  0.724578  0.275422  1
  B  B23  1  0.275422  0.724578  0.275422  1
  B  B24  1  0.724578  0.275422  0.275422  1
  B  B25  1  0.275422  0.275422  0.724578  1
  B  B26  1  0.724578  0.275422  0.724578  1
  B  B27  1  0.275422  0.724578  0.724578  1
  Sb  Sb28  1  0.750000  0.750000  0.750000  1
