# generated using pymatgen
data_Dy2Fe6P6Ir3Ru
_symmetry_space_group_name_H-M   'P 1'
_cell_length_a   3.79300800
_cell_length_b   10.27118800
_cell_length_c   12.15294500
_cell_angle_alpha   90.00000000
_cell_angle_beta   90.00000000
_cell_angle_gamma   90.00000000
_symmetry_Int_Tables_number   1
_chemical_formula_structural   Dy2Fe6P6Ir3Ru
_chemical_formula_sum   'Dy4 Fe12 P12 Ir6 Ru2'
_cell_volume   473.46291715
_cell_formula_units_Z   2
loop_
 _symmetry_equiv_pos_site_id
 _symmetry_equiv_pos_as_xyz
  1  'x, y, z'
loop_
 _atom_site_type_symbol
 _atom_site_label
 _atom_site_symmetry_multiplicity
 _atom_site_fract_x
 _atom_site_fract_y
 _atom_site_fract_z
 _atom_site_occupancy
  Dy  Dy0  1  0.250000  0.582021  0.712892  1
  Dy  Dy1  1  0.250000  0.917979  0.212892  1
  Dy  Dy2  1  0.750000  0.419734  0.288064  1
  Dy  Dy3  1  0.750000  0.080266  0.788064  1
  Fe  Fe4  1  0.250000  0.223597  0.170360  1
  Fe  Fe5  1  0.250000  0.276403  0.670360  1
  Fe  Fe6  1  0.750000  0.777195  0.827881  1
  Fe  Fe7  1  0.750000  0.722805  0.327881  1
  Fe  Fe8  1  0.250000  0.877862  0.696281  1
  Fe  Fe9  1  0.250000  0.622138  0.196281  1
  Fe  Fe10  1  0.750000  0.121077  0.304346  1
  Fe  Fe11  1  0.750000  0.378923  0.804346  1
  Fe  Fe12  1  0.250000  0.457723  0.937121  1
  Fe  Fe13  1  0.250000  0.042277  0.437121  1
  Fe  Fe14  1  0.750000  0.538520  0.063800  1
  Fe  Fe15  1  0.750000  0.961480  0.563800  1
  P  P16  1  0.250000  0.429455  0.113811  1
  P  P17  1  0.250000  0.070545  0.613811  1
  P  P18  1  0.750000  0.574877  0.888558  1
  P  P19  1  0.750000  0.925123  0.388558  1
  P  P20  1  0.250000  0.273569  0.851702  1
  P  P21  1  0.250000  0.226431  0.351702  1
  P  P22  1  0.750000  0.726151  0.144506  1
  P  P23  1  0.750000  0.773849  0.644506  1
  P  P24  1  0.250000  0.607207  0.377598  1
  P  P25  1  0.250000  0.892793  0.877598  1
  P  P26  1  0.750000  0.396036  0.624140  1
  P  P27  1  0.750000  0.103964  0.124140  1
  Ir  Ir28  1  0.750000  0.291909  0.016040  1
  Ir  Ir29  1  0.750000  0.208091  0.516040  1
  Ir  Ir30  1  0.250000  0.404482  0.476423  1
  Ir  Ir31  1  0.250000  0.095518  0.976423  1
  Ir  Ir32  1  0.750000  0.594314  0.522206  1
  Ir  Ir33  1  0.750000  0.905686  0.022206  1
  Ru  Ru34  1  0.250000  0.706350  0.984272  1
  Ru  Ru35  1  0.250000  0.793650  0.484272  1
