# generated using pymatgen
data_Te8Pt5Se2
_symmetry_space_group_name_H-M   'P 1'
_cell_length_a   17.30170181
_cell_length_b   17.30170241
_cell_length_c   7.03157844
_cell_angle_alpha   87.44994206
_cell_angle_beta   87.44993898
_cell_angle_gamma   13.24696049
_symmetry_Int_Tables_number   1
_chemical_formula_structural   Te8Pt5Se2
_chemical_formula_sum   'Te8 Pt5 Se2'
_cell_volume   481.85003645
_cell_formula_units_Z   1
loop_
 _symmetry_equiv_pos_site_id
 _symmetry_equiv_pos_as_xyz
  1  'x, y, z'
loop_
 _atom_site_type_symbol
 _atom_site_label
 _atom_site_symmetry_multiplicity
 _atom_site_fract_x
 _atom_site_fract_y
 _atom_site_fract_z
 _atom_site_occupancy
  Te  Te0  1  0.671083  0.671083  0.781520  1
  Te  Te1  1  0.275582  0.275582  0.773629  1
  Te  Te2  1  0.879153  0.879153  0.801548  1
  Te  Te3  1  0.537134  0.537134  0.219867  1
  Te  Te4  1  0.137820  0.137820  0.182652  1
  Te  Te5  1  0.736674  0.736674  0.165317  1
  Te  Te6  1  0.335747  0.335747  0.179441  1
  Te  Te7  1  0.935952  0.935952  0.217770  1
  Pt  Pt8  1  0.005678  0.005678  0.029737  1
  Pt  Pt9  1  0.603915  0.603915  0.003485  1
  Pt  Pt10  1  0.205114  0.205114  0.970369  1
  Pt  Pt11  1  0.806522  0.806522  0.975099  1
  Pt  Pt12  1  0.407420  0.407420  0.011243  1
  Se  Se13  1  0.071376  0.071376  0.837657  1
  Se  Se14  1  0.476551  0.476551  0.850664  1
