# generated using pymatgen
data_Ho16InNi4Ag3
_symmetry_space_group_name_H-M   'P 1'
_cell_length_a   9.44049140
_cell_length_b   9.44256576
_cell_length_c   9.44256700
_cell_angle_alpha   59.99999916
_cell_angle_beta   59.99273028
_cell_angle_gamma   59.99273603
_symmetry_Int_Tables_number   1
_chemical_formula_structural   Ho16InNi4Ag3
_chemical_formula_sum   'Ho16 In1 Ni4 Ag3'
_cell_volume   595.13019090
_cell_formula_units_Z   1
loop_
 _symmetry_equiv_pos_site_id
 _symmetry_equiv_pos_as_xyz
  1  'x, y, z'
loop_
 _atom_site_type_symbol
 _atom_site_label
 _atom_site_symmetry_multiplicity
 _atom_site_fract_x
 _atom_site_fract_y
 _atom_site_fract_z
 _atom_site_occupancy
  Ho  Ho0  1  0.350083  0.348452  0.348452  1
  Ho  Ho1  1  0.350083  0.348452  0.953011  1
  Ho  Ho2  1  0.350083  0.953011  0.348452  1
  Ho  Ho3  1  0.952200  0.349266  0.349266  1
  Ho  Ho4  1  0.811332  0.188743  0.188743  1
  Ho  Ho5  1  0.188279  0.810607  0.810607  1
  Ho  Ho6  1  0.188279  0.810607  0.190507  1
  Ho  Ho7  1  0.811332  0.188743  0.811182  1
  Ho  Ho8  1  0.188279  0.190507  0.810607  1
  Ho  Ho9  1  0.811332  0.811182  0.188743  1
  Ho  Ho10  1  0.929950  0.565368  0.565368  1
  Ho  Ho11  1  0.563062  0.935855  0.935855  1
  Ho  Ho12  1  0.563062  0.935855  0.565229  1
  Ho  Ho13  1  0.929950  0.565368  0.939312  1
  Ho  Ho14  1  0.563062  0.565229  0.935855  1
  Ho  Ho15  1  0.929950  0.939312  0.565368  1
  In  In16  1  0.261294  0.579569  0.579569  1
  Ni  Ni17  1  0.142029  0.142716  0.142716  1
  Ni  Ni18  1  0.142029  0.142716  0.572539  1
  Ni  Ni19  1  0.142029  0.572539  0.142716  1
  Ni  Ni20  1  0.575265  0.141578  0.141578  1
  Ag  Ag21  1  0.585679  0.581409  0.581409  1
  Ag  Ag22  1  0.585679  0.581409  0.251504  1
  Ag  Ag23  1  0.585679  0.251504  0.581409  1
