# generated using pymatgen
data_Pr2Ga3Si
_symmetry_space_group_name_H-M   'P 1'
_cell_length_a   4.34302500
_cell_length_b   4.24053400
_cell_length_c   7.31386800
_cell_angle_alpha   90.00000000
_cell_angle_beta   90.00000000
_cell_angle_gamma   90.00000000
_symmetry_Int_Tables_number   1
_chemical_formula_structural   Pr2Ga3Si
_chemical_formula_sum   'Pr2 Ga3 Si1'
_cell_volume   134.69764320
_cell_formula_units_Z   1
loop_
 _symmetry_equiv_pos_site_id
 _symmetry_equiv_pos_as_xyz
  1  'x, y, z'
loop_
 _atom_site_type_symbol
 _atom_site_label
 _atom_site_symmetry_multiplicity
 _atom_site_fract_x
 _atom_site_fract_y
 _atom_site_fract_z
 _atom_site_occupancy
  Pr  Pr0  1  0.000000  0.500000  0.004174  1
  Pr  Pr1  1  0.000000  0.000000  0.496366  1
  Ga  Ga2  1  0.500000  0.000000  0.831457  1
  Ga  Ga3  1  0.500000  0.000000  0.167042  1
  Ga  Ga4  1  0.500000  0.500000  0.665725  1
  Si  Si5  1  0.500000  0.500000  0.335236  1
