# generated using pymatgen
data_DyEr5InSi2
_symmetry_space_group_name_H-M   'P 1'
_cell_length_a   8.46699197
_cell_length_b   8.46699195
_cell_length_c   8.45409691
_cell_angle_alpha   112.49777228
_cell_angle_beta   110.90514552
_cell_angle_gamma   105.16837979
_symmetry_Int_Tables_number   1
_chemical_formula_structural   DyEr5InSi2
_chemical_formula_sum   'Dy2 Er10 In2 Si4'
_cell_volume   464.08921982
_cell_formula_units_Z   2
loop_
 _symmetry_equiv_pos_site_id
 _symmetry_equiv_pos_as_xyz
  1  'x, y, z'
loop_
 _atom_site_type_symbol
 _atom_site_label
 _atom_site_symmetry_multiplicity
 _atom_site_fract_x
 _atom_site_fract_y
 _atom_site_fract_z
 _atom_site_occupancy
  Dy  Dy0  1  0.187410  0.279253  0.466663  1
  Dy  Dy1  1  0.812590  0.720747  0.533337  1
  Er  Er2  1  0.187019  0.720468  0.907486  1
  Er  Er3  1  0.812981  0.279532  0.092514  1
  Er  Er4  1  0.319096  0.615801  0.295815  1
  Er  Er5  1  0.680904  0.384199  0.704185  1
  Er  Er6  1  0.319986  0.023282  0.704185  1
  Er  Er7  1  0.680014  0.976718  0.295815  1
  Er  Er8  1  0.442247  0.236688  0.204386  1
  Er  Er9  1  0.557753  0.763312  0.795614  1
  Er  Er10  1  0.032302  0.237862  0.795614  1
  Er  Er11  1  0.967698  0.762138  0.204386  1
  In  In12  1  0.500000  0.500000  0.000000  1
  In  In13  1  0.000000  0.000000  0.000000  1
  Si  Si14  1  0.116505  0.616505  0.500000  1
  Si  Si15  1  0.883495  0.383495  0.500000  1
  Si  Si16  1  0.369529  0.999926  0.369454  1
  Si  Si17  1  0.630471  0.000074  0.630546  1
