# generated using pymatgen
data_Yb5Dy2Lu(Si4Mo3)4
_symmetry_space_group_name_H-M   'P 1'
_cell_length_a   6.71805836
_cell_length_b   6.93498464
_cell_length_c   12.98968604
_cell_angle_alpha   89.88779187
_cell_angle_beta   89.98005995
_cell_angle_gamma   89.91750333
_symmetry_Int_Tables_number   1
_chemical_formula_structural   Yb5Dy2Lu(Si4Mo3)4
_chemical_formula_sum   'Yb5 Dy2 Lu1 Si16 Mo12'
_cell_volume   605.18286236
_cell_formula_units_Z   1
loop_
 _symmetry_equiv_pos_site_id
 _symmetry_equiv_pos_as_xyz
  1  'x, y, z'
loop_
 _atom_site_type_symbol
 _atom_site_label
 _atom_site_symmetry_multiplicity
 _atom_site_fract_x
 _atom_site_fract_y
 _atom_site_fract_z
 _atom_site_occupancy
  Yb  Yb0  1  0.498039  0.334940  0.090464  1
  Yb  Yb1  1  0.997825  0.166937  0.408004  1
  Yb  Yb2  1  0.501539  0.667399  0.592013  1
  Yb  Yb3  1  0.001484  0.831661  0.908151  1
  Yb  Yb4  1  0.501166  0.666730  0.910077  1
  Dy  Dy5  1  0.000137  0.830332  0.594020  1
  Dy  Dy6  1  0.499712  0.331617  0.406050  1
  Lu  Lu7  1  0.998319  0.169615  0.093632  1
  Si  Si8  1  0.659011  0.042404  0.545148  1
  Si  Si9  1  0.158599  0.456593  0.955270  1
  Si  Si10  1  0.338939  0.959205  0.046128  1
  Si  Si11  1  0.841034  0.542487  0.454150  1
  Si  Si12  1  0.339906  0.956515  0.454221  1
  Si  Si13  1  0.841763  0.541828  0.045884  1
  Si  Si14  1  0.660257  0.042117  0.955213  1
  Si  Si15  1  0.160261  0.456381  0.544986  1
  Si  Si16  1  0.534107  0.372065  0.750402  1
  Si  Si17  1  0.034795  0.127559  0.749922  1
  Si  Si18  1  0.465481  0.631938  0.248924  1
  Si  Si19  1  0.966120  0.871360  0.249538  1
  Si  Si20  1  0.799567  0.628489  0.751459  1
  Si  Si21  1  0.303764  0.869256  0.751537  1
  Si  Si22  1  0.197274  0.369330  0.248830  1
  Si  Si23  1  0.698522  0.130617  0.248790  1
  Mo  Mo24  1  0.833351  0.332923  0.626243  1
  Mo  Mo25  1  0.333019  0.167947  0.873358  1
  Mo  Mo26  1  0.166397  0.666820  0.126158  1
  Mo  Mo27  1  0.667770  0.834049  0.373678  1
  Mo  Mo28  1  0.166879  0.666528  0.372899  1
  Mo  Mo29  1  0.668710  0.835233  0.126642  1
  Mo  Mo30  1  0.835599  0.330099  0.873368  1
  Mo  Mo31  1  0.333455  0.167065  0.626383  1
  Mo  Mo32  1  0.662376  0.007552  0.749909  1
  Mo  Mo33  1  0.161850  0.492193  0.749289  1
  Mo  Mo34  1  0.335805  0.996775  0.249939  1
  Mo  Mo35  1  0.837167  0.505441  0.249323  1
