# generated using pymatgen
data_MnNi4P4Ru3
_symmetry_space_group_name_H-M   'P 1'
_cell_length_a   5.72164898
_cell_length_b   3.65744200
_cell_length_c   6.83736992
_cell_angle_alpha   90.00000000
_cell_angle_beta   90.64503050
_cell_angle_gamma   90.00000000
_symmetry_Int_Tables_number   1
_chemical_formula_structural   MnNi4P4Ru3
_chemical_formula_sum   'Mn1 Ni4 P4 Ru3'
_cell_volume   143.07383345
_cell_formula_units_Z   1
loop_
 _symmetry_equiv_pos_site_id
 _symmetry_equiv_pos_as_xyz
  1  'x, y, z'
loop_
 _atom_site_type_symbol
 _atom_site_label
 _atom_site_symmetry_multiplicity
 _atom_site_fract_x
 _atom_site_fract_y
 _atom_site_fract_z
 _atom_site_occupancy
  Mn  Mn0  1  0.466960  0.750000  0.667225  1
  Ni  Ni1  1  0.143887  0.250000  0.565091  1
  Ni  Ni2  1  0.632423  0.250000  0.930168  1
  Ni  Ni3  1  0.864378  0.750000  0.434629  1
  Ni  Ni4  1  0.369003  0.750000  0.063061  1
  P  P5  1  0.759187  0.250000  0.622953  1
  P  P6  1  0.247034  0.250000  0.878792  1
  P  P7  1  0.249731  0.750000  0.376323  1
  P  P8  1  0.750202  0.750000  0.123189  1
  Ru  Ru9  1  0.023655  0.250000  0.165687  1
  Ru  Ru10  1  0.523878  0.250000  0.340880  1
  Ru  Ru11  1  0.969662  0.750000  0.832002  1
