# generated using pymatgen
data_SmTh(CrN3)2
_symmetry_space_group_name_H-M   'P 1'
_cell_length_a   7.07298821
_cell_length_b   7.07298843
_cell_length_c   5.94400307
_cell_angle_alpha   77.78801217
_cell_angle_beta   77.78802062
_cell_angle_gamma   87.43785188
_symmetry_Int_Tables_number   1
_chemical_formula_structural   SmTh(CrN3)2
_chemical_formula_sum   'Sm2 Th2 Cr4 N12'
_cell_volume   284.05628495
_cell_formula_units_Z   2
loop_
 _symmetry_equiv_pos_site_id
 _symmetry_equiv_pos_as_xyz
  1  'x, y, z'
loop_
 _atom_site_type_symbol
 _atom_site_label
 _atom_site_symmetry_multiplicity
 _atom_site_fract_x
 _atom_site_fract_y
 _atom_site_fract_z
 _atom_site_occupancy
  Sm  Sm0  1  0.091777  0.908223  0.250000  1
  Sm  Sm1  1  0.908223  0.091777  0.750000  1
  Th  Th2  1  0.328137  0.671863  0.750000  1
  Th  Th3  1  0.671863  0.328137  0.250000  1
  Cr  Cr4  1  0.378834  0.198746  0.758675  1
  Cr  Cr5  1  0.621166  0.801254  0.241325  1
  Cr  Cr6  1  0.801254  0.621166  0.741325  1
  Cr  Cr7  1  0.198746  0.378834  0.258675  1
  N  N8  1  0.002197  0.768510  0.658021  1
  N  N9  1  0.862161  0.393904  0.858177  1
  N  N10  1  0.768510  0.002197  0.158021  1
  N  N11  1  0.137839  0.606096  0.141823  1
  N  N12  1  0.997803  0.231490  0.341979  1
  N  N13  1  0.231490  0.997803  0.841979  1
  N  N14  1  0.606096  0.137839  0.641823  1
  N  N15  1  0.628084  0.676041  0.994236  1
  N  N16  1  0.371916  0.323959  0.005764  1
  N  N17  1  0.393904  0.862161  0.358177  1
  N  N18  1  0.676041  0.628084  0.494236  1
  N  N19  1  0.323959  0.371916  0.505764  1
