# generated using pymatgen
data_DyHo3(CrB4)4
_symmetry_space_group_name_H-M   'P 1'
_cell_length_a   3.43838700
_cell_length_b   5.92752510
_cell_length_c   11.45380220
_cell_angle_alpha   89.97882072
_cell_angle_beta   90.00000000
_cell_angle_gamma   90.00000000
_symmetry_Int_Tables_number   1
_chemical_formula_structural   DyHo3(CrB4)4
_chemical_formula_sum   'Dy1 Ho3 Cr4 B16'
_cell_volume   233.44136119
_cell_formula_units_Z   1
loop_
 _symmetry_equiv_pos_site_id
 _symmetry_equiv_pos_as_xyz
  1  'x, y, z'
loop_
 _atom_site_type_symbol
 _atom_site_label
 _atom_site_symmetry_multiplicity
 _atom_site_fract_x
 _atom_site_fract_y
 _atom_site_fract_z
 _atom_site_occupancy
  Dy  Dy0  1  0.000000  0.624755  0.349146  1
  Ho  Ho1  1  0.000000  0.375233  0.650890  1
  Ho  Ho2  1  0.000000  0.124816  0.150726  1
  Ho  Ho3  1  0.000000  0.875198  0.849146  1
  Cr  Cr4  1  0.000000  0.624267  0.080619  1
  Cr  Cr5  1  0.000000  0.375696  0.919084  1
  Cr  Cr6  1  0.000000  0.124450  0.419218  1
  Cr  Cr7  1  0.000000  0.875610  0.581123  1
  B  B8  1  0.500000  0.781996  0.183973  1
  B  B9  1  0.500000  0.218086  0.815738  1
  B  B10  1  0.500000  0.281543  0.315711  1
  B  B11  1  0.500000  0.718058  0.684348  1
  B  B12  1  0.500000  0.863043  0.032218  1
  B  B13  1  0.500000  0.137004  0.967558  1
  B  B14  1  0.500000  0.362867  0.467903  1
  B  B15  1  0.500000  0.637141  0.532583  1
  B  B16  1  0.500000  0.887107  0.453391  1
  B  B17  1  0.500000  0.113270  0.547097  1
  B  B18  1  0.500000  0.386603  0.046786  1
  B  B19  1  0.500000  0.613295  0.952982  1
  B  B20  1  0.500000  0.975708  0.308326  1
  B  B21  1  0.500000  0.024516  0.691776  1
  B  B22  1  0.500000  0.475291  0.191367  1
  B  B23  1  0.500000  0.524447  0.808290  1
