# generated using pymatgen
data_Sr4TbYPa2O12
_symmetry_space_group_name_H-M   'P 1'
_cell_length_a   6.16781102
_cell_length_b   6.02911160
_cell_length_c   10.51849009
_cell_angle_alpha   54.98244973
_cell_angle_beta   89.99014679
_cell_angle_gamma   89.99622656
_symmetry_Int_Tables_number   1
_chemical_formula_structural   Sr4TbYPa2O12
_chemical_formula_sum   'Sr4 Tb1 Y1 Pa2 O12'
_cell_volume   320.33848605
_cell_formula_units_Z   1
loop_
 _symmetry_equiv_pos_site_id
 _symmetry_equiv_pos_as_xyz
  1  'x, y, z'
loop_
 _atom_site_type_symbol
 _atom_site_label
 _atom_site_symmetry_multiplicity
 _atom_site_fract_x
 _atom_site_fract_y
 _atom_site_fract_z
 _atom_site_occupancy
  Sr  Sr0  1  0.456679  0.260241  0.750824  1
  Sr  Sr1  1  0.956731  0.739538  0.749371  1
  Sr  Sr2  1  0.043269  0.260462  0.250629  1
  Sr  Sr3  1  0.543321  0.739759  0.249176  1
  Tb  Tb4  1  0.500000  0.000000  0.500000  1
  Y  Y5  1  0.000000  0.000000  0.000000  1
  Pa  Pa6  1  0.000000  0.500000  0.500000  1
  Pa  Pa7  1  0.500000  0.500000  0.000000  1
  O  O8  1  0.196483  0.739998  0.552236  1
  O  O9  1  0.696982  0.259643  0.947887  1
  O  O10  1  0.803517  0.260002  0.447764  1
  O  O11  1  0.303018  0.740357  0.052113  1
  O  O12  1  0.709191  0.638747  0.556430  1
  O  O13  1  0.208957  0.360643  0.943689  1
  O  O14  1  0.290809  0.361253  0.443570  1
  O  O15  1  0.791043  0.639357  0.056311  1
  O  O16  1  0.039902  0.154086  0.744067  1
  O  O17  1  0.539949  0.845643  0.756363  1
  O  O18  1  0.960098  0.845914  0.255933  1
  O  O19  1  0.460051  0.154357  0.243637  1
