# generated using pymatgen
data_Li2Y3MgZnSi2
_symmetry_space_group_name_H-M   'P 1'
_cell_length_a   7.15356151
_cell_length_b   7.19515744
_cell_length_c   4.24632600
_cell_angle_alpha   90.00000000
_cell_angle_beta   90.00000000
_cell_angle_gamma   120.19255629
_symmetry_Int_Tables_number   1
_chemical_formula_structural   Li2Y3MgZnSi2
_chemical_formula_sum   'Li2 Y3 Mg1 Zn1 Si2'
_cell_volume   188.91247367
_cell_formula_units_Z   1
loop_
 _symmetry_equiv_pos_site_id
 _symmetry_equiv_pos_as_xyz
  1  'x, y, z'
loop_
 _atom_site_type_symbol
 _atom_site_label
 _atom_site_symmetry_multiplicity
 _atom_site_fract_x
 _atom_site_fract_y
 _atom_site_fract_z
 _atom_site_occupancy
  Li  Li0  1  0.750405  0.750338  0.000000  1
  Li  Li1  1  0.249595  0.999933  0.000000  1
  Y  Y2  1  0.431313  0.430385  0.500000  1
  Y  Y3  1  0.000000  0.578532  0.500000  1
  Y  Y4  1  0.568687  0.999072  0.500000  1
  Mg  Mg5  1  0.000000  0.243509  0.000000  1
  Zn  Zn6  1  0.000000  0.993834  0.500000  1
  Si  Si7  1  0.665756  0.335075  0.000000  1
  Si  Si8  1  0.334244  0.669320  0.000000  1
