# generated using pymatgen
data_Er8Sc11Si16Au
_symmetry_space_group_name_H-M   'P 1'
_cell_length_a   6.98396900
_cell_length_b   7.36615475
_cell_length_c   13.97642700
_cell_angle_alpha   90.00000000
_cell_angle_beta   90.00000000
_cell_angle_gamma   89.82245812
_symmetry_Int_Tables_number   1
_chemical_formula_structural   Er8Sc11Si16Au
_chemical_formula_sum   'Er8 Sc11 Si16 Au1'
_cell_volume   719.01378496
_cell_formula_units_Z   1
loop_
 _symmetry_equiv_pos_site_id
 _symmetry_equiv_pos_as_xyz
  1  'x, y, z'
loop_
 _atom_site_type_symbol
 _atom_site_label
 _atom_site_symmetry_multiplicity
 _atom_site_fract_x
 _atom_site_fract_y
 _atom_site_fract_z
 _atom_site_occupancy
  Er  Er0  1  0.010520  0.175542  0.095979  1
  Er  Er1  1  0.990327  0.813614  0.902213  1
  Er  Er2  1  0.486534  0.672568  0.902074  1
  Er  Er3  1  0.990327  0.813614  0.597787  1
  Er  Er4  1  0.509981  0.322807  0.096218  1
  Er  Er5  1  0.010520  0.175542  0.404021  1
  Er  Er6  1  0.509981  0.322807  0.403782  1
  Er  Er7  1  0.486534  0.672568  0.597926  1
  Sc  Sc8  1  0.837691  0.497380  0.250000  1
  Sc  Sc9  1  0.340577  0.003839  0.250000  1
  Sc  Sc10  1  0.654857  0.997069  0.750000  1
  Sc  Sc11  1  0.322620  0.182652  0.627836  1
  Sc  Sc12  1  0.671171  0.824008  0.375345  1
  Sc  Sc13  1  0.170294  0.679240  0.373821  1
  Sc  Sc14  1  0.671171  0.824008  0.124655  1
  Sc  Sc15  1  0.839442  0.327441  0.627742  1
  Sc  Sc16  1  0.322620  0.182652  0.872164  1
  Sc  Sc17  1  0.839442  0.327441  0.872258  1
  Sc  Sc18  1  0.170294  0.679240  0.126179  1
  Si  Si19  1  0.024349  0.089598  0.750000  1
  Si  Si20  1  0.969141  0.890066  0.250000  1
  Si  Si21  1  0.467449  0.616255  0.250000  1
  Si  Si22  1  0.535979  0.385133  0.750000  1
  Si  Si23  1  0.288098  0.877900  0.750000  1
  Si  Si24  1  0.713619  0.130098  0.250000  1
  Si  Si25  1  0.212562  0.370608  0.250000  1
  Si  Si26  1  0.778247  0.630334  0.750000  1
  Si  Si27  1  0.164110  0.459349  0.530076  1
  Si  Si28  1  0.841682  0.534416  0.462109  1
  Si  Si29  1  0.343591  0.965570  0.463438  1
  Si  Si30  1  0.841682  0.534416  0.037891  1
  Si  Si31  1  0.657746  0.033855  0.540702  1
  Si  Si32  1  0.164110  0.459349  0.969924  1
  Si  Si33  1  0.657746  0.033855  0.959298  1
  Si  Si34  1  0.343591  0.965570  0.036562  1
  Au  Au35  1  0.161391  0.529600  0.750000  1
