# generated using pymatgen
data_Dy2Tm4CoTe2
_symmetry_space_group_name_H-M   'P 1'
_cell_length_a   8.34272918
_cell_length_b   8.18656639
_cell_length_c   3.91382000
_cell_angle_alpha   90.00000000
_cell_angle_beta   90.00000000
_cell_angle_gamma   119.38271431
_symmetry_Int_Tables_number   1
_chemical_formula_structural   Dy2Tm4CoTe2
_chemical_formula_sum   'Dy2 Tm4 Co1 Te2'
_cell_volume   232.92136994
_cell_formula_units_Z   1
loop_
 _symmetry_equiv_pos_site_id
 _symmetry_equiv_pos_as_xyz
  1  'x, y, z'
loop_
 _atom_site_type_symbol
 _atom_site_label
 _atom_site_symmetry_multiplicity
 _atom_site_fract_x
 _atom_site_fract_y
 _atom_site_fract_z
 _atom_site_occupancy
  Dy  Dy0  1  0.598517  0.599429  0.500000  1
  Dy  Dy1  1  0.401483  0.000912  0.500000  1
  Tm  Tm2  1  0.000000  0.384643  0.500000  1
  Tm  Tm3  1  0.000000  0.766811  0.000000  1
  Tm  Tm4  1  0.237716  0.230385  0.000000  1
  Tm  Tm5  1  0.762284  0.992669  0.000000  1
  Co  Co6  1  0.000000  0.028644  0.500000  1
  Te  Te7  1  0.329305  0.662907  0.000000  1
  Te  Te8  1  0.670695  0.333602  0.000000  1
