# generated using pymatgen
data_Zr6In3Sn3(Ir2Rh)2
_symmetry_space_group_name_H-M   'P 1'
_cell_length_a   7.56275000
_cell_length_b   7.57190087
_cell_length_c   7.03067801
_cell_angle_alpha   89.99430038
_cell_angle_beta   90.00000000
_cell_angle_gamma   119.96003018
_symmetry_Int_Tables_number   1
_chemical_formula_structural   Zr6In3Sn3(Ir2Rh)2
_chemical_formula_sum   'Zr6 In3 Sn3 Ir4 Rh2'
_cell_volume   348.80867553
_cell_formula_units_Z   1
loop_
 _symmetry_equiv_pos_site_id
 _symmetry_equiv_pos_as_xyz
  1  'x, y, z'
loop_
 _atom_site_type_symbol
 _atom_site_label
 _atom_site_symmetry_multiplicity
 _atom_site_fract_x
 _atom_site_fract_y
 _atom_site_fract_z
 _atom_site_occupancy
  Zr  Zr0  1  0.600323  0.997115  0.748034  1
  Zr  Zr1  1  0.397475  0.399511  0.749126  1
  Zr  Zr2  1  0.003231  0.603043  0.748605  1
  Zr  Zr3  1  0.603207  0.002885  0.251966  1
  Zr  Zr4  1  0.400189  0.396957  0.251395  1
  Zr  Zr5  1  0.997962  0.600489  0.250874  1
  In  In6  1  0.275910  0.000000  0.000000  1
  In  In7  1  0.732110  0.733106  0.499965  1
  In  In8  1  0.999004  0.266894  0.500035  1
  Sn  Sn9  1  0.001472  0.272098  0.999905  1
  Sn  Sn10  1  0.729374  0.727902  0.000095  1
  Sn  Sn11  1  0.261220  0.000000  0.500000  1
  Ir  Ir12  1  0.672262  0.336670  0.994301  1
  Ir  Ir13  1  0.660030  0.329148  0.505095  1
  Ir  Ir14  1  0.335591  0.663330  0.005699  1
  Ir  Ir15  1  0.330880  0.670852  0.494905  1
  Rh  Rh16  1  0.999838  0.999916  0.759530  1
  Rh  Rh17  1  0.999922  0.000084  0.240470  1
