# generated using pymatgen
data_YLu2Sn3Ir2Rh
_symmetry_space_group_name_H-M   'P 1'
_cell_length_a   7.66655871
_cell_length_b   7.66655712
_cell_length_c   3.67940700
_cell_angle_alpha   90.00000000
_cell_angle_beta   90.00000000
_cell_angle_gamma   120.26638881
_symmetry_Int_Tables_number   1
_chemical_formula_structural   YLu2Sn3Ir2Rh
_chemical_formula_sum   'Y1 Lu2 Sn3 Ir2 Rh1'
_cell_volume   186.78295969
_cell_formula_units_Z   1
loop_
 _symmetry_equiv_pos_site_id
 _symmetry_equiv_pos_as_xyz
  1  'x, y, z'
loop_
 _atom_site_type_symbol
 _atom_site_label
 _atom_site_symmetry_multiplicity
 _atom_site_fract_x
 _atom_site_fract_y
 _atom_site_fract_z
 _atom_site_occupancy
  Y  Y0  1  0.402306  0.402306  0.500000  1
  Lu  Lu1  1  0.597374  0.000156  0.500000  1
  Lu  Lu2  1  0.000156  0.597374  0.500000  1
  Sn  Sn3  1  0.733681  0.733681  0.000000  1
  Sn  Sn4  1  0.265902  0.998227  0.000000  1
  Sn  Sn5  1  0.998227  0.265902  0.000000  1
  Ir  Ir6  1  0.671351  0.332504  0.000000  1
  Ir  Ir7  1  0.332504  0.671351  0.000000  1
  Rh  Rh8  1  0.998498  0.998498  0.500000  1
