# generated using pymatgen
data_Rb2NdSb4PbAu4
_symmetry_space_group_name_H-M   'P 1'
_cell_length_a   4.69877900
_cell_length_b   4.69877927
_cell_length_c   19.80114800
_cell_angle_alpha   90.00000000
_cell_angle_beta   90.00000000
_cell_angle_gamma   120.00000516
_symmetry_Int_Tables_number   1
_chemical_formula_structural   Rb2NdSb4PbAu4
_chemical_formula_sum   'Rb2 Nd1 Sb4 Pb1 Au4'
_cell_volume   378.60909446
_cell_formula_units_Z   1
loop_
 _symmetry_equiv_pos_site_id
 _symmetry_equiv_pos_as_xyz
  1  'x, y, z'
loop_
 _atom_site_type_symbol
 _atom_site_label
 _atom_site_symmetry_multiplicity
 _atom_site_fract_x
 _atom_site_fract_y
 _atom_site_fract_z
 _atom_site_occupancy
  Rb  Rb0  1  0.000000  0.000000  0.249645  1
  Rb  Rb1  1  0.000000  0.000000  0.750355  1
  Nd  Nd2  1  0.000000  0.000000  0.000000  1
  Sb  Sb3  1  0.333333  0.666667  0.383940  1
  Sb  Sb4  1  0.666667  0.333333  0.616060  1
  Sb  Sb5  1  0.666667  0.333333  0.892238  1
  Sb  Sb6  1  0.333333  0.666667  0.107762  1
  Pb  Pb7  1  0.000000  0.000000  0.500000  1
  Au  Au8  1  0.666667  0.333333  0.398762  1
  Au  Au9  1  0.333333  0.666667  0.601238  1
  Au  Au10  1  0.333333  0.666667  0.910453  1
  Au  Au11  1  0.666667  0.333333  0.089547  1
