# generated using pymatgen
data_Tb5YCo17TcP12
_symmetry_space_group_name_H-M   'P 1'
_cell_length_a   3.70799300
_cell_length_b   10.52688414
_cell_length_c   12.22485517
_cell_angle_alpha   89.98103794
_cell_angle_beta   90.00000000
_cell_angle_gamma   90.00000000
_symmetry_Int_Tables_number   1
_chemical_formula_structural   Tb5YCo17TcP12
_chemical_formula_sum   'Tb5 Y1 Co17 Tc1 P12'
_cell_volume   477.18023601
_cell_formula_units_Z   1
loop_
 _symmetry_equiv_pos_site_id
 _symmetry_equiv_pos_as_xyz
  1  'x, y, z'
loop_
 _atom_site_type_symbol
 _atom_site_label
 _atom_site_symmetry_multiplicity
 _atom_site_fract_x
 _atom_site_fract_y
 _atom_site_fract_z
 _atom_site_occupancy
  Tb  Tb0  1  0.000000  0.499975  0.523856  1
  Tb  Tb1  1  0.500000  0.000111  0.478221  1
  Tb  Tb2  1  0.500000  0.817475  0.206642  1
  Tb  Tb3  1  0.000000  0.682997  0.794958  1
  Tb  Tb4  1  0.000000  0.316860  0.794887  1
  Y  Y5  1  0.500000  0.182753  0.206497  1
  Co  Co6  1  0.000000  0.000028  0.840162  1
  Co  Co7  1  0.500000  0.499979  0.703390  1
  Co  Co8  1  0.000000  0.000033  0.296057  1
  Co  Co9  1  0.000000  0.499901  0.987582  1
  Co  Co10  1  0.500000  0.000151  0.014520  1
  Co  Co11  1  0.500000  0.332018  0.991361  1
  Co  Co12  1  0.500000  0.667903  0.991315  1
  Co  Co13  1  0.000000  0.166383  0.005754  1
  Co  Co14  1  0.000000  0.833648  0.005631  1
  Co  Co15  1  0.500000  0.296651  0.430479  1
  Co  Co16  1  0.500000  0.703290  0.430502  1
  Co  Co17  1  0.000000  0.203310  0.568994  1
  Co  Co18  1  0.000000  0.796730  0.569087  1
  Co  Co19  1  0.500000  0.879595  0.709241  1
  Co  Co20  1  0.500000  0.120521  0.709164  1
  Co  Co21  1  0.000000  0.620156  0.291693  1
  Co  Co22  1  0.000000  0.379660  0.291653  1
  Tc  Tc23  1  0.500000  0.500003  0.156705  1
  P  P24  1  0.500000  0.500020  0.881835  1
  P  P25  1  0.000000  0.000077  0.117021  1
  P  P26  1  0.500000  0.500084  0.348234  1
  P  P27  1  0.000000  0.999974  0.656561  1
  P  P28  1  0.500000  0.310277  0.616153  1
  P  P29  1  0.500000  0.689624  0.616182  1
  P  P30  1  0.000000  0.188920  0.384303  1
  P  P31  1  0.000000  0.810960  0.384467  1
  P  P32  1  0.500000  0.849847  0.892526  1
  P  P33  1  0.500000  0.150081  0.892508  1
  P  P34  1  0.000000  0.655471  0.105879  1
  P  P35  1  0.000000  0.344537  0.105978  1
