# generated using pymatgen
data_Lu7Th(Nb3Si4)4
_symmetry_space_group_name_H-M   'P 1'
_cell_length_a   7.03592924
_cell_length_b   7.03765489
_cell_length_c   12.99583018
_cell_angle_alpha   89.86832450
_cell_angle_beta   89.98987129
_cell_angle_gamma   90.06635774
_symmetry_Int_Tables_number   1
_chemical_formula_structural   Lu7Th(Nb3Si4)4
_chemical_formula_sum   'Lu7 Th1 Nb12 Si16'
_cell_volume   643.50512750
_cell_formula_units_Z   1
loop_
 _symmetry_equiv_pos_site_id
 _symmetry_equiv_pos_as_xyz
  1  'x, y, z'
loop_
 _atom_site_type_symbol
 _atom_site_label
 _atom_site_symmetry_multiplicity
 _atom_site_fract_x
 _atom_site_fract_y
 _atom_site_fract_z
 _atom_site_occupancy
  Lu  Lu0  1  0.001721  0.656866  0.718313  1
  Lu  Lu1  1  0.158514  0.500557  0.469560  1
  Lu  Lu2  1  0.499552  0.841255  0.029614  1
  Lu  Lu3  1  0.841872  0.500381  0.967455  1
  Lu  Lu4  1  0.498355  0.157428  0.532945  1
  Lu  Lu5  1  0.341971  0.998305  0.781358  1
  Lu  Lu6  1  0.656402  0.000779  0.283298  1
  Th  Th7  1  0.994980  0.340811  0.217957  1
  Nb  Nb8  1  0.171817  0.169948  0.999004  1
  Nb  Nb9  1  0.828095  0.828869  0.501644  1
  Nb  Nb10  1  0.327691  0.671144  0.249720  1
  Nb  Nb11  1  0.672159  0.327928  0.749542  1
  Nb  Nb12  1  0.154549  0.997696  0.377939  1
  Nb  Nb13  1  0.846814  0.005533  0.874834  1
  Nb  Nb14  1  0.506453  0.652074  0.626562  1
  Nb  Nb15  1  0.348309  0.493766  0.872265  1
  Nb  Nb16  1  0.494480  0.346363  0.125297  1
  Nb  Nb17  1  0.654086  0.509700  0.375630  1
  Nb  Nb18  1  0.993192  0.152219  0.624889  1
  Nb  Nb19  1  0.007319  0.846131  0.122923  1
  Si  Si20  1  0.300193  0.041109  0.186063  1
  Si  Si21  1  0.703947  0.953775  0.686362  1
  Si  Si22  1  0.452894  0.795218  0.437431  1
  Si  Si23  1  0.208996  0.548347  0.059591  1
  Si  Si24  1  0.542941  0.203320  0.934853  1
  Si  Si25  1  0.795613  0.454709  0.564389  1
  Si  Si26  1  0.045704  0.294882  0.813691  1
  Si  Si27  1  0.954788  0.713815  0.316490  1
  Si  Si28  1  0.371832  0.296053  0.321401  1
  Si  Si29  1  0.636004  0.703677  0.818677  1
  Si  Si30  1  0.204137  0.864900  0.569798  1
  Si  Si31  1  0.135110  0.795860  0.929555  1
  Si  Si32  1  0.790553  0.128559  0.064259  1
  Si  Si33  1  0.863280  0.203315  0.434683  1
  Si  Si34  1  0.296134  0.363838  0.680757  1
  Si  Si35  1  0.699537  0.640870  0.181253  1
