# generated using pymatgen
data_Sm8Si15Rh
_symmetry_space_group_name_H-M   'P 1'
_cell_length_a   8.17680300
_cell_length_b   8.17680265
_cell_length_c   8.24876700
_cell_angle_alpha   90.00000000
_cell_angle_beta   90.00000000
_cell_angle_gamma   119.99999739
_symmetry_Int_Tables_number   1
_chemical_formula_structural   Sm8Si15Rh
_chemical_formula_sum   'Sm8 Si15 Rh1'
_cell_volume   477.62464731
_cell_formula_units_Z   1
loop_
 _symmetry_equiv_pos_site_id
 _symmetry_equiv_pos_as_xyz
  1  'x, y, z'
loop_
 _atom_site_type_symbol
 _atom_site_label
 _atom_site_symmetry_multiplicity
 _atom_site_fract_x
 _atom_site_fract_y
 _atom_site_fract_z
 _atom_site_occupancy
  Sm  Sm0  1  0.000000  0.000000  0.748891  1
  Sm  Sm1  1  0.000000  0.000000  0.251146  1
  Sm  Sm2  1  0.500069  0.499931  0.745945  1
  Sm  Sm3  1  0.500069  0.000140  0.745945  1
  Sm  Sm4  1  0.999860  0.499931  0.745945  1
  Sm  Sm5  1  0.500636  0.499364  0.254031  1
  Sm  Sm6  1  0.998729  0.499364  0.254031  1
  Sm  Sm7  1  0.500636  0.001271  0.254031  1
  Si  Si8  1  0.666667  0.333333  0.999431  1
  Si  Si9  1  0.666667  0.333333  0.501052  1
  Si  Si10  1  0.333333  0.666667  0.498789  1
  Si  Si11  1  0.836643  0.163357  0.999787  1
  Si  Si12  1  0.836643  0.673285  0.999787  1
  Si  Si13  1  0.326715  0.163357  0.999787  1
  Si  Si14  1  0.832443  0.167557  0.500026  1
  Si  Si15  1  0.832443  0.664887  0.500026  1
  Si  Si16  1  0.335113  0.167557  0.500026  1
  Si  Si17  1  0.166268  0.833732  0.500040  1
  Si  Si18  1  0.667466  0.833732  0.500040  1
  Si  Si19  1  0.166268  0.332534  0.500040  1
  Si  Si20  1  0.170617  0.829383  0.000187  1
  Si  Si21  1  0.658766  0.829383  0.000187  1
  Si  Si22  1  0.170617  0.341234  0.000187  1
  Rh  Rh23  1  0.333333  0.666667  0.000642  1
