# generated using pymatgen
data_Y(LuZn4)3
_symmetry_space_group_name_H-M   'P 1'
_cell_length_a   4.35981800
_cell_length_b   6.63836601
_cell_length_c   10.03459503
_cell_angle_alpha   90.12583436
_cell_angle_beta   90.00000000
_cell_angle_gamma   90.00000000
_symmetry_Int_Tables_number   1
_chemical_formula_structural   Y(LuZn4)3
_chemical_formula_sum   'Y1 Lu3 Zn12'
_cell_volume   290.42122775
_cell_formula_units_Z   1
loop_
 _symmetry_equiv_pos_site_id
 _symmetry_equiv_pos_as_xyz
  1  'x, y, z'
loop_
 _atom_site_type_symbol
 _atom_site_label
 _atom_site_symmetry_multiplicity
 _atom_site_fract_x
 _atom_site_fract_y
 _atom_site_fract_z
 _atom_site_occupancy
  Y  Y0  1  0.250000  0.278972  0.665792  1
  Lu  Lu1  1  0.250000  0.779006  0.835929  1
  Lu  Lu2  1  0.750000  0.720398  0.335072  1
  Lu  Lu3  1  0.750000  0.220492  0.165331  1
  Zn  Zn4  1  0.250000  0.534957  0.102677  1
  Zn  Zn5  1  0.250000  0.034260  0.395004  1
  Zn  Zn6  1  0.750000  0.464539  0.897452  1
  Zn  Zn7  1  0.750000  0.964474  0.601519  1
  Zn  Zn8  1  0.250000  0.918844  0.150753  1
  Zn  Zn9  1  0.250000  0.419710  0.348933  1
  Zn  Zn10  1  0.750000  0.077970  0.851776  1
  Zn  Zn11  1  0.750000  0.583730  0.649306  1
  Zn  Zn12  1  0.250000  0.212104  0.959713  1
  Zn  Zn13  1  0.250000  0.718744  0.542665  1
  Zn  Zn14  1  0.750000  0.786255  0.042971  1
  Zn  Zn15  1  0.750000  0.285547  0.455106  1
