# generated using pymatgen
data_Dy12IrPt3
_symmetry_space_group_name_H-M   'P 1'
_cell_length_a   6.46157522
_cell_length_b   7.08690340
_cell_length_c   9.55854900
_cell_angle_alpha   90.00000000
_cell_angle_beta   90.00000000
_cell_angle_gamma   89.92872511
_symmetry_Int_Tables_number   1
_chemical_formula_structural   Dy12IrPt3
_chemical_formula_sum   'Dy12 Ir1 Pt3'
_cell_volume   437.71008439
_cell_formula_units_Z   1
loop_
 _symmetry_equiv_pos_site_id
 _symmetry_equiv_pos_as_xyz
  1  'x, y, z'
loop_
 _atom_site_type_symbol
 _atom_site_label
 _atom_site_symmetry_multiplicity
 _atom_site_fract_x
 _atom_site_fract_y
 _atom_site_fract_z
 _atom_site_occupancy
  Dy  Dy0  1  0.325739  0.680784  0.059011  1
  Dy  Dy1  1  0.174218  0.179607  0.439367  1
  Dy  Dy2  1  0.674000  0.322625  0.563209  1
  Dy  Dy3  1  0.822286  0.817732  0.937196  1
  Dy  Dy4  1  0.674000  0.322625  0.936791  1
  Dy  Dy5  1  0.822286  0.817732  0.562804  1
  Dy  Dy6  1  0.325739  0.680784  0.440989  1
  Dy  Dy7  1  0.174218  0.179607  0.060633  1
  Dy  Dy8  1  0.866766  0.528340  0.250000  1
  Dy  Dy9  1  0.633486  0.029364  0.250000  1
  Dy  Dy10  1  0.136789  0.471924  0.750000  1
  Dy  Dy11  1  0.369703  0.965322  0.750000  1
  Ir  Ir12  1  0.551344  0.615157  0.750000  1
  Pt  Pt13  1  0.053979  0.886671  0.250000  1
  Pt  Pt14  1  0.445427  0.387714  0.250000  1
  Pt  Pt15  1  0.950022  0.114011  0.750000  1
