# generated using pymatgen
data_Pr3CdHg4
_symmetry_space_group_name_H-M   'P 1'
_cell_length_a   6.56340539
_cell_length_b   6.56340548
_cell_length_c   10.70944900
_cell_angle_alpha   90.00000000
_cell_angle_beta   90.00000000
_cell_angle_gamma   106.55703242
_symmetry_Int_Tables_number   1
_chemical_formula_structural   Pr3CdHg4
_chemical_formula_sum   'Pr6 Cd2 Hg8'
_cell_volume   442.21581445
_cell_formula_units_Z   2
loop_
 _symmetry_equiv_pos_site_id
 _symmetry_equiv_pos_as_xyz
  1  'x, y, z'
loop_
 _atom_site_type_symbol
 _atom_site_label
 _atom_site_symmetry_multiplicity
 _atom_site_fract_x
 _atom_site_fract_y
 _atom_site_fract_z
 _atom_site_occupancy
  Pr  Pr0  1  0.586748  0.586748  0.250000  1
  Pr  Pr1  1  0.413252  0.413252  0.750000  1
  Pr  Pr2  1  0.206990  0.793010  0.500000  1
  Pr  Pr3  1  0.206990  0.793010  0.000000  1
  Pr  Pr4  1  0.793010  0.206990  0.500000  1
  Pr  Pr5  1  0.793010  0.206990  0.000000  1
  Cd  Cd6  1  0.010802  0.010802  0.250000  1
  Cd  Cd7  1  0.989198  0.989198  0.750000  1
  Hg  Hg8  1  0.299282  0.299282  0.032244  1
  Hg  Hg9  1  0.700718  0.700718  0.967756  1
  Hg  Hg10  1  0.299282  0.299282  0.467756  1
  Hg  Hg11  1  0.700718  0.700718  0.532244  1
  Hg  Hg12  1  0.488690  0.048053  0.250000  1
  Hg  Hg13  1  0.951947  0.511310  0.750000  1
  Hg  Hg14  1  0.511310  0.951947  0.750000  1
  Hg  Hg15  1  0.048053  0.488690  0.250000  1
