# generated using pymatgen
data_TmTh5(Ni3As2)6
_symmetry_space_group_name_H-M   'P 1'
_cell_length_a   4.02201800
_cell_length_b   10.87258438
_cell_length_c   12.90824544
_cell_angle_alpha   89.97002616
_cell_angle_beta   90.00000000
_cell_angle_gamma   90.00000000
_symmetry_Int_Tables_number   1
_chemical_formula_structural   TmTh5(Ni3As2)6
_chemical_formula_sum   'Tm1 Th5 Ni18 As12'
_cell_volume   564.47401135
_cell_formula_units_Z   1
loop_
 _symmetry_equiv_pos_site_id
 _symmetry_equiv_pos_as_xyz
  1  'x, y, z'
loop_
 _atom_site_type_symbol
 _atom_site_label
 _atom_site_symmetry_multiplicity
 _atom_site_fract_x
 _atom_site_fract_y
 _atom_site_fract_z
 _atom_site_occupancy
  Tm  Tm0  1  0.000000  0.311891  0.793301  1
  Th  Th1  1  0.000000  0.498745  0.519367  1
  Th  Th2  1  0.500000  0.999252  0.483291  1
  Th  Th3  1  0.500000  0.811003  0.205176  1
  Th  Th4  1  0.500000  0.188520  0.208081  1
  Th  Th5  1  0.000000  0.687126  0.793746  1
  Ni  Ni6  1  0.500000  0.498872  0.149345  1
  Ni  Ni7  1  0.000000  0.000866  0.851610  1
  Ni  Ni8  1  0.500000  0.500770  0.695157  1
  Ni  Ni9  1  0.000000  0.000631  0.303391  1
  Ni  Ni10  1  0.000000  0.496387  0.970960  1
  Ni  Ni11  1  0.500000  0.005340  0.023361  1
  Ni  Ni12  1  0.500000  0.332708  0.996185  1
  Ni  Ni13  1  0.500000  0.663619  0.993580  1
  Ni  Ni14  1  0.000000  0.170097  0.002098  1
  Ni  Ni15  1  0.000000  0.833435  0.004295  1
  Ni  Ni16  1  0.500000  0.304381  0.429022  1
  Ni  Ni17  1  0.500000  0.693332  0.423287  1
  Ni  Ni18  1  0.000000  0.196502  0.577580  1
  Ni  Ni19  1  0.000000  0.806461  0.576462  1
  Ni  Ni20  1  0.500000  0.879522  0.710389  1
  Ni  Ni21  1  0.500000  0.120650  0.712285  1
  Ni  Ni22  1  0.000000  0.619763  0.288318  1
  Ni  Ni23  1  0.000000  0.380350  0.289981  1
  As  As24  1  0.500000  0.493812  0.872603  1
  As  As25  1  0.000000  0.001554  0.122481  1
  As  As26  1  0.500000  0.498442  0.334461  1
  As  As27  1  0.000000  0.001112  0.667963  1
  As  As28  1  0.500000  0.308378  0.617089  1
  As  As29  1  0.500000  0.691584  0.609804  1
  As  As30  1  0.000000  0.191273  0.391427  1
  As  As31  1  0.000000  0.808599  0.389265  1
  As  As32  1  0.500000  0.852918  0.897065  1
  As  As33  1  0.500000  0.153696  0.892632  1
  As  As34  1  0.000000  0.645098  0.100742  1
  As  As35  1  0.000000  0.353310  0.104199  1
