# generated using pymatgen
data_DyTmThGa2
_symmetry_space_group_name_H-M   'P 1'
_cell_length_a   7.65923000
_cell_length_b   7.66508200
_cell_length_c   4.39677200
_cell_angle_alpha   90.00000000
_cell_angle_beta   90.00000000
_cell_angle_gamma   90.00000000
_symmetry_Int_Tables_number   1
_chemical_formula_structural   DyTmThGa2
_chemical_formula_sum   'Dy2 Tm2 Th2 Ga4'
_cell_volume   258.12844299
_cell_formula_units_Z   2
loop_
 _symmetry_equiv_pos_site_id
 _symmetry_equiv_pos_as_xyz
  1  'x, y, z'
loop_
 _atom_site_type_symbol
 _atom_site_label
 _atom_site_symmetry_multiplicity
 _atom_site_fract_x
 _atom_site_fract_y
 _atom_site_fract_z
 _atom_site_occupancy
  Dy  Dy0  1  0.675964  0.175244  0.500000  1
  Dy  Dy1  1  0.175964  0.324756  0.500000  1
  Tm  Tm2  1  0.000077  0.004422  0.000000  1
  Tm  Tm3  1  0.500077  0.495578  0.000000  1
  Th  Th4  1  0.825203  0.673625  0.500000  1
  Th  Th5  1  0.325203  0.826375  0.500000  1
  Ga  Ga6  1  0.877768  0.376799  0.000000  1
  Ga  Ga7  1  0.377768  0.123201  0.000000  1
  Ga  Ga8  1  0.620988  0.881630  0.000000  1
  Ga  Ga9  1  0.120988  0.618370  0.000000  1
