# generated using pymatgen
data_Li4La3YbSn4
_symmetry_space_group_name_H-M   'P 1'
_cell_length_a   4.85173300
_cell_length_b   7.86953213
_cell_length_c   8.25934172
_cell_angle_alpha   90.57404615
_cell_angle_beta   90.00000000
_cell_angle_gamma   90.00000000
_symmetry_Int_Tables_number   1
_chemical_formula_structural   Li4La3YbSn4
_chemical_formula_sum   'Li4 La3 Yb1 Sn4'
_cell_volume   315.33301437
_cell_formula_units_Z   1
loop_
 _symmetry_equiv_pos_site_id
 _symmetry_equiv_pos_as_xyz
  1  'x, y, z'
loop_
 _atom_site_type_symbol
 _atom_site_label
 _atom_site_symmetry_multiplicity
 _atom_site_fract_x
 _atom_site_fract_y
 _atom_site_fract_z
 _atom_site_occupancy
  Li  Li0  1  0.250000  0.171340  0.922351  1
  Li  Li1  1  0.250000  0.661862  0.579776  1
  Li  Li2  1  0.750000  0.827152  0.075707  1
  Li  Li3  1  0.750000  0.337344  0.428879  1
  La  La4  1  0.250000  0.000601  0.286037  1
  La  La5  1  0.250000  0.501757  0.202478  1
  La  La6  1  0.750000  0.000573  0.714404  1
  Yb  Yb7  1  0.750000  0.498368  0.790150  1
  Sn  Sn8  1  0.250000  0.276622  0.592887  1
  Sn  Sn9  1  0.250000  0.785943  0.907253  1
  Sn  Sn10  1  0.750000  0.719716  0.404407  1
  Sn  Sn11  1  0.750000  0.218724  0.095672  1
