# generated using pymatgen
data_Ti8Mo2Rh
_symmetry_space_group_name_H-M   'P 1'
_cell_length_a   5.28824396
_cell_length_b   5.28824413
_cell_length_c   11.66499867
_cell_angle_alpha   105.33368379
_cell_angle_beta   105.33368500
_cell_angle_gamma   35.07338169
_symmetry_Int_Tables_number   1
_chemical_formula_structural   Ti8Mo2Rh
_chemical_formula_sum   'Ti8 Mo2 Rh1'
_cell_volume   180.10009370
_cell_formula_units_Z   1
loop_
 _symmetry_equiv_pos_site_id
 _symmetry_equiv_pos_as_xyz
  1  'x, y, z'
loop_
 _atom_site_type_symbol
 _atom_site_label
 _atom_site_symmetry_multiplicity
 _atom_site_fract_x
 _atom_site_fract_y
 _atom_site_fract_z
 _atom_site_occupancy
  Ti  Ti0  1  0.713407  0.713407  0.084790  1
  Ti  Ti1  1  0.455519  0.455519  0.178792  1
  Ti  Ti2  1  0.202776  0.202776  0.279390  1
  Ti  Ti3  1  0.623197  0.623197  0.457140  1
  Ti  Ti4  1  0.376804  0.376804  0.542859  1
  Ti  Ti5  1  0.797224  0.797224  0.720610  1
  Ti  Ti6  1  0.544481  0.544481  0.821208  1
  Ti  Ti7  1  0.286594  0.286594  0.915211  1
  Mo  Mo8  1  0.916401  0.916401  0.356438  1
  Mo  Mo9  1  0.083599  0.083599  0.643563  1
  Rh  Rh10  1  0.000000  0.000000  0.000000  1
