# generated using pymatgen
data_Dy4Y2Ir13Rh5
_symmetry_space_group_name_H-M   'P 1'
_cell_length_a   5.31137300
_cell_length_b   5.31137453
_cell_length_c   17.48128000
_cell_angle_alpha   90.00000000
_cell_angle_beta   90.00000000
_cell_angle_gamma   119.99998426
_symmetry_Int_Tables_number   1
_chemical_formula_structural   Dy4Y2Ir13Rh5
_chemical_formula_sum   'Dy4 Y2 Ir13 Rh5'
_cell_volume   427.08828373
_cell_formula_units_Z   1
loop_
 _symmetry_equiv_pos_site_id
 _symmetry_equiv_pos_as_xyz
  1  'x, y, z'
loop_
 _atom_site_type_symbol
 _atom_site_label
 _atom_site_symmetry_multiplicity
 _atom_site_fract_x
 _atom_site_fract_y
 _atom_site_fract_z
 _atom_site_occupancy
  Dy  Dy0  1  0.333333  0.666667  0.958349  1
  Dy  Dy1  1  0.666667  0.333333  0.041651  1
  Dy  Dy2  1  0.666667  0.333333  0.458580  1
  Dy  Dy3  1  0.333333  0.666667  0.541420  1
  Y  Y4  1  0.333333  0.666667  0.749872  1
  Y  Y5  1  0.666667  0.333333  0.250128  1
  Ir  Ir6  1  0.167596  0.832404  0.374399  1
  Ir  Ir7  1  0.167596  0.335194  0.374399  1
  Ir  Ir8  1  0.664806  0.832404  0.374399  1
  Ir  Ir9  1  0.832404  0.167596  0.625601  1
  Ir  Ir10  1  0.832404  0.664806  0.625601  1
  Ir  Ir11  1  0.335194  0.167596  0.625601  1
  Ir  Ir12  1  0.832489  0.167511  0.874094  1
  Ir  Ir13  1  0.832489  0.664978  0.874094  1
  Ir  Ir14  1  0.335022  0.167511  0.874094  1
  Ir  Ir15  1  0.167511  0.832489  0.125906  1
  Ir  Ir16  1  0.167511  0.335022  0.125906  1
  Ir  Ir17  1  0.664978  0.832489  0.125906  1
  Ir  Ir18  1  0.000000  0.000000  0.500000  1
  Rh  Rh19  1  0.333333  0.666667  0.249702  1
  Rh  Rh20  1  0.666667  0.333333  0.750298  1
  Rh  Rh21  1  0.000000  0.000000  0.249917  1
  Rh  Rh22  1  0.000000  0.000000  0.750083  1
  Rh  Rh23  1  0.000000  0.000000  0.000000  1
