# generated using pymatgen
data_BaLi2Dy4O8
_symmetry_space_group_name_H-M   'P 1'
_cell_length_a   6.88830166
_cell_length_b   6.88830279
_cell_length_c   9.60190849
_cell_angle_alpha   61.41326046
_cell_angle_beta   61.41325465
_cell_angle_gamma   29.87121482
_symmetry_Int_Tables_number   1
_chemical_formula_structural   BaLi2Dy4O8
_chemical_formula_sum   'Ba1 Li2 Dy4 O8'
_cell_volume   197.13359289
_cell_formula_units_Z   1
loop_
 _symmetry_equiv_pos_site_id
 _symmetry_equiv_pos_as_xyz
  1  'x, y, z'
loop_
 _atom_site_type_symbol
 _atom_site_label
 _atom_site_symmetry_multiplicity
 _atom_site_fract_x
 _atom_site_fract_y
 _atom_site_fract_z
 _atom_site_occupancy
  Ba  Ba0  1  0.500000  0.500000  0.000000  1
  Li  Li1  1  0.191204  0.191204  0.735253  1
  Li  Li2  1  0.808796  0.808796  0.264747  1
  Dy  Dy3  1  0.609576  0.609576  0.560180  1
  Dy  Dy4  1  0.390424  0.390424  0.439820  1
  Dy  Dy5  1  0.163708  0.163708  0.188989  1
  Dy  Dy6  1  0.836292  0.836292  0.811011  1
  O  O7  1  0.044535  0.044535  0.741750  1
  O  O8  1  0.955465  0.955465  0.258250  1
  O  O9  1  0.237920  0.237920  0.378586  1
  O  O10  1  0.762080  0.762080  0.621414  1
  O  O11  1  0.810837  0.810837  0.064389  1
  O  O12  1  0.189163  0.189163  0.935611  1
  O  O13  1  0.583225  0.583225  0.342809  1
  O  O14  1  0.416775  0.416775  0.657191  1
