# generated using pymatgen
data_K3Rb(AlBr4)4
_symmetry_space_group_name_H-M   'P 1'
_cell_length_a   7.54597273
_cell_length_b   8.10425638
_cell_length_c   15.30850600
_cell_angle_alpha   85.62151776
_cell_angle_beta   89.74330614
_cell_angle_gamma   90.03766093
_symmetry_Int_Tables_number   1
_chemical_formula_structural   K3Rb(AlBr4)4
_chemical_formula_sum   'K3 Rb1 Al4 Br16'
_cell_volume   933.44189860
_cell_formula_units_Z   1
loop_
 _symmetry_equiv_pos_site_id
 _symmetry_equiv_pos_as_xyz
  1  'x, y, z'
loop_
 _atom_site_type_symbol
 _atom_site_label
 _atom_site_symmetry_multiplicity
 _atom_site_fract_x
 _atom_site_fract_y
 _atom_site_fract_z
 _atom_site_occupancy
  K  K0  1  0.503941  0.255838  0.639492  1
  K  K1  1  0.003873  0.744274  0.860021  1
  K  K2  1  0.496249  0.743957  0.360910  1
  Rb  Rb3  1  0.993911  0.256579  0.140640  1
  Al  Al4  1  0.359237  0.246646  0.361793  1
  Al  Al5  1  0.854300  0.752552  0.139065  1
  Al  Al6  1  0.642858  0.753465  0.639099  1
  Al  Al7  1  0.143827  0.247211  0.859910  1
  Br  Br8  1  0.869866  0.144761  0.908593  1
  Br  Br9  1  0.369044  0.855706  0.591773  1
  Br  Br10  1  0.130346  0.849933  0.090975  1
  Br  Br11  1  0.632702  0.143914  0.409080  1
  Br  Br12  1  0.396352  0.407263  0.230068  1
  Br  Br13  1  0.889108  0.597990  0.272693  1
  Br  Br14  1  0.609554  0.593837  0.771393  1
  Br  Br15  1  0.109485  0.405388  0.727432  1
  Br  Br16  1  0.653915  0.964184  0.160138  1
  Br  Br17  1  0.163555  0.030505  0.341593  1
  Br  Br18  1  0.339233  0.030817  0.839819  1
  Br  Br19  1  0.839071  0.968997  0.659646  1
  Br  Br20  1  0.245092  0.415162  0.465119  1
  Br  Br21  1  0.741260  0.587664  0.034284  1
  Br  Br22  1  0.754697  0.584748  0.535230  1
  Br  Br23  1  0.258525  0.418606  0.961236  1
