# generated using pymatgen
data_Tm6Zr4BiPb5
_symmetry_space_group_name_H-M   'P 1'
_cell_length_a   8.90290804
_cell_length_b   8.90290851
_cell_length_c   6.10897100
_cell_angle_alpha   90.00000000
_cell_angle_beta   90.00000000
_cell_angle_gamma   120.01085569
_symmetry_Int_Tables_number   1
_chemical_formula_structural   Tm6Zr4BiPb5
_chemical_formula_sum   'Tm6 Zr4 Bi1 Pb5'
_cell_volume   419.29045483
_cell_formula_units_Z   1
loop_
 _symmetry_equiv_pos_site_id
 _symmetry_equiv_pos_as_xyz
  1  'x, y, z'
loop_
 _atom_site_type_symbol
 _atom_site_label
 _atom_site_symmetry_multiplicity
 _atom_site_fract_x
 _atom_site_fract_y
 _atom_site_fract_z
 _atom_site_occupancy
  Tm  Tm0  1  0.761474  0.761474  0.250000  1
  Tm  Tm1  1  0.998975  0.238891  0.250000  1
  Tm  Tm2  1  0.761940  0.003119  0.750000  1
  Tm  Tm3  1  0.238891  0.998975  0.250000  1
  Tm  Tm4  1  0.003119  0.761940  0.750000  1
  Tm  Tm5  1  0.237605  0.237605  0.750000  1
  Zr  Zr6  1  0.332164  0.666848  0.498933  1
  Zr  Zr7  1  0.666848  0.332164  0.498933  1
  Zr  Zr8  1  0.332164  0.666848  0.001067  1
  Zr  Zr9  1  0.666848  0.332164  0.001067  1
  Bi  Bi10  1  0.603213  0.603213  0.750000  1
  Pb  Pb11  1  0.399017  0.001407  0.750000  1
  Pb  Pb12  1  0.601545  0.997986  0.250000  1
  Pb  Pb13  1  0.001407  0.399017  0.750000  1
  Pb  Pb14  1  0.396804  0.396804  0.250000  1
  Pb  Pb15  1  0.997986  0.601545  0.250000  1
