# generated using pymatgen
data_Ac2Nd(CdPd)3
_symmetry_space_group_name_H-M   'P 1'
_cell_length_a   7.95962884
_cell_length_b   7.95962900
_cell_length_c   4.17542900
_cell_angle_alpha   90.00000000
_cell_angle_beta   90.00000000
_cell_angle_gamma   120.49692320
_symmetry_Int_Tables_number   1
_chemical_formula_structural   Ac2Nd(CdPd)3
_chemical_formula_sum   'Ac2 Nd1 Cd3 Pd3'
_cell_volume   227.94017178
_cell_formula_units_Z   1
loop_
 _symmetry_equiv_pos_site_id
 _symmetry_equiv_pos_as_xyz
  1  'x, y, z'
loop_
 _atom_site_type_symbol
 _atom_site_label
 _atom_site_symmetry_multiplicity
 _atom_site_fract_x
 _atom_site_fract_y
 _atom_site_fract_z
 _atom_site_occupancy
  Ac  Ac0  1  0.591753  0.002852  0.000000  1
  Ac  Ac1  1  0.002852  0.591753  0.000000  1
  Nd  Nd2  1  0.403390  0.403390  0.000000  1
  Cd  Cd3  1  0.248597  0.010294  0.500000  1
  Cd  Cd4  1  0.010294  0.248597  0.500000  1
  Cd  Cd5  1  0.744670  0.744670  0.500000  1
  Pd  Pd6  1  0.335837  0.663454  0.500000  1
  Pd  Pd7  1  0.663454  0.335837  0.500000  1
  Pd  Pd8  1  0.999153  0.999153  0.000000  1
