# generated using pymatgen
data_Ho5LuAl18(Si3Ru4)2
_symmetry_space_group_name_H-M   'P 1'
_cell_length_a   8.66932700
_cell_length_b   8.64803314
_cell_length_c   9.52017200
_cell_angle_alpha   90.00000000
_cell_angle_beta   90.00000000
_cell_angle_gamma   120.08148879
_symmetry_Int_Tables_number   1
_chemical_formula_structural   Ho5LuAl18(Si3Ru4)2
_chemical_formula_sum   'Ho5 Lu1 Al18 Si6 Ru8'
_cell_volume   617.61943817
_cell_formula_units_Z   1
loop_
 _symmetry_equiv_pos_site_id
 _symmetry_equiv_pos_as_xyz
  1  'x, y, z'
loop_
 _atom_site_type_symbol
 _atom_site_label
 _atom_site_symmetry_multiplicity
 _atom_site_fract_x
 _atom_site_fract_y
 _atom_site_fract_z
 _atom_site_occupancy
  Ho  Ho0  1  0.806796  0.613591  0.750000  1
  Ho  Ho1  1  0.610211  0.807949  0.250000  1
  Ho  Ho2  1  0.389389  0.191571  0.750000  1
  Ho  Ho3  1  0.197738  0.807949  0.250000  1
  Ho  Ho4  1  0.802183  0.191571  0.750000  1
  Lu  Lu5  1  0.194466  0.388932  0.250000  1
  Al  Al6  1  0.164827  0.329653  0.579744  1
  Al  Al7  1  0.835122  0.670245  0.419773  1
  Al  Al8  1  0.670321  0.834766  0.578547  1
  Al  Al9  1  0.835122  0.670245  0.080227  1
  Al  Al10  1  0.329412  0.165418  0.421162  1
  Al  Al11  1  0.164827  0.329653  0.920256  1
  Al  Al12  1  0.164444  0.834766  0.578547  1
  Al  Al13  1  0.329412  0.165418  0.078838  1
  Al  Al14  1  0.836006  0.165418  0.421162  1
  Al  Al15  1  0.670321  0.834766  0.921453  1
  Al  Al16  1  0.836006  0.165418  0.078838  1
  Al  Al17  1  0.164444  0.834766  0.921453  1
  Al  Al18  1  0.874170  0.433520  0.250000  1
  Al  Al19  1  0.126399  0.566241  0.750000  1
  Al  Al20  1  0.559350  0.433520  0.250000  1
  Al  Al21  1  0.439842  0.566241  0.750000  1
  Al  Al22  1  0.000098  0.000195  0.250000  1
  Al  Al23  1  0.000566  0.001132  0.750000  1
  Si  Si24  1  0.331540  0.663080  0.040260  1
  Si  Si25  1  0.667976  0.335952  0.960519  1
  Si  Si26  1  0.667976  0.335952  0.539481  1
  Si  Si27  1  0.331540  0.663080  0.459740  1
  Si  Si28  1  0.563085  0.126172  0.250000  1
  Si  Si29  1  0.437007  0.874013  0.750000  1
  Ru  Ru30  1  0.499875  0.999750  0.000155  1
  Ru  Ru31  1  0.000248  0.499818  0.000462  1
  Ru  Ru32  1  0.499875  0.999750  0.499845  1
  Ru  Ru33  1  0.499570  0.499818  0.000462  1
  Ru  Ru34  1  0.000248  0.499818  0.499538  1
  Ru  Ru35  1  0.499570  0.499818  0.499538  1
  Ru  Ru36  1  0.000008  0.000016  0.000052  1
  Ru  Ru37  1  0.000008  0.000016  0.499948  1
