# generated using pymatgen
data_Rb4NpUBr12
_symmetry_space_group_name_H-M   'P 1'
_cell_length_a   8.01092600
_cell_length_b   8.01092600
_cell_length_c   11.17599800
_cell_angle_alpha   90.00000000
_cell_angle_beta   90.00000000
_cell_angle_gamma   90.00000000
_symmetry_Int_Tables_number   1
_chemical_formula_structural   Rb4NpUBr12
_chemical_formula_sum   'Rb4 Np1 U1 Br12'
_cell_volume   717.21894943
_cell_formula_units_Z   1
loop_
 _symmetry_equiv_pos_site_id
 _symmetry_equiv_pos_as_xyz
  1  'x, y, z'
loop_
 _atom_site_type_symbol
 _atom_site_label
 _atom_site_symmetry_multiplicity
 _atom_site_fract_x
 _atom_site_fract_y
 _atom_site_fract_z
 _atom_site_occupancy
  Rb  Rb0  1  0.500000  0.000000  0.747727  1
  Rb  Rb1  1  0.500000  0.000000  0.252273  1
  Rb  Rb2  1  0.000000  0.500000  0.252273  1
  Rb  Rb3  1  0.000000  0.500000  0.747727  1
  Np  Np4  1  0.500000  0.500000  0.500000  1
  U  U5  1  0.000000  0.000000  0.000000  1
  Br  Br6  1  0.790735  0.276057  0.000000  1
  Br  Br7  1  0.209265  0.723943  0.000000  1
  Br  Br8  1  0.500000  0.500000  0.251020  1
  Br  Br9  1  0.290497  0.223434  0.500000  1
  Br  Br10  1  0.276057  0.209265  0.000000  1
  Br  Br11  1  0.776566  0.290497  0.500000  1
  Br  Br12  1  0.000000  0.000000  0.249047  1
  Br  Br13  1  0.709503  0.776566  0.500000  1
  Br  Br14  1  0.223434  0.709503  0.500000  1
  Br  Br15  1  0.500000  0.500000  0.748980  1
  Br  Br16  1  0.723943  0.790735  0.000000  1
  Br  Br17  1  0.000000  0.000000  0.750953  1
