# generated using pymatgen
data_Dy12InSi4Ag
_symmetry_space_group_name_H-M   'P 1'
_cell_length_a   8.49085076
_cell_length_b   8.49085140
_cell_length_c   8.49085197
_cell_angle_alpha   111.90943017
_cell_angle_beta   111.42363066
_cell_angle_gamma   105.16494737
_symmetry_Int_Tables_number   1
_chemical_formula_structural   Dy12InSi4Ag
_chemical_formula_sum   'Dy12 In1 Si4 Ag1'
_cell_volume   469.24290403
_cell_formula_units_Z   1
loop_
 _symmetry_equiv_pos_site_id
 _symmetry_equiv_pos_as_xyz
  1  'x, y, z'
loop_
 _atom_site_type_symbol
 _atom_site_label
 _atom_site_symmetry_multiplicity
 _atom_site_fract_x
 _atom_site_fract_y
 _atom_site_fract_z
 _atom_site_occupancy
  Dy  Dy0  1  0.438678  0.237831  0.200848  1
  Dy  Dy1  1  0.561322  0.762169  0.799152  1
  Dy  Dy2  1  0.036982  0.237831  0.799152  1
  Dy  Dy3  1  0.963018  0.762169  0.200848  1
  Dy  Dy4  1  0.182469  0.272928  0.455397  1
  Dy  Dy5  1  0.817531  0.727072  0.544603  1
  Dy  Dy6  1  0.182469  0.727072  0.909540  1
  Dy  Dy7  1  0.817531  0.272928  0.090460  1
  Dy  Dy8  1  0.320459  0.616711  0.296252  1
  Dy  Dy9  1  0.679541  0.383289  0.703748  1
  Dy  Dy10  1  0.320459  0.024208  0.703748  1
  Dy  Dy11  1  0.679541  0.975792  0.296252  1
  In  In12  1  0.500000  0.500000  0.000000  1
  Si  Si13  1  0.362829  0.000000  0.362829  1
  Si  Si14  1  0.637171  0.000000  0.637171  1
  Si  Si15  1  0.116395  0.616395  0.500000  1
  Si  Si16  1  0.883605  0.383605  0.500000  1
  Ag  Ag17  1  0.000000  0.000000  0.000000  1
