# generated using pymatgen
data_Tm13Lu3(Ga3Ir)2
_symmetry_space_group_name_H-M   'P 1'
_cell_length_a   9.91519303
_cell_length_b   9.91519239
_cell_length_c   6.91671902
_cell_angle_alpha   90.00821628
_cell_angle_beta   89.99178523
_cell_angle_gamma   120.00000562
_symmetry_Int_Tables_number   1
_chemical_formula_structural   Tm13Lu3(Ga3Ir)2
_chemical_formula_sum   'Tm13 Lu3 Ga6 Ir2'
_cell_volume   588.88847342
_cell_formula_units_Z   1
loop_
 _symmetry_equiv_pos_site_id
 _symmetry_equiv_pos_as_xyz
  1  'x, y, z'
loop_
 _atom_site_type_symbol
 _atom_site_label
 _atom_site_symmetry_multiplicity
 _atom_site_fract_x
 _atom_site_fract_y
 _atom_site_fract_z
 _atom_site_occupancy
  Tm  Tm0  1  0.171148  0.342317  0.990137  1
  Tm  Tm1  1  0.657683  0.828852  0.990137  1
  Tm  Tm2  1  0.828823  0.171177  0.490147  1
  Tm  Tm3  1  0.333249  0.666751  0.662282  1
  Tm  Tm4  1  0.666586  0.333414  0.162496  1
  Tm  Tm5  1  0.466089  0.533911  0.294847  1
  Tm  Tm6  1  0.931993  0.466363  0.794471  1
  Tm  Tm7  1  0.533637  0.068007  0.794471  1
  Tm  Tm8  1  0.465630  0.931973  0.294529  1
  Tm  Tm9  1  0.068027  0.534370  0.294529  1
  Tm  Tm10  1  0.534110  0.465890  0.794159  1
  Tm  Tm11  1  0.000160  0.999840  0.266433  1
  Tm  Tm12  1  0.000170  0.999830  0.765932  1
  Lu  Lu13  1  0.171380  0.828620  0.990179  1
  Lu  Lu14  1  0.342813  0.171413  0.490166  1
  Lu  Lu15  1  0.828587  0.657187  0.490166  1
  Ga  Ga16  1  0.163213  0.836787  0.541251  1
  Ga  Ga17  1  0.326741  0.162998  0.041332  1
  Ga  Ga18  1  0.837002  0.673259  0.041332  1
  Ga  Ga19  1  0.163737  0.326722  0.540912  1
  Ga  Ga20  1  0.673278  0.836263  0.540912  1
  Ga  Ga21  1  0.836488  0.163512  0.040995  1
  Ir  Ir22  1  0.333063  0.666937  0.056178  1
  Ir  Ir23  1  0.666394  0.333606  0.556008  1
