# generated using pymatgen
data_NdHoEr2(Ir2O7)2
_symmetry_space_group_name_H-M   'P 1'
_cell_length_a   7.28719816
_cell_length_b   7.22715393
_cell_length_c   7.22191700
_cell_angle_alpha   60.02396274
_cell_angle_beta   60.29589498
_cell_angle_gamma   60.31538072
_symmetry_Int_Tables_number   1
_chemical_formula_structural   NdHoEr2(Ir2O7)2
_chemical_formula_sum   'Nd1 Ho1 Er2 Ir4 O14'
_cell_volume   270.23127186
_cell_formula_units_Z   1
loop_
 _symmetry_equiv_pos_site_id
 _symmetry_equiv_pos_as_xyz
  1  'x, y, z'
loop_
 _atom_site_type_symbol
 _atom_site_label
 _atom_site_symmetry_multiplicity
 _atom_site_fract_x
 _atom_site_fract_y
 _atom_site_fract_z
 _atom_site_occupancy
  Nd  Nd0  1  0.625000  0.125000  0.125000  1
  Ho  Ho1  1  0.125000  0.625000  0.125000  1
  Er  Er2  1  0.125000  0.125000  0.625000  1
  Er  Er3  1  0.125000  0.125000  0.125000  1
  Ir  Ir4  1  0.125000  0.625000  0.625000  1
  Ir  Ir5  1  0.625000  0.125000  0.625000  1
  Ir  Ir6  1  0.625000  0.625000  0.125000  1
  Ir  Ir7  1  0.625000  0.625000  0.625000  1
  O  O8  1  0.722492  0.701740  0.287884  1
  O  O9  1  0.287735  0.288277  0.711995  1
  O  O10  1  0.723308  0.287690  0.701365  1
  O  O11  1  0.287993  0.712309  0.288476  1
  O  O12  1  0.287993  0.712309  0.711223  1
  O  O13  1  0.723308  0.287690  0.287638  1
  O  O14  1  0.527508  0.548260  0.962116  1
  O  O15  1  0.962265  0.961723  0.538005  1
  O  O16  1  0.526692  0.962310  0.548635  1
  O  O17  1  0.962007  0.537691  0.961524  1
  O  O18  1  0.962007  0.537691  0.538777  1
  O  O19  1  0.526692  0.962310  0.962362  1
  O  O20  1  0.239367  0.252129  0.254252  1
  O  O21  1  0.010633  0.997871  0.995748  1
