# generated using pymatgen
data_Hf4Cd2CuNi3
_symmetry_space_group_name_H-M   'P 1'
_cell_length_a   7.21636230
_cell_length_b   7.21636234
_cell_length_c   3.26164700
_cell_angle_alpha   90.00000000
_cell_angle_beta   90.00000000
_cell_angle_gamma   90.46739119
_symmetry_Int_Tables_number   1
_chemical_formula_structural   Hf4Cd2CuNi3
_chemical_formula_sum   'Hf4 Cd2 Cu1 Ni3'
_cell_volume   169.84750326
_cell_formula_units_Z   1
loop_
 _symmetry_equiv_pos_site_id
 _symmetry_equiv_pos_as_xyz
  1  'x, y, z'
loop_
 _atom_site_type_symbol
 _atom_site_label
 _atom_site_symmetry_multiplicity
 _atom_site_fract_x
 _atom_site_fract_y
 _atom_site_fract_z
 _atom_site_occupancy
  Hf  Hf0  1  0.679569  0.161942  0.500000  1
  Hf  Hf1  1  0.338058  0.820431  0.500000  1
  Hf  Hf2  1  0.155836  0.344164  0.500000  1
  Hf  Hf3  1  0.829661  0.670339  0.500000  1
  Cd  Cd4  1  0.005181  0.999657  0.000000  1
  Cd  Cd5  1  0.500343  0.494819  0.000000  1
  Cu  Cu6  1  0.373598  0.126402  0.000000  1
  Ni  Ni7  1  0.122930  0.627480  0.000000  1
  Ni  Ni8  1  0.872520  0.377070  0.000000  1
  Ni  Ni9  1  0.622304  0.877696  0.000000  1
