# generated using pymatgen
data_Sm2YMg3Si2Pd
_symmetry_space_group_name_H-M   'P 1'
_cell_length_a   7.34185000
_cell_length_b   7.29874696
_cell_length_c   4.31175400
_cell_angle_alpha   90.00000000
_cell_angle_beta   90.00000000
_cell_angle_gamma   120.19553766
_symmetry_Int_Tables_number   1
_chemical_formula_structural   Sm2YMg3Si2Pd
_chemical_formula_sum   'Sm2 Y1 Mg3 Si2 Pd1'
_cell_volume   199.70057938
_cell_formula_units_Z   1
loop_
 _symmetry_equiv_pos_site_id
 _symmetry_equiv_pos_as_xyz
  1  'x, y, z'
loop_
 _atom_site_type_symbol
 _atom_site_label
 _atom_site_symmetry_multiplicity
 _atom_site_fract_x
 _atom_site_fract_y
 _atom_site_fract_z
 _atom_site_occupancy
  Sm  Sm0  1  0.416667  0.417207  0.500000  1
  Sm  Sm1  1  0.999459  0.582793  0.500000  1
  Y  Y2  1  0.583026  0.000000  0.500000  1
  Mg  Mg3  1  0.757043  0.758167  0.000000  1
  Mg  Mg4  1  0.244119  0.000000  0.000000  1
  Mg  Mg5  1  0.998876  0.241833  0.000000  1
  Si  Si6  1  0.666280  0.330496  0.000000  1
  Si  Si7  1  0.335782  0.669504  0.000000  1
  Pd  Pd8  1  0.998749  0.000000  0.500000  1
