# generated using pymatgen
data_TbHf9Zr7Si16Mo3
_symmetry_space_group_name_H-M   'P 1'
_cell_length_a   7.03757478
_cell_length_b   7.03185242
_cell_length_c   12.86756876
_cell_angle_alpha   90.06310304
_cell_angle_beta   90.00210360
_cell_angle_gamma   90.07237182
_symmetry_Int_Tables_number   1
_chemical_formula_structural   TbHf9Zr7Si16Mo3
_chemical_formula_sum   'Tb1 Hf9 Zr7 Si16 Mo3'
_cell_volume   636.77889018
_cell_formula_units_Z   1
loop_
 _symmetry_equiv_pos_site_id
 _symmetry_equiv_pos_as_xyz
  1  'x, y, z'
loop_
 _atom_site_type_symbol
 _atom_site_label
 _atom_site_symmetry_multiplicity
 _atom_site_fract_x
 _atom_site_fract_y
 _atom_site_fract_z
 _atom_site_occupancy
  Tb  Tb0  1  0.655888  0.004518  0.282074  1
  Hf  Hf1  1  0.674244  0.324976  0.750007  1
  Hf  Hf2  1  0.144985  0.995901  0.376073  1
  Hf  Hf3  1  0.856534  0.002895  0.876160  1
  Hf  Hf4  1  0.501675  0.646968  0.624682  1
  Hf  Hf5  1  0.353007  0.498078  0.876261  1
  Hf  Hf6  1  0.492817  0.355046  0.125564  1
  Hf  Hf7  1  0.644536  0.504558  0.373618  1
  Hf  Hf8  1  0.998617  0.144203  0.624088  1
  Hf  Hf9  1  0.003477  0.853275  0.123021  1
  Zr  Zr10  1  0.999063  0.347627  0.217980  1
  Zr  Zr11  1  0.002968  0.653207  0.717384  1
  Zr  Zr12  1  0.154494  0.498864  0.468328  1
  Zr  Zr13  1  0.500244  0.844592  0.032347  1
  Zr  Zr14  1  0.846999  0.502582  0.967909  1
  Zr  Zr15  1  0.496793  0.153850  0.532825  1
  Zr  Zr16  1  0.347615  0.996499  0.782485  1
  Si  Si17  1  0.351350  0.300543  0.320791  1
  Si  Si18  1  0.645171  0.704785  0.821294  1
  Si  Si19  1  0.202437  0.854336  0.571645  1
  Si  Si20  1  0.145119  0.797244  0.928522  1
  Si  Si21  1  0.799012  0.147299  0.069492  1
  Si  Si22  1  0.858995  0.208475  0.431347  1
  Si  Si23  1  0.295136  0.355333  0.678875  1
  Si  Si24  1  0.704832  0.640638  0.176585  1
  Si  Si25  1  0.295649  0.048885  0.183243  1
  Si  Si26  1  0.701163  0.948107  0.683495  1
  Si  Si27  1  0.448967  0.798050  0.435466  1
  Si  Si28  1  0.199270  0.548329  0.065772  1
  Si  Si29  1  0.544426  0.196616  0.935894  1
  Si  Si30  1  0.803218  0.456502  0.564547  1
  Si  Si31  1  0.052100  0.299836  0.816347  1
  Si  Si32  1  0.954687  0.697535  0.315523  1
  Mo  Mo33  1  0.173777  0.174014  0.000467  1
  Mo  Mo34  1  0.827715  0.823709  0.499801  1
  Mo  Mo35  1  0.323025  0.672126  0.250086  1
