# generated using pymatgen
data_DyCdIr2O7
_symmetry_space_group_name_H-M   'P 1'
_cell_length_a   7.25280547
_cell_length_b   7.25280567
_cell_length_c   7.36704500
_cell_angle_alpha   59.47758162
_cell_angle_beta   59.47758068
_cell_angle_gamma   59.26369980
_symmetry_Int_Tables_number   1
_chemical_formula_structural   DyCdIr2O7
_chemical_formula_sum   'Dy2 Cd2 Ir4 O14'
_cell_volume   270.32042512
_cell_formula_units_Z   2
loop_
 _symmetry_equiv_pos_site_id
 _symmetry_equiv_pos_as_xyz
  1  'x, y, z'
loop_
 _atom_site_type_symbol
 _atom_site_label
 _atom_site_symmetry_multiplicity
 _atom_site_fract_x
 _atom_site_fract_y
 _atom_site_fract_z
 _atom_site_occupancy
  Dy  Dy0  1  0.125000  0.125000  0.625000  1
  Dy  Dy1  1  0.125000  0.125000  0.125000  1
  Cd  Cd2  1  0.625000  0.125000  0.125000  1
  Cd  Cd3  1  0.125000  0.625000  0.125000  1
  Ir  Ir4  1  0.125000  0.625000  0.625000  1
  Ir  Ir5  1  0.625000  0.125000  0.625000  1
  Ir  Ir6  1  0.625000  0.625000  0.125000  1
  Ir  Ir7  1  0.625000  0.625000  0.625000  1
  O  O8  1  0.700496  0.700496  0.299504  1
  O  O9  1  0.289476  0.289476  0.710524  1
  O  O10  1  0.712611  0.294440  0.695534  1
  O  O11  1  0.294440  0.712611  0.297415  1
  O  O12  1  0.294440  0.712611  0.695534  1
  O  O13  1  0.712611  0.294440  0.297415  1
  O  O14  1  0.549504  0.549504  0.950496  1
  O  O15  1  0.960524  0.960524  0.539476  1
  O  O16  1  0.537389  0.955560  0.554466  1
  O  O17  1  0.955560  0.537389  0.952585  1
  O  O18  1  0.955560  0.537389  0.554466  1
  O  O19  1  0.537389  0.955560  0.952585  1
  O  O20  1  0.249340  0.249340  0.250660  1
  O  O21  1  0.000660  0.000660  0.999340  1
