# generated using pymatgen
data_TbSm5FeBr10
_symmetry_space_group_name_H-M   'P 1'
_cell_length_a   7.49152949
_cell_length_b   9.30895040
_cell_length_c   9.32216787
_cell_angle_alpha   107.93851377
_cell_angle_beta   96.42746580
_cell_angle_gamma   105.47011599
_symmetry_Int_Tables_number   1
_chemical_formula_structural   TbSm5FeBr10
_chemical_formula_sum   'Tb1 Sm5 Fe1 Br10'
_cell_volume   582.59068654
_cell_formula_units_Z   1
loop_
 _symmetry_equiv_pos_site_id
 _symmetry_equiv_pos_as_xyz
  1  'x, y, z'
loop_
 _atom_site_type_symbol
 _atom_site_label
 _atom_site_symmetry_multiplicity
 _atom_site_fract_x
 _atom_site_fract_y
 _atom_site_fract_z
 _atom_site_occupancy
  Tb  Tb0  1  0.640211  0.866124  0.320911  1
  Sm  Sm1  1  0.030604  0.712244  0.410874  1
  Sm  Sm2  1  0.967438  0.286922  0.587677  1
  Sm  Sm3  1  0.875962  0.953143  0.738420  1
  Sm  Sm4  1  0.121606  0.045262  0.260664  1
  Sm  Sm5  1  0.363647  0.136393  0.682155  1
  Fe  Fe6  1  0.999677  0.999659  0.500061  1
  Br  Br7  1  0.453684  0.821373  0.581701  1
  Br  Br8  1  0.547615  0.175725  0.413563  1
  Br  Br9  1  0.911547  0.631693  0.674174  1
  Br  Br10  1  0.087233  0.367124  0.324407  1
  Br  Br11  1  0.247052  0.082725  0.954785  1
  Br  Br12  1  0.748488  0.914205  0.047832  1
  Br  Br13  1  0.348170  0.452895  0.770625  1
  Br  Br14  1  0.648581  0.551994  0.228273  1
  Br  Br15  1  0.790803  0.256301  0.849560  1
  Br  Br16  1  0.217683  0.746217  0.154318  1
