# generated using pymatgen
data_Er3Pa(Ga10Tc3)2
_symmetry_space_group_name_H-M   'P 1'
_cell_length_a   9.00786880
_cell_length_b   9.00786880
_cell_length_c   6.37663400
_cell_angle_alpha   90.00000000
_cell_angle_beta   90.00000000
_cell_angle_gamma   89.83983912
_symmetry_Int_Tables_number   1
_chemical_formula_structural   Er3Pa(Ga10Tc3)2
_chemical_formula_sum   'Er3 Pa1 Ga20 Tc6'
_cell_volume   517.40890338
_cell_formula_units_Z   1
loop_
 _symmetry_equiv_pos_site_id
 _symmetry_equiv_pos_as_xyz
  1  'x, y, z'
loop_
 _atom_site_type_symbol
 _atom_site_label
 _atom_site_symmetry_multiplicity
 _atom_site_fract_x
 _atom_site_fract_y
 _atom_site_fract_z
 _atom_site_occupancy
  Er  Er0  1  0.316887  0.816887  0.000000  1
  Er  Er1  1  0.816876  0.682059  0.000000  1
  Er  Er2  1  0.182059  0.316876  0.000000  1
  Pa  Pa3  1  0.686827  0.186827  0.000000  1
  Ga  Ga4  1  0.943036  0.206774  0.296238  1
  Ga  Ga5  1  0.706774  0.443036  0.296238  1
  Ga  Ga6  1  0.498959  0.998959  0.289059  1
  Ga  Ga7  1  0.559844  0.704615  0.708182  1
  Ga  Ga8  1  0.294769  0.559804  0.708009  1
  Ga  Ga9  1  0.793847  0.937459  0.293789  1
  Ga  Ga10  1  0.943036  0.206774  0.703762  1
  Ga  Ga11  1  0.294769  0.559804  0.291991  1
  Ga  Ga12  1  0.059804  0.794769  0.291991  1
  Ga  Ga13  1  0.706774  0.443036  0.703762  1
  Ga  Ga14  1  0.437459  0.293847  0.706211  1
  Ga  Ga15  1  0.059804  0.794769  0.708009  1
  Ga  Ga16  1  0.204615  0.059844  0.708182  1
  Ga  Ga17  1  0.793847  0.937459  0.706211  1
  Ga  Ga18  1  0.204615  0.059844  0.291818  1
  Ga  Ga19  1  0.000488  0.500488  0.711248  1
  Ga  Ga20  1  0.000488  0.500488  0.288752  1
  Ga  Ga21  1  0.559844  0.704615  0.291818  1
  Ga  Ga22  1  0.437459  0.293847  0.293789  1
  Ga  Ga23  1  0.498959  0.998959  0.710941  1
  Tc  Tc24  1  0.679174  0.179174  0.500000  1
  Tc  Tc25  1  0.821109  0.679276  0.500000  1
  Tc  Tc26  1  0.179276  0.321109  0.500000  1
  Tc  Tc27  1  0.994051  0.003474  0.000000  1
  Tc  Tc28  1  0.321075  0.821075  0.500000  1
  Tc  Tc29  1  0.503474  0.494051  0.000000  1
