# generated using pymatgen
data_LiDy5TiP12Ir17
_symmetry_space_group_name_H-M   'P 1'
_cell_length_a   12.63619840
_cell_length_b   12.73948786
_cell_length_c   3.96628700
_cell_angle_alpha   90.00000000
_cell_angle_beta   90.00000000
_cell_angle_gamma   119.18978481
_symmetry_Int_Tables_number   1
_chemical_formula_structural   LiDy5TiP12Ir17
_chemical_formula_sum   'Li1 Dy5 Ti1 P12 Ir17'
_cell_volume   557.40554434
_cell_formula_units_Z   1
loop_
 _symmetry_equiv_pos_site_id
 _symmetry_equiv_pos_as_xyz
  1  'x, y, z'
loop_
 _atom_site_type_symbol
 _atom_site_label
 _atom_site_symmetry_multiplicity
 _atom_site_fract_x
 _atom_site_fract_y
 _atom_site_fract_z
 _atom_site_occupancy
  Li  Li0  1  0.997075  0.443702  0.500000  1
  Dy  Dy1  1  0.332330  0.661148  0.500000  1
  Dy  Dy2  1  0.668771  0.338460  0.500000  1
  Dy  Dy3  1  0.999065  0.810891  0.000000  1
  Dy  Dy4  1  0.189785  0.187206  0.000000  1
  Dy  Dy5  1  0.810038  0.995996  0.000000  1
  Ti  Ti6  1  0.555239  0.555520  0.500000  1
  P  P7  1  0.002668  0.636640  0.500000  1
  P  P8  1  0.362630  0.363164  0.500000  1
  P  P9  1  0.644334  0.002093  0.500000  1
  P  P10  1  0.514234  0.681991  0.000000  1
  P  P11  1  0.306686  0.821394  0.000000  1
  P  P12  1  0.164590  0.480928  0.000000  1
  P  P13  1  0.485312  0.175796  0.000000  1
  P  P14  1  0.683064  0.519814  0.000000  1
  P  P15  1  0.829039  0.315277  0.000000  1
  P  P16  1  0.999486  0.179015  0.500000  1
  P  P17  1  0.825161  0.826114  0.500000  1
  P  P18  1  0.181267  0.001116  0.500000  1
  Ir  Ir19  1  0.502716  0.862342  0.000000  1
  Ir  Ir20  1  0.123846  0.639828  0.000000  1
  Ir  Ir21  1  0.356234  0.490164  0.000000  1
  Ir  Ir22  1  0.487839  0.360317  0.000000  1
  Ir  Ir23  1  0.860254  0.506523  0.000000  1
  Ir  Ir24  1  0.639351  0.132467  0.000000  1
  Ir  Ir25  1  0.461856  0.999151  0.500000  1
  Ir  Ir26  1  0.996932  0.279107  0.000000  1
  Ir  Ir27  1  0.714476  0.718183  0.000000  1
  Ir  Ir28  1  0.289856  0.001298  0.000000  1
  Ir  Ir29  1  0.624200  0.807647  0.500000  1
  Ir  Ir30  1  0.204396  0.824535  0.500000  1
  Ir  Ir31  1  0.177185  0.371383  0.500000  1
  Ir  Ir32  1  0.377877  0.177845  0.500000  1
  Ir  Ir33  1  0.812328  0.635098  0.500000  1
  Ir  Ir34  1  0.816382  0.194427  0.500000  1
  Ir  Ir35  1  0.003500  0.003419  0.500000  1
