# generated using pymatgen
data_HoLu5Co16(P6Os)2
_symmetry_space_group_name_H-M   'P 1'
_cell_length_a   3.68261300
_cell_length_b   10.44167900
_cell_length_c   12.15400900
_cell_angle_alpha   90.00000000
_cell_angle_beta   90.00000000
_cell_angle_gamma   90.00000000
_symmetry_Int_Tables_number   1
_chemical_formula_structural   HoLu5Co16(P6Os)2
_chemical_formula_sum   'Ho1 Lu5 Co16 P12 Os2'
_cell_volume   467.35401008
_cell_formula_units_Z   1
loop_
 _symmetry_equiv_pos_site_id
 _symmetry_equiv_pos_as_xyz
  1  'x, y, z'
loop_
 _atom_site_type_symbol
 _atom_site_label
 _atom_site_symmetry_multiplicity
 _atom_site_fract_x
 _atom_site_fract_y
 _atom_site_fract_z
 _atom_site_occupancy
  Ho  Ho0  1  0.000000  0.500000  0.526026  1
  Lu  Lu1  1  0.500000  0.000000  0.473709  1
  Lu  Lu2  1  0.500000  0.818400  0.207513  1
  Lu  Lu3  1  0.500000  0.181600  0.207513  1
  Lu  Lu4  1  0.000000  0.681955  0.792843  1
  Lu  Lu5  1  0.000000  0.318045  0.792843  1
  Co  Co6  1  0.500000  0.500000  0.704237  1
  Co  Co7  1  0.000000  0.000000  0.296748  1
  Co  Co8  1  0.000000  0.500000  0.987109  1
  Co  Co9  1  0.500000  0.000000  0.013008  1
  Co  Co10  1  0.500000  0.332237  0.989378  1
  Co  Co11  1  0.500000  0.667763  0.989378  1
  Co  Co12  1  0.000000  0.167593  0.010643  1
  Co  Co13  1  0.000000  0.832407  0.010643  1
  Co  Co14  1  0.500000  0.296930  0.431302  1
  Co  Co15  1  0.500000  0.703070  0.431302  1
  Co  Co16  1  0.000000  0.201585  0.568492  1
  Co  Co17  1  0.000000  0.798415  0.568492  1
  Co  Co18  1  0.500000  0.878307  0.707754  1
  Co  Co19  1  0.500000  0.121693  0.707754  1
  Co  Co20  1  0.000000  0.622144  0.291925  1
  Co  Co21  1  0.000000  0.377856  0.291925  1
  P  P22  1  0.500000  0.500000  0.880006  1
  P  P23  1  0.000000  0.000000  0.120433  1
  P  P24  1  0.500000  0.500000  0.352199  1
  P  P25  1  0.000000  0.000000  0.646541  1
  P  P26  1  0.500000  0.312466  0.617274  1
  P  P27  1  0.500000  0.687534  0.617274  1
  P  P28  1  0.000000  0.186457  0.383206  1
  P  P29  1  0.000000  0.813543  0.383206  1
  P  P30  1  0.500000  0.845575  0.891475  1
  P  P31  1  0.500000  0.154425  0.891475  1
  P  P32  1  0.000000  0.654717  0.108471  1
  P  P33  1  0.000000  0.345283  0.108471  1
  Os  Os34  1  0.500000  0.500000  0.159489  1
  Os  Os35  1  0.000000  0.000000  0.839942  1
