# generated using pymatgen
data_Dy8Er12Si15Rh
_symmetry_space_group_name_H-M   'P 1'
_cell_length_a   7.39099453
_cell_length_b   7.63205564
_cell_length_c   14.48717649
_cell_angle_alpha   90.34090695
_cell_angle_beta   90.38444123
_cell_angle_gamma   90.26509281
_symmetry_Int_Tables_number   1
_chemical_formula_structural   Dy8Er12Si15Rh
_chemical_formula_sum   'Dy8 Er12 Si15 Rh1'
_cell_volume   817.15786666
_cell_formula_units_Z   1
loop_
 _symmetry_equiv_pos_site_id
 _symmetry_equiv_pos_as_xyz
  1  'x, y, z'
loop_
 _atom_site_type_symbol
 _atom_site_label
 _atom_site_symmetry_multiplicity
 _atom_site_fract_x
 _atom_site_fract_y
 _atom_site_fract_z
 _atom_site_occupancy
  Dy  Dy0  1  0.025183  0.818614  0.599567  1
  Dy  Dy1  1  0.524729  0.683462  0.597423  1
  Dy  Dy2  1  0.321391  0.819037  0.121758  1
  Dy  Dy3  1  0.816829  0.680218  0.122487  1
  Dy  Dy4  1  0.851670  0.505647  0.749207  1
  Dy  Dy5  1  0.471423  0.316116  0.099369  1
  Dy  Dy6  1  0.028077  0.818413  0.901692  1
  Dy  Dy7  1  0.472452  0.316266  0.401899  1
  Er  Er8  1  0.653237  0.011997  0.258040  1
  Er  Er9  1  0.529532  0.682922  0.900051  1
  Er  Er10  1  0.680771  0.179875  0.877371  1
  Er  Er11  1  0.178021  0.320871  0.623957  1
  Er  Er12  1  0.184805  0.322706  0.875660  1
  Er  Er13  1  0.816351  0.688635  0.382387  1
  Er  Er14  1  0.323440  0.825294  0.378121  1
  Er  Er15  1  0.352381  0.990724  0.747516  1
  Er  Er16  1  0.682894  0.164683  0.618178  1
  Er  Er17  1  0.147132  0.490189  0.252299  1
  Er  Er18  1  0.971177  0.181417  0.098398  1
  Er  Er19  1  0.971531  0.177060  0.401299  1
  Si  Si20  1  0.234541  0.628662  0.750947  1
  Si  Si21  1  0.343359  0.028834  0.540964  1
  Si  Si22  1  0.027129  0.893818  0.247276  1
  Si  Si23  1  0.733235  0.870892  0.752250  1
  Si  Si24  1  0.264752  0.128094  0.246641  1
  Si  Si25  1  0.851894  0.470882  0.541272  1
  Si  Si26  1  0.480263  0.391285  0.748881  1
  Si  Si27  1  0.147395  0.531148  0.461324  1
  Si  Si28  1  0.146655  0.526511  0.039685  1
  Si  Si29  1  0.977641  0.104639  0.751800  1
  Si  Si30  1  0.768878  0.375419  0.249263  1
  Si  Si31  1  0.352226  0.030529  0.959287  1
  Si  Si32  1  0.856011  0.469957  0.959239  1
  Si  Si33  1  0.647001  0.971820  0.038517  1
  Si  Si34  1  0.522090  0.603508  0.249285  1
  Rh  Rh35  1  0.643904  0.979858  0.456691  1
