# generated using pymatgen
data_Ho4Ga2ReRu5
_symmetry_space_group_name_H-M   'P 1'
_cell_length_a   5.23753459
_cell_length_b   5.47391845
_cell_length_c   8.90645300
_cell_angle_alpha   90.00000000
_cell_angle_beta   90.00000000
_cell_angle_gamma   121.50457042
_symmetry_Int_Tables_number   1
_chemical_formula_structural   Ho4Ga2ReRu5
_chemical_formula_sum   'Ho4 Ga2 Re1 Ru5'
_cell_volume   217.70808769
_cell_formula_units_Z   1
loop_
 _symmetry_equiv_pos_site_id
 _symmetry_equiv_pos_as_xyz
  1  'x, y, z'
loop_
 _atom_site_type_symbol
 _atom_site_label
 _atom_site_symmetry_multiplicity
 _atom_site_fract_x
 _atom_site_fract_y
 _atom_site_fract_z
 _atom_site_occupancy
  Ho  Ho0  1  0.337277  0.668639  0.440735  1
  Ho  Ho1  1  0.656243  0.328121  0.564539  1
  Ho  Ho2  1  0.656243  0.328121  0.935461  1
  Ho  Ho3  1  0.337277  0.668639  0.059265  1
  Ga  Ga4  1  0.832097  0.167442  0.250000  1
  Ga  Ga5  1  0.832097  0.664656  0.250000  1
  Re  Re6  1  0.670626  0.835312  0.750000  1
  Ru  Ru7  1  0.983877  0.991938  0.501510  1
  Ru  Ru8  1  0.983877  0.991938  0.998490  1
  Ru  Ru9  1  0.341524  0.170762  0.250000  1
  Ru  Ru10  1  0.184430  0.836362  0.750000  1
  Ru  Ru11  1  0.184430  0.348067  0.750000  1
