# generated using pymatgen
data_Fe7P4Ru
_symmetry_space_group_name_H-M   'P 1'
_cell_length_a   3.60351000
_cell_length_b   5.67431411
_cell_length_c   6.53024032
_cell_angle_alpha   89.82021326
_cell_angle_beta   90.00000000
_cell_angle_gamma   90.00000000
_symmetry_Int_Tables_number   1
_chemical_formula_structural   Fe7P4Ru
_chemical_formula_sum   'Fe7 P4 Ru1'
_cell_volume   133.52608953
_cell_formula_units_Z   1
loop_
 _symmetry_equiv_pos_site_id
 _symmetry_equiv_pos_as_xyz
  1  'x, y, z'
loop_
 _atom_site_type_symbol
 _atom_site_label
 _atom_site_symmetry_multiplicity
 _atom_site_fract_x
 _atom_site_fract_y
 _atom_site_fract_z
 _atom_site_occupancy
  Fe  Fe0  1  0.750000  0.971993  0.334257  1
  Fe  Fe1  1  0.250000  0.528913  0.832993  1
  Fe  Fe2  1  0.250000  0.032935  0.668252  1
  Fe  Fe3  1  0.750000  0.359056  0.565847  1
  Fe  Fe4  1  0.750000  0.853925  0.931273  1
  Fe  Fe5  1  0.250000  0.643423  0.438672  1
  Fe  Fe6  1  0.250000  0.140035  0.065748  1
  P  P7  1  0.750000  0.233705  0.875751  1
  P  P8  1  0.750000  0.743524  0.618084  1
  P  P9  1  0.250000  0.763290  0.119257  1
  P  P10  1  0.250000  0.255956  0.383862  1
  Ru  Ru11  1  0.750000  0.473247  0.166004  1
