# generated using pymatgen
data_AcPrIrBr
_symmetry_space_group_name_H-M   'P 1'
_cell_length_a   4.26626700
_cell_length_b   4.26626673
_cell_length_c   16.16498000
_cell_angle_alpha   90.00000000
_cell_angle_beta   90.00000000
_cell_angle_gamma   120.00000985
_symmetry_Int_Tables_number   1
_chemical_formula_structural   AcPrIrBr
_chemical_formula_sum   'Ac2 Pr2 Ir2 Br2'
_cell_volume   254.80139204
_cell_formula_units_Z   2
loop_
 _symmetry_equiv_pos_site_id
 _symmetry_equiv_pos_as_xyz
  1  'x, y, z'
loop_
 _atom_site_type_symbol
 _atom_site_label
 _atom_site_symmetry_multiplicity
 _atom_site_fract_x
 _atom_site_fract_y
 _atom_site_fract_z
 _atom_site_occupancy
  Ac  Ac0  1  0.333333  0.666667  0.096282  1
  Ac  Ac1  1  0.666667  0.333333  0.596282  1
  Pr  Pr2  1  0.666667  0.333333  0.902067  1
  Pr  Pr3  1  0.333333  0.666667  0.402067  1
  Ir  Ir4  1  0.000000  0.000000  0.995740  1
  Ir  Ir5  1  0.000000  0.000000  0.495740  1
  Br  Br6  1  0.666667  0.333333  0.255911  1
  Br  Br7  1  0.333333  0.666667  0.755911  1
