# generated using pymatgen
data_La5Ge2Os
_symmetry_space_group_name_H-M   'P 1'
_cell_length_a   8.20709700
_cell_length_b   9.06899300
_cell_length_c   12.46845200
_cell_angle_alpha   90.00000000
_cell_angle_beta   90.00000000
_cell_angle_gamma   90.00000000
_symmetry_Int_Tables_number   1
_chemical_formula_structural   La5Ge2Os
_chemical_formula_sum   'La20 Ge8 Os4'
_cell_volume   928.02819458
_cell_formula_units_Z   4
loop_
 _symmetry_equiv_pos_site_id
 _symmetry_equiv_pos_as_xyz
  1  'x, y, z'
loop_
 _atom_site_type_symbol
 _atom_site_label
 _atom_site_symmetry_multiplicity
 _atom_site_fract_x
 _atom_site_fract_y
 _atom_site_fract_z
 _atom_site_occupancy
  La  La0  1  0.680094  0.467904  0.071958  1
  La  La1  1  0.180094  0.532096  0.428042  1
  La  La2  1  0.319906  0.967904  0.928042  1
  La  La3  1  0.819906  0.032096  0.571958  1
  La  La4  1  0.319906  0.532096  0.928042  1
  La  La5  1  0.819906  0.467904  0.571958  1
  La  La6  1  0.680094  0.032096  0.071958  1
  La  La7  1  0.180094  0.967904  0.428042  1
  La  La8  1  0.959655  0.750000  0.001030  1
  La  La9  1  0.459655  0.250000  0.498970  1
  La  La10  1  0.040345  0.250000  0.998970  1
  La  La11  1  0.540345  0.750000  0.501030  1
  La  La12  1  0.357574  0.750000  0.203155  1
  La  La13  1  0.857574  0.250000  0.296845  1
  La  La14  1  0.642426  0.250000  0.796845  1
  La  La15  1  0.142426  0.750000  0.703155  1
  La  La16  1  0.831252  0.750000  0.289137  1
  La  La17  1  0.331252  0.250000  0.210863  1
  La  La18  1  0.168748  0.250000  0.710863  1
  La  La19  1  0.668748  0.750000  0.789137  1
  Ge  Ge20  1  0.561177  0.493682  0.327879  1
  Ge  Ge21  1  0.061177  0.506318  0.172121  1
  Ge  Ge22  1  0.438823  0.993682  0.672121  1
  Ge  Ge23  1  0.938823  0.006318  0.827879  1
  Ge  Ge24  1  0.438823  0.506318  0.672121  1
  Ge  Ge25  1  0.938823  0.493682  0.827879  1
  Ge  Ge26  1  0.561177  0.006318  0.327879  1
  Ge  Ge27  1  0.061177  0.993682  0.172121  1
  Os  Os28  1  0.579995  0.750000  0.019560  1
  Os  Os29  1  0.079995  0.250000  0.480440  1
  Os  Os30  1  0.420005  0.250000  0.980440  1
  Os  Os31  1  0.920005  0.750000  0.519560  1
