# generated using pymatgen
data_Ca2CrP3O11
_symmetry_space_group_name_H-M   'P 1'
_cell_length_a   6.74557100
_cell_length_b   6.48840951
_cell_length_c   19.37163600
_cell_angle_alpha   80.76079499
_cell_angle_beta   90.00000000
_cell_angle_gamma   90.00000000
_symmetry_Int_Tables_number   1
_chemical_formula_structural   Ca2CrP3O11
_chemical_formula_sum   'Ca8 Cr4 P12 O44'
_cell_volume   836.85871229
_cell_formula_units_Z   4
loop_
 _symmetry_equiv_pos_site_id
 _symmetry_equiv_pos_as_xyz
  1  'x, y, z'
loop_
 _atom_site_type_symbol
 _atom_site_label
 _atom_site_symmetry_multiplicity
 _atom_site_fract_x
 _atom_site_fract_y
 _atom_site_fract_z
 _atom_site_occupancy
  Ca  Ca0  1  0.140246  0.333241  0.578226  1
  Ca  Ca1  1  0.640246  0.666759  0.921774  1
  Ca  Ca2  1  0.859754  0.666759  0.421774  1
  Ca  Ca3  1  0.359754  0.333241  0.078226  1
  Ca  Ca4  1  0.489957  0.330195  0.771521  1
  Ca  Ca5  1  0.989957  0.669805  0.728479  1
  Ca  Ca6  1  0.510043  0.669805  0.228479  1
  Ca  Ca7  1  0.010043  0.330195  0.271521  1
  Cr  Cr8  1  0.644751  0.053031  0.622249  1
  Cr  Cr9  1  0.144751  0.946969  0.877751  1
  Cr  Cr10  1  0.355249  0.946969  0.377751  1
  Cr  Cr11  1  0.855249  0.053031  0.122249  1
  P  P12  1  0.656531  0.573353  0.587590  1
  P  P13  1  0.156531  0.426647  0.912410  1
  P  P14  1  0.343469  0.426647  0.412410  1
  P  P15  1  0.843469  0.573353  0.087590  1
  P  P16  1  0.297133  0.829491  0.548201  1
  P  P17  1  0.797133  0.170509  0.951799  1
  P  P18  1  0.702867  0.170509  0.451799  1
  P  P19  1  0.202867  0.829491  0.048201  1
  P  P20  1  0.487061  0.815901  0.773421  1
  P  P21  1  0.987061  0.184099  0.726579  1
  P  P22  1  0.512939  0.184099  0.226579  1
  P  P23  1  0.012939  0.815901  0.273421  1
  O  O24  1  0.371986  0.018930  0.581118  1
  O  O25  1  0.871986  0.981070  0.918882  1
  O  O26  1  0.628014  0.981070  0.418882  1
  O  O27  1  0.128014  0.018930  0.081118  1
  O  O28  1  0.702456  0.730033  0.638253  1
  O  O29  1  0.202456  0.269967  0.861747  1
  O  O30  1  0.297544  0.269967  0.361747  1
  O  O31  1  0.797544  0.730033  0.138253  1
  O  O32  1  0.159770  0.690401  0.596507  1
  O  O33  1  0.659770  0.309599  0.903493  1
  O  O34  1  0.840230  0.309599  0.403493  1
  O  O35  1  0.340230  0.690401  0.096507  1
  O  O36  1  0.565744  0.365813  0.625193  1
  O  O37  1  0.065744  0.634187  0.874807  1
  O  O38  1  0.434256  0.634187  0.374807  1
  O  O39  1  0.934256  0.365813  0.125193  1
  O  O40  1  0.827851  0.534354  0.540707  1
  O  O41  1  0.327851  0.465646  0.959293  1
  O  O42  1  0.172149  0.465646  0.459293  1
  O  O43  1  0.672149  0.534354  0.040707  1
  O  O44  1  0.778963  0.096695  0.526587  1
  O  O45  1  0.278963  0.903305  0.973413  1
  O  O46  1  0.221037  0.903305  0.473413  1
  O  O47  1  0.721037  0.096695  0.026587  1
  O  O48  1  0.489725  0.687594  0.535163  1
  O  O49  1  0.989725  0.312406  0.964837  1
  O  O50  1  0.510275  0.312406  0.464837  1
  O  O51  1  0.010275  0.687594  0.035163  1
  O  O52  1  0.533546  0.014535  0.719290  1
  O  O53  1  0.033546  0.985465  0.780710  1
  O  O54  1  0.466454  0.985465  0.280710  1
  O  O55  1  0.966454  0.014535  0.219290  1
  O  O56  1  0.332586  0.671440  0.748687  1
  O  O57  1  0.832586  0.328560  0.751313  1
  O  O58  1  0.667414  0.328560  0.251313  1
  O  O59  1  0.167414  0.671440  0.248687  1
  O  O60  1  0.918048  0.094264  0.658915  1
  O  O61  1  0.418048  0.905736  0.841085  1
  O  O62  1  0.081952  0.905736  0.341085  1
  O  O63  1  0.581952  0.094264  0.158915  1
  O  O64  1  0.673727  0.685502  0.796735  1
  O  O65  1  0.173727  0.314498  0.703265  1
  O  O66  1  0.326273  0.314498  0.203265  1
  O  O67  1  0.826273  0.685502  0.296735  1
