# generated using pymatgen
data_Y6IrBr10
_symmetry_space_group_name_H-M   'P 1'
_cell_length_a   7.39484698
_cell_length_b   9.20204647
_cell_length_c   9.25631722
_cell_angle_alpha   107.99514228
_cell_angle_beta   97.17757148
_cell_angle_gamma   105.28417779
_symmetry_Int_Tables_number   1
_chemical_formula_structural   Y6IrBr10
_chemical_formula_sum   'Y6 Ir1 Br10'
_cell_volume   563.05994496
_cell_formula_units_Z   1
loop_
 _symmetry_equiv_pos_site_id
 _symmetry_equiv_pos_as_xyz
  1  'x, y, z'
loop_
 _atom_site_type_symbol
 _atom_site_label
 _atom_site_symmetry_multiplicity
 _atom_site_fract_x
 _atom_site_fract_y
 _atom_site_fract_z
 _atom_site_occupancy
  Y  Y0  1  0.125405  0.047216  0.753421  1
  Y  Y1  1  0.874595  0.952784  0.246579  1
  Y  Y2  1  0.973264  0.300111  0.095401  1
  Y  Y3  1  0.026736  0.699889  0.904599  1
  Y  Y4  1  0.365188  0.138256  0.181067  1
  Y  Y5  1  0.634812  0.861744  0.818933  1
  Ir  Ir6  1  0.000000  0.000000  0.000000  1
  Br  Br7  1  0.547178  0.177005  0.914130  1
  Br  Br8  1  0.452822  0.822995  0.085870  1
  Br  Br9  1  0.356888  0.456934  0.274972  1
  Br  Br10  1  0.643112  0.543066  0.725028  1
  Br  Br11  1  0.250351  0.083661  0.459155  1
  Br  Br12  1  0.749649  0.916339  0.540845  1
  Br  Br13  1  0.787300  0.259050  0.348821  1
  Br  Br14  1  0.212700  0.740950  0.651179  1
  Br  Br15  1  0.086062  0.372699  0.829163  1
  Br  Br16  1  0.913938  0.627301  0.170837  1
