# generated using pymatgen
data_YPa3(TcB4)4
_symmetry_space_group_name_H-M   'P 1'
_cell_length_a   5.97236680
_cell_length_b   11.55855954
_cell_length_c   3.64829200
_cell_angle_alpha   90.00000000
_cell_angle_beta   90.00000000
_cell_angle_gamma   90.05918950
_symmetry_Int_Tables_number   1
_chemical_formula_structural   YPa3(TcB4)4
_chemical_formula_sum   'Y1 Pa3 Tc4 B16'
_cell_volume   251.84860291
_cell_formula_units_Z   1
loop_
 _symmetry_equiv_pos_site_id
 _symmetry_equiv_pos_as_xyz
  1  'x, y, z'
loop_
 _atom_site_type_symbol
 _atom_site_label
 _atom_site_symmetry_multiplicity
 _atom_site_fract_x
 _atom_site_fract_y
 _atom_site_fract_z
 _atom_site_occupancy
  Y  Y0  1  0.127807  0.850692  0.000000  1
  Pa  Pa1  1  0.872345  0.148646  0.000000  1
  Pa  Pa2  1  0.371663  0.349903  0.000000  1
  Pa  Pa3  1  0.627969  0.651516  0.000000  1
  Tc  Tc4  1  0.362902  0.094198  0.000000  1
  Tc  Tc5  1  0.861327  0.406023  0.000000  1
  Tc  Tc6  1  0.138238  0.591742  0.000000  1
  Tc  Tc7  1  0.638165  0.909173  0.000000  1
  B  B8  1  0.135952  0.032344  0.499999  1
  B  B9  1  0.612040  0.045556  0.499999  1
  B  B10  1  0.210600  0.186347  0.499999  1
  B  B11  1  0.527236  0.191378  0.499999  1
  B  B12  1  0.026572  0.308340  0.499999  1
  B  B13  1  0.711043  0.312656  0.499999  1
  B  B14  1  0.112600  0.454079  0.499999  1
  B  B15  1  0.636032  0.468478  0.499999  1
  B  B16  1  0.365516  0.531752  0.499999  1
  B  B17  1  0.887932  0.546774  0.499999  1
  B  B18  1  0.289040  0.685566  0.499999  1
  B  B19  1  0.973237  0.691201  0.499999  1
  B  B20  1  0.476351  0.808331  0.499999  1
  B  B21  1  0.786226  0.813393  0.499999  1
  B  B22  1  0.386664  0.953294  0.499999  1
  B  B23  1  0.862545  0.968623  0.499999  1
