# generated using pymatgen
data_ZrPa6TiSn10
_symmetry_space_group_name_H-M   'P 1'
_cell_length_a   9.20590100
_cell_length_b   9.20590237
_cell_length_c   6.17139100
_cell_angle_alpha   90.00000000
_cell_angle_beta   90.00000000
_cell_angle_gamma   119.99999149
_symmetry_Int_Tables_number   1
_chemical_formula_structural   ZrPa6TiSn10
_chemical_formula_sum   'Zr1 Pa6 Ti1 Sn10'
_cell_volume   452.94596663
_cell_formula_units_Z   1
loop_
 _symmetry_equiv_pos_site_id
 _symmetry_equiv_pos_as_xyz
  1  'x, y, z'
loop_
 _atom_site_type_symbol
 _atom_site_label
 _atom_site_symmetry_multiplicity
 _atom_site_fract_x
 _atom_site_fract_y
 _atom_site_fract_z
 _atom_site_occupancy
  Zr  Zr0  1  0.000000  0.000000  0.500000  1
  Pa  Pa1  1  0.615166  0.000000  0.749054  1
  Pa  Pa2  1  0.384834  0.000000  0.250946  1
  Pa  Pa3  1  0.000000  0.615166  0.749054  1
  Pa  Pa4  1  0.000000  0.384834  0.250946  1
  Pa  Pa5  1  0.384834  0.384834  0.749054  1
  Pa  Pa6  1  0.615166  0.615166  0.250946  1
  Ti  Ti7  1  0.000000  0.000000  0.000000  1
  Sn  Sn8  1  0.269005  0.000000  0.756308  1
  Sn  Sn9  1  0.730995  0.000000  0.243692  1
  Sn  Sn10  1  0.000000  0.269005  0.756308  1
  Sn  Sn11  1  0.000000  0.730995  0.243692  1
  Sn  Sn12  1  0.730995  0.730995  0.756308  1
  Sn  Sn13  1  0.269005  0.269005  0.243692  1
  Sn  Sn14  1  0.333333  0.666667  0.500000  1
  Sn  Sn15  1  0.666667  0.333333  0.500000  1
  Sn  Sn16  1  0.666667  0.333333  0.000000  1
  Sn  Sn17  1  0.333333  0.666667  0.000000  1
