# generated using pymatgen
data_GaAs3Se5Br4
_symmetry_space_group_name_H-M   'P 1'
_cell_length_a   10.75502900
_cell_length_b   7.02188169
_cell_length_c   12.66884302
_cell_angle_alpha   75.49625085
_cell_angle_beta   90.00000000
_cell_angle_gamma   90.00000000
_symmetry_Int_Tables_number   1
_chemical_formula_structural   GaAs3Se5Br4
_chemical_formula_sum   'Ga2 As6 Se10 Br8'
_cell_volume   926.26720760
_cell_formula_units_Z   2
loop_
 _symmetry_equiv_pos_site_id
 _symmetry_equiv_pos_as_xyz
  1  'x, y, z'
loop_
 _atom_site_type_symbol
 _atom_site_label
 _atom_site_symmetry_multiplicity
 _atom_site_fract_x
 _atom_site_fract_y
 _atom_site_fract_z
 _atom_site_occupancy
  Ga  Ga0  1  0.750000  0.483056  0.719746  1
  Ga  Ga1  1  0.250000  0.516944  0.280254  1
  As  As2  1  0.083132  0.050843  0.670789  1
  As  As3  1  0.583132  0.949157  0.329211  1
  As  As4  1  0.916868  0.949157  0.329211  1
  As  As5  1  0.750000  0.975070  0.052178  1
  As  As6  1  0.250000  0.024930  0.947822  1
  As  As7  1  0.416868  0.050843  0.670789  1
  Se  Se8  1  0.432192  0.923646  0.864659  1
  Se  Se9  1  0.750000  0.683925  0.332599  1
  Se  Se10  1  0.750000  0.631110  0.158924  1
  Se  Se11  1  0.567808  0.076354  0.135341  1
  Se  Se12  1  0.250000  0.316075  0.667401  1
  Se  Se13  1  0.250000  0.874138  0.606910  1
  Se  Se14  1  0.250000  0.368890  0.841076  1
  Se  Se15  1  0.750000  0.125862  0.393090  1
  Se  Se16  1  0.067808  0.923646  0.864659  1
  Se  Se17  1  0.932192  0.076354  0.135341  1
  Br  Br18  1  0.250000  0.481199  0.099779  1
  Br  Br19  1  0.750000  0.147418  0.720069  1
  Br  Br20  1  0.750000  0.518801  0.900221  1
  Br  Br21  1  0.250000  0.852582  0.279931  1
  Br  Br22  1  0.930855  0.630544  0.624251  1
  Br  Br23  1  0.569145  0.630544  0.624251  1
  Br  Br24  1  0.069145  0.369456  0.375749  1
  Br  Br25  1  0.430855  0.369456  0.375749  1
