# generated using pymatgen
data_Y2FeCo7B8
_symmetry_space_group_name_H-M   'P 1'
_cell_length_a   6.93848302
_cell_length_b   6.93200013
_cell_length_c   3.81295018
_cell_angle_alpha   90.10723191
_cell_angle_beta   90.05950076
_cell_angle_gamma   90.06385851
_symmetry_Int_Tables_number   1
_chemical_formula_structural   Y2FeCo7B8
_chemical_formula_sum   'Y2 Fe1 Co7 B8'
_cell_volume   183.39308513
_cell_formula_units_Z   1
loop_
 _symmetry_equiv_pos_site_id
 _symmetry_equiv_pos_as_xyz
  1  'x, y, z'
loop_
 _atom_site_type_symbol
 _atom_site_label
 _atom_site_symmetry_multiplicity
 _atom_site_fract_x
 _atom_site_fract_y
 _atom_site_fract_z
 _atom_site_occupancy
  Y  Y0  1  0.998986  0.000822  0.000580  1
  Y  Y1  1  0.499722  0.499511  0.499227  1
  Fe  Fe2  1  0.382141  0.135665  0.890326  1
  Co  Co3  1  0.859280  0.382159  0.110440  1
  Co  Co4  1  0.139846  0.617983  0.109279  1
  Co  Co5  1  0.881850  0.640822  0.609888  1
  Co  Co6  1  0.117311  0.360802  0.609782  1
  Co  Co7  1  0.641103  0.116623  0.390470  1
  Co  Co8  1  0.359156  0.881010  0.391923  1
  Co  Co9  1  0.618409  0.859498  0.890152  1
  B  B10  1  0.334950  0.804210  0.893942  1
  B  B11  1  0.660416  0.202616  0.893914  1
  B  B12  1  0.301509  0.165535  0.392808  1
  B  B13  1  0.700486  0.836542  0.394163  1
  B  B14  1  0.164048  0.698140  0.606393  1
  B  B15  1  0.837072  0.299597  0.606504  1
  B  B16  1  0.203118  0.335342  0.104236  1
  B  B17  1  0.800598  0.663124  0.105971  1
