# generated using pymatgen
data_YbCe7(Si3Ni)4
_symmetry_space_group_name_H-M   'P 1'
_cell_length_a   7.98306900
_cell_length_b   7.97270469
_cell_length_c   8.16152000
_cell_angle_alpha   90.00000000
_cell_angle_beta   90.00000000
_cell_angle_gamma   120.04301626
_symmetry_Int_Tables_number   1
_chemical_formula_structural   YbCe7(Si3Ni)4
_chemical_formula_sum   'Yb1 Ce7 Si12 Ni4'
_cell_volume   449.66473515
_cell_formula_units_Z   1
loop_
 _symmetry_equiv_pos_site_id
 _symmetry_equiv_pos_as_xyz
  1  'x, y, z'
loop_
 _atom_site_type_symbol
 _atom_site_label
 _atom_site_symmetry_multiplicity
 _atom_site_fract_x
 _atom_site_fract_y
 _atom_site_fract_z
 _atom_site_occupancy
  Yb  Yb0  1  0.500475  0.000950  0.250000  1
  Ce  Ce1  1  0.499663  0.999327  0.750000  1
  Ce  Ce2  1  0.999518  0.499760  0.250000  1
  Ce  Ce3  1  0.000584  0.500264  0.750000  1
  Ce  Ce4  1  0.500243  0.499760  0.250000  1
  Ce  Ce5  1  0.499679  0.500264  0.750000  1
  Ce  Ce6  1  0.999985  0.999972  0.250000  1
  Ce  Ce7  1  0.999973  0.999946  0.750000  1
  Si  Si8  1  0.169502  0.339003  0.999661  1
  Si  Si9  1  0.830458  0.660918  0.998472  1
  Si  Si10  1  0.660683  0.830189  0.000599  1
  Si  Si11  1  0.830458  0.660918  0.501528  1
  Si  Si12  1  0.339325  0.169816  0.999224  1
  Si  Si13  1  0.169502  0.339003  0.500339  1
  Si  Si14  1  0.169508  0.830189  0.000599  1
  Si  Si15  1  0.339325  0.169816  0.500776  1
  Si  Si16  1  0.830490  0.169816  0.999224  1
  Si  Si17  1  0.660683  0.830189  0.499401  1
  Si  Si18  1  0.830490  0.169816  0.500776  1
  Si  Si19  1  0.169508  0.830189  0.499401  1
  Ni  Ni20  1  0.333554  0.667109  0.999988  1
  Ni  Ni21  1  0.666420  0.332839  0.998764  1
  Ni  Ni22  1  0.666420  0.332839  0.501236  1
  Ni  Ni23  1  0.333554  0.667109  0.500012  1
