# generated using pymatgen
data_RbScP2Se7
_symmetry_space_group_name_H-M   'P 1'
_cell_length_a   7.07391287
_cell_length_b   7.07391208
_cell_length_c   7.16199659
_cell_angle_alpha   84.63497136
_cell_angle_beta   84.63497158
_cell_angle_gamma   97.65701167
_symmetry_Int_Tables_number   1
_chemical_formula_structural   RbScP2Se7
_chemical_formula_sum   'Rb1 Sc1 P2 Se7'
_cell_volume   351.59159930
_cell_formula_units_Z   1
loop_
 _symmetry_equiv_pos_site_id
 _symmetry_equiv_pos_as_xyz
  1  'x, y, z'
loop_
 _atom_site_type_symbol
 _atom_site_label
 _atom_site_symmetry_multiplicity
 _atom_site_fract_x
 _atom_site_fract_y
 _atom_site_fract_z
 _atom_site_occupancy
  Rb  Rb0  1  0.105641  0.894359  0.500000  1
  Sc  Sc1  1  0.502117  0.497883  0.000000  1
  P  P2  1  0.653564  0.947621  0.077826  1
  P  P3  1  0.052379  0.346436  0.922174  1
  Se  Se4  1  0.983989  0.016011  0.000000  1
  Se  Se5  1  0.827962  0.462743  0.772461  1
  Se  Se6  1  0.639726  0.688533  0.279988  1
  Se  Se7  1  0.311467  0.360274  0.720012  1
  Se  Se8  1  0.139836  0.474036  0.175731  1
  Se  Se9  1  0.525964  0.860164  0.824269  1
  Se  Se10  1  0.537257  0.172038  0.227539  1
