# generated using pymatgen
data_Ce2Er(SnIr)3
_symmetry_space_group_name_H-M   'P 1'
_cell_length_a   7.49501189
_cell_length_b   7.46662618
_cell_length_c   4.03756500
_cell_angle_alpha   90.00000000
_cell_angle_beta   90.00000000
_cell_angle_gamma   119.87479715
_symmetry_Int_Tables_number   1
_chemical_formula_structural   Ce2Er(SnIr)3
_chemical_formula_sum   'Ce2 Er1 Sn3 Ir3'
_cell_volume   195.92661256
_cell_formula_units_Z   1
loop_
 _symmetry_equiv_pos_site_id
 _symmetry_equiv_pos_as_xyz
  1  'x, y, z'
loop_
 _atom_site_type_symbol
 _atom_site_label
 _atom_site_symmetry_multiplicity
 _atom_site_fract_x
 _atom_site_fract_y
 _atom_site_fract_z
 _atom_site_occupancy
  Ce  Ce0  1  0.411597  0.412253  0.500000  1
  Ce  Ce1  1  0.588403  0.000656  0.500000  1
  Er  Er2  1  0.000000  0.595215  0.500000  1
  Sn  Sn3  1  0.749453  0.743538  0.000000  1
  Sn  Sn4  1  0.250547  0.994085  0.000000  1
  Sn  Sn5  1  0.000000  0.260223  0.000000  1
  Ir  Ir6  1  0.658962  0.326378  0.000000  1
  Ir  Ir7  1  0.341038  0.667417  0.000000  1
  Ir  Ir8  1  0.000000  0.000234  0.500000  1
