# generated using pymatgen
data_Hf2Al9FeCo2
_symmetry_space_group_name_H-M   'P 1'
_cell_length_a   7.25294999
_cell_length_b   7.25294992
_cell_length_c   9.00257200
_cell_angle_alpha   90.00000000
_cell_angle_beta   90.00000000
_cell_angle_gamma   119.14455058
_symmetry_Int_Tables_number   1
_chemical_formula_structural   Hf2Al9FeCo2
_chemical_formula_sum   'Hf4 Al18 Fe2 Co4'
_cell_volume   413.62432716
_cell_formula_units_Z   2
loop_
 _symmetry_equiv_pos_site_id
 _symmetry_equiv_pos_as_xyz
  1  'x, y, z'
loop_
 _atom_site_type_symbol
 _atom_site_label
 _atom_site_symmetry_multiplicity
 _atom_site_fract_x
 _atom_site_fract_y
 _atom_site_fract_z
 _atom_site_occupancy
  Hf  Hf0  1  0.990910  0.676282  0.250000  1
  Hf  Hf1  1  0.009090  0.323718  0.750000  1
  Hf  Hf2  1  0.676282  0.990910  0.250000  1
  Hf  Hf3  1  0.323718  0.009090  0.750000  1
  Al  Al4  1  0.994408  0.335423  0.074513  1
  Al  Al5  1  0.005592  0.664577  0.925487  1
  Al  Al6  1  0.005592  0.664577  0.574513  1
  Al  Al7  1  0.335423  0.994408  0.425487  1
  Al  Al8  1  0.994408  0.335423  0.425487  1
  Al  Al9  1  0.664577  0.005592  0.574513  1
  Al  Al10  1  0.664577  0.005592  0.925487  1
  Al  Al11  1  0.335423  0.994408  0.074513  1
  Al  Al12  1  0.340381  0.563324  0.250000  1
  Al  Al13  1  0.659619  0.436676  0.750000  1
  Al  Al14  1  0.563324  0.340381  0.250000  1
  Al  Al15  1  0.436676  0.659619  0.750000  1
  Al  Al16  1  0.329834  0.329834  0.548084  1
  Al  Al17  1  0.670166  0.670166  0.451916  1
  Al  Al18  1  0.670166  0.670166  0.048084  1
  Al  Al19  1  0.329834  0.329834  0.951916  1
  Al  Al20  1  0.121375  0.121375  0.250000  1
  Al  Al21  1  0.878625  0.878625  0.750000  1
  Fe  Fe22  1  0.000000  0.000000  0.000000  1
  Fe  Fe23  1  0.000000  0.000000  0.500000  1
  Co  Co24  1  0.672182  0.327818  0.000000  1
  Co  Co25  1  0.327818  0.672182  0.000000  1
  Co  Co26  1  0.327818  0.672182  0.500000  1
  Co  Co27  1  0.672182  0.327818  0.500000  1
