# generated using pymatgen
data_Eu2Si2TcPt3
_symmetry_space_group_name_H-M   'P 1'
_cell_length_a   9.38861700
_cell_length_b   9.38861718
_cell_length_c   4.16729200
_cell_angle_alpha   90.00000000
_cell_angle_beta   90.00000000
_cell_angle_gamma   154.65894800
_symmetry_Int_Tables_number   1
_chemical_formula_structural   Eu2Si2TcPt3
_chemical_formula_sum   'Eu2 Si2 Tc1 Pt3'
_cell_volume   157.21955356
_cell_formula_units_Z   1
loop_
 _symmetry_equiv_pos_site_id
 _symmetry_equiv_pos_as_xyz
  1  'x, y, z'
loop_
 _atom_site_type_symbol
 _atom_site_label
 _atom_site_symmetry_multiplicity
 _atom_site_fract_x
 _atom_site_fract_y
 _atom_site_fract_z
 _atom_site_occupancy
  Eu  Eu0  1  0.098939  0.901061  0.750000  1
  Eu  Eu1  1  0.901252  0.098748  0.250000  1
  Si  Si2  1  0.320904  0.679096  0.750000  1
  Si  Si3  1  0.679326  0.320674  0.250000  1
  Tc  Tc4  1  0.750382  0.249618  0.750000  1
  Pt  Pt5  1  0.548056  0.451944  0.250000  1
  Pt  Pt6  1  0.451660  0.548340  0.750000  1
  Pt  Pt7  1  0.249479  0.750521  0.250000  1
