# generated using pymatgen
data_TbHo3Al7Ga5
_symmetry_space_group_name_H-M   'P 1'
_cell_length_a   6.13148300
_cell_length_b   6.11060052
_cell_length_c   9.46458701
_cell_angle_alpha   90.00401781
_cell_angle_beta   90.00061986
_cell_angle_gamma   120.11379903
_symmetry_Int_Tables_number   1
_chemical_formula_structural   TbHo3Al7Ga5
_chemical_formula_sum   'Tb1 Ho3 Al7 Ga5'
_cell_volume   306.74858220
_cell_formula_units_Z   1
loop_
 _symmetry_equiv_pos_site_id
 _symmetry_equiv_pos_as_xyz
  1  'x, y, z'
loop_
 _atom_site_type_symbol
 _atom_site_label
 _atom_site_symmetry_multiplicity
 _atom_site_fract_x
 _atom_site_fract_y
 _atom_site_fract_z
 _atom_site_occupancy
  Tb  Tb0  1  0.000593  0.001185  0.501266  1
  Ho  Ho1  1  0.000577  0.001150  0.998768  1
  Ho  Ho2  1  0.332920  0.665835  0.250060  1
  Ho  Ho3  1  0.666727  0.333463  0.749930  1
  Al  Al4  1  0.501136  0.500710  0.499344  1
  Al  Al5  1  0.500460  0.000920  0.500057  1
  Al  Al6  1  0.999575  0.500711  0.499346  1
  Al  Al7  1  0.501121  0.500701  0.000644  1
  Al  Al8  1  0.500455  0.000912  0.999938  1
  Al  Al9  1  0.999580  0.500702  0.000643  1
  Al  Al10  1  0.814821  0.629644  0.249806  1
  Ga  Ga11  1  0.367006  0.182663  0.249802  1
  Ga  Ga12  1  0.815660  0.182657  0.249802  1
  Ga  Ga13  1  0.184030  0.368059  0.750198  1
  Ga  Ga14  1  0.631608  0.815342  0.750197  1
  Ga  Ga15  1  0.183733  0.815344  0.750197  1
