# generated using pymatgen
data_Ca9(Pt2Au)2
_symmetry_space_group_name_H-M   'P 1'
_cell_length_a   7.75166745
_cell_length_b   7.68268438
_cell_length_c   7.76003331
_cell_angle_alpha   70.61423536
_cell_angle_beta   70.19565210
_cell_angle_gamma   70.65139174
_symmetry_Int_Tables_number   1
_chemical_formula_structural   Ca9(Pt2Au)2
_chemical_formula_sum   'Ca9 Pt4 Au2'
_cell_volume   397.48774978
_cell_formula_units_Z   1
loop_
 _symmetry_equiv_pos_site_id
 _symmetry_equiv_pos_as_xyz
  1  'x, y, z'
loop_
 _atom_site_type_symbol
 _atom_site_label
 _atom_site_symmetry_multiplicity
 _atom_site_fract_x
 _atom_site_fract_y
 _atom_site_fract_z
 _atom_site_occupancy
  Ca  Ca0  1  0.006623  0.996579  0.996960  1
  Ca  Ca1  1  0.387662  0.666396  0.148033  1
  Ca  Ca2  1  0.197412  0.198803  0.199574  1
  Ca  Ca3  1  0.860549  0.598529  0.342798  1
  Ca  Ca4  1  0.670423  0.146360  0.412331  1
  Ca  Ca5  1  0.324035  0.848077  0.607301  1
  Ca  Ca6  1  0.161019  0.396053  0.663237  1
  Ca  Ca7  1  0.804719  0.806673  0.793198  1
  Ca  Ca8  1  0.596317  0.334154  0.836578  1
  Pt  Pt9  1  0.048698  0.844128  0.408528  1
  Pt  Pt10  1  0.952965  0.167911  0.587578  1
  Pt  Pt11  1  0.413158  0.044982  0.838058  1
  Pt  Pt12  1  0.155426  0.585855  0.953082  1
  Au  Au13  1  0.831235  0.415090  0.048948  1
  Au  Au14  1  0.589759  0.950409  0.163797  1
