# generated using pymatgen
data_Er3ZrAs6Ru7
_symmetry_space_group_name_H-M   'P 1'
_cell_length_a   7.18446229
_cell_length_b   7.18446268
_cell_length_c   7.19450000
_cell_angle_alpha   109.49952688
_cell_angle_beta   109.49952799
_cell_angle_gamma   109.44289734
_symmetry_Int_Tables_number   1
_chemical_formula_structural   Er3ZrAs6Ru7
_chemical_formula_sum   'Er3 Zr1 As6 Ru7'
_cell_volume   285.76922728
_cell_formula_units_Z   1
loop_
 _symmetry_equiv_pos_site_id
 _symmetry_equiv_pos_as_xyz
  1  'x, y, z'
loop_
 _atom_site_type_symbol
 _atom_site_label
 _atom_site_symmetry_multiplicity
 _atom_site_fract_x
 _atom_site_fract_y
 _atom_site_fract_z
 _atom_site_occupancy
  Er  Er0  1  0.500000  0.000000  0.000000  1
  Er  Er1  1  0.000000  0.500000  0.000000  1
  Er  Er2  1  0.500000  0.500000  0.500000  1
  Zr  Zr3  1  0.000000  0.000000  0.500000  1
  As  As4  1  0.313847  0.000000  0.316074  1
  As  As5  1  0.000000  0.313847  0.316074  1
  As  As6  1  0.000000  0.686153  0.683926  1
  As  As7  1  0.313847  0.313847  0.997773  1
  As  As8  1  0.686153  0.686153  0.002227  1
  As  As9  1  0.686153  0.000000  0.683926  1
  Ru  Ru10  1  0.754461  0.508921  0.254461  1
  Ru  Ru11  1  0.508921  0.754461  0.254461  1
  Ru  Ru12  1  0.491079  0.245539  0.745539  1
  Ru  Ru13  1  0.754461  0.245539  0.500000  1
  Ru  Ru14  1  0.245539  0.754461  0.500000  1
  Ru  Ru15  1  0.245539  0.491079  0.745539  1
  Ru  Ru16  1  0.000000  0.000000  0.000000  1
