# generated using pymatgen
data_Tb8Hf3Si16W9
_symmetry_space_group_name_H-M   'P 1'
_cell_length_a   6.97232360
_cell_length_b   6.97232360
_cell_length_c   12.93771278
_cell_angle_alpha   89.97189793
_cell_angle_beta   90.02810207
_cell_angle_gamma   89.92750774
_symmetry_Int_Tables_number   1
_chemical_formula_structural   Tb8Hf3Si16W9
_chemical_formula_sum   'Tb8 Hf3 Si16 W9'
_cell_volume   628.94421184
_cell_formula_units_Z   1
loop_
 _symmetry_equiv_pos_site_id
 _symmetry_equiv_pos_as_xyz
  1  'x, y, z'
loop_
 _atom_site_type_symbol
 _atom_site_label
 _atom_site_symmetry_multiplicity
 _atom_site_fract_x
 _atom_site_fract_y
 _atom_site_fract_z
 _atom_site_occupancy
  Tb  Tb0  1  0.000858  0.336397  0.216895  1
  Tb  Tb1  1  0.003948  0.662661  0.720363  1
  Tb  Tb2  1  0.162232  0.497901  0.468566  1
  Tb  Tb3  1  0.500273  0.839281  0.030851  1
  Tb  Tb4  1  0.839281  0.500273  0.969149  1
  Tb  Tb5  1  0.497901  0.162232  0.531434  1
  Tb  Tb6  1  0.336397  0.000858  0.783105  1
  Tb  Tb7  1  0.662661  0.003948  0.279637  1
  Hf  Hf8  1  0.832575  0.832575  0.500000  1
  Hf  Hf9  1  0.330816  0.667499  0.247698  1
  Hf  Hf10  1  0.667499  0.330816  0.752302  1
  Si  Si11  1  0.372826  0.295065  0.317455  1
  Si  Si12  1  0.625582  0.706748  0.817580  1
  Si  Si13  1  0.205042  0.873542  0.568057  1
  Si  Si14  1  0.124754  0.802214  0.933745  1
  Si  Si15  1  0.802214  0.124754  0.066255  1
  Si  Si16  1  0.873542  0.205042  0.431943  1
  Si  Si17  1  0.295065  0.372826  0.682545  1
  Si  Si18  1  0.706748  0.625582  0.182420  1
  Si  Si19  1  0.289147  0.043768  0.184270  1
  Si  Si20  1  0.708440  0.959357  0.688600  1
  Si  Si21  1  0.458231  0.790847  0.437651  1
  Si  Si22  1  0.210326  0.532219  0.059153  1
  Si  Si23  1  0.532219  0.210326  0.940847  1
  Si  Si24  1  0.790847  0.458231  0.562349  1
  Si  Si25  1  0.043768  0.289147  0.815730  1
  Si  Si26  1  0.959357  0.708440  0.311400  1
  W  W27  1  0.166391  0.166391  0.000000  1
  W  W28  1  0.161962  0.994838  0.375033  1
  W  W29  1  0.833787  0.005577  0.876830  1
  W  W30  1  0.506065  0.661648  0.626754  1
  W  W31  1  0.340289  0.496897  0.873689  1
  W  W32  1  0.496897  0.340289  0.126311  1
  W  W33  1  0.661648  0.506065  0.373246  1
  W  W34  1  0.994838  0.161962  0.624967  1
  W  W35  1  0.005577  0.833787  0.123170  1
