# generated using pymatgen
data_LaLu19(CoBi5)2
_symmetry_space_group_name_H-M   'P 1'
_cell_length_a   8.02107784
_cell_length_b   9.37061800
_cell_length_c   12.09299800
_cell_angle_alpha   90.00000000
_cell_angle_beta   90.33589437
_cell_angle_gamma   90.00000000
_symmetry_Int_Tables_number   1
_chemical_formula_structural   LaLu19(CoBi5)2
_chemical_formula_sum   'La1 Lu19 Co2 Bi10'
_cell_volume   908.92381489
_cell_formula_units_Z   1
loop_
 _symmetry_equiv_pos_site_id
 _symmetry_equiv_pos_as_xyz
  1  'x, y, z'
loop_
 _atom_site_type_symbol
 _atom_site_label
 _atom_site_symmetry_multiplicity
 _atom_site_fract_x
 _atom_site_fract_y
 _atom_site_fract_z
 _atom_site_occupancy
  La  La0  1  0.577484  0.500000  0.774798  1
  Lu  Lu1  1  0.431798  0.172928  0.561995  1
  Lu  Lu2  1  0.568288  0.826354  0.062344  1
  Lu  Lu3  1  0.074969  0.733701  0.435614  1
  Lu  Lu4  1  0.923462  0.267012  0.936525  1
  Lu  Lu5  1  0.074969  0.266299  0.435614  1
  Lu  Lu6  1  0.923462  0.732988  0.936525  1
  Lu  Lu7  1  0.431798  0.827072  0.561995  1
  Lu  Lu8  1  0.568288  0.173646  0.062344  1
  Lu  Lu9  1  0.428740  0.500000  0.271722  1
  Lu  Lu10  1  0.903291  0.000000  0.199423  1
  Lu  Lu11  1  0.096893  0.000000  0.695655  1
  Lu  Lu12  1  0.253688  0.500000  0.992817  1
  Lu  Lu13  1  0.746847  0.500000  0.491685  1
  Lu  Lu14  1  0.188392  0.000000  0.997564  1
  Lu  Lu15  1  0.807120  0.000000  0.493683  1
  Lu  Lu16  1  0.087958  0.500000  0.718734  1
  Lu  Lu17  1  0.912407  0.500000  0.224203  1
  Lu  Lu18  1  0.368346  0.000000  0.310239  1
  Lu  Lu19  1  0.633789  0.000000  0.810404  1
  Co  Co20  1  0.178920  0.000000  0.487491  1
  Co  Co21  1  0.821500  0.000000  0.990835  1
  Bi  Bi22  1  0.821375  0.746801  0.667273  1
  Bi  Bi23  1  0.186224  0.260005  0.171673  1
  Bi  Bi24  1  0.679307  0.241355  0.325500  1
  Bi  Bi25  1  0.312787  0.762835  0.827060  1
  Bi  Bi26  1  0.679307  0.758645  0.325500  1
  Bi  Bi27  1  0.312787  0.237165  0.827060  1
  Bi  Bi28  1  0.821375  0.253199  0.667273  1
  Bi  Bi29  1  0.186224  0.739995  0.171673  1
  Bi  Bi30  1  0.347580  0.500000  0.525581  1
  Bi  Bi31  1  0.650631  0.500000  0.039199  1
