# generated using pymatgen
data_Nd3DyTm4(CdIr)2
_symmetry_space_group_name_H-M   'P 1'
_cell_length_a   9.68733874
_cell_length_b   9.68733885
_cell_length_c   9.69049400
_cell_angle_alpha   59.98922540
_cell_angle_beta   59.98922501
_cell_angle_gamma   59.96408529
_symmetry_Int_Tables_number   1
_chemical_formula_structural   Nd3DyTm4(CdIr)2
_chemical_formula_sum   'Nd6 Dy2 Tm8 Cd4 Ir4'
_cell_volume   642.76344299
_cell_formula_units_Z   2
loop_
 _symmetry_equiv_pos_site_id
 _symmetry_equiv_pos_as_xyz
  1  'x, y, z'
loop_
 _atom_site_type_symbol
 _atom_site_label
 _atom_site_symmetry_multiplicity
 _atom_site_fract_x
 _atom_site_fract_y
 _atom_site_fract_z
 _atom_site_occupancy
  Nd  Nd0  1  0.941055  0.558716  0.558732  1
  Nd  Nd1  1  0.558716  0.941055  0.941498  1
  Nd  Nd2  1  0.558716  0.941055  0.558732  1
  Nd  Nd3  1  0.941055  0.558716  0.941498  1
  Nd  Nd4  1  0.559293  0.559293  0.940707  1
  Nd  Nd5  1  0.941853  0.941853  0.558147  1
  Dy  Dy6  1  0.347799  0.347799  0.347138  1
  Dy  Dy7  1  0.347799  0.347799  0.957264  1
  Tm  Tm8  1  0.347502  0.958862  0.346818  1
  Tm  Tm9  1  0.958862  0.347502  0.346818  1
  Tm  Tm10  1  0.813285  0.185786  0.187171  1
  Tm  Tm11  1  0.185786  0.813285  0.813757  1
  Tm  Tm12  1  0.185786  0.813285  0.187171  1
  Tm  Tm13  1  0.813285  0.185786  0.813757  1
  Tm  Tm14  1  0.186174  0.186174  0.813826  1
  Tm  Tm15  1  0.813306  0.813306  0.186694  1
  Cd  Cd16  1  0.579486  0.579486  0.578898  1
  Cd  Cd17  1  0.579486  0.579486  0.262127  1
  Cd  Cd18  1  0.579791  0.261627  0.579290  1
  Cd  Cd19  1  0.261627  0.579791  0.579290  1
  Ir  Ir20  1  0.140715  0.140715  0.141770  1
  Ir  Ir21  1  0.140715  0.140715  0.576799  1
  Ir  Ir22  1  0.140135  0.577769  0.141048  1
  Ir  Ir23  1  0.577769  0.140135  0.141048  1
