# generated using pymatgen
data_Ce8TaS17
_symmetry_space_group_name_H-M   'P 1'
_cell_length_a   7.91622864
_cell_length_b   7.91623007
_cell_length_c   10.52491100
_cell_angle_alpha   80.77697114
_cell_angle_beta   80.77696946
_cell_angle_gamma   65.05139764
_symmetry_Int_Tables_number   1
_chemical_formula_structural   Ce8TaS17
_chemical_formula_sum   'Ce8 Ta1 S17'
_cell_volume   587.11106276
_cell_formula_units_Z   1
loop_
 _symmetry_equiv_pos_site_id
 _symmetry_equiv_pos_as_xyz
  1  'x, y, z'
loop_
 _atom_site_type_symbol
 _atom_site_label
 _atom_site_symmetry_multiplicity
 _atom_site_fract_x
 _atom_site_fract_y
 _atom_site_fract_z
 _atom_site_occupancy
  Ce  Ce0  1  0.188005  0.694083  0.701373  1
  Ce  Ce1  1  0.694083  0.188005  0.701373  1
  Ce  Ce2  1  0.811995  0.305917  0.298627  1
  Ce  Ce3  1  0.305917  0.811995  0.298627  1
  Ce  Ce4  1  0.792733  0.792733  0.459030  1
  Ce  Ce5  1  0.207267  0.207267  0.540970  1
  Ce  Ce6  1  0.317812  0.317812  0.022221  1
  Ce  Ce7  1  0.682188  0.682188  0.977779  1
  Ta  Ta8  1  0.000000  0.000000  0.000000  1
  S  S9  1  0.177746  0.569299  0.466037  1
  S  S10  1  0.569299  0.177746  0.466037  1
  S  S11  1  0.822254  0.430701  0.533963  1
  S  S12  1  0.430701  0.822254  0.533963  1
  S  S13  1  0.061396  0.678271  0.973161  1
  S  S14  1  0.678271  0.061396  0.973161  1
  S  S15  1  0.938604  0.321729  0.026839  1
  S  S16  1  0.321729  0.938604  0.026839  1
  S  S17  1  0.791401  0.791401  0.723447  1
  S  S18  1  0.208599  0.208599  0.276553  1
  S  S19  1  0.937643  0.937643  0.228393  1
  S  S20  1  0.062357  0.062357  0.771607  1
  S  S21  1  0.699104  0.699104  0.242017  1
  S  S22  1  0.300896  0.300896  0.757983  1
  S  S23  1  0.480292  0.480292  0.166644  1
  S  S24  1  0.519708  0.519708  0.833356  1
  S  S25  1  0.000000  0.000000  0.500000  1
