# generated using pymatgen
data_Er5Co16(MoAs4)3
_symmetry_space_group_name_H-M   'P 1'
_cell_length_a   12.48408700
_cell_length_b   12.48408670
_cell_length_c   3.81340500
_cell_angle_alpha   90.00000000
_cell_angle_beta   90.00000000
_cell_angle_gamma   119.99999286
_symmetry_Int_Tables_number   1
_chemical_formula_structural   Er5Co16(MoAs4)3
_chemical_formula_sum   'Er5 Co16 Mo3 As12'
_cell_volume   514.70354226
_cell_formula_units_Z   1
loop_
 _symmetry_equiv_pos_site_id
 _symmetry_equiv_pos_as_xyz
  1  'x, y, z'
loop_
 _atom_site_type_symbol
 _atom_site_label
 _atom_site_symmetry_multiplicity
 _atom_site_fract_x
 _atom_site_fract_y
 _atom_site_fract_z
 _atom_site_occupancy
  Er  Er0  1  0.666667  0.333333  0.000000  1
  Er  Er1  1  0.333333  0.666667  0.000000  1
  Er  Er2  1  0.184429  0.184429  0.500000  1
  Er  Er3  1  0.815571  0.000000  0.500000  1
  Er  Er4  1  0.000000  0.815571  0.500000  1
  Co  Co5  1  0.823441  0.198868  0.000000  1
  Co  Co6  1  0.801132  0.624573  0.000000  1
  Co  Co7  1  0.375427  0.176559  0.000000  1
  Co  Co8  1  0.198868  0.823441  0.000000  1
  Co  Co9  1  0.624573  0.801132  0.000000  1
  Co  Co10  1  0.176559  0.375427  0.000000  1
  Co  Co11  1  0.645329  0.125792  0.500000  1
  Co  Co12  1  0.874208  0.519538  0.500000  1
  Co  Co13  1  0.480462  0.354671  0.500000  1
  Co  Co14  1  0.125792  0.645329  0.500000  1
  Co  Co15  1  0.519538  0.874208  0.500000  1
  Co  Co16  1  0.354671  0.480462  0.500000  1
  Co  Co17  1  0.718037  0.718037  0.500000  1
  Co  Co18  1  0.281963  0.000000  0.500000  1
  Co  Co19  1  0.000000  0.281963  0.500000  1
  Co  Co20  1  0.000000  0.000000  0.000000  1
  Mo  Mo21  1  0.555318  0.555318  0.000000  1
  Mo  Mo22  1  0.444682  0.000000  0.000000  1
  Mo  Mo23  1  0.000000  0.444682  0.000000  1
  As  As24  1  0.358726  0.358726  0.000000  1
  As  As25  1  0.641274  0.000000  0.000000  1
  As  As26  1  0.000000  0.641274  0.000000  1
  As  As27  1  0.833081  0.315870  0.500000  1
  As  As28  1  0.684130  0.517211  0.500000  1
  As  As29  1  0.482789  0.166919  0.500000  1
  As  As30  1  0.315870  0.833081  0.500000  1
  As  As31  1  0.517211  0.684130  0.500000  1
  As  As32  1  0.166919  0.482789  0.500000  1
  As  As33  1  0.822434  0.822434  0.000000  1
  As  As34  1  0.177566  0.000000  0.000000  1
  As  As35  1  0.000000  0.177566  0.000000  1
