# generated using pymatgen
data_NiHOF
_symmetry_space_group_name_H-M   'P 1'
_cell_length_a   3.11681261
_cell_length_b   3.11681253
_cell_length_c   4.97580506
_cell_angle_alpha   74.45095564
_cell_angle_beta   74.45095824
_cell_angle_gamma   59.86097284
_symmetry_Int_Tables_number   1
_chemical_formula_structural   NiHOF
_chemical_formula_sum   'Ni1 H1 O1 F1'
_cell_volume   39.75274735
_cell_formula_units_Z   1
loop_
 _symmetry_equiv_pos_site_id
 _symmetry_equiv_pos_as_xyz
  1  'x, y, z'
loop_
 _atom_site_type_symbol
 _atom_site_label
 _atom_site_symmetry_multiplicity
 _atom_site_fract_x
 _atom_site_fract_y
 _atom_site_fract_z
 _atom_site_occupancy
  Ni  Ni0  1  0.014100  0.014100  0.954493  1
  H  H1  1  0.470498  0.470498  0.554550  1
  O  O2  1  0.402276  0.402276  0.762432  1
  F  F3  1  0.613126  0.613126  0.195275  1
