# generated using pymatgen
data_Cs5Tm(PSe3)4
_symmetry_space_group_name_H-M   'P 1'
_cell_length_a   14.24338700
_cell_length_b   14.24338700
_cell_length_c   7.76650400
_cell_angle_alpha   90.00000000
_cell_angle_beta   90.00000000
_cell_angle_gamma   90.00000000
_symmetry_Int_Tables_number   1
_chemical_formula_structural   Cs5Tm(PSe3)4
_chemical_formula_sum   'Cs10 Tm2 P8 Se24'
_cell_volume   1575.62230125
_cell_formula_units_Z   2
loop_
 _symmetry_equiv_pos_site_id
 _symmetry_equiv_pos_as_xyz
  1  'x, y, z'
loop_
 _atom_site_type_symbol
 _atom_site_label
 _atom_site_symmetry_multiplicity
 _atom_site_fract_x
 _atom_site_fract_y
 _atom_site_fract_z
 _atom_site_occupancy
  Cs  Cs0  1  0.000000  0.000000  0.500000  1
  Cs  Cs1  1  0.000000  0.000000  0.000000  1
  Cs  Cs2  1  0.317939  0.341997  0.500000  1
  Cs  Cs3  1  0.682061  0.658003  0.500000  1
  Cs  Cs4  1  0.658003  0.317939  0.000000  1
  Cs  Cs5  1  0.341997  0.682061  0.000000  1
  Cs  Cs6  1  0.320681  0.968080  0.500000  1
  Cs  Cs7  1  0.679319  0.031920  0.500000  1
  Cs  Cs8  1  0.031920  0.320681  0.000000  1
  Cs  Cs9  1  0.968080  0.679319  0.000000  1
  Tm  Tm10  1  0.000000  0.500000  0.500000  1
  Tm  Tm11  1  0.500000  0.000000  0.000000  1
  P  P12  1  0.201396  0.608253  0.500000  1
  P  P13  1  0.798604  0.391747  0.500000  1
  P  P14  1  0.391747  0.201396  0.000000  1
  P  P15  1  0.608253  0.798604  0.000000  1
  P  P16  1  0.114927  0.745119  0.500000  1
  P  P17  1  0.885073  0.254881  0.500000  1
  P  P18  1  0.254881  0.114927  0.000000  1
  P  P19  1  0.745119  0.885073  0.000000  1
  Se  Se20  1  0.150581  0.819776  0.263123  1
  Se  Se21  1  0.849419  0.180224  0.263123  1
  Se  Se22  1  0.180224  0.150581  0.763123  1
  Se  Se23  1  0.819776  0.849419  0.763123  1
  Se  Se24  1  0.849419  0.180224  0.736877  1
  Se  Se25  1  0.150581  0.819776  0.736877  1
  Se  Se26  1  0.819776  0.849419  0.236877  1
  Se  Se27  1  0.180224  0.150581  0.236877  1
  Se  Se28  1  0.034215  0.305684  0.500000  1
  Se  Se29  1  0.965785  0.694316  0.500000  1
  Se  Se30  1  0.694316  0.034215  0.000000  1
  Se  Se31  1  0.305684  0.965785  0.000000  1
  Se  Se32  1  0.349988  0.633985  0.500000  1
  Se  Se33  1  0.650012  0.366015  0.500000  1
  Se  Se34  1  0.366015  0.349988  0.000000  1
  Se  Se35  1  0.633985  0.650012  0.000000  1
  Se  Se36  1  0.151394  0.530135  0.266290  1
  Se  Se37  1  0.848606  0.469865  0.266290  1
  Se  Se38  1  0.469865  0.151394  0.766290  1
  Se  Se39  1  0.530135  0.848606  0.766290  1
  Se  Se40  1  0.848606  0.469865  0.733710  1
  Se  Se41  1  0.151394  0.530135  0.733710  1
  Se  Se42  1  0.530135  0.848606  0.233710  1
  Se  Se43  1  0.469865  0.151394  0.233710  1
