# generated using pymatgen
data_Sr21Al8Sn6I
_symmetry_space_group_name_H-M   'P 1'
_cell_length_a   12.26560566
_cell_length_b   12.26560668
_cell_length_c   12.26560600
_cell_angle_alpha   60.00000182
_cell_angle_beta   59.99999909
_cell_angle_gamma   59.99999901
_symmetry_Int_Tables_number   1
_chemical_formula_structural   Sr21Al8Sn6I
_chemical_formula_sum   'Sr21 Al8 Sn6 I1'
_cell_volume   1304.82432385
_cell_formula_units_Z   1
loop_
 _symmetry_equiv_pos_site_id
 _symmetry_equiv_pos_as_xyz
  1  'x, y, z'
loop_
 _atom_site_type_symbol
 _atom_site_label
 _atom_site_symmetry_multiplicity
 _atom_site_fract_x
 _atom_site_fract_y
 _atom_site_fract_z
 _atom_site_occupancy
  Sr  Sr0  1  0.870957  0.870957  0.387127  1
  Sr  Sr1  1  0.612873  0.129043  0.129043  1
  Sr  Sr2  1  0.870957  0.387127  0.870957  1
  Sr  Sr3  1  0.129043  0.129043  0.129043  1
  Sr  Sr4  1  0.387127  0.870957  0.870957  1
  Sr  Sr5  1  0.870957  0.870957  0.870957  1
  Sr  Sr6  1  0.168427  0.831573  0.500000  1
  Sr  Sr7  1  0.831573  0.500000  0.500000  1
  Sr  Sr8  1  0.129043  0.129043  0.612873  1
  Sr  Sr9  1  0.831573  0.168427  0.500000  1
  Sr  Sr10  1  0.168427  0.500000  0.500000  1
  Sr  Sr11  1  0.129043  0.612873  0.129043  1
  Sr  Sr12  1  0.500000  0.500000  0.168427  1
  Sr  Sr13  1  0.500000  0.168427  0.831573  1
  Sr  Sr14  1  0.500000  0.831573  0.168427  1
  Sr  Sr15  1  0.500000  0.500000  0.831573  1
  Sr  Sr16  1  0.500000  0.168427  0.500000  1
  Sr  Sr17  1  0.168427  0.500000  0.831573  1
  Sr  Sr18  1  0.000000  0.000000  0.000000  1
  Sr  Sr19  1  0.500000  0.831573  0.500000  1
  Sr  Sr20  1  0.831573  0.500000  0.168427  1
  Al  Al21  1  0.694426  0.916724  0.694426  1
  Al  Al22  1  0.694426  0.694426  0.916724  1
  Al  Al23  1  0.694426  0.694426  0.694426  1
  Al  Al24  1  0.305574  0.083276  0.305574  1
  Al  Al25  1  0.916724  0.694426  0.694426  1
  Al  Al26  1  0.305574  0.305574  0.083276  1
  Al  Al27  1  0.083276  0.305574  0.305574  1
  Al  Al28  1  0.305574  0.305574  0.305574  1
  Sn  Sn29  1  0.783814  0.216186  0.783814  1
  Sn  Sn30  1  0.783814  0.216186  0.216186  1
  Sn  Sn31  1  0.216186  0.783814  0.216186  1
  Sn  Sn32  1  0.216186  0.783814  0.783814  1
  Sn  Sn33  1  0.783814  0.783814  0.216186  1
  Sn  Sn34  1  0.216186  0.216186  0.783814  1
  I  I35  1  0.500000  0.500000  0.500000  1
