# generated using pymatgen
data_Cs8Li4AlIn3As8
_symmetry_space_group_name_H-M   'P 1'
_cell_length_a   10.99938413
_cell_length_b   10.99940641
_cell_length_c   6.59410305
_cell_angle_alpha   90.06538580
_cell_angle_beta   89.93464024
_cell_angle_gamma   106.46386009
_symmetry_Int_Tables_number   1
_chemical_formula_structural   Cs8Li4AlIn3As8
_chemical_formula_sum   'Cs8 Li4 Al1 In3 As8'
_cell_volume   765.08717252
_cell_formula_units_Z   1
loop_
 _symmetry_equiv_pos_site_id
 _symmetry_equiv_pos_as_xyz
  1  'x, y, z'
loop_
 _atom_site_type_symbol
 _atom_site_label
 _atom_site_symmetry_multiplicity
 _atom_site_fract_x
 _atom_site_fract_y
 _atom_site_fract_z
 _atom_site_occupancy
  Cs  Cs0  1  0.078008  0.421648  0.745796  1
  Cs  Cs1  1  0.668589  0.326836  0.777057  1
  Cs  Cs2  1  0.326836  0.668588  0.222943  1
  Cs  Cs3  1  0.577498  0.925193  0.751279  1
  Cs  Cs4  1  0.421649  0.078008  0.254203  1
  Cs  Cs5  1  0.925193  0.577498  0.248721  1
  Cs  Cs6  1  0.829037  0.171996  0.280438  1
  Cs  Cs7  1  0.171997  0.829038  0.719563  1
  Li  Li8  1  0.120380  0.120379  0.500000  1
  Li  Li9  1  0.881168  0.881167  0.500000  1
  Li  Li10  1  0.375838  0.375837  0.000001  1
  Li  Li11  1  0.620750  0.620749  0.000000  1
  Al  Al12  1  0.129864  0.129865  0.000001  1
  In  In13  1  0.870900  0.870900  0.999999  1
  In  In14  1  0.364457  0.364457  0.500001  1
  In  In15  1  0.631679  0.631679  0.500000  1
  As  As16  1  0.838994  0.662819  0.749764  1
  As  As17  1  0.091220  0.927062  0.216578  1
  As  As18  1  0.414077  0.584895  0.725856  1
  As  As19  1  0.584896  0.414078  0.274143  1
  As  As20  1  0.662819  0.838994  0.250236  1
  As  As21  1  0.161551  0.325542  0.235525  1
  As  As22  1  0.325541  0.161552  0.764476  1
  As  As23  1  0.927060  0.091220  0.783421  1
