# generated using pymatgen
data_Nb16AlSi3Te16
_symmetry_space_group_name_H-M   'P 1'
_cell_length_a   4.88647700
_cell_length_b   10.81799381
_cell_length_c   18.81652940
_cell_angle_alpha   89.95567907
_cell_angle_beta   90.00000000
_cell_angle_gamma   90.00000000
_symmetry_Int_Tables_number   1
_chemical_formula_structural   Nb16AlSi3Te16
_chemical_formula_sum   'Nb16 Al1 Si3 Te16'
_cell_volume   994.67678309
_cell_formula_units_Z   1
loop_
 _symmetry_equiv_pos_site_id
 _symmetry_equiv_pos_as_xyz
  1  'x, y, z'
loop_
 _atom_site_type_symbol
 _atom_site_label
 _atom_site_symmetry_multiplicity
 _atom_site_fract_x
 _atom_site_fract_y
 _atom_site_fract_z
 _atom_site_occupancy
  Nb  Nb0  1  0.501517  0.565953  0.380530  1
  Nb  Nb1  1  0.501517  0.434047  0.619470  1
  Nb  Nb2  1  0.500076  0.065012  0.117906  1
  Nb  Nb3  1  0.500076  0.934988  0.882094  1
  Nb  Nb4  1  0.501305  0.708738  0.537255  1
  Nb  Nb5  1  0.501305  0.291262  0.462745  1
  Nb  Nb6  1  0.500049  0.205866  0.962987  1
  Nb  Nb7  1  0.500049  0.794134  0.037013  1
  Nb  Nb8  1  0.998842  0.694049  0.441531  1
  Nb  Nb9  1  0.998842  0.305951  0.558469  1
  Nb  Nb10  1  0.000062  0.191175  0.057448  1
  Nb  Nb11  1  0.000062  0.808825  0.942552  1
  Nb  Nb12  1  0.998310  0.399116  0.388999  1
  Nb  Nb13  1  0.998310  0.600884  0.611001  1
  Nb  Nb14  1  0.000011  0.900329  0.109627  1
  Nb  Nb15  1  0.000011  0.099671  0.890373  1
  Al  Al16  1  0.249944  0.500000  0.500000  1
  Si  Si17  1  0.750083  0.000000  0.000000  1
  Si  Si18  1  0.749971  0.500000  0.500000  1
  Si  Si19  1  0.250046  0.000000  0.000000  1
  Te  Te20  1  0.001092  0.851891  0.563357  1
  Te  Te21  1  0.001092  0.148109  0.436643  1
  Te  Te22  1  0.000019  0.350354  0.936469  1
  Te  Te23  1  0.000019  0.649646  0.063531  1
  Te  Te24  1  0.498085  0.330479  0.312900  1
  Te  Te25  1  0.498085  0.669521  0.687100  1
  Te  Te26  1  0.499991  0.831000  0.186640  1
  Te  Te27  1  0.499991  0.169000  0.813360  1
  Te  Te28  1  0.498614  0.827591  0.401590  1
  Te  Te29  1  0.498614  0.172409  0.598410  1
  Te  Te30  1  0.500113  0.326341  0.097822  1
  Te  Te31  1  0.500113  0.673659  0.902178  1
  Te  Te32  1  0.001843  0.609638  0.297980  1
  Te  Te33  1  0.001843  0.390362  0.702020  1
  Te  Te34  1  0.000051  0.108902  0.201260  1
  Te  Te35  1  0.000051  0.891098  0.798740  1
