# generated using pymatgen
data_Nd8NiHg2Os
_symmetry_space_group_name_H-M   'P 1'
_cell_length_a   9.86608140
_cell_length_b   9.86608072
_cell_length_c   9.97207500
_cell_angle_alpha   59.64397689
_cell_angle_beta   59.64397919
_cell_angle_gamma   59.69416267
_symmetry_Int_Tables_number   1
_chemical_formula_structural   Nd8NiHg2Os
_chemical_formula_sum   'Nd16 Ni2 Hg4 Os2'
_cell_volume   681.08101598
_cell_formula_units_Z   2
loop_
 _symmetry_equiv_pos_site_id
 _symmetry_equiv_pos_as_xyz
  1  'x, y, z'
loop_
 _atom_site_type_symbol
 _atom_site_label
 _atom_site_symmetry_multiplicity
 _atom_site_fract_x
 _atom_site_fract_y
 _atom_site_fract_z
 _atom_site_occupancy
  Nd  Nd0  1  0.601098  0.601098  0.595975  1
  Nd  Nd1  1  0.601098  0.601098  0.201830  1
  Nd  Nd2  1  0.599892  0.205107  0.597501  1
  Nd  Nd3  1  0.205107  0.599892  0.597501  1
  Nd  Nd4  1  0.059860  0.437188  0.442789  1
  Nd  Nd5  1  0.437188  0.059860  0.060163  1
  Nd  Nd6  1  0.437188  0.059860  0.442789  1
  Nd  Nd7  1  0.059860  0.437188  0.060163  1
  Nd  Nd8  1  0.440182  0.440182  0.059818  1
  Nd  Nd9  1  0.055393  0.055393  0.444607  1
  Nd  Nd10  1  0.190049  0.804498  0.815707  1
  Nd  Nd11  1  0.804498  0.190049  0.189747  1
  Nd  Nd12  1  0.804498  0.190049  0.815707  1
  Nd  Nd13  1  0.190049  0.804498  0.189747  1
  Nd  Nd14  1  0.814303  0.814303  0.185697  1
  Nd  Nd15  1  0.190595  0.190595  0.809405  1
  Ni  Ni16  1  0.395475  0.826527  0.388999  1
  Ni  Ni17  1  0.826527  0.395475  0.388999  1
  Hg  Hg18  1  0.833097  0.833097  0.834298  1
  Hg  Hg19  1  0.833097  0.833097  0.499510  1
  Hg  Hg20  1  0.833713  0.499509  0.833389  1
  Hg  Hg21  1  0.499509  0.833713  0.833389  1
  Os  Os22  1  0.393864  0.393864  0.386446  1
  Os  Os23  1  0.393864  0.393864  0.825826  1
