# generated using pymatgen
data_HoLu7Ti11Si16Mo
_symmetry_space_group_name_H-M   'P 1'
_cell_length_a   6.98053890
_cell_length_b   6.98217123
_cell_length_c   12.81995745
_cell_angle_alpha   89.92847971
_cell_angle_beta   90.04953444
_cell_angle_gamma   89.99497342
_symmetry_Int_Tables_number   1
_chemical_formula_structural   HoLu7Ti11Si16Mo
_chemical_formula_sum   'Ho1 Lu7 Ti11 Si16 Mo1'
_cell_volume   624.83525892
_cell_formula_units_Z   1
loop_
 _symmetry_equiv_pos_site_id
 _symmetry_equiv_pos_as_xyz
  1  'x, y, z'
loop_
 _atom_site_type_symbol
 _atom_site_label
 _atom_site_symmetry_multiplicity
 _atom_site_fract_x
 _atom_site_fract_y
 _atom_site_fract_z
 _atom_site_occupancy
  Ho  Ho0  1  0.997870  0.658092  0.032921  1
  Lu  Lu1  1  0.341143  0.002407  0.467124  1
  Lu  Lu2  1  0.497586  0.840895  0.717212  1
  Lu  Lu3  1  0.500913  0.159169  0.216282  1
  Lu  Lu4  1  0.840749  0.497543  0.282850  1
  Lu  Lu5  1  0.159333  0.500921  0.783821  1
  Lu  Lu6  1  0.657339  0.999164  0.966943  1
  Lu  Lu7  1  0.002486  0.341184  0.532875  1
  Ti  Ti8  1  0.173821  0.827606  0.249901  1
  Ti  Ti9  1  0.827262  0.173710  0.750122  1
  Ti  Ti10  1  0.673089  0.673138  0.499966  1
  Ti  Ti11  1  0.152465  0.007615  0.875613  1
  Ti  Ti12  1  0.492803  0.650419  0.124620  1
  Ti  Ti13  1  0.506362  0.349760  0.625907  1
  Ti  Ti14  1  0.650282  0.492201  0.875170  1
  Ti  Ti15  1  0.349973  0.506363  0.374285  1
  Ti  Ti16  1  0.849332  0.993584  0.375799  1
  Ti  Ti17  1  0.007801  0.152476  0.124203  1
  Ti  Ti18  1  0.993356  0.849444  0.624276  1
  Si  Si19  1  0.203140  0.132505  0.682836  1
  Si  Si20  1  0.369241  0.702853  0.932633  1
  Si  Si21  1  0.632460  0.296664  0.432952  1
  Si  Si22  1  0.701407  0.366915  0.066924  1
  Si  Si23  1  0.296729  0.632521  0.567106  1
  Si  Si24  1  0.795893  0.868743  0.184055  1
  Si  Si25  1  0.132546  0.202993  0.317217  1
  Si  Si26  1  0.867454  0.797113  0.816330  1
  Si  Si27  1  0.293210  0.954347  0.064894  1
  Si  Si28  1  0.546145  0.793181  0.315169  1
  Si  Si29  1  0.452686  0.206711  0.815104  1
  Si  Si30  1  0.793130  0.546481  0.684849  1
  Si  Si31  1  0.207629  0.451891  0.185350  1
  Si  Si32  1  0.707071  0.047040  0.564855  1
  Si  Si33  1  0.953127  0.290951  0.934756  1
  Si  Si34  1  0.047028  0.707138  0.435139  1
  Mo  Mo35  1  0.327140  0.326266  0.999939  1
