# generated using pymatgen
data_Y12Tc2Ni3Bi
_symmetry_space_group_name_H-M   'P 1'
_cell_length_a   8.42393555
_cell_length_b   8.42422798
_cell_length_c   8.42393482
_cell_angle_alpha   111.10212937
_cell_angle_beta   111.59089938
_cell_angle_gamma   105.78152053
_symmetry_Int_Tables_number   1
_chemical_formula_structural   Y12Tc2Ni3Bi
_chemical_formula_sum   'Y12 Tc2 Ni3 Bi1'
_cell_volume   458.77062884
_cell_formula_units_Z   1
loop_
 _symmetry_equiv_pos_site_id
 _symmetry_equiv_pos_as_xyz
  1  'x, y, z'
loop_
 _atom_site_type_symbol
 _atom_site_label
 _atom_site_symmetry_multiplicity
 _atom_site_fract_x
 _atom_site_fract_y
 _atom_site_fract_z
 _atom_site_occupancy
  Y  Y0  1  0.273087  0.183210  0.456252  1
  Y  Y1  1  0.723546  0.818713  0.542230  1
  Y  Y2  1  0.276483  0.818713  0.095166  1
  Y  Y3  1  0.726957  0.183210  0.910124  1
  Y  Y4  1  0.617376  0.305902  0.300360  1
  Y  Y5  1  0.382669  0.682965  0.688612  1
  Y  Y6  1  0.005542  0.305902  0.688526  1
  Y  Y7  1  0.994353  0.682965  0.300296  1
  Y  Y8  1  0.221399  0.413468  0.192070  1
  Y  Y9  1  0.781187  0.584759  0.803571  1
  Y  Y10  1  0.218847  0.022428  0.803581  1
  Y  Y11  1  0.778629  0.970707  0.192078  1
  Tc  Tc12  1  0.999998  0.383630  0.383632  1
  Tc  Tc13  1  0.000008  0.000193  0.000184  1
  Ni  Ni14  1  0.000024  0.645999  0.645976  1
  Ni  Ni15  1  0.387275  0.886849  0.499575  1
  Ni  Ni16  1  0.612607  0.112196  0.499589  1
  Bi  Bi17  1  0.500013  0.498191  0.998178  1
