# generated using pymatgen
data_Y13Ho3(InPt)4
_symmetry_space_group_name_H-M   'P 1'
_cell_length_a   9.75632814
_cell_length_b   9.76576021
_cell_length_c   9.76573874
_cell_angle_alpha   59.82728503
_cell_angle_beta   59.76390484
_cell_angle_gamma   59.76377674
_symmetry_Int_Tables_number   1
_chemical_formula_structural   Y13Ho3(InPt)4
_chemical_formula_sum   'Y13 Ho3 In4 Pt4'
_cell_volume   654.72217248
_cell_formula_units_Z   1
loop_
 _symmetry_equiv_pos_site_id
 _symmetry_equiv_pos_as_xyz
  1  'x, y, z'
loop_
 _atom_site_type_symbol
 _atom_site_label
 _atom_site_symmetry_multiplicity
 _atom_site_fract_x
 _atom_site_fract_y
 _atom_site_fract_z
 _atom_site_occupancy
  Y  Y0  1  0.944585  0.351264  0.351260  1
  Y  Y1  1  0.810854  0.190157  0.190151  1
  Y  Y2  1  0.192675  0.808647  0.808645  1
  Y  Y3  1  0.190482  0.810387  0.190742  1
  Y  Y4  1  0.809159  0.192032  0.809190  1
  Y  Y5  1  0.190485  0.190738  0.810387  1
  Y  Y6  1  0.809158  0.809185  0.192036  1
  Y  Y7  1  0.935876  0.562914  0.562920  1
  Y  Y8  1  0.560336  0.939287  0.939287  1
  Y  Y9  1  0.562015  0.936533  0.562297  1
  Y  Y10  1  0.938864  0.561190  0.938542  1
  Y  Y11  1  0.562003  0.562303  0.936535  1
  Y  Y12  1  0.938862  0.938550  0.561186  1
  Ho  Ho13  1  0.349720  0.349871  0.349869  1
  Ho  Ho14  1  0.350345  0.350391  0.947269  1
  Ho  Ho15  1  0.350351  0.947265  0.350395  1
  In  In16  1  0.584225  0.584499  0.584510  1
  In  In17  1  0.582708  0.583215  0.250514  1
  In  In18  1  0.582713  0.250516  0.583210  1
  In  In19  1  0.251146  0.582758  0.582757  1
  Pt  Pt20  1  0.145396  0.142738  0.142740  1
  Pt  Pt21  1  0.144407  0.142107  0.570224  1
  Pt  Pt22  1  0.144415  0.570218  0.142103  1
  Pt  Pt23  1  0.569221  0.143237  0.143231  1
