# generated using pymatgen
data_Ce2PrTh5(Si3Pd)4
_symmetry_space_group_name_H-M   'P 1'
_cell_length_a   8.25234200
_cell_length_b   8.25161694
_cell_length_c   8.50190800
_cell_angle_alpha   90.00000000
_cell_angle_beta   90.00000000
_cell_angle_gamma   120.00291472
_symmetry_Int_Tables_number   1
_chemical_formula_structural   Ce2PrTh5(Si3Pd)4
_chemical_formula_sum   'Ce2 Pr1 Th5 Si12 Pd4'
_cell_volume   501.36100647
_cell_formula_units_Z   1
loop_
 _symmetry_equiv_pos_site_id
 _symmetry_equiv_pos_as_xyz
  1  'x, y, z'
loop_
 _atom_site_type_symbol
 _atom_site_label
 _atom_site_symmetry_multiplicity
 _atom_site_fract_x
 _atom_site_fract_y
 _atom_site_fract_z
 _atom_site_occupancy
  Ce  Ce0  1  0.000079  0.000159  0.750000  1
  Ce  Ce1  1  0.000115  0.000229  0.250000  1
  Pr  Pr2  1  0.500482  0.000964  0.250000  1
  Th  Th3  1  0.499423  0.500094  0.750000  1
  Th  Th4  1  0.499997  0.499470  0.250000  1
  Th  Th5  1  0.000671  0.500094  0.750000  1
  Th  Th6  1  0.999473  0.499470  0.250000  1
  Th  Th7  1  0.499665  0.999330  0.750000  1
  Si  Si8  1  0.835476  0.165439  0.998996  1
  Si  Si9  1  0.164541  0.834572  0.999476  1
  Si  Si10  1  0.329963  0.165439  0.998996  1
  Si  Si11  1  0.164541  0.834572  0.500524  1
  Si  Si12  1  0.670031  0.834572  0.999476  1
  Si  Si13  1  0.835476  0.165439  0.501004  1
  Si  Si14  1  0.835394  0.670789  0.999776  1
  Si  Si15  1  0.670031  0.834572  0.500524  1
  Si  Si16  1  0.164630  0.329261  0.000028  1
  Si  Si17  1  0.329963  0.165439  0.501004  1
  Si  Si18  1  0.164630  0.329261  0.499972  1
  Si  Si19  1  0.835394  0.670789  0.500224  1
  Pd  Pd20  1  0.667066  0.334130  0.996736  1
  Pd  Pd21  1  0.332946  0.665894  0.999767  1
  Pd  Pd22  1  0.332946  0.665894  0.500233  1
  Pd  Pd23  1  0.667066  0.334130  0.503264  1
