# generated using pymatgen
data_Ho4GaSn5Ir7
_symmetry_space_group_name_H-M   'P 1'
_cell_length_a   7.54176466
_cell_length_b   7.54176454
_cell_length_c   7.54176582
_cell_angle_alpha   109.09445457
_cell_angle_beta   109.65994146
_cell_angle_gamma   109.65992877
_symmetry_Int_Tables_number   1
_chemical_formula_structural   Ho4GaSn5Ir7
_chemical_formula_sum   'Ho4 Ga1 Sn5 Ir7'
_cell_volume   330.20449816
_cell_formula_units_Z   1
loop_
 _symmetry_equiv_pos_site_id
 _symmetry_equiv_pos_as_xyz
  1  'x, y, z'
loop_
 _atom_site_type_symbol
 _atom_site_label
 _atom_site_symmetry_multiplicity
 _atom_site_fract_x
 _atom_site_fract_y
 _atom_site_fract_z
 _atom_site_occupancy
  Ho  Ho0  1  0.000000  0.988095  0.525695  1
  Ho  Ho1  1  0.000000  0.525695  0.988095  1
  Ho  Ho2  1  0.462401  0.988095  0.988095  1
  Ho  Ho3  1  0.537599  0.525695  0.525695  1
  Ga  Ga4  1  0.000000  0.662387  0.662387  1
  Sn  Sn5  1  0.686609  0.700027  0.013419  1
  Sn  Sn6  1  0.313391  0.013419  0.326809  1
  Sn  Sn7  1  0.000000  0.295127  0.295127  1
  Sn  Sn8  1  0.313391  0.326809  0.013419  1
  Sn  Sn9  1  0.686609  0.013419  0.700027  1
  Ir  Ir10  1  0.754389  0.247581  0.493193  1
  Ir  Ir11  1  0.754389  0.493193  0.247581  1
  Ir  Ir12  1  0.500000  0.259816  0.759816  1
  Ir  Ir13  1  0.245611  0.493193  0.738804  1
  Ir  Ir14  1  0.245611  0.738804  0.493193  1
  Ir  Ir15  1  0.500000  0.759816  0.259816  1
  Ir  Ir16  1  0.000000  0.968829  0.968829  1
