# generated using pymatgen
data_Ho6MgCo6Ni11P12
_symmetry_space_group_name_H-M   'P 1'
_cell_length_a   3.75893600
_cell_length_b   10.55836700
_cell_length_c   12.30681900
_cell_angle_alpha   90.00000000
_cell_angle_beta   90.00000000
_cell_angle_gamma   90.00000000
_symmetry_Int_Tables_number   1
_chemical_formula_structural   Ho6MgCo6Ni11P12
_chemical_formula_sum   'Ho6 Mg1 Co6 Ni11 P12'
_cell_volume   488.43581157
_cell_formula_units_Z   1
loop_
 _symmetry_equiv_pos_site_id
 _symmetry_equiv_pos_as_xyz
  1  'x, y, z'
loop_
 _atom_site_type_symbol
 _atom_site_label
 _atom_site_symmetry_multiplicity
 _atom_site_fract_x
 _atom_site_fract_y
 _atom_site_fract_z
 _atom_site_occupancy
  Ho  Ho0  1  0.000000  0.500000  0.525857  1
  Ho  Ho1  1  0.500000  0.000000  0.477960  1
  Ho  Ho2  1  0.500000  0.819840  0.207168  1
  Ho  Ho3  1  0.500000  0.180160  0.207168  1
  Ho  Ho4  1  0.000000  0.683374  0.795539  1
  Ho  Ho5  1  0.000000  0.316626  0.795539  1
  Mg  Mg6  1  0.500000  0.500000  0.153393  1
  Co  Co7  1  0.000000  0.500000  0.987368  1
  Co  Co8  1  0.500000  0.000000  0.013462  1
  Co  Co9  1  0.500000  0.330139  0.992947  1
  Co  Co10  1  0.500000  0.669861  0.992947  1
  Co  Co11  1  0.000000  0.161997  0.001418  1
  Co  Co12  1  0.000000  0.838003  0.001418  1
  Ni  Ni13  1  0.500000  0.298201  0.431854  1
  Ni  Ni14  1  0.500000  0.701799  0.431854  1
  Ni  Ni15  1  0.000000  0.199625  0.570306  1
  Ni  Ni16  1  0.000000  0.800375  0.570306  1
  Ni  Ni17  1  0.500000  0.879155  0.711308  1
  Ni  Ni18  1  0.500000  0.120845  0.711308  1
  Ni  Ni19  1  0.000000  0.621427  0.289878  1
  Ni  Ni20  1  0.000000  0.378573  0.289878  1
  Ni  Ni21  1  0.000000  0.000000  0.839208  1
  Ni  Ni22  1  0.500000  0.500000  0.704297  1
  Ni  Ni23  1  0.000000  0.000000  0.295982  1
  P  P24  1  0.500000  0.313540  0.617682  1
  P  P25  1  0.500000  0.686460  0.617682  1
  P  P26  1  0.000000  0.184846  0.385175  1
  P  P27  1  0.000000  0.815154  0.385175  1
  P  P28  1  0.500000  0.500000  0.882479  1
  P  P29  1  0.000000  0.000000  0.117140  1
  P  P30  1  0.500000  0.848103  0.893148  1
  P  P31  1  0.500000  0.151897  0.893148  1
  P  P32  1  0.000000  0.664416  0.099562  1
  P  P33  1  0.000000  0.335584  0.099562  1
  P  P34  1  0.500000  0.500000  0.356456  1
  P  P35  1  0.000000  0.000000  0.654424  1
