# generated using pymatgen
data_Li4Ca5Pd4
_symmetry_space_group_name_H-M   'P 1'
_cell_length_a   8.51538128
_cell_length_b   8.51538196
_cell_length_c   8.51538084
_cell_angle_alpha   93.66786215
_cell_angle_beta   93.66785899
_cell_angle_gamma   150.69831982
_symmetry_Int_Tables_number   1
_chemical_formula_structural   Li4Ca5Pd4
_chemical_formula_sum   'Li4 Ca5 Pd4'
_cell_volume   292.36655719
_cell_formula_units_Z   1
loop_
 _symmetry_equiv_pos_site_id
 _symmetry_equiv_pos_as_xyz
  1  'x, y, z'
loop_
 _atom_site_type_symbol
 _atom_site_label
 _atom_site_symmetry_multiplicity
 _atom_site_fract_x
 _atom_site_fract_y
 _atom_site_fract_z
 _atom_site_occupancy
  Li  Li0  1  0.604503  0.073536  0.678039  1
  Li  Li1  1  0.926464  0.604503  0.530967  1
  Li  Li2  1  0.073536  0.395497  0.469033  1
  Li  Li3  1  0.395497  0.926464  0.321961  1
  Ca  Ca4  1  0.129073  0.789908  0.918981  1
  Ca  Ca5  1  0.210092  0.129073  0.339165  1
  Ca  Ca6  1  0.870927  0.210092  0.081019  1
  Ca  Ca7  1  0.500000  0.500000  0.000000  1
  Ca  Ca8  1  0.789908  0.870927  0.660835  1
  Pd  Pd9  1  0.440857  0.249049  0.689906  1
  Pd  Pd10  1  0.559143  0.750951  0.310094  1
  Pd  Pd11  1  0.249049  0.559143  0.808192  1
  Pd  Pd12  1  0.750951  0.440857  0.191808  1
