# generated using pymatgen
data_Ho5ErAl17Si7Os8
_symmetry_space_group_name_H-M   'P 1'
_cell_length_a   8.69113404
_cell_length_b   8.68024679
_cell_length_c   9.47837100
_cell_angle_alpha   90.00000000
_cell_angle_beta   90.00000000
_cell_angle_gamma   120.13122402
_symmetry_Int_Tables_number   1
_chemical_formula_structural   Ho5ErAl17Si7Os8
_chemical_formula_sum   'Ho5 Er1 Al17 Si7 Os8'
_cell_volume   618.43928419
_cell_formula_units_Z   1
loop_
 _symmetry_equiv_pos_site_id
 _symmetry_equiv_pos_as_xyz
  1  'x, y, z'
loop_
 _atom_site_type_symbol
 _atom_site_label
 _atom_site_symmetry_multiplicity
 _atom_site_fract_x
 _atom_site_fract_y
 _atom_site_fract_z
 _atom_site_occupancy
  Ho  Ho0  1  0.192423  0.387270  0.250000  1
  Ho  Ho1  1  0.806919  0.614455  0.750000  1
  Ho  Ho2  1  0.611675  0.807529  0.250000  1
  Ho  Ho3  1  0.387796  0.191286  0.750000  1
  Ho  Ho4  1  0.802388  0.191738  0.750000  1
  Er  Er5  1  0.196453  0.804562  0.250000  1
  Al  Al6  1  0.164464  0.330031  0.577829  1
  Al  Al7  1  0.834463  0.671267  0.420692  1
  Al  Al8  1  0.670994  0.834998  0.577284  1
  Al  Al9  1  0.834463  0.671267  0.079308  1
  Al  Al10  1  0.329587  0.165617  0.421951  1
  Al  Al11  1  0.164464  0.330031  0.922171  1
  Al  Al12  1  0.163672  0.834384  0.575737  1
  Al  Al13  1  0.329587  0.165617  0.078049  1
  Al  Al14  1  0.835348  0.164148  0.421522  1
  Al  Al15  1  0.670994  0.834998  0.922716  1
  Al  Al16  1  0.835348  0.164148  0.078478  1
  Al  Al17  1  0.163672  0.834384  0.924263  1
  Al  Al18  1  0.125588  0.565866  0.750000  1
  Al  Al19  1  0.564637  0.435002  0.250000  1
  Al  Al20  1  0.438744  0.566492  0.750000  1
  Al  Al21  1  0.000584  0.998163  0.250000  1
  Al  Al22  1  0.999742  0.001200  0.750000  1
  Si  Si23  1  0.333399  0.664575  0.040010  1
  Si  Si24  1  0.666421  0.335799  0.959686  1
  Si  Si25  1  0.666421  0.335799  0.540314  1
  Si  Si26  1  0.333399  0.664575  0.459990  1
  Si  Si27  1  0.564657  0.124150  0.250000  1
  Si  Si28  1  0.436228  0.873353  0.750000  1
  Si  Si29  1  0.874861  0.434803  0.250000  1
  Os  Os30  1  0.500943  0.001291  0.001049  1
  Os  Os31  1  0.998155  0.499326  0.006747  1
  Os  Os32  1  0.500943  0.001291  0.498951  1
  Os  Os33  1  0.500787  0.500037  0.000273  1
  Os  Os34  1  0.998155  0.499326  0.493253  1
  Os  Os35  1  0.500787  0.500037  0.499727  1
  Os  Os36  1  0.000417  0.000594  0.999900  1
  Os  Os37  1  0.000417  0.000594  0.500100  1
