# generated using pymatgen
data_LuCd4In(BiO6)2
_symmetry_space_group_name_H-M   'P 1'
_cell_length_a   6.62275962
_cell_length_b   6.67867310
_cell_length_c   6.67151200
_cell_angle_alpha   90.49416088
_cell_angle_beta   90.30626354
_cell_angle_gamma   90.50724020
_symmetry_Int_Tables_number   1
_chemical_formula_structural   LuCd4In(BiO6)2
_chemical_formula_sum   'Lu1 Cd4 In1 Bi2 O12'
_cell_volume   295.06241610
_cell_formula_units_Z   1
loop_
 _symmetry_equiv_pos_site_id
 _symmetry_equiv_pos_as_xyz
  1  'x, y, z'
loop_
 _atom_site_type_symbol
 _atom_site_label
 _atom_site_symmetry_multiplicity
 _atom_site_fract_x
 _atom_site_fract_y
 _atom_site_fract_z
 _atom_site_occupancy
  Lu  Lu0  1  0.056944  0.747900  0.563121  1
  Cd  Cd1  1  0.560865  0.048109  0.746685  1
  Cd  Cd2  1  0.948492  0.249784  0.440215  1
  Cd  Cd3  1  0.252456  0.435417  0.948716  1
  Cd  Cd4  1  0.438573  0.957304  0.253363  1
  In  In5  1  0.749229  0.565725  0.055309  1
  Bi  Bi6  1  0.505573  0.502165  0.502138  1
  Bi  Bi7  1  0.996588  0.001794  0.002444  1
  O  O8  1  0.026142  0.688807  0.900729  1
  O  O9  1  0.693688  0.894366  0.039423  1
  O  O10  1  0.917378  0.023143  0.692492  1
  O  O11  1  0.943767  0.307162  0.093630  1
  O  O12  1  0.300835  0.093388  0.962326  1
  O  O13  1  0.084032  0.947071  0.303724  1
  O  O14  1  0.810797  0.588174  0.411244  1
  O  O15  1  0.581254  0.432427  0.806796  1
  O  O16  1  0.398689  0.800902  0.565548  1
  O  O17  1  0.195723  0.441805  0.577674  1
  O  O18  1  0.449420  0.572731  0.193783  1
  O  O19  1  0.589555  0.201824  0.440640  1
