# generated using pymatgen
data_Li3Ga3Pd10
_symmetry_space_group_name_H-M   'P 1'
_cell_length_a   4.14841200
_cell_length_b   5.40050058
_cell_length_c   10.44315684
_cell_angle_alpha   89.64146405
_cell_angle_beta   90.00000000
_cell_angle_gamma   90.00000000
_symmetry_Int_Tables_number   1
_chemical_formula_structural   Li3Ga3Pd10
_chemical_formula_sum   'Li3 Ga3 Pd10'
_cell_volume   233.95869815
_cell_formula_units_Z   1
loop_
 _symmetry_equiv_pos_site_id
 _symmetry_equiv_pos_as_xyz
  1  'x, y, z'
loop_
 _atom_site_type_symbol
 _atom_site_label
 _atom_site_symmetry_multiplicity
 _atom_site_fract_x
 _atom_site_fract_y
 _atom_site_fract_z
 _atom_site_occupancy
  Li  Li0  1  0.000000  0.834000  0.637853  1
  Li  Li1  1  0.000000  0.334186  0.860694  1
  Li  Li2  1  0.000000  0.165654  0.367521  1
  Ga  Ga3  1  0.500000  0.498926  0.503371  1
  Ga  Ga4  1  0.500000  0.022585  0.991309  1
  Ga  Ga5  1  0.000000  0.650203  0.141491  1
  Pd  Pd6  1  0.000000  0.819221  0.894145  1
  Pd  Pd7  1  0.000000  0.679903  0.388862  1
  Pd  Pd8  1  0.000000  0.321126  0.610021  1
  Pd  Pd9  1  0.500000  0.888272  0.229001  1
  Pd  Pd10  1  0.500000  0.386555  0.267754  1
  Pd  Pd11  1  0.500000  0.606422  0.739320  1
  Pd  Pd12  1  0.500000  0.105303  0.756640  1
  Pd  Pd13  1  0.500000  0.511370  0.004272  1
  Pd  Pd14  1  0.500000  0.999166  0.495502  1
  Pd  Pd15  1  0.000000  0.177110  0.112244  1
