# generated using pymatgen
data_CsIr(OF2)2
_symmetry_space_group_name_H-M   'P 1'
_cell_length_a   7.15196683
_cell_length_b   7.15196683
_cell_length_c   8.91720156
_cell_angle_alpha   61.17515783
_cell_angle_beta   61.17516007
_cell_angle_gamma   57.51870483
_symmetry_Int_Tables_number   1
_chemical_formula_structural   CsIr(OF2)2
_chemical_formula_sum   'Cs2 Ir2 O4 F8'
_cell_volume   321.35134931
_cell_formula_units_Z   2
loop_
 _symmetry_equiv_pos_site_id
 _symmetry_equiv_pos_as_xyz
  1  'x, y, z'
loop_
 _atom_site_type_symbol
 _atom_site_label
 _atom_site_symmetry_multiplicity
 _atom_site_fract_x
 _atom_site_fract_y
 _atom_site_fract_z
 _atom_site_occupancy
  Cs  Cs0  1  0.733783  0.266217  0.750000  1
  Cs  Cs1  1  0.266217  0.733783  0.250000  1
  Ir  Ir2  1  0.000000  0.500000  0.000000  1
  Ir  Ir3  1  0.500000  0.000000  0.500000  1
  O  O4  1  0.036344  0.665693  0.774793  1
  O  O5  1  0.334307  0.963656  0.725207  1
  O  O6  1  0.963656  0.334307  0.225207  1
  O  O7  1  0.665693  0.036344  0.274793  1
  F  F8  1  0.237684  0.558617  0.001557  1
  F  F9  1  0.441383  0.762316  0.498443  1
  F  F10  1  0.762316  0.441383  0.998443  1
  F  F11  1  0.558617  0.237684  0.501557  1
  F  F12  1  0.248314  0.219608  0.931940  1
  F  F13  1  0.780392  0.751686  0.568060  1
  F  F14  1  0.751686  0.780392  0.068060  1
  F  F15  1  0.219608  0.248314  0.431940  1
