# generated using pymatgen
data_Ho3Er5Si12(IrRh)2
_symmetry_space_group_name_H-M   'P 1'
_cell_length_a   8.15680901
_cell_length_b   8.15681116
_cell_length_c   7.85718200
_cell_angle_alpha   90.00000000
_cell_angle_beta   90.00000000
_cell_angle_gamma   120.01356276
_symmetry_Int_Tables_number   1
_chemical_formula_structural   Ho3Er5Si12(IrRh)2
_chemical_formula_sum   'Ho3 Er5 Si12 Ir2 Rh2'
_cell_volume   452.66693847
_cell_formula_units_Z   1
loop_
 _symmetry_equiv_pos_site_id
 _symmetry_equiv_pos_as_xyz
  1  'x, y, z'
loop_
 _atom_site_type_symbol
 _atom_site_label
 _atom_site_symmetry_multiplicity
 _atom_site_fract_x
 _atom_site_fract_y
 _atom_site_fract_z
 _atom_site_occupancy
  Ho  Ho0  1  0.000081  0.999919  0.250000  1
  Ho  Ho1  1  0.999959  0.000041  0.750000  1
  Ho  Ho2  1  0.491398  0.508602  0.250000  1
  Er  Er3  1  0.491515  0.983213  0.250000  1
  Er  Er4  1  0.016787  0.508485  0.250000  1
  Er  Er5  1  0.509158  0.490842  0.750000  1
  Er  Er6  1  0.981625  0.490745  0.750000  1
  Er  Er7  1  0.509255  0.018375  0.750000  1
  Si  Si8  1  0.833457  0.166543  0.500957  1
  Si  Si9  1  0.833401  0.666751  0.501183  1
  Si  Si10  1  0.333249  0.166599  0.501183  1
  Si  Si11  1  0.833457  0.166543  0.999043  1
  Si  Si12  1  0.833401  0.666751  0.998817  1
  Si  Si13  1  0.333249  0.166599  0.998817  1
  Si  Si14  1  0.167227  0.832773  0.000951  1
  Si  Si15  1  0.665543  0.832841  0.000573  1
  Si  Si16  1  0.167159  0.334457  0.000573  1
  Si  Si17  1  0.167227  0.832773  0.499049  1
  Si  Si18  1  0.665543  0.832841  0.499427  1
  Si  Si19  1  0.167159  0.334457  0.499427  1
  Ir  Ir20  1  0.666863  0.333137  0.466300  1
  Ir  Ir21  1  0.666863  0.333137  0.033700  1
  Rh  Rh22  1  0.333212  0.666788  0.964858  1
  Rh  Rh23  1  0.333212  0.666788  0.535142  1
