# generated using pymatgen
data_PrEr(SnHg2)2
_symmetry_space_group_name_H-M   'P 1'
_cell_length_a   4.87720300
_cell_length_b   4.52262600
_cell_length_c   9.21822500
_cell_angle_alpha   90.00000000
_cell_angle_beta   90.00000000
_cell_angle_gamma   90.00000000
_symmetry_Int_Tables_number   1
_chemical_formula_structural   PrEr(SnHg2)2
_chemical_formula_sum   'Pr1 Er1 Sn2 Hg4'
_cell_volume   203.33344164
_cell_formula_units_Z   1
loop_
 _symmetry_equiv_pos_site_id
 _symmetry_equiv_pos_as_xyz
  1  'x, y, z'
loop_
 _atom_site_type_symbol
 _atom_site_label
 _atom_site_symmetry_multiplicity
 _atom_site_fract_x
 _atom_site_fract_y
 _atom_site_fract_z
 _atom_site_occupancy
  Pr  Pr0  1  0.000000  0.000000  0.000000  1
  Er  Er1  1  0.000000  0.000000  0.500000  1
  Sn  Sn2  1  0.000000  0.500000  0.258350  1
  Sn  Sn3  1  0.000000  0.500000  0.741650  1
  Hg  Hg4  1  0.500000  0.500000  0.000000  1
  Hg  Hg5  1  0.500000  0.500000  0.500000  1
  Hg  Hg6  1  0.500000  0.000000  0.257384  1
  Hg  Hg7  1  0.500000  0.000000  0.742616  1
