# generated using pymatgen
data_TmHf3Si6Ir7
_symmetry_space_group_name_H-M   'P 1'
_cell_length_a   7.03259852
_cell_length_b   7.01705285
_cell_length_c   7.03259901
_cell_angle_alpha   109.42119457
_cell_angle_beta   109.51906195
_cell_angle_gamma   109.42117681
_symmetry_Int_Tables_number   1
_chemical_formula_structural   TmHf3Si6Ir7
_chemical_formula_sum   'Tm1 Hf3 Si6 Ir7'
_cell_volume   267.32762351
_cell_formula_units_Z   1
loop_
 _symmetry_equiv_pos_site_id
 _symmetry_equiv_pos_as_xyz
  1  'x, y, z'
loop_
 _atom_site_type_symbol
 _atom_site_label
 _atom_site_symmetry_multiplicity
 _atom_site_fract_x
 _atom_site_fract_y
 _atom_site_fract_z
 _atom_site_occupancy
  Tm  Tm0  1  0.998567  0.496668  0.998567  1
  Hf  Hf1  1  0.521528  0.522105  0.521528  1
  Hf  Hf2  1  0.998570  0.999308  0.513861  1
  Hf  Hf3  1  0.513861  0.999308  0.998570  1
  Si  Si4  1  0.673277  0.001630  0.673277  1
  Si  Si5  1  0.314830  0.003644  0.314830  1
  Si  Si6  1  0.004282  0.317879  0.321039  1
  Si  Si7  1  0.004153  0.678845  0.680202  1
  Si  Si8  1  0.680202  0.678845  0.004153  1
  Si  Si9  1  0.321039  0.317879  0.004282  1
  Ir  Ir10  1  0.251371  0.498547  0.746382  1
  Ir  Ir11  1  0.249706  0.751211  0.501656  1
  Ir  Ir12  1  0.491901  0.246691  0.744950  1
  Ir  Ir13  1  0.501656  0.751211  0.249706  1
  Ir  Ir14  1  0.746382  0.498547  0.251371  1
  Ir  Ir15  1  0.983724  0.990990  0.983724  1
  Ir  Ir16  1  0.744950  0.246691  0.491901  1
