# generated using pymatgen
data_TaTi4Si4Mo3
_symmetry_space_group_name_H-M   'P 1'
_cell_length_a   6.76470867
_cell_length_b   3.38180100
_cell_length_c   8.16747513
_cell_angle_alpha   90.00000000
_cell_angle_beta   90.22118697
_cell_angle_gamma   90.00000000
_symmetry_Int_Tables_number   1
_chemical_formula_structural   TaTi4Si4Mo3
_chemical_formula_sum   'Ta1 Ti4 Si4 Mo3'
_cell_volume   186.84510770
_cell_formula_units_Z   1
loop_
 _symmetry_equiv_pos_site_id
 _symmetry_equiv_pos_as_xyz
  1  'x, y, z'
loop_
 _atom_site_type_symbol
 _atom_site_label
 _atom_site_symmetry_multiplicity
 _atom_site_fract_x
 _atom_site_fract_y
 _atom_site_fract_z
 _atom_site_occupancy
  Ta  Ta0  1  0.632784  0.750001  0.064700  1
  Ti  Ti1  1  0.956289  0.250000  0.170691  1
  Ti  Ti2  1  0.451107  0.250000  0.334470  1
  Ti  Ti3  1  0.548747  0.750001  0.665994  1
  Ti  Ti4  1  0.046687  0.750001  0.832113  1
  Si  Si5  1  0.246125  0.750001  0.138708  1
  Si  Si6  1  0.750418  0.750001  0.364060  1
  Si  Si7  1  0.250543  0.250000  0.638614  1
  Si  Si8  1  0.752082  0.250000  0.855530  1
  Mo  Mo9  1  0.136951  0.750001  0.435419  1
  Mo  Mo10  1  0.866999  0.250000  0.564707  1
  Mo  Mo11  1  0.361267  0.250000  0.934990  1
