# generated using pymatgen
data_Al13TcPd12
_symmetry_space_group_name_H-M   'P 1'
_cell_length_a   9.30663422
_cell_length_b   9.30663494
_cell_length_c   9.30663500
_cell_angle_alpha   116.49507252
_cell_angle_beta   116.49507343
_cell_angle_gamma   116.49508360
_symmetry_Int_Tables_number   1
_chemical_formula_structural   Al13TcPd12
_chemical_formula_sum   'Al13 Tc1 Pd12'
_cell_volume   382.65530560
_cell_formula_units_Z   1
loop_
 _symmetry_equiv_pos_site_id
 _symmetry_equiv_pos_as_xyz
  1  'x, y, z'
loop_
 _atom_site_type_symbol
 _atom_site_label
 _atom_site_symmetry_multiplicity
 _atom_site_fract_x
 _atom_site_fract_y
 _atom_site_fract_z
 _atom_site_occupancy
  Al  Al0  1  0.339913  0.094735  0.055217  1
  Al  Al1  1  0.055218  0.339913  0.094734  1
  Al  Al2  1  0.094734  0.055219  0.339912  1
  Al  Al3  1  0.660086  0.905264  0.944781  1
  Al  Al4  1  0.944781  0.660086  0.905264  1
  Al  Al5  1  0.905264  0.944780  0.660086  1
  Al  Al6  1  0.155318  0.596496  0.752772  1
  Al  Al7  1  0.752772  0.155318  0.596496  1
  Al  Al8  1  0.596496  0.752771  0.155318  1
  Al  Al9  1  0.844682  0.403504  0.247229  1
  Al  Al10  1  0.247229  0.844682  0.403504  1
  Al  Al11  1  0.403504  0.247229  0.844682  1
  Al  Al12  1  0.500001  0.500001  0.500001  1
  Tc  Tc13  1  0.000000  0.000000  0.000000  1
  Pd  Pd14  1  0.652010  0.096388  0.248448  1
  Pd  Pd15  1  0.248448  0.652010  0.096388  1
  Pd  Pd16  1  0.096388  0.248448  0.652010  1
  Pd  Pd17  1  0.347992  0.903614  0.751554  1
  Pd  Pd18  1  0.751555  0.347992  0.903614  1
  Pd  Pd19  1  0.903614  0.751555  0.347992  1
  Pd  Pd20  1  0.843479  0.592482  0.553964  1
  Pd  Pd21  1  0.553963  0.843478  0.592483  1
  Pd  Pd22  1  0.592483  0.553964  0.843478  1
  Pd  Pd23  1  0.156523  0.407520  0.446038  1
  Pd  Pd24  1  0.446039  0.156524  0.407519  1
  Pd  Pd25  1  0.407520  0.446038  0.156524  1
