# generated using pymatgen
data_SmFe2(ReTc4)2
_symmetry_space_group_name_H-M   'P 1'
_cell_length_a   4.94528224
_cell_length_b   6.83848990
_cell_length_c   6.83530138
_cell_angle_alpha   82.46674939
_cell_angle_beta   68.83218907
_cell_angle_gamma   68.76329784
_symmetry_Int_Tables_number   1
_chemical_formula_structural   SmFe2(ReTc4)2
_chemical_formula_sum   'Sm1 Fe2 Re2 Tc8'
_cell_volume   200.92271039
_cell_formula_units_Z   1
loop_
 _symmetry_equiv_pos_site_id
 _symmetry_equiv_pos_as_xyz
  1  'x, y, z'
loop_
 _atom_site_type_symbol
 _atom_site_label
 _atom_site_symmetry_multiplicity
 _atom_site_fract_x
 _atom_site_fract_y
 _atom_site_fract_z
 _atom_site_occupancy
  Sm  Sm0  1  0.000000  0.000000  0.000000  1
  Fe  Fe1  1  0.500000  0.000000  0.500000  1
  Fe  Fe2  1  0.000000  0.500000  0.000000  1
  Re  Re3  1  0.000000  0.000000  0.500000  1
  Re  Re4  1  0.500000  0.500000  0.000000  1
  Tc  Tc5  1  0.006663  0.358439  0.641561  1
  Tc  Tc6  1  0.993337  0.641561  0.358439  1
  Tc  Tc7  1  0.640129  0.359871  0.359871  1
  Tc  Tc8  1  0.359871  0.640129  0.640129  1
  Tc  Tc9  1  0.510449  0.782194  0.217806  1
  Tc  Tc10  1  0.489551  0.217806  0.782194  1
  Tc  Tc11  1  0.720359  0.779641  0.779641  1
  Tc  Tc12  1  0.279641  0.220359  0.220359  1
