# generated using pymatgen
data_Ho3Tm2(RuO6)2
_symmetry_space_group_name_H-M   'P 1'
_cell_length_a   6.79551374
_cell_length_b   6.79551324
_cell_length_c   7.33827628
_cell_angle_alpha   74.11854683
_cell_angle_beta   74.11854813
_cell_angle_gamma   50.41548849
_symmetry_Int_Tables_number   1
_chemical_formula_structural   Ho3Tm2(RuO6)2
_chemical_formula_sum   'Ho3 Tm2 Ru2 O12'
_cell_volume   248.93385563
_cell_formula_units_Z   1
loop_
 _symmetry_equiv_pos_site_id
 _symmetry_equiv_pos_as_xyz
  1  'x, y, z'
loop_
 _atom_site_type_symbol
 _atom_site_label
 _atom_site_symmetry_multiplicity
 _atom_site_fract_x
 _atom_site_fract_y
 _atom_site_fract_z
 _atom_site_occupancy
  Ho  Ho0  1  0.310620  0.310620  0.826318  1
  Ho  Ho1  1  0.689380  0.689380  0.173682  1
  Ho  Ho2  1  0.000000  0.000000  0.500000  1
  Tm  Tm3  1  0.302147  0.302147  0.361412  1
  Tm  Tm4  1  0.697853  0.697853  0.638588  1
  Ru  Ru5  1  0.763339  0.236661  0.000000  1
  Ru  Ru6  1  0.236661  0.763339  0.000000  1
  O  O7  1  0.905093  0.426412  0.914055  1
  O  O8  1  0.426412  0.905093  0.914055  1
  O  O9  1  0.094907  0.573588  0.085945  1
  O  O10  1  0.573588  0.094907  0.085945  1
  O  O11  1  0.096391  0.594759  0.572842  1
  O  O12  1  0.594759  0.096391  0.572842  1
  O  O13  1  0.903609  0.405241  0.427158  1
  O  O14  1  0.405241  0.903609  0.427158  1
  O  O15  1  0.998613  0.998613  0.804888  1
  O  O16  1  0.001387  0.001387  0.195112  1
  O  O17  1  0.501219  0.501219  0.811588  1
  O  O18  1  0.498781  0.498781  0.188412  1
