# generated using pymatgen
data_Tm16Lu4Ir7Ru5
_symmetry_space_group_name_H-M   'P 1'
_cell_length_a   10.67019941
_cell_length_b   10.67019941
_cell_length_c   6.34434200
_cell_angle_alpha   89.99685141
_cell_angle_beta   89.99685141
_cell_angle_gamma   90.05891631
_symmetry_Int_Tables_number   1
_chemical_formula_structural   Tm16Lu4Ir7Ru5
_chemical_formula_sum   'Tm16 Lu4 Ir7 Ru5'
_cell_volume   722.32297302
_cell_formula_units_Z   1
loop_
 _symmetry_equiv_pos_site_id
 _symmetry_equiv_pos_as_xyz
  1  'x, y, z'
loop_
 _atom_site_type_symbol
 _atom_site_label
 _atom_site_symmetry_multiplicity
 _atom_site_fract_x
 _atom_site_fract_y
 _atom_site_fract_z
 _atom_site_occupancy
  Tm  Tm0  1  0.293116  0.086163  0.376543  1
  Tm  Tm1  1  0.292643  0.913812  0.876682  1
  Tm  Tm2  1  0.707765  0.086369  0.876953  1
  Tm  Tm3  1  0.707526  0.914032  0.375820  1
  Tm  Tm4  1  0.586120  0.793119  0.876634  1
  Tm  Tm5  1  0.586920  0.207186  0.376671  1
  Tm  Tm6  1  0.413792  0.793154  0.376603  1
  Tm  Tm7  1  0.413640  0.206901  0.876150  1
  Tm  Tm8  1  0.206881  0.413880  0.623366  1
  Tm  Tm9  1  0.206846  0.586208  0.123397  1
  Tm  Tm10  1  0.792814  0.413080  0.123329  1
  Tm  Tm11  1  0.793099  0.586360  0.623850  1
  Tm  Tm12  1  0.913837  0.706884  0.123457  1
  Tm  Tm13  1  0.913631  0.292235  0.623047  1
  Tm  Tm14  1  0.086188  0.707357  0.623318  1
  Tm  Tm15  1  0.085968  0.292474  0.124180  1
  Lu  Lu16  1  0.999611  0.000697  0.499236  1
  Lu  Lu17  1  0.999303  0.000389  0.000764  1
  Lu  Lu18  1  0.500016  0.500096  0.000044  1
  Lu  Lu19  1  0.499904  0.499984  0.499956  1
  Ir  Ir20  1  0.847615  0.847370  0.749945  1
  Ir  Ir21  1  0.152630  0.152385  0.750055  1
  Ir  Ir22  1  0.152491  0.847509  0.250000  1
  Ir  Ir23  1  0.651548  0.348452  0.750000  1
  Ir  Ir24  1  0.652230  0.652019  0.249833  1
  Ir  Ir25  1  0.347981  0.347770  0.250167  1
  Ir  Ir26  1  0.347977  0.652023  0.750000  1
  Ru  Ru27  1  0.847957  0.152043  0.250000  1
  Ru  Ru28  1  0.500248  0.000143  0.123569  1
  Ru  Ru29  1  0.499873  0.000026  0.623632  1
  Ru  Ru30  1  0.999974  0.500127  0.876368  1
  Ru  Ru31  1  0.999857  0.499752  0.376431  1
