# generated using pymatgen
data_MnIrCl6
_symmetry_space_group_name_H-M   'P 1'
_cell_length_a   11.86063394
_cell_length_b   11.37931022
_cell_length_c   6.21850304
_cell_angle_alpha   78.80210305
_cell_angle_beta   70.24613382
_cell_angle_gamma   30.87791910
_symmetry_Int_Tables_number   1
_chemical_formula_structural   MnIrCl6
_chemical_formula_sum   'Mn2 Ir2 Cl12'
_cell_volume   397.31626880
_cell_formula_units_Z   2
loop_
 _symmetry_equiv_pos_site_id
 _symmetry_equiv_pos_as_xyz
  1  'x, y, z'
loop_
 _atom_site_type_symbol
 _atom_site_label
 _atom_site_symmetry_multiplicity
 _atom_site_fract_x
 _atom_site_fract_y
 _atom_site_fract_z
 _atom_site_occupancy
  Mn  Mn0  1  0.416881  0.416881  0.583119  1
  Mn  Mn1  1  0.833119  0.833119  0.666881  1
  Ir  Ir2  1  0.666032  0.666032  0.833968  1
  Ir  Ir3  1  0.583968  0.583968  0.416032  1
  Cl  Cl4  1  0.720838  0.289100  0.276436  1
  Cl  Cl5  1  0.877247  0.445329  0.097749  1
  Cl  Cl6  1  0.372753  0.804671  0.152251  1
  Cl  Cl7  1  0.445329  0.877247  0.579674  1
  Cl  Cl8  1  0.181545  0.643622  0.360417  1
  Cl  Cl9  1  0.289100  0.720838  0.713627  1
  Cl  Cl10  1  0.529162  0.960900  0.973564  1
  Cl  Cl11  1  0.960900  0.529162  0.536373  1
  Cl  Cl12  1  0.068455  0.606378  0.889583  1
  Cl  Cl13  1  0.804671  0.372753  0.670326  1
  Cl  Cl14  1  0.643622  0.181545  0.814417  1
  Cl  Cl15  1  0.606378  0.068455  0.435583  1
