# generated using pymatgen
data_NaGd6OsBr12
_symmetry_space_group_name_H-M   'P 1'
_cell_length_a   9.43847381
_cell_length_b   9.42085792
_cell_length_c   9.41808300
_cell_angle_alpha   106.81729673
_cell_angle_beta   107.05798566
_cell_angle_gamma   106.90030175
_symmetry_Int_Tables_number   1
_chemical_formula_structural   NaGd6OsBr12
_chemical_formula_sum   'Na1 Gd6 Os1 Br12'
_cell_volume   698.84554829
_cell_formula_units_Z   1
loop_
 _symmetry_equiv_pos_site_id
 _symmetry_equiv_pos_as_xyz
  1  'x, y, z'
loop_
 _atom_site_type_symbol
 _atom_site_label
 _atom_site_symmetry_multiplicity
 _atom_site_fract_x
 _atom_site_fract_y
 _atom_site_fract_z
 _atom_site_occupancy
  Na  Na0  1  0.500000  0.500000  0.500000  1
  Gd  Gd1  1  0.112851  0.319793  0.030379  1
  Gd  Gd2  1  0.318316  0.029895  0.111499  1
  Gd  Gd3  1  0.031002  0.112236  0.319938  1
  Gd  Gd4  1  0.968998  0.887765  0.680062  1
  Gd  Gd5  1  0.681684  0.970106  0.888501  1
  Gd  Gd6  1  0.887149  0.680207  0.969621  1
  Os  Os7  1  0.000000  0.000000  0.000000  1
  Br  Br8  1  0.212937  0.680617  0.070830  1
  Br  Br9  1  0.452685  0.370320  0.151215  1
  Br  Br10  1  0.681291  0.070665  0.214836  1
  Br  Br11  1  0.930750  0.785388  0.319931  1
  Br  Br12  1  0.151434  0.452957  0.370508  1
  Br  Br13  1  0.370261  0.150648  0.452754  1
  Br  Br14  1  0.629739  0.849352  0.547247  1
  Br  Br15  1  0.848566  0.547043  0.629492  1
  Br  Br16  1  0.069250  0.214612  0.680070  1
  Br  Br17  1  0.318709  0.929335  0.785164  1
  Br  Br18  1  0.547315  0.629680  0.848786  1
  Br  Br19  1  0.787063  0.319384  0.929170  1
