# generated using pymatgen
data_Er6Zn22AsRh
_symmetry_space_group_name_H-M   'P 1'
_cell_length_a   9.05088518
_cell_length_b   8.95593560
_cell_length_c   9.05088628
_cell_angle_alpha   60.34642360
_cell_angle_beta   59.67658040
_cell_angle_gamma   60.34642951
_symmetry_Int_Tables_number   1
_chemical_formula_structural   Er6Zn22AsRh
_chemical_formula_sum   'Er6 Zn22 As1 Rh1'
_cell_volume   520.17418061
_cell_formula_units_Z   1
loop_
 _symmetry_equiv_pos_site_id
 _symmetry_equiv_pos_as_xyz
  1  'x, y, z'
loop_
 _atom_site_type_symbol
 _atom_site_label
 _atom_site_symmetry_multiplicity
 _atom_site_fract_x
 _atom_site_fract_y
 _atom_site_fract_z
 _atom_site_occupancy
  Er  Er0  1  0.720812  0.285548  0.279188  1
  Er  Er1  1  0.718526  0.281474  0.718526  1
  Er  Er2  1  0.720812  0.714452  0.279188  1
  Er  Er3  1  0.279188  0.714452  0.720812  1
  Er  Er4  1  0.281474  0.718526  0.281474  1
  Er  Er5  1  0.279188  0.285548  0.720812  1
  Zn  Zn6  1  0.624370  0.125821  0.123989  1
  Zn  Zn7  1  0.123316  0.622599  0.123316  1
  Zn  Zn8  1  0.123989  0.125821  0.624370  1
  Zn  Zn9  1  0.123316  0.130770  0.123316  1
  Zn  Zn10  1  0.375630  0.874179  0.876011  1
  Zn  Zn11  1  0.876684  0.377401  0.876684  1
  Zn  Zn12  1  0.876011  0.874179  0.375630  1
  Zn  Zn13  1  0.876684  0.869230  0.876684  1
  Zn  Zn14  1  0.500000  0.000000  0.000000  1
  Zn  Zn15  1  0.500000  0.000000  0.500000  1
  Zn  Zn16  1  0.500000  0.500000  0.000000  1
  Zn  Zn17  1  0.000000  0.500000  0.500000  1
  Zn  Zn18  1  0.000000  0.000000  0.500000  1
  Zn  Zn19  1  0.000000  0.000000  0.000000  1
  Zn  Zn20  1  0.007533  0.332057  0.328352  1
  Zn  Zn21  1  0.332056  0.005244  0.332056  1
  Zn  Zn22  1  0.328352  0.332057  0.007533  1
  Zn  Zn23  1  0.332056  0.330641  0.332056  1
  Zn  Zn24  1  0.992467  0.667943  0.671648  1
  Zn  Zn25  1  0.667944  0.994756  0.667944  1
  Zn  Zn26  1  0.671648  0.667943  0.992467  1
  Zn  Zn27  1  0.667944  0.669359  0.667944  1
  As  As28  1  0.500000  0.500000  0.500000  1
  Rh  Rh29  1  0.000000  0.500000  0.000000  1
