# generated using pymatgen
data_Tb2Ga9PdRh2
_symmetry_space_group_name_H-M   'P 1'
_cell_length_a   7.61459346
_cell_length_b   7.61459245
_cell_length_c   9.52862300
_cell_angle_alpha   90.00000000
_cell_angle_beta   90.00000000
_cell_angle_gamma   119.85857267
_symmetry_Int_Tables_number   1
_chemical_formula_structural   Tb2Ga9PdRh2
_chemical_formula_sum   'Tb4 Ga18 Pd2 Rh4'
_cell_volume   479.14980871
_cell_formula_units_Z   2
loop_
 _symmetry_equiv_pos_site_id
 _symmetry_equiv_pos_as_xyz
  1  'x, y, z'
loop_
 _atom_site_type_symbol
 _atom_site_label
 _atom_site_symmetry_multiplicity
 _atom_site_fract_x
 _atom_site_fract_y
 _atom_site_fract_z
 _atom_site_occupancy
  Tb  Tb0  1  0.996736  0.668721  0.250000  1
  Tb  Tb1  1  0.003264  0.331279  0.750000  1
  Tb  Tb2  1  0.668721  0.996736  0.250000  1
  Tb  Tb3  1  0.331279  0.003264  0.750000  1
  Ga  Ga4  1  0.128591  0.128591  0.250000  1
  Ga  Ga5  1  0.871409  0.871409  0.750000  1
  Ga  Ga6  1  0.999610  0.337136  0.079547  1
  Ga  Ga7  1  0.000390  0.662864  0.920453  1
  Ga  Ga8  1  0.000390  0.662864  0.579547  1
  Ga  Ga9  1  0.337136  0.999610  0.420453  1
  Ga  Ga10  1  0.999610  0.337136  0.420453  1
  Ga  Ga11  1  0.662864  0.000390  0.579547  1
  Ga  Ga12  1  0.662864  0.000390  0.920453  1
  Ga  Ga13  1  0.337136  0.999610  0.079547  1
  Ga  Ga14  1  0.336466  0.336466  0.565036  1
  Ga  Ga15  1  0.663534  0.663534  0.434964  1
  Ga  Ga16  1  0.663534  0.663534  0.065036  1
  Ga  Ga17  1  0.336466  0.336466  0.934964  1
  Ga  Ga18  1  0.336995  0.546410  0.250000  1
  Ga  Ga19  1  0.663005  0.453590  0.750000  1
  Ga  Ga20  1  0.546410  0.336995  0.250000  1
  Ga  Ga21  1  0.453590  0.663005  0.750000  1
  Pd  Pd22  1  0.000000  0.000000  0.000000  1
  Pd  Pd23  1  0.000000  0.000000  0.500000  1
  Rh  Rh24  1  0.671318  0.328682  0.000000  1
  Rh  Rh25  1  0.328682  0.671318  0.000000  1
  Rh  Rh26  1  0.328682  0.671318  0.500000  1
  Rh  Rh27  1  0.671318  0.328682  0.500000  1
