# generated using pymatgen
data_HoTaTcB6
_symmetry_space_group_name_H-M   'P 1'
_cell_length_a   3.54933800
_cell_length_b   8.93279200
_cell_length_c   11.28502800
_cell_angle_alpha   90.00000000
_cell_angle_beta   90.00000000
_cell_angle_gamma   90.00000000
_symmetry_Int_Tables_number   1
_chemical_formula_structural   HoTaTcB6
_chemical_formula_sum   'Ho4 Ta4 Tc4 B24'
_cell_volume   357.79743372
_cell_formula_units_Z   4
loop_
 _symmetry_equiv_pos_site_id
 _symmetry_equiv_pos_as_xyz
  1  'x, y, z'
loop_
 _atom_site_type_symbol
 _atom_site_label
 _atom_site_symmetry_multiplicity
 _atom_site_fract_x
 _atom_site_fract_y
 _atom_site_fract_z
 _atom_site_occupancy
  Ho  Ho0  1  0.000000  0.323053  0.413608  1
  Ho  Ho1  1  0.000000  0.676947  0.586392  1
  Ho  Ho2  1  0.000000  0.823053  0.086392  1
  Ho  Ho3  1  0.000000  0.176947  0.913608  1
  Ta  Ta4  1  0.000000  0.946049  0.374408  1
  Ta  Ta5  1  0.000000  0.053951  0.625592  1
  Ta  Ta6  1  0.000000  0.446049  0.125592  1
  Ta  Ta7  1  0.000000  0.553951  0.874408  1
  Tc  Tc8  1  0.000000  0.644027  0.317219  1
  Tc  Tc9  1  0.000000  0.355973  0.682781  1
  Tc  Tc10  1  0.000000  0.144027  0.182781  1
  Tc  Tc11  1  0.000000  0.855973  0.817219  1
  B  B12  1  0.500000  0.554717  0.433643  1
  B  B13  1  0.500000  0.445283  0.566357  1
  B  B14  1  0.500000  0.054717  0.066357  1
  B  B15  1  0.500000  0.945283  0.933643  1
  B  B16  1  0.500000  0.754966  0.418046  1
  B  B17  1  0.500000  0.245034  0.581954  1
  B  B18  1  0.500000  0.254966  0.081954  1
  B  B19  1  0.500000  0.745034  0.918046  1
  B  B20  1  0.500000  0.797858  0.263051  1
  B  B21  1  0.500000  0.202142  0.736949  1
  B  B22  1  0.500000  0.297858  0.236949  1
  B  B23  1  0.500000  0.702142  0.763051  1
  B  B24  1  0.500000  0.629773  0.181099  1
  B  B25  1  0.500000  0.370227  0.818901  1
  B  B26  1  0.500000  0.129773  0.318901  1
  B  B27  1  0.500000  0.870227  0.681099  1
  B  B28  1  0.500000  0.982049  0.213865  1
  B  B29  1  0.500000  0.017951  0.786135  1
  B  B30  1  0.500000  0.482049  0.286135  1
  B  B31  1  0.500000  0.517951  0.713865  1
  B  B32  1  0.500000  0.599310  0.026277  1
  B  B33  1  0.500000  0.400690  0.973723  1
  B  B34  1  0.500000  0.099310  0.473723  1
  B  B35  1  0.500000  0.900690  0.526277  1
