# generated using pymatgen
data_Sc8Ti5Si12Ge4W7
_symmetry_space_group_name_H-M   'P 1'
_cell_length_a   6.61705410
_cell_length_b   6.78764729
_cell_length_c   12.93666450
_cell_angle_alpha   90.01018630
_cell_angle_beta   90.00935641
_cell_angle_gamma   89.97088385
_symmetry_Int_Tables_number   1
_chemical_formula_structural   Sc8Ti5Si12Ge4W7
_chemical_formula_sum   'Sc8 Ti5 Si12 Ge4 W7'
_cell_volume   581.04022460
_cell_formula_units_Z   1
loop_
 _symmetry_equiv_pos_site_id
 _symmetry_equiv_pos_as_xyz
  1  'x, y, z'
loop_
 _atom_site_type_symbol
 _atom_site_label
 _atom_site_symmetry_multiplicity
 _atom_site_fract_x
 _atom_site_fract_y
 _atom_site_fract_z
 _atom_site_occupancy
  Sc  Sc0  1  0.491537  0.673086  0.596097  1
  Sc  Sc1  1  0.991717  0.826795  0.905747  1
  Sc  Sc2  1  0.507589  0.326420  0.095159  1
  Sc  Sc3  1  0.005394  0.174981  0.404585  1
  Sc  Sc4  1  0.500258  0.327622  0.404709  1
  Sc  Sc5  1  0.999747  0.176072  0.095204  1
  Sc  Sc6  1  0.499520  0.675741  0.905284  1
  Sc  Sc7  1  0.000369  0.824830  0.594909  1
  Ti  Ti8  1  0.659980  0.168911  0.627928  1
  Ti  Ti9  1  0.159437  0.331920  0.872475  1
  Ti  Ti10  1  0.341696  0.830877  0.127261  1
  Ti  Ti11  1  0.838440  0.667459  0.371273  1
  Ti  Ti12  1  0.333067  0.831183  0.373514  1
  Si  Si13  1  0.325803  0.038260  0.540961  1
  Si  Si14  1  0.826359  0.460682  0.958961  1
  Si  Si15  1  0.674189  0.961760  0.041113  1
  Si  Si16  1  0.173211  0.539010  0.459794  1
  Si  Si17  1  0.464087  0.384462  0.752628  1
  Si  Si18  1  0.964400  0.114702  0.748298  1
  Si  Si19  1  0.536646  0.615008  0.251136  1
  Si  Si20  1  0.036655  0.883172  0.248070  1
  Si  Si21  1  0.701863  0.859294  0.748261  1
  Si  Si22  1  0.201320  0.641533  0.752044  1
  Si  Si23  1  0.297309  0.139832  0.249620  1
  Si  Si24  1  0.798387  0.359057  0.250615  1
  Ge  Ge25  1  0.675520  0.963358  0.459365  1
  Ge  Ge26  1  0.175593  0.536230  0.040453  1
  Ge  Ge27  1  0.324726  0.037167  0.959845  1
  Ge  Ge28  1  0.824849  0.463428  0.540236  1
  W  W29  1  0.829150  0.666266  0.124223  1
  W  W30  1  0.670932  0.165749  0.874374  1
  W  W31  1  0.170078  0.333447  0.627127  1
  W  W32  1  0.837964  0.493107  0.751675  1
  W  W33  1  0.338178  0.007950  0.749012  1
  W  W34  1  0.162296  0.506955  0.251157  1
  W  W35  1  0.661735  0.993678  0.246893  1
