# generated using pymatgen
data_Nd16Cd4Os2PdPt
_symmetry_space_group_name_H-M   'P 1'
_cell_length_a   9.98877490
_cell_length_b   9.98452884
_cell_length_c   10.06154400
_cell_angle_alpha   59.74451142
_cell_angle_beta   59.75871721
_cell_angle_gamma   59.78180474
_symmetry_Int_Tables_number   1
_chemical_formula_structural   Nd16Cd4Os2PdPt
_chemical_formula_sum   'Nd16 Cd4 Os2 Pd1 Pt1'
_cell_volume   705.72063479
_cell_formula_units_Z   1
loop_
 _symmetry_equiv_pos_site_id
 _symmetry_equiv_pos_as_xyz
  1  'x, y, z'
loop_
 _atom_site_type_symbol
 _atom_site_label
 _atom_site_symmetry_multiplicity
 _atom_site_fract_x
 _atom_site_fract_y
 _atom_site_fract_z
 _atom_site_occupancy
  Nd  Nd0  1  0.349370  0.347940  0.354252  1
  Nd  Nd1  1  0.349370  0.347940  0.948438  1
  Nd  Nd2  1  0.344589  0.956945  0.349234  1
  Nd  Nd3  1  0.955658  0.343799  0.350272  1
  Nd  Nd4  1  0.814415  0.188588  0.191998  1
  Nd  Nd5  1  0.189315  0.815252  0.803632  1
  Nd  Nd6  1  0.189315  0.815252  0.191803  1
  Nd  Nd7  1  0.814415  0.188588  0.805000  1
  Nd  Nd8  1  0.189413  0.189015  0.810786  1
  Nd  Nd9  1  0.805251  0.807387  0.193681  1
  Nd  Nd10  1  0.938059  0.555770  0.566430  1
  Nd  Nd11  1  0.556072  0.938256  0.940013  1
  Nd  Nd12  1  0.556072  0.938256  0.565660  1
  Nd  Nd13  1  0.938059  0.555770  0.939741  1
  Nd  Nd14  1  0.563611  0.562073  0.937158  1
  Nd  Nd15  1  0.938881  0.938484  0.561318  1
  Cd  Cd16  1  0.579862  0.579840  0.580017  1
  Cd  Cd17  1  0.579862  0.579840  0.260282  1
  Cd  Cd18  1  0.580688  0.258710  0.580302  1
  Cd  Cd19  1  0.258743  0.580625  0.580317  1
  Os  Os20  1  0.144451  0.144941  0.135911  1
  Os  Os21  1  0.144451  0.144941  0.574696  1
  Pd  Pd22  1  0.145815  0.574470  0.139858  1
  Pt  Pt23  1  0.574270  0.147319  0.139205  1
