# generated using pymatgen
data_Pa2O3F4
_symmetry_space_group_name_H-M   'P 1'
_cell_length_a   9.19416242
_cell_length_b   9.19416167
_cell_length_c   6.22511700
_cell_angle_alpha   90.00000000
_cell_angle_beta   90.00000000
_cell_angle_gamma   140.29452533
_symmetry_Int_Tables_number   1
_chemical_formula_structural   Pa2O3F4
_chemical_formula_sum   'Pa4 O6 F8'
_cell_volume   336.17455007
_cell_formula_units_Z   2
loop_
 _symmetry_equiv_pos_site_id
 _symmetry_equiv_pos_as_xyz
  1  'x, y, z'
loop_
 _atom_site_type_symbol
 _atom_site_label
 _atom_site_symmetry_multiplicity
 _atom_site_fract_x
 _atom_site_fract_y
 _atom_site_fract_z
 _atom_site_occupancy
  Pa  Pa0  1  0.104348  0.347650  0.251016  1
  Pa  Pa1  1  0.895652  0.652350  0.751016  1
  Pa  Pa2  1  0.652350  0.895652  0.751016  1
  Pa  Pa3  1  0.347650  0.104348  0.251016  1
  O  O4  1  0.124785  0.882270  0.998137  1
  O  O5  1  0.875215  0.117730  0.498137  1
  O  O6  1  0.233331  0.233331  0.248762  1
  O  O7  1  0.766669  0.766669  0.748762  1
  O  O8  1  0.882270  0.124785  0.998137  1
  O  O9  1  0.117730  0.875215  0.498137  1
  F  F10  1  0.503987  0.021032  0.249994  1
  F  F11  1  0.496013  0.978968  0.749994  1
  F  F12  1  0.978968  0.496013  0.749994  1
  F  F13  1  0.021032  0.503987  0.249994  1
  F  F14  1  0.621894  0.392256  0.008237  1
  F  F15  1  0.378106  0.607744  0.508237  1
  F  F16  1  0.607744  0.378106  0.508237  1
  F  F17  1  0.392256  0.621894  0.008237  1
