# generated using pymatgen
data_Ta18Nb2Al9Au
_symmetry_space_group_name_H-M   'P 1'
_cell_length_a   9.95679368
_cell_length_b   9.95679429
_cell_length_c   5.21933600
_cell_angle_alpha   90.00000000
_cell_angle_beta   90.00000000
_cell_angle_gamma   90.42344723
_symmetry_Int_Tables_number   1
_chemical_formula_structural   Ta18Nb2Al9Au
_chemical_formula_sum   'Ta18 Nb2 Al9 Au1'
_cell_volume   517.41907812
_cell_formula_units_Z   1
loop_
 _symmetry_equiv_pos_site_id
 _symmetry_equiv_pos_as_xyz
  1  'x, y, z'
loop_
 _atom_site_type_symbol
 _atom_site_label
 _atom_site_symmetry_multiplicity
 _atom_site_fract_x
 _atom_site_fract_y
 _atom_site_fract_z
 _atom_site_occupancy
  Ta  Ta0  1  0.397983  0.397983  0.000379  1
  Ta  Ta1  1  0.897504  0.102496  0.498896  1
  Ta  Ta2  1  0.102496  0.897504  0.498896  1
  Ta  Ta3  1  0.602017  0.602017  0.000379  1
  Ta  Ta4  1  0.130142  0.465118  0.000440  1
  Ta  Ta5  1  0.962741  0.371361  0.499704  1
  Ta  Ta6  1  0.037259  0.628639  0.499704  1
  Ta  Ta7  1  0.869858  0.534882  0.000440  1
  Ta  Ta8  1  0.371361  0.962741  0.499704  1
  Ta  Ta9  1  0.628639  0.037259  0.499704  1
  Ta  Ta10  1  0.465118  0.130142  0.000440  1
  Ta  Ta11  1  0.534882  0.869858  0.000440  1
  Ta  Ta12  1  0.182447  0.182447  0.251428  1
  Ta  Ta13  1  0.683284  0.316716  0.751854  1
  Ta  Ta14  1  0.316716  0.683284  0.751854  1
  Ta  Ta15  1  0.817553  0.817553  0.251428  1
  Ta  Ta16  1  0.316491  0.683509  0.248426  1
  Ta  Ta17  1  0.683509  0.316491  0.248426  1
  Nb  Nb18  1  0.181784  0.181784  0.748130  1
  Nb  Nb19  1  0.818216  0.818216  0.748130  1
  Al  Al20  1  0.000000  0.000000  0.999756  1
  Al  Al21  1  0.262010  0.934023  0.999978  1
  Al  Al22  1  0.433397  0.238740  0.500391  1
  Al  Al23  1  0.566603  0.761260  0.500391  1
  Al  Al24  1  0.737990  0.065977  0.999978  1
  Al  Al25  1  0.238740  0.433397  0.500391  1
  Al  Al26  1  0.761260  0.566603  0.500391  1
  Al  Al27  1  0.934023  0.262010  0.999978  1
  Al  Al28  1  0.065977  0.737990  0.999978  1
  Au  Au29  1  0.500000  0.500000  0.499974  1
