# generated using pymatgen
data_CrI31
_symmetry_space_group_name_H-M   'P 1'
_cell_length_a   8.96078900
_cell_length_b   10.14907636
_cell_length_c   20.20637100
_cell_angle_alpha   85.30545022
_cell_angle_beta   90.00000000
_cell_angle_gamma   90.00000000
_symmetry_Int_Tables_number   1
_chemical_formula_structural   CrI31
_chemical_formula_sum   'Cr1 I31'
_cell_volume   1831.47781779
_cell_formula_units_Z   1
loop_
 _symmetry_equiv_pos_site_id
 _symmetry_equiv_pos_as_xyz
  1  'x, y, z'
loop_
 _atom_site_type_symbol
 _atom_site_label
 _atom_site_symmetry_multiplicity
 _atom_site_fract_x
 _atom_site_fract_y
 _atom_site_fract_z
 _atom_site_occupancy
  Cr  Cr0  1  0.750000  0.855774  0.156152  1
  I  I1  1  0.750000  0.426731  0.339467  1
  I  I2  1  0.250000  0.644403  0.668195  1
  I  I3  1  0.250000  0.120454  0.831700  1
  I  I4  1  0.250000  0.317042  0.156625  1
  I  I5  1  0.750000  0.959449  0.756992  1
  I  I6  1  0.750000  0.885012  0.276821  1
  I  I7  1  0.526407  0.732019  0.124830  1
  I  I8  1  0.250000  0.563004  0.281866  1
  I  I9  1  0.501102  0.791413  0.602730  1
  I  I10  1  0.250000  0.724089  0.813484  1
  I  I11  1  0.250000  0.070126  0.427247  1
  I  I12  1  0.750000  0.570832  0.460060  1
  I  I13  1  0.501806  0.248900  0.895284  1
  I  I14  1  0.250000  0.783767  0.945966  1
  I  I15  1  0.750000  0.324552  0.209913  1
  I  I16  1  0.498290  0.241071  0.386193  1
  I  I17  1  0.750000  0.220179  0.674142  1
  I  I18  1  0.250000  0.798555  0.341322  1
  I  I19  1  0.001710  0.241071  0.386193  1
  I  I20  1  0.750000  0.936148  0.540125  1
  I  I21  1  0.973593  0.732019  0.124830  1
  I  I22  1  0.250000  0.054128  0.220770  1
  I  I23  1  0.750000  0.073858  0.090988  1
  I  I24  1  0.750000  0.695812  0.823002  1
  I  I25  1  0.750000  0.461644  0.740020  1
  I  I26  1  0.250000  0.502957  0.037526  1
  I  I27  1  0.998898  0.791413  0.602730  1
  I  I28  1  0.750000  0.378281  0.955754  1
  I  I29  1  0.250000  0.358805  0.552253  1
  I  I30  1  0.250000  0.247586  0.681535  1
  I  I31  1  0.998194  0.248900  0.895284  1
