# generated using pymatgen
data_LaTmSn5Rh3
_symmetry_space_group_name_H-M   'P 1'
_cell_length_a   13.55845172
_cell_length_b   13.55845173
_cell_length_c   7.26999400
_cell_angle_alpha   90.00000000
_cell_angle_beta   90.00000000
_cell_angle_gamma   160.89275453
_symmetry_Int_Tables_number   1
_chemical_formula_structural   LaTmSn5Rh3
_chemical_formula_sum   'La2 Tm2 Sn10 Rh6'
_cell_volume   437.47160437
_cell_formula_units_Z   2
loop_
 _symmetry_equiv_pos_site_id
 _symmetry_equiv_pos_as_xyz
  1  'x, y, z'
loop_
 _atom_site_type_symbol
 _atom_site_label
 _atom_site_symmetry_multiplicity
 _atom_site_fract_x
 _atom_site_fract_y
 _atom_site_fract_z
 _atom_site_occupancy
  La  La0  1  0.171429  0.828571  0.746166  1
  La  La1  1  0.828571  0.171429  0.246166  1
  Tm  Tm2  1  0.476137  0.523863  0.762494  1
  Tm  Tm3  1  0.523863  0.476137  0.262494  1
  Sn  Sn4  1  0.881555  0.118445  0.767070  1
  Sn  Sn5  1  0.118445  0.881555  0.267070  1
  Sn  Sn6  1  0.704345  0.295655  0.447766  1
  Sn  Sn7  1  0.295655  0.704345  0.947766  1
  Sn  Sn8  1  0.593404  0.406596  0.887295  1
  Sn  Sn9  1  0.406596  0.593404  0.387295  1
  Sn  Sn10  1  0.953471  0.046529  0.102232  1
  Sn  Sn11  1  0.046529  0.953471  0.602232  1
  Sn  Sn12  1  0.290233  0.709767  0.526568  1
  Sn  Sn13  1  0.709767  0.290233  0.026568  1
  Rh  Rh14  1  0.049084  0.950916  0.983774  1
  Rh  Rh15  1  0.950916  0.049084  0.483774  1
  Rh  Rh16  1  0.778208  0.221792  0.737321  1
  Rh  Rh17  1  0.221792  0.778208  0.237321  1
  Rh  Rh18  1  0.396328  0.603672  0.011314  1
  Rh  Rh19  1  0.603672  0.396328  0.511314  1
