# generated using pymatgen
data_Y5HoAl24Ir5Ru3
_symmetry_space_group_name_H-M   'P 1'
_cell_length_a   8.81826606
_cell_length_b   8.78204165
_cell_length_c   9.53941992
_cell_angle_alpha   89.99876725
_cell_angle_beta   89.89941998
_cell_angle_gamma   119.88270936
_symmetry_Int_Tables_number   1
_chemical_formula_structural   Y5HoAl24Ir5Ru3
_chemical_formula_sum   'Y5 Ho1 Al24 Ir5 Ru3'
_cell_volume   640.53441280
_cell_formula_units_Z   1
loop_
 _symmetry_equiv_pos_site_id
 _symmetry_equiv_pos_as_xyz
  1  'x, y, z'
loop_
 _atom_site_type_symbol
 _atom_site_label
 _atom_site_symmetry_multiplicity
 _atom_site_fract_x
 _atom_site_fract_y
 _atom_site_fract_z
 _atom_site_occupancy
  Y  Y0  1  0.190990  0.384765  0.250064  1
  Y  Y1  1  0.809095  0.615101  0.749959  1
  Y  Y2  1  0.615187  0.807576  0.250137  1
  Y  Y3  1  0.384811  0.192335  0.749863  1
  Y  Y4  1  0.190965  0.806170  0.250055  1
  Ho  Ho5  1  0.808573  0.194755  0.749831  1
  Al  Al6  1  0.332881  0.666375  0.028317  1
  Al  Al7  1  0.667077  0.333465  0.971085  1
  Al  Al8  1  0.669467  0.334671  0.528405  1
  Al  Al9  1  0.330585  0.665233  0.472175  1
  Al  Al10  1  0.162299  0.327154  0.576764  1
  Al  Al11  1  0.837284  0.672424  0.423749  1
  Al  Al12  1  0.673521  0.836934  0.575952  1
  Al  Al13  1  0.835325  0.672609  0.076482  1
  Al  Al14  1  0.326882  0.163417  0.424602  1
  Al  Al15  1  0.164301  0.326975  0.923038  1
  Al  Al16  1  0.162667  0.835175  0.576532  1
  Al  Al17  1  0.326043  0.163003  0.076242  1
  Al  Al18  1  0.837393  0.164753  0.424109  1
  Al  Al19  1  0.674344  0.837407  0.923234  1
  Al  Al20  1  0.835408  0.162578  0.076102  1
  Al  Al21  1  0.164638  0.837337  0.923260  1
  Al  Al22  1  0.561621  0.124748  0.249817  1
  Al  Al23  1  0.438792  0.875415  0.750210  1
  Al  Al24  1  0.875636  0.437686  0.251322  1
  Al  Al25  1  0.124292  0.561969  0.748690  1
  Al  Al26  1  0.561581  0.436730  0.249809  1
  Al  Al27  1  0.438463  0.563224  0.750209  1
  Al  Al28  1  0.998297  0.999167  0.249958  1
  Al  Al29  1  0.000819  0.001620  0.750050  1
  Ir  Ir30  1  0.500351  0.000138  0.999755  1
  Ir  Ir31  1  0.999782  0.499537  0.999661  1
  Ir  Ir32  1  0.500415  0.000175  0.500309  1
  Ir  Ir33  1  0.500054  0.499962  0.999947  1
  Ir  Ir34  1  0.500041  0.499953  0.500067  1
  Ru  Ru35  1  0.999884  0.499699  0.500285  1
  Ru  Ru36  1  0.000110  0.999886  0.000015  1
  Ru  Ru37  1  0.000124  0.999881  0.499940  1
