# generated using pymatgen
data_TbSnHIr
_symmetry_space_group_name_H-M   'P 1'
_cell_length_a   4.47130500
_cell_length_b   7.24511500
_cell_length_c   8.33097000
_cell_angle_alpha   90.00000000
_cell_angle_beta   90.00000000
_cell_angle_gamma   90.00000000
_symmetry_Int_Tables_number   1
_chemical_formula_structural   TbSnHIr
_chemical_formula_sum   'Tb4 Sn4 H4 Ir4'
_cell_volume   269.88276391
_cell_formula_units_Z   4
loop_
 _symmetry_equiv_pos_site_id
 _symmetry_equiv_pos_as_xyz
  1  'x, y, z'
loop_
 _atom_site_type_symbol
 _atom_site_label
 _atom_site_symmetry_multiplicity
 _atom_site_fract_x
 _atom_site_fract_y
 _atom_site_fract_z
 _atom_site_occupancy
  Tb  Tb0  1  0.750000  0.016251  0.691353  1
  Tb  Tb1  1  0.250000  0.983749  0.308647  1
  Tb  Tb2  1  0.250000  0.483749  0.191353  1
  Tb  Tb3  1  0.750000  0.516251  0.808647  1
  Sn  Sn4  1  0.750000  0.656704  0.420841  1
  Sn  Sn5  1  0.250000  0.343296  0.579159  1
  Sn  Sn6  1  0.250000  0.843296  0.920841  1
  Sn  Sn7  1  0.750000  0.156704  0.079159  1
  H  H8  1  0.250000  0.458908  0.919795  1
  H  H9  1  0.750000  0.541092  0.080205  1
  H  H10  1  0.750000  0.041092  0.419795  1
  H  H11  1  0.250000  0.958908  0.580205  1
  Ir  Ir12  1  0.750000  0.773725  0.099548  1
  Ir  Ir13  1  0.250000  0.226275  0.900452  1
  Ir  Ir14  1  0.250000  0.726275  0.599548  1
  Ir  Ir15  1  0.750000  0.273725  0.400452  1
