# generated using pymatgen
data_Mn17Cr3Si(WC3)2
_symmetry_space_group_name_H-M   'P 1'
_cell_length_a   7.41409932
_cell_length_b   7.41409996
_cell_length_c   7.41410005
_cell_angle_alpha   60.11952064
_cell_angle_beta   60.11951609
_cell_angle_gamma   60.11951610
_symmetry_Int_Tables_number   1
_chemical_formula_structural   Mn17Cr3Si(WC3)2
_chemical_formula_sum   'Mn17 Cr3 Si1 W2 C6'
_cell_volume   288.95794309
_cell_formula_units_Z   1
loop_
 _symmetry_equiv_pos_site_id
 _symmetry_equiv_pos_as_xyz
  1  'x, y, z'
loop_
 _atom_site_type_symbol
 _atom_site_label
 _atom_site_symmetry_multiplicity
 _atom_site_fract_x
 _atom_site_fract_y
 _atom_site_fract_z
 _atom_site_occupancy
  Mn  Mn0  1  0.615374  0.615374  0.152862  1
  Mn  Mn1  1  0.615374  0.152861  0.615374  1
  Mn  Mn2  1  0.152862  0.615374  0.615374  1
  Mn  Mn3  1  0.614989  0.614989  0.614989  1
  Mn  Mn4  1  0.383701  0.383701  0.847489  1
  Mn  Mn5  1  0.383701  0.847489  0.383701  1
  Mn  Mn6  1  0.847489  0.383701  0.383701  1
  Mn  Mn7  1  0.384275  0.384275  0.384275  1
  Mn  Mn8  1  0.000216  0.000216  0.338598  1
  Mn  Mn9  1  0.662322  0.999008  0.338850  1
  Mn  Mn10  1  0.999008  0.662322  0.338850  1
  Mn  Mn11  1  0.662322  0.338850  0.999008  1
  Mn  Mn12  1  0.000216  0.338598  0.000216  1
  Mn  Mn13  1  0.999008  0.338850  0.662322  1
  Mn  Mn14  1  0.338850  0.662322  0.999008  1
  Mn  Mn15  1  0.338850  0.999008  0.662322  1
  Mn  Mn16  1  0.338598  0.000216  0.000216  1
  Cr  Cr17  1  0.000556  0.000556  0.660620  1
  Cr  Cr18  1  0.000556  0.660620  0.000556  1
  Cr  Cr19  1  0.660620  0.000556  0.000556  1
  Si  Si20  1  0.001701  0.001701  0.001701  1
  W  W21  1  0.749501  0.749501  0.749501  1
  W  W22  1  0.250037  0.250037  0.250037  1
  C  C23  1  0.719191  0.719191  0.283140  1
  C  C24  1  0.278465  0.721423  0.278465  1
  C  C25  1  0.721423  0.278465  0.278465  1
  C  C26  1  0.278465  0.278465  0.721423  1
  C  C27  1  0.719191  0.283140  0.719191  1
  C  C28  1  0.283140  0.719191  0.719191  1
