# generated using pymatgen
data_Ho(Er2Ru)2
_symmetry_space_group_name_H-M   'P 1'
_cell_length_a   6.27513709
_cell_length_b   7.25606783
_cell_length_c   8.39240821
_cell_angle_alpha   96.78370263
_cell_angle_beta   111.95374590
_cell_angle_gamma   90.00000180
_symmetry_Int_Tables_number   1
_chemical_formula_structural   Ho(Er2Ru)2
_chemical_formula_sum   'Ho2 Er8 Ru4'
_cell_volume   351.53417749
_cell_formula_units_Z   2
loop_
 _symmetry_equiv_pos_site_id
 _symmetry_equiv_pos_as_xyz
  1  'x, y, z'
loop_
 _atom_site_type_symbol
 _atom_site_label
 _atom_site_symmetry_multiplicity
 _atom_site_fract_x
 _atom_site_fract_y
 _atom_site_fract_z
 _atom_site_occupancy
  Ho  Ho0  1  0.791291  0.584363  0.813483  1
  Ho  Ho1  1  0.977807  0.915637  0.186517  1
  Er  Er2  1  0.208696  0.415468  0.186329  1
  Er  Er3  1  0.022367  0.084532  0.813671  1
  Er  Er4  1  0.205632  0.684739  0.565071  1
  Er  Er5  1  0.640561  0.815261  0.434929  1
  Er  Er6  1  0.794185  0.315113  0.434817  1
  Er  Er7  1  0.359368  0.184887  0.565183  1
  Er  Er8  1  0.418794  0.750000  0.000000  1
  Er  Er9  1  0.580869  0.250000  0.000000  1
  Ru  Ru10  1  0.602451  0.923869  0.779472  1
  Ru  Ru11  1  0.822978  0.576131  0.220528  1
  Ru  Ru12  1  0.397679  0.076488  0.220358  1
  Ru  Ru13  1  0.177322  0.423512  0.779642  1
