# generated using pymatgen
data_GaCu(RhS2)4
_symmetry_space_group_name_H-M   'P 1'
_cell_length_a   7.06613079
_cell_length_b   7.06613193
_cell_length_c   7.06613100
_cell_angle_alpha   60.00000901
_cell_angle_beta   60.00000370
_cell_angle_gamma   60.00000237
_symmetry_Int_Tables_number   1
_chemical_formula_structural   GaCu(RhS2)4
_chemical_formula_sum   'Ga1 Cu1 Rh4 S8'
_cell_volume   249.47679127
_cell_formula_units_Z   1
loop_
 _symmetry_equiv_pos_site_id
 _symmetry_equiv_pos_as_xyz
  1  'x, y, z'
loop_
 _atom_site_type_symbol
 _atom_site_label
 _atom_site_symmetry_multiplicity
 _atom_site_fract_x
 _atom_site_fract_y
 _atom_site_fract_z
 _atom_site_occupancy
  Ga  Ga0  1  0.750000  0.750000  0.750000  1
  Cu  Cu1  1  0.500000  0.500000  0.500000  1
  Rh  Rh2  1  0.127415  0.127415  0.617756  1
  Rh  Rh3  1  0.127415  0.617756  0.127415  1
  Rh  Rh4  1  0.617756  0.127415  0.127415  1
  Rh  Rh5  1  0.127415  0.127415  0.127415  1
  S  S6  1  0.887017  0.338949  0.887017  1
  S  S7  1  0.363851  0.363851  0.908449  1
  S  S8  1  0.363851  0.363851  0.363851  1
  S  S9  1  0.908449  0.363851  0.363851  1
  S  S10  1  0.887017  0.887017  0.887017  1
  S  S11  1  0.338949  0.887017  0.887017  1
  S  S12  1  0.363851  0.908449  0.363851  1
  S  S13  1  0.887017  0.887017  0.338949  1
