# generated using pymatgen
data_IF18
_symmetry_space_group_name_H-M   'P 1'
_cell_length_a   5.85743597
_cell_length_b   9.37752285
_cell_length_c   13.56166100
_cell_angle_alpha   101.85032987
_cell_angle_beta   93.26313484
_cell_angle_gamma   102.74165111
_symmetry_Int_Tables_number   1
_chemical_formula_structural   IF18
_chemical_formula_sum   'I2 F36'
_cell_volume   707.00074063
_cell_formula_units_Z   2
loop_
 _symmetry_equiv_pos_site_id
 _symmetry_equiv_pos_as_xyz
  1  'x, y, z'
loop_
 _atom_site_type_symbol
 _atom_site_label
 _atom_site_symmetry_multiplicity
 _atom_site_fract_x
 _atom_site_fract_y
 _atom_site_fract_z
 _atom_site_occupancy
  I  I0  1  0.165998  0.989642  0.278711  1
  I  I1  1  0.834002  0.010358  0.721289  1
  F  F2  1  0.666529  0.638955  0.377307  1
  F  F3  1  0.333471  0.361045  0.622693  1
  F  F4  1  0.008341  0.391308  0.361509  1
  F  F5  1  0.991659  0.608692  0.638491  1
  F  F6  1  0.208249  0.881407  0.938540  1
  F  F7  1  0.791751  0.118593  0.061460  1
  F  F8  1  0.908569  0.080872  0.307913  1
  F  F9  1  0.091431  0.919128  0.692087  1
  F  F10  1  0.967747  0.801274  0.288574  1
  F  F11  1  0.032253  0.198726  0.711426  1
  F  F12  1  0.574576  0.501730  0.406585  1
  F  F13  1  0.425424  0.498270  0.593415  1
  F  F14  1  0.058469  0.952215  0.137577  1
  F  F15  1  0.941531  0.047785  0.862423  1
  F  F16  1  0.267222  0.039205  0.421570  1
  F  F17  1  0.732778  0.960795  0.578430  1
  F  F18  1  0.090315  0.410140  0.266829  1
  F  F19  1  0.909685  0.589860  0.733171  1
  F  F20  1  0.709689  0.664072  0.066296  1
  F  F21  1  0.290311  0.335928  0.933704  1
  F  F22  1  0.866598  0.597863  0.005871  1
  F  F23  1  0.133402  0.402137  0.994129  1
  F  F24  1  0.541398  0.576086  0.849780  1
  F  F25  1  0.458602  0.423914  0.150220  1
  F  F26  1  0.365108  0.176956  0.268420  1
  F  F27  1  0.634892  0.823044  0.731580  1
  F  F28  1  0.290576  0.800364  0.500970  1
  F  F29  1  0.709424  0.199636  0.499030  1
  F  F30  1  0.374978  0.829367  0.993956  1
  F  F31  1  0.625022  0.170633  0.006044  1
  F  F32  1  0.417700  0.890490  0.248658  1
  F  F33  1  0.582300  0.109510  0.751342  1
  F  F34  1  0.685644  0.414435  0.188400  1
  F  F35  1  0.314356  0.585565  0.811600  1
  F  F36  1  0.161566  0.648591  0.463285  1
  F  F37  1  0.838434  0.351409  0.536715  1
