# generated using pymatgen
data_Tb5Dy5Tl4(HgPd)4
_symmetry_space_group_name_H-M   'P 1'
_cell_length_a   3.64477600
_cell_length_b   8.05730891
_cell_length_c   18.34894000
_cell_angle_alpha   89.96059777
_cell_angle_beta   90.00000000
_cell_angle_gamma   90.00000000
_symmetry_Int_Tables_number   1
_chemical_formula_structural   Tb5Dy5Tl4(HgPd)4
_chemical_formula_sum   'Tb5 Dy5 Tl4 Hg4 Pd4'
_cell_volume   538.85477382
_cell_formula_units_Z   1
loop_
 _symmetry_equiv_pos_site_id
 _symmetry_equiv_pos_as_xyz
  1  'x, y, z'
loop_
 _atom_site_type_symbol
 _atom_site_label
 _atom_site_symmetry_multiplicity
 _atom_site_fract_x
 _atom_site_fract_y
 _atom_site_fract_z
 _atom_site_occupancy
  Tb  Tb0  1  0.000000  0.500850  0.499801  1
  Tb  Tb1  1  0.000000  0.999303  0.000007  1
  Tb  Tb2  1  0.000000  0.744692  0.285456  1
  Tb  Tb3  1  0.000000  0.256259  0.714263  1
  Tb  Tb4  1  0.000000  0.754886  0.785695  1
  Dy  Dy5  1  0.000000  0.244019  0.214352  1
  Dy  Dy6  1  0.000000  0.609342  0.084285  1
  Dy  Dy7  1  0.000000  0.389281  0.916703  1
  Dy  Dy8  1  0.000000  0.890962  0.583786  1
  Dy  Dy9  1  0.000000  0.110786  0.415647  1
  Tl  Tl10  1  0.500000  0.582513  0.649250  1
  Tl  Tl11  1  0.500000  0.418068  0.350524  1
  Tl  Tl12  1  0.500000  0.918484  0.149070  1
  Tl  Tl13  1  0.500000  0.081821  0.850860  1
  Hg  Hg14  1  0.500000  0.708091  0.935194  1
  Hg  Hg15  1  0.500000  0.290319  0.065771  1
  Hg  Hg16  1  0.500000  0.792206  0.434621  1
  Hg  Hg17  1  0.500000  0.209279  0.564773  1
  Pd  Pd18  1  0.500000  0.529886  0.197268  1
  Pd  Pd19  1  0.500000  0.467321  0.803264  1
  Pd  Pd20  1  0.500000  0.968324  0.697187  1
  Pd  Pd21  1  0.500000  0.033308  0.302219  1
