# generated using pymatgen
data_Sm2TcP4Rh5
_symmetry_space_group_name_H-M   'P 1'
_cell_length_a   3.97381800
_cell_length_b   11.25112400
_cell_length_c   12.82203000
_cell_angle_alpha   90.00000000
_cell_angle_beta   90.00000000
_cell_angle_gamma   90.00000000
_symmetry_Int_Tables_number   1
_chemical_formula_structural   Sm2TcP4Rh5
_chemical_formula_sum   'Sm6 Tc3 P12 Rh15'
_cell_volume   573.27192363
_cell_formula_units_Z   3
loop_
 _symmetry_equiv_pos_site_id
 _symmetry_equiv_pos_as_xyz
  1  'x, y, z'
loop_
 _atom_site_type_symbol
 _atom_site_label
 _atom_site_symmetry_multiplicity
 _atom_site_fract_x
 _atom_site_fract_y
 _atom_site_fract_z
 _atom_site_occupancy
  Sm  Sm0  1  0.000000  0.500000  0.520175  1
  Sm  Sm1  1  0.500000  0.000000  0.479275  1
  Sm  Sm2  1  0.500000  0.813805  0.203628  1
  Sm  Sm3  1  0.500000  0.186195  0.203628  1
  Sm  Sm4  1  0.000000  0.682925  0.796882  1
  Sm  Sm5  1  0.000000  0.317075  0.796882  1
  Tc  Tc6  1  0.500000  0.500000  0.157290  1
  Tc  Tc7  1  0.000000  0.000000  0.842416  1
  Tc  Tc8  1  0.000000  0.500000  0.988107  1
  P  P9  1  0.500000  0.500000  0.879751  1
  P  P10  1  0.000000  0.000000  0.122571  1
  P  P11  1  0.500000  0.500000  0.341278  1
  P  P12  1  0.000000  0.000000  0.657392  1
  P  P13  1  0.500000  0.312101  0.618240  1
  P  P14  1  0.500000  0.687899  0.618240  1
  P  P15  1  0.000000  0.186960  0.382084  1
  P  P16  1  0.000000  0.813040  0.382084  1
  P  P17  1  0.500000  0.848873  0.890691  1
  P  P18  1  0.500000  0.151127  0.890691  1
  P  P19  1  0.000000  0.649566  0.107499  1
  P  P20  1  0.000000  0.350434  0.107499  1
  Rh  Rh21  1  0.500000  0.500000  0.696804  1
  Rh  Rh22  1  0.000000  0.000000  0.300960  1
  Rh  Rh23  1  0.500000  0.000000  0.012351  1
  Rh  Rh24  1  0.500000  0.328601  0.986980  1
  Rh  Rh25  1  0.500000  0.671399  0.986980  1
  Rh  Rh26  1  0.000000  0.166074  0.013690  1
  Rh  Rh27  1  0.000000  0.833926  0.013690  1
  Rh  Rh28  1  0.500000  0.293904  0.431225  1
  Rh  Rh29  1  0.500000  0.706096  0.431225  1
  Rh  Rh30  1  0.000000  0.206163  0.569552  1
  Rh  Rh31  1  0.000000  0.793837  0.569552  1
  Rh  Rh32  1  0.500000  0.876856  0.710723  1
  Rh  Rh33  1  0.500000  0.123144  0.710723  1
  Rh  Rh34  1  0.000000  0.624059  0.289622  1
  Rh  Rh35  1  0.000000  0.375941  0.289622  1
