# generated using pymatgen
data_Ho6ScFeO12
_symmetry_space_group_name_H-M   'P 1'
_cell_length_a   6.53730295
_cell_length_b   6.53730287
_cell_length_c   6.53730338
_cell_angle_alpha   92.63119598
_cell_angle_beta   92.63119896
_cell_angle_gamma   92.63119379
_symmetry_Int_Tables_number   1
_chemical_formula_structural   Ho6ScFeO12
_chemical_formula_sum   'Ho6 Sc1 Fe1 O12'
_cell_volume   278.46866653
_cell_formula_units_Z   1
loop_
 _symmetry_equiv_pos_site_id
 _symmetry_equiv_pos_as_xyz
  1  'x, y, z'
loop_
 _atom_site_type_symbol
 _atom_site_label
 _atom_site_symmetry_multiplicity
 _atom_site_fract_x
 _atom_site_fract_y
 _atom_site_fract_z
 _atom_site_occupancy
  Ho  Ho0  1  0.743679  0.927875  0.437172  1
  Ho  Ho1  1  0.927875  0.437172  0.743679  1
  Ho  Ho2  1  0.437172  0.743679  0.927875  1
  Ho  Ho3  1  0.256321  0.072125  0.562828  1
  Ho  Ho4  1  0.072125  0.562828  0.256321  1
  Ho  Ho5  1  0.562828  0.256321  0.072125  1
  Sc  Sc6  1  0.000000  0.000000  0.000000  1
  Fe  Fe7  1  0.500000  0.500000  0.500000  1
  O  O8  1  0.589383  0.461488  0.801122  1
  O  O9  1  0.461488  0.801122  0.589383  1
  O  O10  1  0.801122  0.589383  0.461488  1
  O  O11  1  0.410617  0.538512  0.198878  1
  O  O12  1  0.538512  0.198878  0.410617  1
  O  O13  1  0.198878  0.410617  0.538512  1
  O  O14  1  0.068888  0.913669  0.308354  1
  O  O15  1  0.913669  0.308354  0.068888  1
  O  O16  1  0.691646  0.931112  0.086331  1
  O  O17  1  0.086331  0.691646  0.931112  1
  O  O18  1  0.931112  0.086331  0.691646  1
  O  O19  1  0.308354  0.068888  0.913669  1
