# generated using pymatgen
data_Sr4GdYTaSbO12
_symmetry_space_group_name_H-M   'P 1'
_cell_length_a   5.87031823
_cell_length_b   5.96105234
_cell_length_c   8.34144300
_cell_angle_alpha   89.99105152
_cell_angle_beta   90.24398749
_cell_angle_gamma   89.98291984
_symmetry_Int_Tables_number   1
_chemical_formula_structural   Sr4GdYTaSbO12
_chemical_formula_sum   'Sr4 Gd1 Y1 Ta1 Sb1 O12'
_cell_volume   291.89173886
_cell_formula_units_Z   1
loop_
 _symmetry_equiv_pos_site_id
 _symmetry_equiv_pos_as_xyz
  1  'x, y, z'
loop_
 _atom_site_type_symbol
 _atom_site_label
 _atom_site_symmetry_multiplicity
 _atom_site_fract_x
 _atom_site_fract_y
 _atom_site_fract_z
 _atom_site_occupancy
  Sr  Sr0  1  0.990893  0.461929  0.250203  1
  Sr  Sr1  1  0.510296  0.961109  0.250402  1
  Sr  Sr2  1  0.489705  0.038892  0.749598  1
  Sr  Sr3  1  0.009106  0.538071  0.749797  1
  Gd  Gd4  1  0.000000  0.000000  0.000000  1
  Y  Y5  1  0.499999  0.500000  0.499999  1
  Ta  Ta6  1  0.500001  0.500000  0.000000  1
  Sb  Sb7  1  0.000000  0.000000  0.499999  1
  O  O8  1  0.772953  0.694773  0.043382  1
  O  O9  1  0.691158  0.226159  0.047248  1
  O  O10  1  0.416060  0.525562  0.234235  1
  O  O11  1  0.085412  0.025812  0.266957  1
  O  O12  1  0.805165  0.725734  0.453023  1
  O  O13  1  0.726398  0.198321  0.456688  1
  O  O14  1  0.273601  0.801679  0.543312  1
  O  O15  1  0.194836  0.274266  0.546977  1
  O  O16  1  0.914586  0.974188  0.733043  1
  O  O17  1  0.583939  0.474439  0.765765  1
  O  O18  1  0.308842  0.773840  0.952752  1
  O  O19  1  0.227048  0.305227  0.956618  1
