# generated using pymatgen
data_Dy20Bi8OsPt3
_symmetry_space_group_name_H-M   'P 1'
_cell_length_a   8.05825388
_cell_length_b   9.02985700
_cell_length_c   12.47865577
_cell_angle_alpha   90.00000000
_cell_angle_beta   89.95710507
_cell_angle_gamma   90.00000000
_symmetry_Int_Tables_number   1
_chemical_formula_structural   Dy20Bi8OsPt3
_chemical_formula_sum   'Dy20 Bi8 Os1 Pt3'
_cell_volume   908.00763805
_cell_formula_units_Z   1
loop_
 _symmetry_equiv_pos_site_id
 _symmetry_equiv_pos_as_xyz
  1  'x, y, z'
loop_
 _atom_site_type_symbol
 _atom_site_label
 _atom_site_symmetry_multiplicity
 _atom_site_fract_x
 _atom_site_fract_y
 _atom_site_fract_z
 _atom_site_occupancy
  Dy  Dy0  1  0.835662  0.750000  0.787933  1
  Dy  Dy1  1  0.162266  0.250000  0.209941  1
  Dy  Dy2  1  0.340485  0.250000  0.707505  1
  Dy  Dy3  1  0.656729  0.750000  0.295367  1
  Dy  Dy4  1  0.376564  0.750000  0.695438  1
  Dy  Dy5  1  0.627316  0.250000  0.301975  1
  Dy  Dy6  1  0.872174  0.250000  0.802922  1
  Dy  Dy7  1  0.127602  0.750000  0.195965  1
  Dy  Dy8  1  0.946103  0.750000  0.501266  1
  Dy  Dy9  1  0.049465  0.250000  0.498684  1
  Dy  Dy10  1  0.451758  0.250000  0.000696  1
  Dy  Dy11  1  0.548883  0.750000  0.000865  1
  Dy  Dy12  1  0.677759  0.038323  0.565740  1
  Dy  Dy13  1  0.323472  0.951071  0.435626  1
  Dy  Dy14  1  0.180136  0.956311  0.932268  1
  Dy  Dy15  1  0.323472  0.548929  0.435626  1
  Dy  Dy16  1  0.820779  0.044406  0.066685  1
  Dy  Dy17  1  0.677759  0.461677  0.565740  1
  Dy  Dy18  1  0.820779  0.455594  0.066685  1
  Dy  Dy19  1  0.180136  0.543689  0.932268  1
  Bi  Bi20  1  0.569200  0.489991  0.828428  1
  Bi  Bi21  1  0.430344  0.509054  0.172776  1
  Bi  Bi22  1  0.068770  0.508128  0.673383  1
  Bi  Bi23  1  0.430344  0.990946  0.172776  1
  Bi  Bi24  1  0.931959  0.491512  0.326496  1
  Bi  Bi25  1  0.569200  0.010009  0.828428  1
  Bi  Bi26  1  0.931959  0.008488  0.326496  1
  Bi  Bi27  1  0.068770  0.991872  0.673383  1
  Os  Os28  1  0.574443  0.750000  0.512566  1
  Pt  Pt29  1  0.425362  0.250000  0.487720  1
  Pt  Pt30  1  0.072613  0.250000  0.989348  1
  Pt  Pt31  1  0.927739  0.750000  0.009002  1
