# generated using pymatgen
data_Sc2Fe7Ni5P7
_symmetry_space_group_name_H-M   'P 1'
_cell_length_a   8.92787776
_cell_length_b   8.99127113
_cell_length_c   3.58210100
_cell_angle_alpha   90.00000000
_cell_angle_beta   90.00000000
_cell_angle_gamma   119.91714928
_symmetry_Int_Tables_number   1
_chemical_formula_structural   Sc2Fe7Ni5P7
_chemical_formula_sum   'Sc2 Fe7 Ni5 P7'
_cell_volume   249.22967847
_cell_formula_units_Z   1
loop_
 _symmetry_equiv_pos_site_id
 _symmetry_equiv_pos_as_xyz
  1  'x, y, z'
loop_
 _atom_site_type_symbol
 _atom_site_label
 _atom_site_symmetry_multiplicity
 _atom_site_fract_x
 _atom_site_fract_y
 _atom_site_fract_z
 _atom_site_occupancy
  Sc  Sc0  1  0.669881  0.336299  0.500000  1
  Sc  Sc1  1  0.332377  0.666741  0.000000  1
  Fe  Fe2  1  0.386322  0.434507  0.500000  1
  Fe  Fe3  1  0.048813  0.612012  0.500000  1
  Fe  Fe4  1  0.217755  0.094084  0.500000  1
  Fe  Fe5  1  0.873962  0.778694  0.500000  1
  Fe  Fe6  1  0.907607  0.128867  0.500000  1
  Fe  Fe7  1  0.719709  0.880876  0.000000  1
  Fe  Fe8  1  0.119855  0.843382  0.000000  1
  Ni  Ni9  1  0.156067  0.274410  0.000000  1
  Ni  Ni10  1  0.938604  0.371296  0.000000  1
  Ni  Ni11  1  0.632153  0.566006  0.000000  1
  Ni  Ni12  1  0.436934  0.065773  0.000000  1
  Ni  Ni13  1  0.558875  0.948388  0.500000  1
  P  P14  1  0.995303  0.993440  0.000000  1
  P  P15  1  0.414306  0.298583  0.000000  1
  P  P16  1  0.591222  0.709712  0.500000  1
  P  P17  1  0.279579  0.875161  0.500000  1
  P  P18  1  0.124057  0.414118  0.500000  1
  P  P19  1  0.707390  0.117072  0.000000  1
  P  P20  1  0.889229  0.590580  0.000000  1
