# generated using pymatgen
data_Er8In3Fe
_symmetry_space_group_name_H-M   'P 1'
_cell_length_a   10.26514500
_cell_length_b   10.26514445
_cell_length_c   6.95774600
_cell_angle_alpha   90.00000000
_cell_angle_beta   90.00000000
_cell_angle_gamma   119.99999854
_symmetry_Int_Tables_number   1
_chemical_formula_structural   Er8In3Fe
_chemical_formula_sum   'Er16 In6 Fe2'
_cell_volume   634.93513783
_cell_formula_units_Z   2
loop_
 _symmetry_equiv_pos_site_id
 _symmetry_equiv_pos_as_xyz
  1  'x, y, z'
loop_
 _atom_site_type_symbol
 _atom_site_label
 _atom_site_symmetry_multiplicity
 _atom_site_fract_x
 _atom_site_fract_y
 _atom_site_fract_z
 _atom_site_occupancy
  Er  Er0  1  0.534555  0.069109  0.792538  1
  Er  Er1  1  0.930891  0.465445  0.792538  1
  Er  Er2  1  0.534555  0.465445  0.792538  1
  Er  Er3  1  0.465445  0.930891  0.292538  1
  Er  Er4  1  0.069109  0.534555  0.292538  1
  Er  Er5  1  0.465445  0.534555  0.292538  1
  Er  Er6  1  0.821183  0.642367  0.498756  1
  Er  Er7  1  0.357633  0.178817  0.498756  1
  Er  Er8  1  0.821183  0.178817  0.498756  1
  Er  Er9  1  0.178817  0.357633  0.998756  1
  Er  Er10  1  0.642367  0.821183  0.998756  1
  Er  Er11  1  0.178817  0.821183  0.998756  1
  Er  Er12  1  0.666667  0.333333  0.179591  1
  Er  Er13  1  0.333333  0.666667  0.679591  1
  Er  Er14  1  0.000000  0.000000  0.779655  1
  Er  Er15  1  0.000000  0.000000  0.279655  1
  In  In16  1  0.837097  0.674195  0.038684  1
  In  In17  1  0.325805  0.162903  0.038684  1
  In  In18  1  0.837097  0.162903  0.038684  1
  In  In19  1  0.162903  0.325805  0.538684  1
  In  In20  1  0.674195  0.837097  0.538684  1
  In  In21  1  0.162903  0.837097  0.538684  1
  Fe  Fe22  1  0.666667  0.333333  0.568774  1
  Fe  Fe23  1  0.333333  0.666667  0.068774  1
