# generated using pymatgen
data_Ho8Cu3Si12Pt
_symmetry_space_group_name_H-M   'P 1'
_cell_length_a   8.02803500
_cell_length_b   8.02806835
_cell_length_c   8.07005900
_cell_angle_alpha   90.00004070
_cell_angle_beta   90.00002740
_cell_angle_gamma   120.00028028
_symmetry_Int_Tables_number   1
_chemical_formula_structural   Ho8Cu3Si12Pt
_chemical_formula_sum   'Ho8 Cu3 Si12 Pt1'
_cell_volume   450.42909303
_cell_formula_units_Z   1
loop_
 _symmetry_equiv_pos_site_id
 _symmetry_equiv_pos_as_xyz
  1  'x, y, z'
loop_
 _atom_site_type_symbol
 _atom_site_label
 _atom_site_symmetry_multiplicity
 _atom_site_fract_x
 _atom_site_fract_y
 _atom_site_fract_z
 _atom_site_occupancy
  Ho  Ho0  1  0.999998  0.000000  0.251742  1
  Ho  Ho1  1  0.000000  0.000001  0.748436  1
  Ho  Ho2  1  0.500786  0.499210  0.250525  1
  Ho  Ho3  1  0.500787  0.001579  0.250525  1
  Ho  Ho4  1  0.998426  0.499212  0.250526  1
  Ho  Ho5  1  0.499202  0.500792  0.749490  1
  Ho  Ho6  1  0.499207  0.998412  0.749487  1
  Ho  Ho7  1  0.001588  0.500793  0.749489  1
  Cu  Cu8  1  0.333345  0.666674  0.496379  1
  Cu  Cu9  1  0.666665  0.333337  0.504217  1
  Cu  Cu10  1  0.666668  0.333330  0.996775  1
  Si  Si11  1  0.169469  0.830529  0.500203  1
  Si  Si12  1  0.169473  0.338945  0.500204  1
  Si  Si13  1  0.661057  0.830527  0.500203  1
  Si  Si14  1  0.831029  0.168971  0.499827  1
  Si  Si15  1  0.831027  0.662055  0.499828  1
  Si  Si16  1  0.337942  0.168972  0.499827  1
  Si  Si17  1  0.830776  0.169223  0.999156  1
  Si  Si18  1  0.830776  0.661553  0.999157  1
  Si  Si19  1  0.338450  0.169224  0.999156  1
  Si  Si20  1  0.165329  0.834669  0.001091  1
  Si  Si21  1  0.165329  0.330657  0.001091  1
  Si  Si22  1  0.669338  0.834667  0.001090  1
  Pt  Pt23  1  0.333332  0.666666  0.001574  1
