# generated using pymatgen
data_ThSi4(RuRh)3
_symmetry_space_group_name_H-M   'P 1'
_cell_length_a   7.00908500
_cell_length_b   7.00908640
_cell_length_c   3.80997400
_cell_angle_alpha   90.00000000
_cell_angle_beta   90.00000000
_cell_angle_gamma   119.99999809
_symmetry_Int_Tables_number   1
_chemical_formula_structural   ThSi4(RuRh)3
_chemical_formula_sum   'Th1 Si4 Ru3 Rh3'
_cell_volume   162.09715500
_cell_formula_units_Z   1
loop_
 _symmetry_equiv_pos_site_id
 _symmetry_equiv_pos_as_xyz
  1  'x, y, z'
loop_
 _atom_site_type_symbol
 _atom_site_label
 _atom_site_symmetry_multiplicity
 _atom_site_fract_x
 _atom_site_fract_y
 _atom_site_fract_z
 _atom_site_occupancy
  Th  Th0  1  0.000000  0.000000  0.000000  1
  Si  Si1  1  0.794627  0.589252  0.500000  1
  Si  Si2  1  0.333333  0.666667  0.000000  1
  Si  Si3  1  0.410748  0.205373  0.500000  1
  Si  Si4  1  0.794627  0.205373  0.500000  1
  Ru  Ru5  1  0.532914  0.065827  0.000000  1
  Ru  Ru6  1  0.532914  0.467086  0.000000  1
  Ru  Ru7  1  0.934173  0.467086  0.000000  1
  Rh  Rh8  1  0.605854  0.802927  0.500000  1
  Rh  Rh9  1  0.197073  0.394146  0.500000  1
  Rh  Rh10  1  0.197073  0.802927  0.500000  1
