# generated using pymatgen
data_Er8Tm3LuGa20
_symmetry_space_group_name_H-M   'P 1'
_cell_length_a   6.04829801
_cell_length_b   9.57422200
_cell_length_c   11.42693203
_cell_angle_alpha   90.00000000
_cell_angle_beta   89.99206966
_cell_angle_gamma   90.00000000
_symmetry_Int_Tables_number   1
_chemical_formula_structural   Er8Tm3LuGa20
_chemical_formula_sum   'Er8 Tm3 Lu1 Ga20'
_cell_volume   661.70789292
_cell_formula_units_Z   1
loop_
 _symmetry_equiv_pos_site_id
 _symmetry_equiv_pos_as_xyz
  1  'x, y, z'
loop_
 _atom_site_type_symbol
 _atom_site_label
 _atom_site_symmetry_multiplicity
 _atom_site_fract_x
 _atom_site_fract_y
 _atom_site_fract_z
 _atom_site_occupancy
  Er  Er0  1  0.890570  0.509970  0.351840  1
  Er  Er1  1  0.609475  0.989992  0.851978  1
  Er  Er2  1  0.109376  0.009926  0.648137  1
  Er  Er3  1  0.390710  0.490134  0.148174  1
  Er  Er4  1  0.109376  0.490074  0.648137  1
  Er  Er5  1  0.390710  0.009866  0.148174  1
  Er  Er6  1  0.890570  0.990030  0.351840  1
  Er  Er7  1  0.609475  0.510008  0.851978  1
  Tm  Tm8  1  0.651527  0.750000  0.573808  1
  Tm  Tm9  1  0.151420  0.250000  0.926233  1
  Tm  Tm10  1  0.348521  0.250000  0.426289  1
  Lu  Lu11  1  0.848343  0.750000  0.073842  1
  Ga  Ga12  1  0.874987  0.051974  0.090464  1
  Ga  Ga13  1  0.625106  0.447710  0.590534  1
  Ga  Ga14  1  0.124968  0.552339  0.909528  1
  Ga  Ga15  1  0.374858  0.947734  0.409399  1
  Ga  Ga16  1  0.124968  0.947661  0.909528  1
  Ga  Ga17  1  0.374858  0.552266  0.409399  1
  Ga  Ga18  1  0.874987  0.448026  0.090464  1
  Ga  Ga19  1  0.625106  0.052290  0.590534  1
  Ga  Ga20  1  0.171690  0.750000  0.250911  1
  Ga  Ga21  1  0.327759  0.750000  0.751239  1
  Ga  Ga22  1  0.827739  0.250000  0.748851  1
  Ga  Ga23  1  0.672239  0.250000  0.248842  1
  Ga  Ga24  1  0.374107  0.750000  0.005754  1
  Ga  Ga25  1  0.126472  0.750000  0.505582  1
  Ga  Ga26  1  0.626534  0.250000  0.994340  1
  Ga  Ga27  1  0.873551  0.250000  0.494368  1
  Ga  Ga28  1  0.604990  0.750000  0.298602  1
  Ga  Ga29  1  0.895135  0.750000  0.799077  1
  Ga  Ga30  1  0.395128  0.250000  0.701066  1
  Ga  Ga31  1  0.104748  0.250000  0.201088  1
