# generated using pymatgen
data_Dy13Tm3Cd4Co3Ru
_symmetry_space_group_name_H-M   'P 1'
_cell_length_a   9.50807512
_cell_length_b   9.47896397
_cell_length_c   9.52161988
_cell_angle_alpha   59.88090846
_cell_angle_beta   59.99007552
_cell_angle_gamma   59.86108299
_symmetry_Int_Tables_number   1
_chemical_formula_structural   Dy13Tm3Cd4Co3Ru
_chemical_formula_sum   'Dy13 Tm3 Cd4 Co3 Ru1'
_cell_volume   605.57403724
_cell_formula_units_Z   1
loop_
 _symmetry_equiv_pos_site_id
 _symmetry_equiv_pos_as_xyz
  1  'x, y, z'
loop_
 _atom_site_type_symbol
 _atom_site_label
 _atom_site_symmetry_multiplicity
 _atom_site_fract_x
 _atom_site_fract_y
 _atom_site_fract_z
 _atom_site_occupancy
  Dy  Dy0  1  0.938328  0.561177  0.561987  1
  Dy  Dy1  1  0.542090  0.150324  0.156928  1
  Dy  Dy2  1  0.151110  0.154440  0.537195  1
  Dy  Dy3  1  0.937012  0.938616  0.561494  1
  Dy  Dy4  1  0.312588  0.688416  0.310910  1
  Dy  Dy5  1  0.560405  0.942359  0.936333  1
  Dy  Dy6  1  0.562396  0.938982  0.561085  1
  Dy  Dy7  1  0.690128  0.687051  0.311941  1
  Dy  Dy8  1  0.560237  0.558712  0.938579  1
  Dy  Dy9  1  0.942027  0.559649  0.937485  1
  Dy  Dy10  1  0.313877  0.691774  0.685184  1
  Dy  Dy11  1  0.150396  0.152240  0.158413  1
  Dy  Dy12  1  0.312673  0.311389  0.685188  1
  Tm  Tm13  1  0.150406  0.539116  0.158786  1
  Tm  Tm14  1  0.692012  0.313230  0.684089  1
  Tm  Tm15  1  0.690139  0.311598  0.312029  1
  Cd  Cd16  1  0.919002  0.242724  0.919084  1
  Cd  Cd17  1  0.919715  0.920133  0.919527  1
  Cd  Cd18  1  0.919444  0.918912  0.242765  1
  Cd  Cd19  1  0.242567  0.918784  0.919062  1
  Co  Co20  1  0.357253  0.921397  0.360104  1
  Co  Co21  1  0.920638  0.358842  0.359504  1
  Co  Co22  1  0.357774  0.360692  0.360335  1
  Ru  Ru23  1  0.357783  0.359445  0.921996  1
