# generated using pymatgen
data_Er10GaPb5O2
_symmetry_space_group_name_H-M   'P 1'
_cell_length_a   8.97304546
_cell_length_b   8.97304486
_cell_length_c   8.93693327
_cell_angle_alpha   125.65463295
_cell_angle_beta   125.65462840
_cell_angle_gamma   80.72467650
_symmetry_Int_Tables_number   1
_chemical_formula_structural   Er10GaPb5O2
_chemical_formula_sum   'Er10 Ga1 Pb5 O2'
_cell_volume   457.36570391
_cell_formula_units_Z   1
loop_
 _symmetry_equiv_pos_site_id
 _symmetry_equiv_pos_as_xyz
  1  'x, y, z'
loop_
 _atom_site_type_symbol
 _atom_site_label
 _atom_site_symmetry_multiplicity
 _atom_site_fract_x
 _atom_site_fract_y
 _atom_site_fract_z
 _atom_site_occupancy
  Er  Er0  1  0.994392  0.201837  0.492721  1
  Er  Er1  1  0.800566  0.300566  0.807355  1
  Er  Er2  1  0.506818  0.006818  0.807385  1
  Er  Er3  1  0.501822  0.001822  0.202200  1
  Er  Er4  1  0.998356  0.790910  0.492763  1
  Er  Er5  1  0.508149  0.496822  0.004971  1
  Er  Er6  1  0.200390  0.700390  0.202232  1
  Er  Er7  1  0.701837  0.494392  0.492721  1
  Er  Er8  1  0.290910  0.498356  0.492763  1
  Er  Er9  1  0.996822  0.008149  0.004971  1
  Ga  Ga10  1  0.850537  0.350537  0.201073  1
  Pb  Pb11  1  0.147799  0.647799  0.795589  1
  Pb  Pb12  1  0.350516  0.149663  0.500164  1
  Pb  Pb13  1  0.749314  0.749311  0.998656  1
  Pb  Pb14  1  0.649663  0.850516  0.500164  1
  Pb  Pb15  1  0.249311  0.249314  0.998656  1
  O  O16  1  0.750877  0.250877  0.502771  1
  O  O17  1  0.251921  0.751921  0.502843  1
