# generated using pymatgen
data_BaMn(NbSe2)8
_symmetry_space_group_name_H-M   'P 1'
_cell_length_a   7.04656902
_cell_length_b   7.04657339
_cell_length_c   14.98776900
_cell_angle_alpha   89.98485192
_cell_angle_beta   90.00392728
_cell_angle_gamma   120.00353429
_symmetry_Int_Tables_number   1
_chemical_formula_structural   BaMn(NbSe2)8
_chemical_formula_sum   'Ba1 Mn1 Nb8 Se16'
_cell_volume   644.47760006
_cell_formula_units_Z   1
loop_
 _symmetry_equiv_pos_site_id
 _symmetry_equiv_pos_as_xyz
  1  'x, y, z'
loop_
 _atom_site_type_symbol
 _atom_site_label
 _atom_site_symmetry_multiplicity
 _atom_site_fract_x
 _atom_site_fract_y
 _atom_site_fract_z
 _atom_site_occupancy
  Ba  Ba0  1  0.000000  0.000000  0.500000  1
  Mn  Mn1  1  0.000000  0.000000  0.000000  1
  Nb  Nb2  1  0.507409  0.492771  0.781359  1
  Nb  Nb3  1  0.014744  0.507229  0.218633  1
  Nb  Nb4  1  0.492573  0.985042  0.218620  1
  Nb  Nb5  1  0.507427  0.014958  0.781380  1
  Nb  Nb6  1  0.985256  0.492771  0.781367  1
  Nb  Nb7  1  0.492591  0.507229  0.218641  1
  Nb  Nb8  1  0.000035  0.000178  0.781446  1
  Nb  Nb9  1  0.999965  0.999822  0.218554  1
  Se  Se10  1  0.831483  0.168195  0.328725  1
  Se  Se11  1  0.831530  0.662882  0.328765  1
  Se  Se12  1  0.336857  0.168192  0.328740  1
  Se  Se13  1  0.662391  0.831284  0.890956  1
  Se  Se14  1  0.168470  0.337118  0.671235  1
  Se  Se15  1  0.168805  0.831278  0.890958  1
  Se  Se16  1  0.168824  0.337737  0.890954  1
  Se  Se17  1  0.831195  0.168722  0.109042  1
  Se  Se18  1  0.337609  0.168716  0.109044  1
  Se  Se19  1  0.663143  0.831808  0.671260  1
  Se  Se20  1  0.333326  0.666546  0.104488  1
  Se  Se21  1  0.666705  0.333520  0.664930  1
  Se  Se22  1  0.666674  0.333454  0.895512  1
  Se  Se23  1  0.333295  0.666480  0.335070  1
  Se  Se24  1  0.831176  0.662263  0.109046  1
  Se  Se25  1  0.168517  0.831805  0.671275  1
