# generated using pymatgen
data_Sr6Cd2SbRhO12
_symmetry_space_group_name_H-M   'P 1'
_cell_length_a   6.89745283
_cell_length_b   6.89745455
_cell_length_c   6.89745225
_cell_angle_alpha   90.82364670
_cell_angle_beta   90.82365113
_cell_angle_gamma   90.82365361
_symmetry_Int_Tables_number   1
_chemical_formula_structural   Sr6Cd2SbRhO12
_chemical_formula_sum   'Sr6 Cd2 Sb1 Rh1 O12'
_cell_volume   328.04267472
_cell_formula_units_Z   1
loop_
 _symmetry_equiv_pos_site_id
 _symmetry_equiv_pos_as_xyz
  1  'x, y, z'
loop_
 _atom_site_type_symbol
 _atom_site_label
 _atom_site_symmetry_multiplicity
 _atom_site_fract_x
 _atom_site_fract_y
 _atom_site_fract_z
 _atom_site_occupancy
  Sr  Sr0  1  0.881345  0.604062  0.262168  1
  Sr  Sr1  1  0.118655  0.395938  0.737832  1
  Sr  Sr2  1  0.262168  0.881345  0.604062  1
  Sr  Sr3  1  0.604062  0.262168  0.881345  1
  Sr  Sr4  1  0.395938  0.737832  0.118655  1
  Sr  Sr5  1  0.737832  0.118655  0.395938  1
  Cd  Cd6  1  0.744806  0.744806  0.744806  1
  Cd  Cd7  1  0.255194  0.255194  0.255194  1
  Sb  Sb8  1  0.000000  0.000000  0.000000  1
  Rh  Rh9  1  0.500000  0.500000  0.500000  1
  O  O10  1  0.448190  0.586358  0.788932  1
  O  O11  1  0.586358  0.788932  0.448190  1
  O  O12  1  0.948407  0.279839  0.076881  1
  O  O13  1  0.551810  0.413642  0.211068  1
  O  O14  1  0.211068  0.551810  0.413642  1
  O  O15  1  0.051593  0.720161  0.923119  1
  O  O16  1  0.788932  0.448190  0.586358  1
  O  O17  1  0.720161  0.923119  0.051593  1
  O  O18  1  0.076881  0.948407  0.279839  1
  O  O19  1  0.923119  0.051593  0.720161  1
  O  O20  1  0.413642  0.211068  0.551810  1
  O  O21  1  0.279839  0.076881  0.948407  1
