# generated using pymatgen
data_Nb6B4MoC4
_symmetry_space_group_name_H-M   'P 1'
_cell_length_a   3.14958686
_cell_length_b   3.22645428
_cell_length_c   16.30716720
_cell_angle_alpha   95.67740185
_cell_angle_beta   95.54173601
_cell_angle_gamma   90.00000340
_symmetry_Int_Tables_number   1
_chemical_formula_structural   Nb6B4MoC4
_chemical_formula_sum   'Nb6 B4 Mo1 C4'
_cell_volume   164.12215982
_cell_formula_units_Z   1
loop_
 _symmetry_equiv_pos_site_id
 _symmetry_equiv_pos_as_xyz
  1  'x, y, z'
loop_
 _atom_site_type_symbol
 _atom_site_label
 _atom_site_symmetry_multiplicity
 _atom_site_fract_x
 _atom_site_fract_y
 _atom_site_fract_z
 _atom_site_occupancy
  Nb  Nb0  1  0.501472  0.001472  0.002944  1
  Nb  Nb1  1  0.645463  0.645462  0.290927  1
  Nb  Nb2  1  0.213900  0.213900  0.427801  1
  Nb  Nb3  1  0.784868  0.784867  0.569735  1
  Nb  Nb4  1  0.351598  0.351598  0.703197  1
  Nb  Nb5  1  0.918598  0.918597  0.837194  1
  B  B6  1  0.030081  0.530080  0.060162  1
  B  B7  1  0.559351  0.559350  0.118700  1
  B  B8  1  0.444034  0.444034  0.888069  1
  B  B9  1  0.972758  0.472758  0.945515  1
  Mo  Mo10  1  0.081504  0.081504  0.163009  1
  C  C11  1  0.145785  0.145785  0.291572  1
  C  C12  1  0.713890  0.713889  0.427779  1
  C  C13  1  0.283839  0.283839  0.567679  1
  C  C14  1  0.852859  0.852858  0.705717  1
