# generated using pymatgen
data_Lu4PdPt3
_symmetry_space_group_name_H-M   'P 1'
_cell_length_a   4.43886000
_cell_length_b   5.54271581
_cell_length_c   6.86057500
_cell_angle_alpha   90.06188158
_cell_angle_beta   90.00000000
_cell_angle_gamma   90.00000000
_symmetry_Int_Tables_number   1
_chemical_formula_structural   Lu4PdPt3
_chemical_formula_sum   'Lu4 Pd1 Pt3'
_cell_volume   168.79295740
_cell_formula_units_Z   1
loop_
 _symmetry_equiv_pos_site_id
 _symmetry_equiv_pos_as_xyz
  1  'x, y, z'
loop_
 _atom_site_type_symbol
 _atom_site_label
 _atom_site_symmetry_multiplicity
 _atom_site_fract_x
 _atom_site_fract_y
 _atom_site_fract_z
 _atom_site_occupancy
  Lu  Lu0  1  0.250000  0.642538  0.180592  1
  Lu  Lu1  1  0.750000  0.359674  0.817250  1
  Lu  Lu2  1  0.750000  0.139451  0.322400  1
  Lu  Lu3  1  0.250000  0.857789  0.679725  1
  Pd  Pd4  1  0.250000  0.157060  0.045003  1
  Pt  Pt5  1  0.750000  0.844257  0.955604  1
  Pt  Pt6  1  0.750000  0.657336  0.454132  1
  Pt  Pt7  1  0.250000  0.341894  0.545296  1
