# generated using pymatgen
data_Hf8Ta11VGe16
_symmetry_space_group_name_H-M   'P 1'
_cell_length_a   6.80861754
_cell_length_b   6.92824467
_cell_length_c   13.20716157
_cell_angle_alpha   90.07534933
_cell_angle_beta   90.03777213
_cell_angle_gamma   90.02551353
_symmetry_Int_Tables_number   1
_chemical_formula_structural   Hf8Ta11VGe16
_chemical_formula_sum   'Hf8 Ta11 V1 Ge16'
_cell_volume   623.00442784
_cell_formula_units_Z   1
loop_
 _symmetry_equiv_pos_site_id
 _symmetry_equiv_pos_as_xyz
  1  'x, y, z'
loop_
 _atom_site_type_symbol
 _atom_site_label
 _atom_site_symmetry_multiplicity
 _atom_site_fract_x
 _atom_site_fract_y
 _atom_site_fract_z
 _atom_site_occupancy
  Hf  Hf0  1  0.487917  0.674534  0.590481  1
  Hf  Hf1  1  0.986893  0.826016  0.908800  1
  Hf  Hf2  1  0.512124  0.325393  0.089874  1
  Hf  Hf3  1  0.013690  0.175001  0.410150  1
  Hf  Hf4  1  0.512055  0.325157  0.410154  1
  Hf  Hf5  1  0.012441  0.174988  0.090078  1
  Hf  Hf6  1  0.488246  0.674453  0.908359  1
  Hf  Hf7  1  0.990064  0.822973  0.590188  1
  Ta  Ta8  1  0.160256  0.336297  0.873841  1
  Ta  Ta9  1  0.340470  0.837060  0.124774  1
  Ta  Ta10  1  0.838343  0.663765  0.378070  1
  Ta  Ta11  1  0.342570  0.838392  0.376306  1
  Ta  Ta12  1  0.840792  0.663733  0.124826  1
  Ta  Ta13  1  0.658473  0.163741  0.874219  1
  Ta  Ta14  1  0.158614  0.338188  0.624132  1
  Ta  Ta15  1  0.835723  0.492078  0.749552  1
  Ta  Ta16  1  0.335718  0.009459  0.749089  1
  Ta  Ta17  1  0.163391  0.509101  0.250328  1
  Ta  Ta18  1  0.663784  0.991699  0.251433  1
  V  V19  1  0.658271  0.159350  0.625761  1
  Ge  Ge20  1  0.685069  0.964983  0.464595  1
  Ge  Ge21  1  0.184187  0.539174  0.039751  1
  Ge  Ge22  1  0.315175  0.038972  0.959133  1
  Ge  Ge23  1  0.810135  0.450265  0.542750  1
  Ge  Ge24  1  0.321872  0.041890  0.541927  1
  Ge  Ge25  1  0.816169  0.460851  0.959248  1
  Ge  Ge26  1  0.684406  0.960934  0.039864  1
  Ge  Ge27  1  0.183646  0.540528  0.459614  1
  Ge  Ge28  1  0.466030  0.385054  0.745677  1
  Ge  Ge29  1  0.958072  0.112231  0.746721  1
  Ge  Ge30  1  0.537325  0.610726  0.250617  1
  Ge  Ge31  1  0.037235  0.888942  0.251220  1
  Ge  Ge32  1  0.692191  0.850085  0.747712  1
  Ge  Ge33  1  0.193299  0.653042  0.750246  1
  Ge  Ge34  1  0.307645  0.153998  0.250208  1
  Ge  Ge35  1  0.807708  0.346949  0.250302  1
