# generated using pymatgen
data_Sc4Al6TcOs
_symmetry_space_group_name_H-M   'P 1'
_cell_length_a   5.29393200
_cell_length_b   5.29393235
_cell_length_c   8.65525400
_cell_angle_alpha   90.00000000
_cell_angle_beta   90.00000000
_cell_angle_gamma   119.99999782
_symmetry_Int_Tables_number   1
_chemical_formula_structural   Sc4Al6TcOs
_chemical_formula_sum   'Sc4 Al6 Tc1 Os1'
_cell_volume   210.07153275
_cell_formula_units_Z   1
loop_
 _symmetry_equiv_pos_site_id
 _symmetry_equiv_pos_as_xyz
  1  'x, y, z'
loop_
 _atom_site_type_symbol
 _atom_site_label
 _atom_site_symmetry_multiplicity
 _atom_site_fract_x
 _atom_site_fract_y
 _atom_site_fract_z
 _atom_site_occupancy
  Sc  Sc0  1  0.666668  0.333334  0.052694  1
  Sc  Sc1  1  0.666668  0.333334  0.448458  1
  Sc  Sc2  1  0.333334  0.666667  0.551543  1
  Sc  Sc3  1  0.333334  0.666667  0.947306  1
  Al  Al4  1  0.164796  0.329592  0.251598  1
  Al  Al5  1  0.164795  0.835204  0.251598  1
  Al  Al6  1  0.670408  0.835204  0.251598  1
  Al  Al7  1  0.329593  0.164797  0.748402  1
  Al  Al8  1  0.835204  0.164797  0.748402  1
  Al  Al9  1  0.835205  0.670409  0.748402  1
  Tc  Tc10  1  0.000000  0.000000  0.000000  1
  Os  Os11  1  0.000000  0.000000  0.500000  1
