# generated using pymatgen
data_Hf3Al2ZnIr6
_symmetry_space_group_name_H-M   'P 1'
_cell_length_a   4.28963600
_cell_length_b   6.90172700
_cell_length_c   12.81273100
_cell_angle_alpha   90.00002172
_cell_angle_beta   90.00007584
_cell_angle_gamma   89.99997834
_symmetry_Int_Tables_number   1
_chemical_formula_structural   Hf3Al2ZnIr6
_chemical_formula_sum   'Hf6 Al4 Zn2 Ir12'
_cell_volume   379.33238917
_cell_formula_units_Z   2
loop_
 _symmetry_equiv_pos_site_id
 _symmetry_equiv_pos_as_xyz
  1  'x, y, z'
loop_
 _atom_site_type_symbol
 _atom_site_label
 _atom_site_symmetry_multiplicity
 _atom_site_fract_x
 _atom_site_fract_y
 _atom_site_fract_z
 _atom_site_occupancy
  Hf  Hf0  1  0.999993  0.499998  0.996058  1
  Hf  Hf1  1  0.499899  0.000001  0.167016  1
  Hf  Hf2  1  0.999898  0.499999  0.332983  1
  Hf  Hf3  1  0.499993  0.000000  0.503942  1
  Hf  Hf4  1  0.000108  0.500000  0.671267  1
  Hf  Hf5  1  0.500108  0.000001  0.828734  1
  Al  Al6  1  0.999991  0.000000  0.998642  1
  Al  Al7  1  0.499903  0.500000  0.165089  1
  Al  Al8  1  0.999903  0.000000  0.334911  1
  Al  Al9  1  0.499991  0.500000  0.501358  1
  Zn  Zn10  1  0.000118  0.000000  0.666237  1
  Zn  Zn11  1  0.500118  0.500000  0.833763  1
  Ir  Ir12  1  0.499989  0.246072  0.002266  1
  Ir  Ir13  1  0.499989  0.753928  0.002266  1
  Ir  Ir14  1  0.999901  0.249949  0.166959  1
  Ir  Ir15  1  0.999902  0.750050  0.166959  1
  Ir  Ir16  1  0.499901  0.250050  0.333041  1
  Ir  Ir17  1  0.499901  0.749950  0.333041  1
  Ir  Ir18  1  0.999989  0.253928  0.497733  1
  Ir  Ir19  1  0.999989  0.746072  0.497734  1
  Ir  Ir20  1  0.500104  0.254979  0.664266  1
  Ir  Ir21  1  0.500104  0.745021  0.664266  1
  Ir  Ir22  1  0.000104  0.245020  0.835735  1
  Ir  Ir23  1  0.000104  0.754980  0.835734  1
