# generated using pymatgen
data_Tb10Th6MgCd3Ru4
_symmetry_space_group_name_H-M   'P 1'
_cell_length_a   9.71505549
_cell_length_b   9.80714295
_cell_length_c   9.80714248
_cell_angle_alpha   59.27852977
_cell_angle_beta   60.25405338
_cell_angle_gamma   60.25405964
_symmetry_Int_Tables_number   1
_chemical_formula_structural   Tb10Th6MgCd3Ru4
_chemical_formula_sum   'Tb10 Th6 Mg1 Cd3 Ru4'
_cell_volume   659.52391631
_cell_formula_units_Z   1
loop_
 _symmetry_equiv_pos_site_id
 _symmetry_equiv_pos_as_xyz
  1  'x, y, z'
loop_
 _atom_site_type_symbol
 _atom_site_label
 _atom_site_symmetry_multiplicity
 _atom_site_fract_x
 _atom_site_fract_y
 _atom_site_fract_z
 _atom_site_occupancy
  Tb  Tb0  1  0.439437  0.059800  0.440543  1
  Tb  Tb1  1  0.058514  0.440008  0.059095  1
  Tb  Tb2  1  0.439437  0.440543  0.059800  1
  Tb  Tb3  1  0.058514  0.059095  0.440008  1
  Tb  Tb4  1  0.182720  0.818202  0.818202  1
  Tb  Tb5  1  0.813683  0.185103  0.185103  1
  Tb  Tb6  1  0.810740  0.190959  0.813095  1
  Tb  Tb7  1  0.187688  0.812102  0.188705  1
  Tb  Tb8  1  0.810740  0.813095  0.190959  1
  Tb  Tb9  1  0.187688  0.188705  0.812102  1
  Th  Th10  1  0.590033  0.599185  0.599185  1
  Th  Th11  1  0.601918  0.592575  0.206197  1
  Th  Th12  1  0.601918  0.206197  0.592575  1
  Th  Th13  1  0.205628  0.600739  0.600739  1
  Th  Th14  1  0.064176  0.436657  0.436657  1
  Th  Th15  1  0.432098  0.067262  0.067262  1
  Mg  Mg16  1  0.519405  0.824469  0.824469  1
  Cd  Cd17  1  0.834799  0.830383  0.830383  1
  Cd  Cd18  1  0.829855  0.832680  0.503707  1
  Cd  Cd19  1  0.829855  0.503707  0.832680  1
  Ru  Ru20  1  0.378474  0.398655  0.398655  1
  Ru  Ru21  1  0.398758  0.377110  0.823343  1
  Ru  Ru22  1  0.398758  0.823343  0.377110  1
  Ru  Ru23  1  0.825168  0.399431  0.399431  1
