# generated using pymatgen
data_Lu2Fe14(SiC)3
_symmetry_space_group_name_H-M   'P 1'
_cell_length_a   6.41059205
_cell_length_b   6.41059178
_cell_length_c   6.41059046
_cell_angle_alpha   83.22769655
_cell_angle_beta   83.22770034
_cell_angle_gamma   83.22769405
_symmetry_Int_Tables_number   1
_chemical_formula_structural   Lu2Fe14(SiC)3
_chemical_formula_sum   'Lu2 Fe14 Si3 C3'
_cell_volume   258.33475505
_cell_formula_units_Z   1
loop_
 _symmetry_equiv_pos_site_id
 _symmetry_equiv_pos_as_xyz
  1  'x, y, z'
loop_
 _atom_site_type_symbol
 _atom_site_label
 _atom_site_symmetry_multiplicity
 _atom_site_fract_x
 _atom_site_fract_y
 _atom_site_fract_z
 _atom_site_occupancy
  Lu  Lu0  1  0.346314  0.346314  0.346314  1
  Lu  Lu1  1  0.653686  0.653686  0.653686  1
  Fe  Fe2  1  0.097647  0.097647  0.097647  1
  Fe  Fe3  1  0.902353  0.902353  0.902353  1
  Fe  Fe4  1  0.715673  0.284327  0.000000  1
  Fe  Fe5  1  0.284327  0.000000  0.715673  1
  Fe  Fe6  1  0.000000  0.715673  0.284327  1
  Fe  Fe7  1  0.284327  0.715673  0.000000  1
  Fe  Fe8  1  0.715673  0.000000  0.284327  1
  Fe  Fe9  1  0.000000  0.284327  0.715673  1
  Fe  Fe10  1  0.139481  0.658300  0.658300  1
  Fe  Fe11  1  0.658300  0.658300  0.139481  1
  Fe  Fe12  1  0.658300  0.139481  0.658300  1
  Fe  Fe13  1  0.341700  0.860519  0.341700  1
  Fe  Fe14  1  0.341700  0.341700  0.860519  1
  Fe  Fe15  1  0.860519  0.341700  0.341700  1
  Si  Si16  1  0.000000  0.000000  0.500000  1
  Si  Si17  1  0.000000  0.500000  0.000000  1
  Si  Si18  1  0.500000  0.000000  0.000000  1
  C  C19  1  0.500000  0.500000  0.000000  1
  C  C20  1  0.500000  0.000000  0.500000  1
  C  C21  1  0.000000  0.500000  0.500000  1
