# generated using pymatgen
data_Ho16Co3Hg4Ir
_symmetry_space_group_name_H-M   'P 1'
_cell_length_a   9.48506545
_cell_length_b   9.44428969
_cell_length_c   9.44429100
_cell_angle_alpha   59.99999890
_cell_angle_beta   60.14210522
_cell_angle_gamma   60.14209850
_symmetry_Int_Tables_number   1
_chemical_formula_structural   Ho16Co3Hg4Ir
_chemical_formula_sum   'Ho16 Co3 Hg4 Ir1'
_cell_volume   599.50590676
_cell_formula_units_Z   1
loop_
 _symmetry_equiv_pos_site_id
 _symmetry_equiv_pos_as_xyz
  1  'x, y, z'
loop_
 _atom_site_type_symbol
 _atom_site_label
 _atom_site_symmetry_multiplicity
 _atom_site_fract_x
 _atom_site_fract_y
 _atom_site_fract_z
 _atom_site_occupancy
  Ho  Ho0  1  0.936795  0.937439  0.562883  1
  Ho  Ho1  1  0.816392  0.188482  0.188482  1
  Ho  Ho2  1  0.936795  0.562883  0.562883  1
  Ho  Ho3  1  0.936795  0.562883  0.937439  1
  Ho  Ho4  1  0.816392  0.806644  0.188482  1
  Ho  Ho5  1  0.343671  0.351470  0.351470  1
  Ho  Ho6  1  0.562526  0.938119  0.938119  1
  Ho  Ho7  1  0.562526  0.938119  0.561236  1
  Ho  Ho8  1  0.188412  0.812096  0.812096  1
  Ho  Ho9  1  0.188412  0.187397  0.812096  1
  Ho  Ho10  1  0.343671  0.351470  0.953389  1
  Ho  Ho11  1  0.343671  0.953389  0.351470  1
  Ho  Ho12  1  0.816392  0.188482  0.806644  1
  Ho  Ho13  1  0.562526  0.561236  0.938119  1
  Ho  Ho14  1  0.188412  0.812096  0.187397  1
  Ho  Ho15  1  0.957378  0.347541  0.347541  1
  Co  Co16  1  0.141404  0.141343  0.141343  1
  Co  Co17  1  0.141404  0.575910  0.141343  1
  Co  Co18  1  0.141404  0.141343  0.575910  1
  Hg  Hg19  1  0.583918  0.583408  0.249267  1
  Hg  Hg20  1  0.248709  0.583764  0.583764  1
  Hg  Hg21  1  0.583918  0.583408  0.583408  1
  Hg  Hg22  1  0.583918  0.249267  0.583408  1
  Ir  Ir23  1  0.574557  0.141815  0.141815  1
