# generated using pymatgen
data_Pr6EuIrI12
_symmetry_space_group_name_H-M   'P 1'
_cell_length_a   10.09200319
_cell_length_b   10.09200399
_cell_length_c   10.09200353
_cell_angle_alpha   106.89438307
_cell_angle_beta   106.89438038
_cell_angle_gamma   106.89437985
_symmetry_Int_Tables_number   1
_chemical_formula_structural   Pr6EuIrI12
_chemical_formula_sum   'Pr6 Eu1 Ir1 I12'
_cell_volume   858.46249865
_cell_formula_units_Z   1
loop_
 _symmetry_equiv_pos_site_id
 _symmetry_equiv_pos_as_xyz
  1  'x, y, z'
loop_
 _atom_site_type_symbol
 _atom_site_label
 _atom_site_symmetry_multiplicity
 _atom_site_fract_x
 _atom_site_fract_y
 _atom_site_fract_z
 _atom_site_occupancy
  Pr  Pr0  1  0.804467  0.523472  0.597965  1
  Pr  Pr1  1  0.523472  0.597965  0.804467  1
  Pr  Pr2  1  0.195533  0.476528  0.402035  1
  Pr  Pr3  1  0.476528  0.402035  0.195533  1
  Pr  Pr4  1  0.597965  0.804467  0.523472  1
  Pr  Pr5  1  0.402035  0.195533  0.476528  1
  Eu  Eu6  1  0.000000  0.000000  0.000000  1
  Ir  Ir7  1  0.500000  0.500000  0.500000  1
  I  I8  1  0.728209  0.180006  0.574401  1
  I  I9  1  0.959396  0.878661  0.650169  1
  I  I10  1  0.574401  0.728209  0.180006  1
  I  I11  1  0.121339  0.349831  0.040604  1
  I  I12  1  0.650169  0.959396  0.878661  1
  I  I13  1  0.878661  0.650169  0.959396  1
  I  I14  1  0.040604  0.121339  0.349831  1
  I  I15  1  0.819994  0.425599  0.271791  1
  I  I16  1  0.349831  0.040604  0.121339  1
  I  I17  1  0.271791  0.819994  0.425599  1
  I  I18  1  0.180006  0.574401  0.728209  1
  I  I19  1  0.425599  0.271791  0.819994  1
