# generated using pymatgen
data_Ta5Mn2VS12
_symmetry_space_group_name_H-M   'P 1'
_cell_length_a   5.76904400
_cell_length_b   5.76904256
_cell_length_c   12.44948000
_cell_angle_alpha   90.00000000
_cell_angle_beta   90.00000000
_cell_angle_gamma   120.00000824
_symmetry_Int_Tables_number   1
_chemical_formula_structural   Ta5Mn2VS12
_chemical_formula_sum   'Ta5 Mn2 V1 S12'
_cell_volume   358.83054265
_cell_formula_units_Z   1
loop_
 _symmetry_equiv_pos_site_id
 _symmetry_equiv_pos_as_xyz
  1  'x, y, z'
loop_
 _atom_site_type_symbol
 _atom_site_label
 _atom_site_symmetry_multiplicity
 _atom_site_fract_x
 _atom_site_fract_y
 _atom_site_fract_z
 _atom_site_occupancy
  Ta  Ta0  1  0.000000  0.000000  0.500000  1
  Ta  Ta1  1  0.333333  0.666667  0.500667  1
  Ta  Ta2  1  0.666667  0.333333  0.001285  1
  Ta  Ta3  1  0.666667  0.333333  0.499333  1
  Ta  Ta4  1  0.333333  0.666667  0.998715  1
  Mn  Mn5  1  0.333333  0.666667  0.247429  1
  Mn  Mn6  1  0.666667  0.333333  0.752571  1
  V  V7  1  0.000000  0.000000  0.000000  1
  S  S8  1  0.322506  0.000544  0.122628  1
  S  S9  1  0.999456  0.321960  0.122628  1
  S  S10  1  0.666886  0.996900  0.626343  1
  S  S11  1  0.000544  0.322506  0.877372  1
  S  S12  1  0.678040  0.677494  0.122628  1
  S  S13  1  0.003100  0.669986  0.626343  1
  S  S14  1  0.321960  0.999456  0.877372  1
  S  S15  1  0.996900  0.666886  0.373657  1
  S  S16  1  0.330014  0.333114  0.626343  1
  S  S17  1  0.669986  0.003100  0.373657  1
  S  S18  1  0.677494  0.678040  0.877372  1
  S  S19  1  0.333114  0.330014  0.373657  1
