# generated using pymatgen
data_Y20FeNiAg6
_symmetry_space_group_name_H-M   'P 1'
_cell_length_a   9.50975100
_cell_length_b   9.50975079
_cell_length_c   9.67205700
_cell_angle_alpha   90.00000000
_cell_angle_beta   90.00000000
_cell_angle_gamma   119.99999724
_symmetry_Int_Tables_number   1
_chemical_formula_structural   Y20FeNiAg6
_chemical_formula_sum   'Y20 Fe1 Ni1 Ag6'
_cell_volume   757.50895794
_cell_formula_units_Z   1
loop_
 _symmetry_equiv_pos_site_id
 _symmetry_equiv_pos_as_xyz
  1  'x, y, z'
loop_
 _atom_site_type_symbol
 _atom_site_label
 _atom_site_symmetry_multiplicity
 _atom_site_fract_x
 _atom_site_fract_y
 _atom_site_fract_z
 _atom_site_occupancy
  Y  Y0  1  0.000000  0.000000  0.499453  1
  Y  Y1  1  0.000000  0.000000  0.000547  1
  Y  Y2  1  0.542250  0.457750  0.250000  1
  Y  Y3  1  0.542250  0.084500  0.250000  1
  Y  Y4  1  0.915500  0.457750  0.250000  1
  Y  Y5  1  0.456263  0.543737  0.750000  1
  Y  Y6  1  0.456263  0.912527  0.750000  1
  Y  Y7  1  0.087473  0.543737  0.750000  1
  Y  Y8  1  0.210990  0.789010  0.436786  1
  Y  Y9  1  0.210990  0.421981  0.436786  1
  Y  Y10  1  0.578019  0.789010  0.436786  1
  Y  Y11  1  0.790401  0.209599  0.560749  1
  Y  Y12  1  0.790401  0.580801  0.560749  1
  Y  Y13  1  0.419199  0.209599  0.560749  1
  Y  Y14  1  0.790401  0.209599  0.939251  1
  Y  Y15  1  0.790401  0.580801  0.939251  1
  Y  Y16  1  0.419199  0.209599  0.939251  1
  Y  Y17  1  0.210990  0.789010  0.063214  1
  Y  Y18  1  0.210990  0.421981  0.063214  1
  Y  Y19  1  0.578019  0.789010  0.063214  1
  Fe  Fe20  1  0.333333  0.666667  0.250000  1
  Ni  Ni21  1  0.666667  0.333333  0.750000  1
  Ag  Ag22  1  0.884023  0.115977  0.250000  1
  Ag  Ag23  1  0.884023  0.768046  0.250000  1
  Ag  Ag24  1  0.231954  0.115977  0.250000  1
  Ag  Ag25  1  0.115403  0.884597  0.750000  1
  Ag  Ag26  1  0.115403  0.230807  0.750000  1
  Ag  Ag27  1  0.769193  0.884597  0.750000  1
