# generated using pymatgen
data_Tb7Tm13Si15Pb
_symmetry_space_group_name_H-M   'P 1'
_cell_length_a   7.33226988
_cell_length_b   7.69225799
_cell_length_c   14.42917100
_cell_angle_alpha   89.96206479
_cell_angle_beta   89.97192360
_cell_angle_gamma   90.05311901
_symmetry_Int_Tables_number   1
_chemical_formula_structural   Tb7Tm13Si15Pb
_chemical_formula_sum   'Tb7 Tm13 Si15 Pb1'
_cell_volume   813.82931532
_cell_formula_units_Z   1
loop_
 _symmetry_equiv_pos_site_id
 _symmetry_equiv_pos_as_xyz
  1  'x, y, z'
loop_
 _atom_site_type_symbol
 _atom_site_label
 _atom_site_symmetry_multiplicity
 _atom_site_fract_x
 _atom_site_fract_y
 _atom_site_fract_z
 _atom_site_occupancy
  Tb  Tb0  1  0.023074  0.821426  0.904290  1
  Tb  Tb1  1  0.475420  0.319311  0.097659  1
  Tb  Tb2  1  0.976673  0.180926  0.401693  1
  Tb  Tb3  1  0.475579  0.319335  0.402953  1
  Tb  Tb4  1  0.977380  0.180910  0.098685  1
  Tb  Tb5  1  0.523356  0.690131  0.907254  1
  Tb  Tb6  1  0.023221  0.821309  0.595038  1
  Tm  Tm7  1  0.694440  0.167400  0.616307  1
  Tm  Tm8  1  0.167664  0.316434  0.880345  1
  Tm  Tm9  1  0.319122  0.821509  0.124471  1
  Tm  Tm10  1  0.819526  0.677318  0.375605  1
  Tm  Tm11  1  0.319397  0.820455  0.376065  1
  Tm  Tm12  1  0.819850  0.677837  0.124454  1
  Tm  Tm13  1  0.694421  0.167392  0.883358  1
  Tm  Tm14  1  0.168024  0.316728  0.618836  1
  Tm  Tm15  1  0.525552  0.692149  0.593248  1
  Tm  Tm16  1  0.861920  0.516535  0.749834  1
  Tm  Tm17  1  0.350279  0.986749  0.749774  1
  Tm  Tm18  1  0.150631  0.486674  0.250082  1
  Tm  Tm19  1  0.650944  0.010446  0.250195  1
  Si  Si20  1  0.649268  0.967521  0.456403  1
  Si  Si21  1  0.148530  0.531540  0.040826  1
  Si  Si22  1  0.350179  0.031790  0.960776  1
  Si  Si23  1  0.845305  0.472535  0.539318  1
  Si  Si24  1  0.351556  0.029972  0.539930  1
  Si  Si25  1  0.847416  0.471331  0.961078  1
  Si  Si26  1  0.649281  0.969544  0.044308  1
  Si  Si27  1  0.147136  0.530895  0.458801  1
  Si  Si28  1  0.977445  0.107387  0.749690  1
  Si  Si29  1  0.521693  0.604056  0.250164  1
  Si  Si30  1  0.023032  0.891892  0.250256  1
  Si  Si31  1  0.729101  0.872013  0.749333  1
  Si  Si32  1  0.220148  0.641616  0.749085  1
  Si  Si33  1  0.270803  0.126314  0.250343  1
  Si  Si34  1  0.769549  0.372149  0.250143  1
  Pb  Pb35  1  0.483079  0.388468  0.749401  1
