# generated using pymatgen
data_Y2Ho4VFeB14
_symmetry_space_group_name_H-M   'P 1'
_cell_length_a   8.05277493
_cell_length_b   8.05277478
_cell_length_c   9.31989500
_cell_angle_alpha   90.00000000
_cell_angle_beta   90.00000000
_cell_angle_gamma   155.46676415
_symmetry_Int_Tables_number   1
_chemical_formula_structural   Y2Ho4VFeB14
_chemical_formula_sum   'Y2 Ho4 V1 Fe1 B14'
_cell_volume   250.94668488
_cell_formula_units_Z   1
loop_
 _symmetry_equiv_pos_site_id
 _symmetry_equiv_pos_as_xyz
  1  'x, y, z'
loop_
 _atom_site_type_symbol
 _atom_site_label
 _atom_site_symmetry_multiplicity
 _atom_site_fract_x
 _atom_site_fract_y
 _atom_site_fract_z
 _atom_site_occupancy
  Y  Y0  1  0.244277  0.755723  0.250000  1
  Y  Y1  1  0.757717  0.242283  0.750000  1
  Ho  Ho2  1  0.893997  0.106003  0.442423  1
  Ho  Ho3  1  0.104957  0.895043  0.562620  1
  Ho  Ho4  1  0.893997  0.106003  0.057577  1
  Ho  Ho5  1  0.104957  0.895043  0.937380  1
  V  V6  1  0.052251  0.947749  0.250000  1
  Fe  Fe7  1  0.945781  0.054219  0.750000  1
  B  B8  1  0.727913  0.272087  0.468923  1
  B  B9  1  0.273381  0.726619  0.534769  1
  B  B10  1  0.727913  0.272087  0.031077  1
  B  B11  1  0.273381  0.726619  0.965231  1
  B  B12  1  0.632600  0.367400  0.148640  1
  B  B13  1  0.370856  0.629144  0.847009  1
  B  B14  1  0.632600  0.367400  0.351360  1
  B  B15  1  0.370856  0.629144  0.652991  1
  B  B16  1  0.520184  0.479816  0.093248  1
  B  B17  1  0.478409  0.521591  0.902470  1
  B  B18  1  0.520184  0.479816  0.406752  1
  B  B19  1  0.478409  0.521591  0.597530  1
  B  B20  1  0.456515  0.543485  0.250000  1
  B  B21  1  0.538866  0.461134  0.750000  1
