# generated using pymatgen
data_Sm3Sn5Hg2
_symmetry_space_group_name_H-M   'P 1'
_cell_length_a   12.96052769
_cell_length_b   12.96052823
_cell_length_c   4.53780500
_cell_angle_alpha   90.00000000
_cell_angle_beta   90.00000000
_cell_angle_gamma   159.35397582
_symmetry_Int_Tables_number   1
_chemical_formula_structural   Sm3Sn5Hg2
_chemical_formula_sum   'Sm3 Sn5 Hg2'
_cell_volume   268.76050712
_cell_formula_units_Z   1
loop_
 _symmetry_equiv_pos_site_id
 _symmetry_equiv_pos_as_xyz
  1  'x, y, z'
loop_
 _atom_site_type_symbol
 _atom_site_label
 _atom_site_symmetry_multiplicity
 _atom_site_fract_x
 _atom_site_fract_y
 _atom_site_fract_z
 _atom_site_occupancy
  Sm  Sm0  1  0.000000  0.000000  0.000000  1
  Sm  Sm1  1  0.814281  0.185720  0.000000  1
  Sm  Sm2  1  0.185720  0.814281  0.000000  1
  Sn  Sn3  1  0.905509  0.094491  0.500001  1
  Sn  Sn4  1  0.709204  0.290796  0.500001  1
  Sn  Sn5  1  0.500000  0.500000  0.500001  1
  Sn  Sn6  1  0.290796  0.709204  0.500001  1
  Sn  Sn7  1  0.094491  0.905509  0.500001  1
  Hg  Hg8  1  0.595426  0.404574  0.000000  1
  Hg  Hg9  1  0.404574  0.595426  0.000000  1
