# generated using pymatgen
data_La(MnSb3)4
_symmetry_space_group_name_H-M   'P 1'
_cell_length_a   8.08690486
_cell_length_b   8.08690579
_cell_length_c   8.08690600
_cell_angle_alpha   109.47121867
_cell_angle_beta   109.47122099
_cell_angle_gamma   109.47122149
_symmetry_Int_Tables_number   1
_chemical_formula_structural   La(MnSb3)4
_chemical_formula_sum   'La1 Mn4 Sb12'
_cell_volume   407.12261311
_cell_formula_units_Z   1
loop_
 _symmetry_equiv_pos_site_id
 _symmetry_equiv_pos_as_xyz
  1  'x, y, z'
loop_
 _atom_site_type_symbol
 _atom_site_label
 _atom_site_symmetry_multiplicity
 _atom_site_fract_x
 _atom_site_fract_y
 _atom_site_fract_z
 _atom_site_occupancy
  La  La0  1  0.000000  0.000000  0.000000  1
  Mn  Mn1  1  0.000000  0.000000  0.500000  1
  Mn  Mn2  1  0.500000  0.000000  0.000000  1
  Mn  Mn3  1  0.000000  0.500000  0.000000  1
  Mn  Mn4  1  0.500000  0.500000  0.500000  1
  Sb  Sb5  1  0.334405  0.173389  0.838984  1
  Sb  Sb6  1  0.665594  0.826611  0.161016  1
  Sb  Sb7  1  0.665594  0.504579  0.838984  1
  Sb  Sb8  1  0.334406  0.495421  0.161016  1
  Sb  Sb9  1  0.173389  0.838984  0.334406  1
  Sb  Sb10  1  0.826611  0.161016  0.665595  1
  Sb  Sb11  1  0.504579  0.838984  0.665595  1
  Sb  Sb12  1  0.495421  0.161016  0.334406  1
  Sb  Sb13  1  0.838984  0.334405  0.173389  1
  Sb  Sb14  1  0.161016  0.665594  0.826611  1
  Sb  Sb15  1  0.838984  0.665594  0.504579  1
  Sb  Sb16  1  0.161016  0.334406  0.495421  1
