# generated using pymatgen
data_Ac3Ge6N11
_symmetry_space_group_name_H-M   'P 1'
_cell_length_a   10.78269700
_cell_length_b   10.78269700
_cell_length_c   5.18337300
_cell_angle_alpha   90.00000000
_cell_angle_beta   90.00000000
_cell_angle_gamma   90.00000000
_symmetry_Int_Tables_number   1
_chemical_formula_structural   Ac3Ge6N11
_chemical_formula_sum   'Ac6 Ge12 N22'
_cell_volume   602.65291988
_cell_formula_units_Z   2
loop_
 _symmetry_equiv_pos_site_id
 _symmetry_equiv_pos_as_xyz
  1  'x, y, z'
loop_
 _atom_site_type_symbol
 _atom_site_label
 _atom_site_symmetry_multiplicity
 _atom_site_fract_x
 _atom_site_fract_y
 _atom_site_fract_z
 _atom_site_occupancy
  Ac  Ac0  1  0.320954  0.820954  0.000572  1
  Ac  Ac1  1  0.679046  0.179046  0.000572  1
  Ac  Ac2  1  0.179046  0.320954  0.000572  1
  Ac  Ac3  1  0.820954  0.679046  0.000572  1
  Ac  Ac4  1  0.500000  0.500000  0.986897  1
  Ac  Ac5  1  0.000000  0.000000  0.986897  1
  Ge  Ge6  1  0.420961  0.291586  0.528050  1
  Ge  Ge7  1  0.579039  0.708414  0.528050  1
  Ge  Ge8  1  0.079039  0.791586  0.528050  1
  Ge  Ge9  1  0.920961  0.208414  0.528050  1
  Ge  Ge10  1  0.291586  0.579039  0.528050  1
  Ge  Ge11  1  0.708414  0.420961  0.528050  1
  Ge  Ge12  1  0.791586  0.920961  0.528050  1
  Ge  Ge13  1  0.208414  0.079039  0.528050  1
  Ge  Ge14  1  0.881951  0.381951  0.045251  1
  Ge  Ge15  1  0.118049  0.618049  0.045251  1
  Ge  Ge16  1  0.618049  0.881951  0.045251  1
  Ge  Ge17  1  0.381951  0.118049  0.045251  1
  N  N18  1  0.318181  0.420009  0.653732  1
  N  N19  1  0.681819  0.579991  0.653732  1
  N  N20  1  0.181819  0.920009  0.653732  1
  N  N21  1  0.818181  0.079991  0.653732  1
  N  N22  1  0.420009  0.681819  0.653732  1
  N  N23  1  0.579991  0.318181  0.653732  1
  N  N24  1  0.920009  0.818181  0.653732  1
  N  N25  1  0.079991  0.181819  0.653732  1
  N  N26  1  0.422624  0.275529  0.169639  1
  N  N27  1  0.577376  0.724471  0.169639  1
  N  N28  1  0.077376  0.775529  0.169639  1
  N  N29  1  0.922624  0.224471  0.169639  1
  N  N30  1  0.275529  0.577376  0.169639  1
  N  N31  1  0.724471  0.422624  0.169639  1
  N  N32  1  0.775529  0.922624  0.169639  1
  N  N33  1  0.224471  0.077376  0.169639  1
  N  N34  1  0.846838  0.346838  0.694414  1
  N  N35  1  0.153162  0.653162  0.694414  1
  N  N36  1  0.653162  0.846838  0.694414  1
  N  N37  1  0.346838  0.153162  0.694414  1
  N  N38  1  0.500000  0.000000  0.095491  1
  N  N39  1  0.000000  0.500000  0.095491  1
