# generated using pymatgen
data_ErTiCdSbO7
_symmetry_space_group_name_H-M   'P 1'
_cell_length_a   7.27759300
_cell_length_b   7.27759300
_cell_length_c   10.31193400
_cell_angle_alpha   90.00000000
_cell_angle_beta   90.00000000
_cell_angle_gamma   90.00000000
_symmetry_Int_Tables_number   1
_chemical_formula_structural   ErTiCdSbO7
_chemical_formula_sum   'Er4 Ti4 Cd4 Sb4 O28'
_cell_volume   546.15467144
_cell_formula_units_Z   4
loop_
 _symmetry_equiv_pos_site_id
 _symmetry_equiv_pos_as_xyz
  1  'x, y, z'
loop_
 _atom_site_type_symbol
 _atom_site_label
 _atom_site_symmetry_multiplicity
 _atom_site_fract_x
 _atom_site_fract_y
 _atom_site_fract_z
 _atom_site_occupancy
  Er  Er0  1  0.000000  0.734347  0.000000  1
  Er  Er1  1  0.000000  0.265653  0.500000  1
  Er  Er2  1  0.265653  0.000000  0.250000  1
  Er  Er3  1  0.734347  0.000000  0.750000  1
  Ti  Ti4  1  0.763708  0.000000  0.250000  1
  Ti  Ti5  1  0.000000  0.763708  0.500000  1
  Ti  Ti6  1  0.236292  0.000000  0.750000  1
  Ti  Ti7  1  0.000000  0.236292  0.000000  1
  Cd  Cd8  1  0.500000  0.743444  0.000000  1
  Cd  Cd9  1  0.256556  0.500000  0.250000  1
  Cd  Cd10  1  0.500000  0.256556  0.500000  1
  Cd  Cd11  1  0.743444  0.500000  0.750000  1
  Sb  Sb12  1  0.243081  0.500000  0.750000  1
  Sb  Sb13  1  0.500000  0.756919  0.500000  1
  Sb  Sb14  1  0.500000  0.243081  0.000000  1
  Sb  Sb15  1  0.756919  0.500000  0.250000  1
  O  O16  1  0.248037  0.751963  0.125000  1
  O  O17  1  0.548672  0.947613  0.366792  1
  O  O18  1  0.767445  0.750715  0.174307  1
  O  O19  1  0.751963  0.248037  0.625000  1
  O  O20  1  0.954051  0.954051  0.375000  1
  O  O21  1  0.045949  0.045949  0.875000  1
  O  O22  1  0.052387  0.451328  0.883208  1
  O  O23  1  0.045949  0.954051  0.625000  1
  O  O24  1  0.249285  0.232555  0.075693  1
  O  O25  1  0.232555  0.249285  0.674307  1
  O  O26  1  0.249285  0.767445  0.424307  1
  O  O27  1  0.451328  0.947613  0.633208  1
  O  O28  1  0.451328  0.052387  0.866792  1
  O  O29  1  0.450404  0.450404  0.875000  1
  O  O30  1  0.549596  0.549596  0.375000  1
  O  O31  1  0.548672  0.052387  0.133208  1
  O  O32  1  0.549596  0.450404  0.125000  1
  O  O33  1  0.750715  0.767445  0.575693  1
  O  O34  1  0.767445  0.249285  0.325693  1
  O  O35  1  0.751963  0.751963  0.875000  1
  O  O36  1  0.750715  0.232555  0.924307  1
  O  O37  1  0.947613  0.548672  0.383208  1
  O  O38  1  0.954051  0.045949  0.125000  1
  O  O39  1  0.947613  0.451328  0.116792  1
  O  O40  1  0.052387  0.548672  0.616792  1
  O  O41  1  0.232555  0.750715  0.825693  1
  O  O42  1  0.248037  0.248037  0.375000  1
  O  O43  1  0.450404  0.549596  0.625000  1
