# generated using pymatgen
data_Yb13(DyBi4)3
_symmetry_space_group_name_H-M   'P 1'
_cell_length_a   9.64592268
_cell_length_b   9.64592326
_cell_length_c   9.64592300
_cell_angle_alpha   90.27816642
_cell_angle_beta   90.27816643
_cell_angle_gamma   89.72183474
_symmetry_Int_Tables_number   1
_chemical_formula_structural   Yb13(DyBi4)3
_chemical_formula_sum   'Yb13 Dy3 Bi12'
_cell_volume   897.46199019
_cell_formula_units_Z   1
loop_
 _symmetry_equiv_pos_site_id
 _symmetry_equiv_pos_as_xyz
  1  'x, y, z'
loop_
 _atom_site_type_symbol
 _atom_site_label
 _atom_site_symmetry_multiplicity
 _atom_site_fract_x
 _atom_site_fract_y
 _atom_site_fract_z
 _atom_site_occupancy
  Yb  Yb0  1  0.825005  0.325005  0.174995  1
  Yb  Yb1  1  0.931503  0.926520  0.931020  1
  Yb  Yb2  1  0.826924  0.673816  0.325494  1
  Yb  Yb3  1  0.176692  0.822158  0.322280  1
  Yb  Yb4  1  0.173816  0.174506  0.173076  1
  Yb  Yb5  1  0.324889  0.824889  0.675111  1
  Yb  Yb6  1  0.068980  0.431503  0.573480  1
  Yb  Yb7  1  0.322158  0.177720  0.823308  1
  Yb  Yb8  1  0.674506  0.326924  0.826184  1
  Yb  Yb9  1  0.677720  0.676692  0.677842  1
  Yb  Yb10  1  0.568814  0.068814  0.431186  1
  Yb  Yb11  1  0.426520  0.568980  0.068497  1
  Yb  Yb12  1  0.073340  0.573340  0.926660  1
  Dy  Dy13  1  0.929905  0.071798  0.572456  1
  Dy  Dy14  1  0.427544  0.429905  0.428202  1
  Dy  Dy15  1  0.571798  0.927544  0.070095  1
  Bi  Bi16  1  0.746119  0.368971  0.500054  1
  Bi  Bi17  1  0.868971  0.999946  0.253881  1
  Bi  Bi18  1  0.999107  0.757237  0.625530  1
  Bi  Bi19  1  0.245894  0.129002  0.499040  1
  Bi  Bi20  1  0.131303  0.498120  0.251240  1
  Bi  Bi21  1  0.998120  0.248760  0.868697  1
  Bi  Bi22  1  0.257237  0.874470  0.000893  1
  Bi  Bi23  1  0.374470  0.499107  0.742763  1
  Bi  Bi24  1  0.499946  0.246119  0.131029  1
  Bi  Bi25  1  0.748760  0.631303  0.001880  1
  Bi  Bi26  1  0.629002  0.000960  0.754106  1
  Bi  Bi27  1  0.500960  0.745894  0.370998  1
