# generated using pymatgen
data_La3Dy(Sn5Rh3)2
_symmetry_space_group_name_H-M   'P 1'
_cell_length_a   4.54875047
_cell_length_b   7.34757096
_cell_length_c   13.56385938
_cell_angle_alpha   89.78804043
_cell_angle_beta   80.34709871
_cell_angle_gamma   89.99999631
_symmetry_Int_Tables_number   1
_chemical_formula_structural   La3Dy(Sn5Rh3)2
_chemical_formula_sum   'La3 Dy1 Sn10 Rh6'
_cell_volume   446.91330173
_cell_formula_units_Z   1
loop_
 _symmetry_equiv_pos_site_id
 _symmetry_equiv_pos_as_xyz
  1  'x, y, z'
loop_
 _atom_site_type_symbol
 _atom_site_label
 _atom_site_symmetry_multiplicity
 _atom_site_fract_x
 _atom_site_fract_y
 _atom_site_fract_z
 _atom_site_occupancy
  La  La0  1  0.475726  0.732455  0.048548  1
  La  La1  1  0.827497  0.258903  0.345006  1
  La  La2  1  0.172434  0.757963  0.655132  1
  Dy  Dy3  1  0.524978  0.233989  0.950043  1
  Sn  Sn4  1  0.952679  0.392842  0.094640  1
  Sn  Sn5  1  0.405030  0.113313  0.189937  1
  Sn  Sn6  1  0.878651  0.732065  0.242697  1
  Sn  Sn7  1  0.294035  0.557192  0.411930  1
  Sn  Sn8  1  0.290205  0.972943  0.419588  1
  Sn  Sn9  1  0.709578  0.472849  0.580843  1
  Sn  Sn10  1  0.705706  0.056687  0.588587  1
  Sn  Sn11  1  0.120014  0.232464  0.759974  1
  Sn  Sn12  1  0.595798  0.609209  0.808403  1
  Sn  Sn13  1  0.048849  0.901566  0.902303  1
  Rh  Rh14  1  0.950135  0.018065  0.099728  1
  Rh  Rh15  1  0.393609  0.482956  0.212782  1
  Rh  Rh16  1  0.776617  0.765677  0.446766  1
  Rh  Rh17  1  0.222730  0.265810  0.554540  1
  Rh  Rh18  1  0.605513  0.986071  0.788973  1
  Rh  Rh19  1  0.050211  0.512978  0.899580  1
