# generated using pymatgen
data_Pu3Th(B10Ir)2
_symmetry_space_group_name_H-M   'P 1'
_cell_length_a   4.19544100
_cell_length_b   5.71288901
_cell_length_c   11.42527100
_cell_angle_alpha   89.99723194
_cell_angle_beta   90.00000000
_cell_angle_gamma   90.00000000
_symmetry_Int_Tables_number   1
_chemical_formula_structural   Pu3Th(B10Ir)2
_chemical_formula_sum   'Pu3 Th1 B20 Ir2'
_cell_volume   273.84190920
_cell_formula_units_Z   1
loop_
 _symmetry_equiv_pos_site_id
 _symmetry_equiv_pos_as_xyz
  1  'x, y, z'
loop_
 _atom_site_type_symbol
 _atom_site_label
 _atom_site_symmetry_multiplicity
 _atom_site_fract_x
 _atom_site_fract_y
 _atom_site_fract_z
 _atom_site_occupancy
  Pu  Pu0  1  0.500000  0.301766  0.861125  1
  Pu  Pu1  1  0.500000  0.700147  0.135883  1
  Pu  Pu2  1  0.500000  0.800838  0.640389  1
  Th  Th3  1  0.500000  0.206599  0.365134  1
  B  B4  1  0.000000  0.116361  0.543910  1
  B  B5  1  0.000000  0.879672  0.458298  1
  B  B6  1  0.000000  0.618726  0.957331  1
  B  B7  1  0.000000  0.381791  0.042248  1
  B  B8  1  0.000000  0.137310  0.697823  1
  B  B9  1  0.000000  0.862691  0.302822  1
  B  B10  1  0.301902  0.217205  0.116931  1
  B  B11  1  0.302078  0.781463  0.881540  1
  B  B12  1  0.698342  0.716809  0.381216  1
  B  B13  1  0.697800  0.281308  0.619619  1
  B  B14  1  0.697922  0.781463  0.881540  1
  B  B15  1  0.698098  0.217205  0.116931  1
  B  B16  1  0.302200  0.281308  0.619619  1
  B  B17  1  0.301658  0.716809  0.381216  1
  B  B18  1  0.000000  0.054281  0.192750  1
  B  B19  1  0.000000  0.946359  0.807616  1
  B  B20  1  0.000000  0.555387  0.305268  1
  B  B21  1  0.000000  0.447348  0.692474  1
  B  B22  1  0.000000  0.362679  0.195822  1
  B  B23  1  0.000000  0.637317  0.802955  1
  Ir  Ir24  1  0.000000  0.498172  0.499644  1
  Ir  Ir25  1  0.000000  0.998986  0.999898  1
