# generated using pymatgen
data_CuW3I7
_symmetry_space_group_name_H-M   'P 1'
_cell_length_a   11.42842300
_cell_length_b   16.60480300
_cell_length_c   17.28185100
_cell_angle_alpha   90.00000000
_cell_angle_beta   90.00000000
_cell_angle_gamma   90.00000000
_symmetry_Int_Tables_number   1
_chemical_formula_structural   CuW3I7
_chemical_formula_sum   'Cu8 W24 I56'
_cell_volume   3279.52005046
_cell_formula_units_Z   8
loop_
 _symmetry_equiv_pos_site_id
 _symmetry_equiv_pos_as_xyz
  1  'x, y, z'
loop_
 _atom_site_type_symbol
 _atom_site_label
 _atom_site_symmetry_multiplicity
 _atom_site_fract_x
 _atom_site_fract_y
 _atom_site_fract_z
 _atom_site_occupancy
  Cu  Cu0  1  0.360703  0.718050  0.208530  1
  Cu  Cu1  1  0.860703  0.281950  0.291470  1
  Cu  Cu2  1  0.139297  0.218050  0.791470  1
  Cu  Cu3  1  0.639297  0.781950  0.708530  1
  Cu  Cu4  1  0.639297  0.281950  0.791470  1
  Cu  Cu5  1  0.139297  0.718050  0.708530  1
  Cu  Cu6  1  0.860703  0.781950  0.208530  1
  Cu  Cu7  1  0.360703  0.218050  0.291470  1
  W  W8  1  0.637086  0.961631  0.050494  1
  W  W9  1  0.137086  0.038369  0.449506  1
  W  W10  1  0.862914  0.461631  0.949506  1
  W  W11  1  0.362914  0.538369  0.550494  1
  W  W12  1  0.362914  0.038369  0.949506  1
  W  W13  1  0.862914  0.961631  0.550494  1
  W  W14  1  0.137086  0.538369  0.050494  1
  W  W15  1  0.637086  0.461631  0.449506  1
  W  W16  1  0.405807  0.939245  0.069021  1
  W  W17  1  0.905807  0.060755  0.430979  1
  W  W18  1  0.094193  0.439245  0.930979  1
  W  W19  1  0.594193  0.560755  0.569021  1
  W  W20  1  0.594193  0.060755  0.930979  1
  W  W21  1  0.094193  0.939245  0.569021  1
  W  W22  1  0.905807  0.560755  0.069021  1
  W  W23  1  0.405807  0.439245  0.430979  1
  W  W24  1  0.494397  0.089001  0.068846  1
  W  W25  1  0.994397  0.910999  0.431154  1
  W  W26  1  0.005603  0.589001  0.931154  1
  W  W27  1  0.505603  0.410999  0.568846  1
  W  W28  1  0.505603  0.910999  0.931154  1
  W  W29  1  0.005603  0.089001  0.568846  1
  W  W30  1  0.994397  0.410999  0.068846  1
  W  W31  1  0.494397  0.589001  0.431154  1
  I  I32  1  0.550875  0.802830  0.054236  1
  I  I33  1  0.050875  0.197170  0.445764  1
  I  I34  1  0.949125  0.302830  0.945764  1
  I  I35  1  0.449125  0.697170  0.554236  1
  I  I36  1  0.449125  0.197170  0.945764  1
  I  I37  1  0.949125  0.802830  0.554236  1
  I  I38  1  0.050875  0.697170  0.054236  1
  I  I39  1  0.550875  0.302830  0.445764  1
  I  I40  1  0.539457  0.989497  0.197558  1
  I  I41  1  0.039457  0.010503  0.302442  1
  I  I42  1  0.960543  0.489497  0.802442  1
  I  I43  1  0.460543  0.510503  0.697558  1
  I  I44  1  0.460543  0.010503  0.802442  1
  I  I45  1  0.960543  0.989497  0.697558  1
  I  I46  1  0.039457  0.510503  0.197558  1
  I  I47  1  0.539457  0.489497  0.302442  1
  I  I48  1  0.251204  0.070022  0.092295  1
  I  I49  1  0.751204  0.929978  0.407705  1
  I  I50  1  0.248796  0.570022  0.907705  1
  I  I51  1  0.748796  0.429978  0.592295  1
  I  I52  1  0.748796  0.929978  0.907705  1
  I  I53  1  0.248796  0.070022  0.592295  1
  I  I54  1  0.751204  0.429978  0.092295  1
  I  I55  1  0.251204  0.570022  0.407705  1
  I  I56  1  0.263126  0.882867  0.946641  1
  I  I57  1  0.763126  0.117133  0.553359  1
  I  I58  1  0.236874  0.382867  0.053359  1
  I  I59  1  0.736874  0.617133  0.446641  1
  I  I60  1  0.736874  0.117133  0.053359  1
  I  I61  1  0.236874  0.882867  0.446641  1
  I  I62  1  0.763126  0.617133  0.946641  1
  I  I63  1  0.263126  0.382867  0.553359  1
  I  I64  1  0.486293  0.228946  0.169962  1
  I  I65  1  0.986293  0.771054  0.330038  1
  I  I66  1  0.013707  0.728946  0.830038  1
  I  I67  1  0.513707  0.271054  0.669962  1
  I  I68  1  0.513707  0.771054  0.830038  1
  I  I69  1  0.013707  0.228946  0.669962  1
  I  I70  1  0.986293  0.271054  0.169962  1
  I  I71  1  0.486293  0.728946  0.330038  1
  I  I72  1  0.852546  0.908405  0.126271  1
  I  I73  1  0.352546  0.091595  0.373729  1
  I  I74  1  0.647454  0.408405  0.873729  1
  I  I75  1  0.147454  0.591595  0.626271  1
  I  I76  1  0.147454  0.091595  0.873729  1
  I  I77  1  0.647454  0.908405  0.626271  1
  I  I78  1  0.352546  0.591595  0.126271  1
  I  I79  1  0.852546  0.408405  0.373729  1
  I  I80  1  0.258230  0.850551  0.175073  1
  I  I81  1  0.758230  0.149449  0.324927  1
  I  I82  1  0.241770  0.350551  0.824927  1
  I  I83  1  0.741770  0.649449  0.675073  1
  I  I84  1  0.741770  0.149449  0.824927  1
  I  I85  1  0.241770  0.850551  0.675073  1
  I  I86  1  0.758230  0.649449  0.175073  1
  I  I87  1  0.258230  0.350551  0.324927  1
