# generated using pymatgen
data_Hg2(Bi4Ir)3
_symmetry_space_group_name_H-M   'P 1'
_cell_length_a   18.07362737
_cell_length_b   16.34163110
_cell_length_c   9.32380726
_cell_angle_alpha   84.85519995
_cell_angle_beta   64.22746741
_cell_angle_gamma   30.91733323
_symmetry_Int_Tables_number   1
_chemical_formula_structural   Hg2(Bi4Ir)3
_chemical_formula_sum   'Hg4 Bi24 Ir6'
_cell_volume   1007.30340663
_cell_formula_units_Z   2
loop_
 _symmetry_equiv_pos_site_id
 _symmetry_equiv_pos_as_xyz
  1  'x, y, z'
loop_
 _atom_site_type_symbol
 _atom_site_label
 _atom_site_symmetry_multiplicity
 _atom_site_fract_x
 _atom_site_fract_y
 _atom_site_fract_z
 _atom_site_occupancy
  Hg  Hg0  1  0.795326  0.204674  0.795326  1
  Hg  Hg1  1  0.204674  0.795326  0.204674  1
  Hg  Hg2  1  0.045326  0.454674  0.045326  1
  Hg  Hg3  1  0.454674  0.045326  0.454674  1
  Bi  Bi4  1  0.435926  0.460931  0.308847  1
  Bi  Bi5  1  0.368086  0.852560  0.055413  1
  Bi  Bi6  1  0.308847  0.794296  0.435926  1
  Bi  Bi7  1  0.941153  0.455704  0.814074  1
  Bi  Bi8  1  0.723941  0.055413  0.852560  1
  Bi  Bi9  1  0.789069  0.814074  0.455704  1
  Bi  Bi10  1  0.102305  0.792605  0.793416  1
  Bi  Bi11  1  0.147695  0.457395  0.456584  1
  Bi  Bi12  1  0.792605  0.102305  0.311673  1
  Bi  Bi13  1  0.194587  0.526059  0.881914  1
  Bi  Bi14  1  0.938327  0.456584  0.457395  1
  Bi  Bi15  1  0.526059  0.194587  0.397440  1
  Bi  Bi16  1  0.794296  0.308847  0.460931  1
  Bi  Bi17  1  0.397440  0.881914  0.526059  1
  Bi  Bi18  1  0.793416  0.311673  0.102305  1
  Bi  Bi19  1  0.455704  0.941153  0.789069  1
  Bi  Bi20  1  0.460931  0.435926  0.794296  1
  Bi  Bi21  1  0.055413  0.723941  0.368086  1
  Bi  Bi22  1  0.852560  0.368086  0.723941  1
  Bi  Bi23  1  0.814074  0.789069  0.941153  1
  Bi  Bi24  1  0.457395  0.147695  0.938327  1
  Bi  Bi25  1  0.881914  0.397440  0.194587  1
  Bi  Bi26  1  0.311673  0.793416  0.792605  1
  Bi  Bi27  1  0.456584  0.938327  0.147695  1
  Ir  Ir28  1  0.625000  0.625000  0.125000  1
  Ir  Ir29  1  0.750000  0.750000  0.750000  1
  Ir  Ir30  1  0.625000  0.125000  0.625000  1
  Ir  Ir31  1  0.625000  0.625000  0.625000  1
  Ir  Ir32  1  0.125000  0.625000  0.625000  1
  Ir  Ir33  1  0.500000  0.500000  0.500000  1
