# generated using pymatgen
data_Y4LuP12Ru16Pt3
_symmetry_space_group_name_H-M   'P 1'
_cell_length_a   12.59274700
_cell_length_b   12.59274728
_cell_length_c   3.98734600
_cell_angle_alpha   90.00000000
_cell_angle_beta   90.00000000
_cell_angle_gamma   119.99999137
_symmetry_Int_Tables_number   1
_chemical_formula_structural   Y4LuP12Ru16Pt3
_chemical_formula_sum   'Y4 Lu1 P12 Ru16 Pt3'
_cell_volume   547.59006288
_cell_formula_units_Z   1
loop_
 _symmetry_equiv_pos_site_id
 _symmetry_equiv_pos_as_xyz
  1  'x, y, z'
loop_
 _atom_site_type_symbol
 _atom_site_label
 _atom_site_symmetry_multiplicity
 _atom_site_fract_x
 _atom_site_fract_y
 _atom_site_fract_z
 _atom_site_occupancy
  Y  Y0  1  0.999988  0.182057  0.500000  1
  Y  Y1  1  0.817943  0.817932  0.500000  1
  Y  Y2  1  0.182068  0.000012  0.500000  1
  Y  Y3  1  0.333333  0.666667  0.000000  1
  Lu  Lu4  1  0.666667  0.333333  0.000000  1
  P  P5  1  0.999885  0.814850  0.000000  1
  P  P6  1  0.185150  0.185035  0.000000  1
  P  P7  1  0.814965  0.000115  0.000000  1
  P  P8  1  0.699572  0.181005  0.500000  1
  P  P9  1  0.818995  0.518567  0.500000  1
  P  P10  1  0.481433  0.300428  0.500000  1
  P  P11  1  0.180213  0.699924  0.500000  1
  P  P12  1  0.519711  0.819787  0.500000  1
  P  P13  1  0.300076  0.480289  0.500000  1
  P  P14  1  0.000124  0.365445  0.000000  1
  P  P15  1  0.634555  0.634679  0.000000  1
  P  P16  1  0.365321  0.999876  0.000000  1
  Ru  Ru17  1  0.999733  0.710634  0.500000  1
  Ru  Ru18  1  0.289366  0.289099  0.500000  1
  Ru  Ru19  1  0.710901  0.000267  0.500000  1
  Ru  Ru20  1  0.805964  0.185511  0.000000  1
  Ru  Ru21  1  0.814489  0.620455  0.000000  1
  Ru  Ru22  1  0.379545  0.194036  0.000000  1
  Ru  Ru23  1  0.184903  0.806364  0.000000  1
  Ru  Ru24  1  0.621463  0.815097  0.000000  1
  Ru  Ru25  1  0.193636  0.378537  0.000000  1
  Ru  Ru26  1  0.874099  0.369434  0.500000  1
  Ru  Ru27  1  0.630566  0.504665  0.500000  1
  Ru  Ru28  1  0.495335  0.125901  0.500000  1
  Ru  Ru29  1  0.369441  0.875581  0.500000  1
  Ru  Ru30  1  0.506139  0.630559  0.500000  1
  Ru  Ru31  1  0.124419  0.493861  0.500000  1
  Ru  Ru32  1  0.000000  0.000000  0.000000  1
  Pt  Pt33  1  0.000035  0.551478  0.000000  1
  Pt  Pt34  1  0.448522  0.448557  0.000000  1
  Pt  Pt35  1  0.551443  0.999965  0.000000  1
