# generated using pymatgen
data_UCr2(AgO5)2
_symmetry_space_group_name_H-M   'P 1'
_cell_length_a   5.59720659
_cell_length_b   5.89830926
_cell_length_c   8.70231282
_cell_angle_alpha   108.41930283
_cell_angle_beta   95.84810917
_cell_angle_gamma   103.69966983
_symmetry_Int_Tables_number   1
_chemical_formula_structural   UCr2(AgO5)2
_chemical_formula_sum   'U1 Cr2 Ag2 O10'
_cell_volume   259.91283662
_cell_formula_units_Z   1
loop_
 _symmetry_equiv_pos_site_id
 _symmetry_equiv_pos_as_xyz
  1  'x, y, z'
loop_
 _atom_site_type_symbol
 _atom_site_label
 _atom_site_symmetry_multiplicity
 _atom_site_fract_x
 _atom_site_fract_y
 _atom_site_fract_z
 _atom_site_occupancy
  U  U0  1  0.000000  0.000000  0.000000  1
  Cr  Cr1  1  0.928569  0.640236  0.284870  1
  Cr  Cr2  1  0.071431  0.359764  0.715130  1
  Ag  Ag3  1  0.492615  0.189580  0.398971  1
  Ag  Ag4  1  0.507383  0.810420  0.601029  1
  O  O5  1  0.840903  0.795023  0.164051  1
  O  O6  1  0.308825  0.070551  0.130098  1
  O  O7  1  0.959539  0.363261  0.166045  1
  O  O8  1  0.716141  0.588086  0.397345  1
  O  O9  1  0.201023  0.815608  0.406892  1
  O  O10  1  0.798976  0.184391  0.593107  1
  O  O11  1  0.283860  0.411914  0.602656  1
  O  O12  1  0.040462  0.636740  0.833956  1
  O  O13  1  0.691176  0.929449  0.869902  1
  O  O14  1  0.159097  0.204977  0.835949  1
