# generated using pymatgen
data_Hf6SiTc5Ge5Os
_symmetry_space_group_name_H-M   'P 1'
_cell_length_a   7.84551254
_cell_length_b   7.84615508
_cell_length_c   7.84509096
_cell_angle_alpha   126.56797093
_cell_angle_beta   128.28078606
_cell_angle_gamma   77.57125440
_symmetry_Int_Tables_number   1
_chemical_formula_structural   Hf6SiTc5Ge5Os
_chemical_formula_sum   'Hf6 Si1 Tc5 Ge5 Os1'
_cell_volume   295.25613986
_cell_formula_units_Z   1
loop_
 _symmetry_equiv_pos_site_id
 _symmetry_equiv_pos_as_xyz
  1  'x, y, z'
loop_
 _atom_site_type_symbol
 _atom_site_label
 _atom_site_symmetry_multiplicity
 _atom_site_fract_x
 _atom_site_fract_y
 _atom_site_fract_z
 _atom_site_occupancy
  Hf  Hf0  1  0.548192  0.095325  0.046109  1
  Hf  Hf1  1  0.451317  0.498515  0.547953  1
  Hf  Hf2  1  0.951311  0.497945  0.045653  1
  Hf  Hf3  1  0.048999  0.095657  0.547372  1
  Hf  Hf4  1  0.749359  0.898574  0.647499  1
  Hf  Hf5  1  0.250372  0.895627  0.146440  1
  Si  Si6  1  0.251294  0.497552  0.749332  1
  Tc  Tc7  1  0.131635  0.748759  0.628121  1
  Tc  Tc8  1  0.878864  0.496468  0.627636  1
  Tc  Tc9  1  0.621679  0.750893  0.118044  1
  Tc  Tc10  1  0.367553  0.496333  0.118465  1
  Tc  Tc11  1  0.494110  0.242335  0.736491  1
  Ge  Ge12  1  0.333602  0.830424  0.497310  1
  Ge  Ge13  1  0.666166  0.163704  0.496604  1
  Ge  Ge14  1  0.833270  0.830391  0.996726  1
  Ge  Ge15  1  0.167089  0.163447  0.997494  1
  Ge  Ge16  1  0.748371  0.498344  0.246164  1
  Os  Os17  1  0.006818  0.243709  0.250587  1
