# generated using pymatgen
data_Er5Si2Ge2P8Ir19
_symmetry_space_group_name_H-M   'P 1'
_cell_length_a   12.81108836
_cell_length_b   12.79530482
_cell_length_c   3.97283800
_cell_angle_alpha   90.00000000
_cell_angle_beta   90.00000000
_cell_angle_gamma   120.11899006
_symmetry_Int_Tables_number   1
_chemical_formula_structural   Er5Si2Ge2P8Ir19
_chemical_formula_sum   'Er5 Si2 Ge2 P8 Ir19'
_cell_volume   563.30832836
_cell_formula_units_Z   1
loop_
 _symmetry_equiv_pos_site_id
 _symmetry_equiv_pos_as_xyz
  1  'x, y, z'
loop_
 _atom_site_type_symbol
 _atom_site_label
 _atom_site_symmetry_multiplicity
 _atom_site_fract_x
 _atom_site_fract_y
 _atom_site_fract_z
 _atom_site_occupancy
  Er  Er0  1  0.667383  0.330934  0.000000  1
  Er  Er1  1  0.334284  0.667165  0.000000  1
  Er  Er2  1  0.822364  0.818534  0.500000  1
  Er  Er3  1  0.178773  0.000793  0.500000  1
  Er  Er4  1  0.999571  0.183434  0.500000  1
  Si  Si5  1  0.679293  0.159975  0.500000  1
  Si  Si6  1  0.836000  0.516210  0.500000  1
  Ge  Ge7  1  0.641747  0.642804  0.000000  1
  Ge  Ge8  1  0.357007  0.998508  0.000000  1
  P  P9  1  0.481120  0.318104  0.500000  1
  P  P10  1  0.179665  0.692798  0.500000  1
  P  P11  1  0.517872  0.825598  0.500000  1
  P  P12  1  0.305904  0.484502  0.500000  1
  P  P13  1  0.999071  0.358427  0.000000  1
  P  P14  1  0.174795  0.181095  0.000000  1
  P  P15  1  0.822601  0.996538  0.000000  1
  P  P16  1  0.002581  0.819818  0.000000  1
  Ir  Ir17  1  0.814856  0.178285  0.000000  1
  Ir  Ir18  1  0.825569  0.626954  0.000000  1
  Ir  Ir19  1  0.368376  0.198921  0.000000  1
  Ir  Ir20  1  0.177005  0.790039  0.000000  1
  Ir  Ir21  1  0.617420  0.824313  0.000000  1
  Ir  Ir22  1  0.193290  0.378878  0.000000  1
  Ir  Ir23  1  0.455081  0.447767  0.000000  1
  Ir  Ir24  1  0.562977  0.027828  0.000000  1
  Ir  Ir25  1  0.982401  0.529588  0.000000  1
  Ir  Ir26  1  0.283045  0.288599  0.500000  1
  Ir  Ir27  1  0.723158  0.998182  0.500000  1
  Ir  Ir28  1  0.004544  0.720806  0.500000  1
  Ir  Ir29  1  0.864076  0.349351  0.500000  1
  Ir  Ir30  1  0.642905  0.506437  0.500000  1
  Ir  Ir31  1  0.485595  0.139510  0.500000  1
  Ir  Ir32  1  0.369551  0.872696  0.500000  1
  Ir  Ir33  1  0.501662  0.634265  0.500000  1
  Ir  Ir34  1  0.126678  0.494096  0.500000  1
  Ir  Ir35  1  0.001780  0.998251  0.000000  1
