# generated using pymatgen
data_Y4Ho6TcIr3
_symmetry_space_group_name_H-M   'P 1'
_cell_length_a   6.42346515
_cell_length_b   7.29565612
_cell_length_c   8.45232120
_cell_angle_alpha   96.83566006
_cell_angle_beta   111.67412246
_cell_angle_gamma   90.07449679
_symmetry_Int_Tables_number   1
_chemical_formula_structural   Y4Ho6TcIr3
_chemical_formula_sum   'Y4 Ho6 Tc1 Ir3'
_cell_volume   365.04313857
_cell_formula_units_Z   1
loop_
 _symmetry_equiv_pos_site_id
 _symmetry_equiv_pos_as_xyz
  1  'x, y, z'
loop_
 _atom_site_type_symbol
 _atom_site_label
 _atom_site_symmetry_multiplicity
 _atom_site_fract_x
 _atom_site_fract_y
 _atom_site_fract_z
 _atom_site_occupancy
  Y  Y0  1  0.973946  0.917745  0.188079  1
  Y  Y1  1  0.791619  0.581891  0.820505  1
  Y  Y2  1  0.024117  0.083333  0.815089  1
  Y  Y3  1  0.215002  0.419435  0.188470  1
  Ho  Ho4  1  0.650854  0.816462  0.437849  1
  Ho  Ho5  1  0.207765  0.683430  0.560648  1
  Ho  Ho6  1  0.350713  0.182603  0.561259  1
  Ho  Ho7  1  0.790436  0.317576  0.437308  1
  Ho  Ho8  1  0.424083  0.751431  0.999522  1
  Ho  Ho9  1  0.575306  0.249451  0.999901  1
  Tc  Tc10  1  0.819740  0.571707  0.214606  1
  Ir  Ir11  1  0.596640  0.926171  0.775197  1
  Ir  Ir12  1  0.179428  0.424148  0.778370  1
  Ir  Ir13  1  0.400351  0.074618  0.223197  1
