# generated using pymatgen
data_Nd16Hg4IrRu3
_symmetry_space_group_name_H-M   'P 1'
_cell_length_a   9.90817737
_cell_length_b   9.87543599
_cell_length_c   9.87543700
_cell_angle_alpha   59.99999996
_cell_angle_beta   60.10925125
_cell_angle_gamma   60.10924944
_symmetry_Int_Tables_number   1
_chemical_formula_structural   Nd16Hg4IrRu3
_chemical_formula_sum   'Nd16 Hg4 Ir1 Ru3'
_cell_volume   684.39458377
_cell_formula_units_Z   1
loop_
 _symmetry_equiv_pos_site_id
 _symmetry_equiv_pos_as_xyz
  1  'x, y, z'
loop_
 _atom_site_type_symbol
 _atom_site_label
 _atom_site_symmetry_multiplicity
 _atom_site_fract_x
 _atom_site_fract_y
 _atom_site_fract_z
 _atom_site_occupancy
  Nd  Nd0  1  0.346433  0.349361  0.349361  1
  Nd  Nd1  1  0.346433  0.349361  0.954845  1
  Nd  Nd2  1  0.346433  0.954845  0.349361  1
  Nd  Nd3  1  0.954095  0.348635  0.348635  1
  Nd  Nd4  1  0.810789  0.191324  0.191324  1
  Nd  Nd5  1  0.191820  0.809175  0.809175  1
  Nd  Nd6  1  0.191820  0.809175  0.189829  1
  Nd  Nd7  1  0.810789  0.191324  0.806561  1
  Nd  Nd8  1  0.191820  0.189829  0.809175  1
  Nd  Nd9  1  0.810789  0.806561  0.191324  1
  Nd  Nd10  1  0.939218  0.561744  0.561744  1
  Nd  Nd11  1  0.560082  0.938766  0.938766  1
  Nd  Nd12  1  0.560082  0.938766  0.562387  1
  Nd  Nd13  1  0.939218  0.561744  0.937294  1
  Nd  Nd14  1  0.560082  0.562387  0.938766  1
  Nd  Nd15  1  0.939218  0.937294  0.561744  1
  Hg  Hg16  1  0.583406  0.583334  0.583334  1
  Hg  Hg17  1  0.583406  0.583334  0.249924  1
  Hg  Hg18  1  0.583406  0.249924  0.583334  1
  Hg  Hg19  1  0.250273  0.583242  0.583242  1
  Ir  Ir20  1  0.578560  0.140480  0.140480  1
  Ru  Ru21  1  0.140607  0.137347  0.137347  1
  Ru  Ru22  1  0.140607  0.137347  0.584696  1
  Ru  Ru23  1  0.140607  0.584696  0.137347  1
