# generated using pymatgen
data_Nb4ZnCr(B2Ru5)2
_symmetry_space_group_name_H-M   'P 1'
_cell_length_a   9.34551600
_cell_length_b   9.34551600
_cell_length_c   2.98287900
_cell_angle_alpha   90.00000000
_cell_angle_beta   90.00000000
_cell_angle_gamma   90.00000000
_symmetry_Int_Tables_number   1
_chemical_formula_structural   Nb4ZnCr(B2Ru5)2
_chemical_formula_sum   'Nb4 Zn1 Cr1 B4 Ru10'
_cell_volume   260.52068256
_cell_formula_units_Z   1
loop_
 _symmetry_equiv_pos_site_id
 _symmetry_equiv_pos_as_xyz
  1  'x, y, z'
loop_
 _atom_site_type_symbol
 _atom_site_label
 _atom_site_symmetry_multiplicity
 _atom_site_fract_x
 _atom_site_fract_y
 _atom_site_fract_z
 _atom_site_occupancy
  Nb  Nb0  1  0.823422  0.677876  0.000000  1
  Nb  Nb1  1  0.176578  0.322124  0.000000  1
  Nb  Nb2  1  0.322124  0.823422  0.000000  1
  Nb  Nb3  1  0.677876  0.176578  0.000000  1
  Zn  Zn4  1  0.000000  0.000000  0.000000  1
  Cr  Cr5  1  0.500000  0.500000  0.000000  1
  B  B6  1  0.627474  0.879443  0.000000  1
  B  B7  1  0.372526  0.120557  0.000000  1
  B  B8  1  0.120557  0.627474  0.000000  1
  B  B9  1  0.879443  0.372526  0.000000  1
  Ru  Ru10  1  0.568617  0.712903  0.500000  1
  Ru  Ru11  1  0.431383  0.287097  0.500000  1
  Ru  Ru12  1  0.072047  0.783527  0.500000  1
  Ru  Ru13  1  0.927953  0.216473  0.500000  1
  Ru  Ru14  1  0.287097  0.568617  0.500000  1
  Ru  Ru15  1  0.712903  0.431383  0.500000  1
  Ru  Ru16  1  0.216473  0.072047  0.500000  1
  Ru  Ru17  1  0.783527  0.927953  0.500000  1
  Ru  Ru18  1  0.500000  0.000000  0.500000  1
  Ru  Ru19  1  0.000000  0.500000  0.500000  1
