# generated using pymatgen
data_LiDy8Sc10Si16Ag
_symmetry_space_group_name_H-M   'P 1'
_cell_length_a   6.97943283
_cell_length_b   7.39868485
_cell_length_c   14.00390500
_cell_angle_alpha   90.00000000
_cell_angle_beta   90.00000000
_cell_angle_gamma   89.85729168
_symmetry_Int_Tables_number   1
_chemical_formula_structural   LiDy8Sc10Si16Ag
_chemical_formula_sum   'Li1 Dy8 Sc10 Si16 Ag1'
_cell_volume   723.14014107
_cell_formula_units_Z   1
loop_
 _symmetry_equiv_pos_site_id
 _symmetry_equiv_pos_as_xyz
  1  'x, y, z'
loop_
 _atom_site_type_symbol
 _atom_site_label
 _atom_site_symmetry_multiplicity
 _atom_site_fract_x
 _atom_site_fract_y
 _atom_site_fract_z
 _atom_site_occupancy
  Li  Li0  1  0.840954  0.495520  0.250000  1
  Dy  Dy1  1  0.009661  0.182176  0.098488  1
  Dy  Dy2  1  0.990175  0.815109  0.901413  1
  Dy  Dy3  1  0.484821  0.673662  0.901930  1
  Dy  Dy4  1  0.990175  0.815109  0.598587  1
  Dy  Dy5  1  0.515039  0.325581  0.097599  1
  Dy  Dy6  1  0.009661  0.182176  0.401512  1
  Dy  Dy7  1  0.515039  0.325581  0.402401  1
  Dy  Dy8  1  0.484821  0.673662  0.598070  1
  Sc  Sc9  1  0.340772  0.003286  0.250000  1
  Sc  Sc10  1  0.658007  0.998349  0.750000  1
  Sc  Sc11  1  0.325290  0.183007  0.626175  1
  Sc  Sc12  1  0.673275  0.817755  0.374266  1
  Sc  Sc13  1  0.166365  0.675318  0.372883  1
  Sc  Sc14  1  0.673275  0.817755  0.125734  1
  Sc  Sc15  1  0.835155  0.326378  0.626669  1
  Sc  Sc16  1  0.325290  0.183007  0.873825  1
  Sc  Sc17  1  0.835155  0.326378  0.873331  1
  Sc  Sc18  1  0.166365  0.675318  0.127117  1
  Si  Si19  1  0.028080  0.098817  0.750000  1
  Si  Si20  1  0.970012  0.897440  0.250000  1
  Si  Si21  1  0.465306  0.613810  0.250000  1
  Si  Si22  1  0.537053  0.384693  0.750000  1
  Si  Si23  1  0.288896  0.883462  0.750000  1
  Si  Si24  1  0.711163  0.117461  0.250000  1
  Si  Si25  1  0.219757  0.374129  0.250000  1
  Si  Si26  1  0.777982  0.628419  0.750000  1
  Si  Si27  1  0.160780  0.459643  0.530896  1
  Si  Si28  1  0.841250  0.538535  0.466362  1
  Si  Si29  1  0.343675  0.966488  0.461806  1
  Si  Si30  1  0.841250  0.538535  0.033638  1
  Si  Si31  1  0.657084  0.032947  0.539108  1
  Si  Si32  1  0.160780  0.459643  0.969104  1
  Si  Si33  1  0.657084  0.032947  0.960892  1
  Si  Si34  1  0.343675  0.966488  0.038194  1
  Ag  Ag35  1  0.156875  0.511412  0.750000  1
