# generated using pymatgen
data_Sr2AsClO4
_symmetry_space_group_name_H-M   'P 1'
_cell_length_a   6.64673700
_cell_length_b   7.57440000
_cell_length_c   11.62395100
_cell_angle_alpha   90.00000000
_cell_angle_beta   90.00000000
_cell_angle_gamma   90.00000000
_symmetry_Int_Tables_number   1
_chemical_formula_structural   Sr2AsClO4
_chemical_formula_sum   'Sr8 As4 Cl4 O16'
_cell_volume   585.20833307
_cell_formula_units_Z   4
loop_
 _symmetry_equiv_pos_site_id
 _symmetry_equiv_pos_as_xyz
  1  'x, y, z'
loop_
 _atom_site_type_symbol
 _atom_site_label
 _atom_site_symmetry_multiplicity
 _atom_site_fract_x
 _atom_site_fract_y
 _atom_site_fract_z
 _atom_site_occupancy
  Sr  Sr0  1  0.626410  0.250000  0.000000  1
  Sr  Sr1  1  0.373590  0.750000  0.000000  1
  Sr  Sr2  1  0.373590  0.750000  0.500000  1
  Sr  Sr3  1  0.626410  0.250000  0.500000  1
  Sr  Sr4  1  0.135835  0.030629  0.250000  1
  Sr  Sr5  1  0.864165  0.969371  0.750000  1
  Sr  Sr6  1  0.864165  0.530629  0.250000  1
  Sr  Sr7  1  0.135835  0.469371  0.750000  1
  As  As8  1  0.128128  0.250000  0.000000  1
  As  As9  1  0.871872  0.750000  0.000000  1
  As  As10  1  0.871872  0.750000  0.500000  1
  As  As11  1  0.128128  0.250000  0.500000  1
  Cl  Cl12  1  0.488523  0.315925  0.250000  1
  Cl  Cl13  1  0.511477  0.684075  0.750000  1
  Cl  Cl14  1  0.511477  0.815925  0.250000  1
  Cl  Cl15  1  0.488523  0.184075  0.750000  1
  O  O16  1  0.027542  0.769202  0.118661  1
  O  O17  1  0.972458  0.230798  0.881339  1
  O  O18  1  0.972458  0.230798  0.618661  1
  O  O19  1  0.972458  0.269202  0.381339  1
  O  O20  1  0.027542  0.769202  0.381339  1
  O  O21  1  0.027542  0.730798  0.618661  1
  O  O22  1  0.027542  0.730798  0.881339  1
  O  O23  1  0.972458  0.269202  0.118661  1
  O  O24  1  0.283468  0.073572  0.028773  1
  O  O25  1  0.716532  0.926428  0.971227  1
  O  O26  1  0.716532  0.926428  0.528773  1
  O  O27  1  0.716532  0.573572  0.471227  1
  O  O28  1  0.283468  0.073572  0.471227  1
  O  O29  1  0.283468  0.426428  0.528773  1
  O  O30  1  0.283468  0.426428  0.971227  1
  O  O31  1  0.716532  0.573572  0.028773  1
