# generated using pymatgen
data_Ba6Y2(TcO6)3
_symmetry_space_group_name_H-M   'P 1'
_cell_length_a   10.35747517
_cell_length_b   10.35747434
_cell_length_c   10.35747438
_cell_angle_alpha   146.44942347
_cell_angle_beta   131.98293610
_cell_angle_gamma   59.84721411
_symmetry_Int_Tables_number   1
_chemical_formula_structural   Ba6Y2(TcO6)3
_chemical_formula_sum   'Ba6 Y2 Tc3 O18'
_cell_volume   452.34449943
_cell_formula_units_Z   1
loop_
 _symmetry_equiv_pos_site_id
 _symmetry_equiv_pos_as_xyz
  1  'x, y, z'
loop_
 _atom_site_type_symbol
 _atom_site_label
 _atom_site_symmetry_multiplicity
 _atom_site_fract_x
 _atom_site_fract_y
 _atom_site_fract_z
 _atom_site_occupancy
  Ba  Ba0  1  0.769858  0.500000  0.269858  1
  Ba  Ba1  1  0.397161  0.157932  0.239229  1
  Ba  Ba2  1  0.081297  0.842068  0.239229  1
  Ba  Ba3  1  0.230142  0.500000  0.730142  1
  Ba  Ba4  1  0.918703  0.157932  0.760771  1
  Ba  Ba5  1  0.602839  0.842068  0.760771  1
  Y  Y6  1  0.666028  0.666028  0.000000  1
  Y  Y7  1  0.333972  0.333972  0.000000  1
  Tc  Tc8  1  0.500000  0.000000  0.500000  1
  Tc  Tc9  1  0.168425  0.668425  0.500000  1
  Tc  Tc10  1  0.831575  0.331575  0.500000  1
  O  O11  1  0.720077  0.000000  0.720077  1
  O  O12  1  0.403014  0.668559  0.734455  1
  O  O13  1  0.065897  0.331441  0.734455  1
  O  O14  1  0.578532  0.843937  0.265403  1
  O  O15  1  0.246462  0.515480  0.269017  1
  O  O16  1  0.904738  0.179880  0.275141  1
  O  O17  1  0.421468  0.686871  0.265403  1
  O  O18  1  0.095262  0.370404  0.275141  1
  O  O19  1  0.753538  0.022555  0.269017  1
  O  O20  1  0.279923  0.000000  0.279923  1
  O  O21  1  0.934103  0.668559  0.265545  1
  O  O22  1  0.596986  0.331441  0.265545  1
  O  O23  1  0.421468  0.156063  0.734597  1
  O  O24  1  0.095262  0.820120  0.724859  1
  O  O25  1  0.753538  0.484520  0.730983  1
  O  O26  1  0.578532  0.313129  0.734597  1
  O  O27  1  0.246462  0.977445  0.730983  1
  O  O28  1  0.904738  0.629597  0.724859  1
