# generated using pymatgen
data_NaNd2(PN2)7
_symmetry_space_group_name_H-M   'P 1'
_cell_length_a   7.84589849
_cell_length_b   7.50068139
_cell_length_c   5.22323700
_cell_angle_alpha   79.80967224
_cell_angle_beta   80.27531058
_cell_angle_gamma   69.71176593
_symmetry_Int_Tables_number   1
_chemical_formula_structural   NaNd2(PN2)7
_chemical_formula_sum   'Na1 Nd2 P7 N14'
_cell_volume   281.83417472
_cell_formula_units_Z   1
loop_
 _symmetry_equiv_pos_site_id
 _symmetry_equiv_pos_as_xyz
  1  'x, y, z'
loop_
 _atom_site_type_symbol
 _atom_site_label
 _atom_site_symmetry_multiplicity
 _atom_site_fract_x
 _atom_site_fract_y
 _atom_site_fract_z
 _atom_site_occupancy
  Na  Na0  1  0.330852  0.462013  0.288565  1
  Nd  Nd1  1  0.838195  0.203253  0.271892  1
  Nd  Nd2  1  0.174942  0.780465  0.770336  1
  P  P3  1  0.572827  0.700412  0.212711  1
  P  P4  1  0.096448  0.255632  0.722328  1
  P  P5  1  0.733426  0.934956  0.777505  1
  P  P6  1  0.887544  0.764261  0.279705  1
  P  P7  1  0.274869  0.069673  0.206214  1
  P  P8  1  0.434403  0.293961  0.800211  1
  P  P9  1  0.670722  0.528753  0.814710  1
  N  N10  1  0.231095  0.380989  0.695789  1
  N  N11  1  0.637659  0.759649  0.884115  1
  N  N12  1  0.715677  0.685096  0.408571  1
  N  N13  1  0.412670  0.189290  0.101295  1
  N  N14  1  0.873168  0.364931  0.780555  1
  N  N15  1  0.601679  0.135169  0.640197  1
  N  N16  1  0.068700  0.628546  0.155959  1
  N  N17  1  0.367349  0.837457  0.297419  1
  N  N18  1  0.902997  0.864383  0.540924  1
  N  N19  1  0.143583  0.082533  0.976717  1
  N  N20  1  0.605793  0.487349  0.144997  1
  N  N21  1  0.490916  0.495126  0.722210  1
  N  N22  1  0.809352  0.953661  0.041353  1
  N  N23  1  0.125130  0.142444  0.465722  1
