# generated using pymatgen
data_Er9Tm11(Bi2Ir)4
_symmetry_space_group_name_H-M   'P 1'
_cell_length_a   7.89781303
_cell_length_b   8.95750900
_cell_length_c   12.44120505
_cell_angle_alpha   90.00000000
_cell_angle_beta   89.98982757
_cell_angle_gamma   90.00000000
_symmetry_Int_Tables_number   1
_chemical_formula_structural   Er9Tm11(Bi2Ir)4
_chemical_formula_sum   'Er9 Tm11 Bi8 Ir4'
_cell_volume   880.14969445
_cell_formula_units_Z   1
loop_
 _symmetry_equiv_pos_site_id
 _symmetry_equiv_pos_as_xyz
  1  'x, y, z'
loop_
 _atom_site_type_symbol
 _atom_site_label
 _atom_site_symmetry_multiplicity
 _atom_site_fract_x
 _atom_site_fract_y
 _atom_site_fract_z
 _atom_site_occupancy
  Er  Er0  1  0.838814  0.750000  0.206482  1
  Er  Er1  1  0.128088  0.750000  0.811514  1
  Er  Er2  1  0.871867  0.250000  0.188511  1
  Er  Er3  1  0.628181  0.250000  0.688521  1
  Er  Er4  1  0.371783  0.750000  0.311487  1
  Er  Er5  1  0.555834  0.750000  0.997869  1
  Er  Er6  1  0.444013  0.250000  0.002038  1
  Er  Er7  1  0.055947  0.250000  0.502037  1
  Er  Er8  1  0.944074  0.750000  0.498030  1
  Tm  Tm9  1  0.661067  0.750000  0.706232  1
  Tm  Tm10  1  0.338933  0.250000  0.293768  1
  Tm  Tm11  1  0.161078  0.250000  0.793753  1
  Tm  Tm12  1  0.827219  0.459127  0.932030  1
  Tm  Tm13  1  0.172846  0.540754  0.067908  1
  Tm  Tm14  1  0.327239  0.540828  0.567950  1
  Tm  Tm15  1  0.172846  0.959246  0.067908  1
  Tm  Tm16  1  0.672754  0.459111  0.432070  1
  Tm  Tm17  1  0.827219  0.040873  0.932030  1
  Tm  Tm18  1  0.672754  0.040889  0.432070  1
  Tm  Tm19  1  0.327239  0.959172  0.567950  1
  Bi  Bi20  1  0.936912  0.007068  0.672839  1
  Bi  Bi21  1  0.063193  0.993080  0.327224  1
  Bi  Bi22  1  0.436951  0.992967  0.827157  1
  Bi  Bi23  1  0.063193  0.506920  0.327224  1
  Bi  Bi24  1  0.562951  0.007176  0.172819  1
  Bi  Bi25  1  0.936912  0.492932  0.672839  1
  Bi  Bi26  1  0.562951  0.492824  0.172819  1
  Bi  Bi27  1  0.436951  0.507033  0.827157  1
  Ir  Ir28  1  0.930390  0.750000  0.992556  1
  Ir  Ir29  1  0.069759  0.250000  0.007197  1
  Ir  Ir30  1  0.430279  0.250000  0.507228  1
  Ir  Ir31  1  0.569767  0.750000  0.492783  1
