# generated using pymatgen
data_LiNi2F6
_symmetry_space_group_name_H-M   'P 1'
_cell_length_a   4.64340300
_cell_length_b   4.64340300
_cell_length_c   9.10886100
_cell_angle_alpha   90.00000000
_cell_angle_beta   90.00000000
_cell_angle_gamma   90.00000000
_symmetry_Int_Tables_number   1
_chemical_formula_structural   LiNi2F6
_chemical_formula_sum   'Li2 Ni4 F12'
_cell_volume   196.39789564
_cell_formula_units_Z   2
loop_
 _symmetry_equiv_pos_site_id
 _symmetry_equiv_pos_as_xyz
  1  'x, y, z'
loop_
 _atom_site_type_symbol
 _atom_site_label
 _atom_site_symmetry_multiplicity
 _atom_site_fract_x
 _atom_site_fract_y
 _atom_site_fract_z
 _atom_site_occupancy
  Li  Li0  1  0.500000  0.500000  0.167259  1
  Li  Li1  1  0.000000  0.000000  0.667259  1
  Ni  Ni2  1  0.500000  0.500000  0.499314  1
  Ni  Ni3  1  0.000000  0.000000  0.999314  1
  Ni  Ni4  1  0.500000  0.500000  0.834981  1
  Ni  Ni5  1  0.000000  0.000000  0.334980  1
  F  F6  1  0.192007  0.807993  0.159336  1
  F  F7  1  0.807993  0.192007  0.159336  1
  F  F8  1  0.307993  0.307993  0.659336  1
  F  F9  1  0.692007  0.692007  0.659336  1
  F  F10  1  0.807166  0.192834  0.839679  1
  F  F11  1  0.192834  0.807166  0.839679  1
  F  F12  1  0.692834  0.692834  0.339679  1
  F  F13  1  0.307166  0.307166  0.339679  1
  F  F14  1  0.209106  0.790894  0.500208  1
  F  F15  1  0.790894  0.209106  0.500208  1
  F  F16  1  0.290894  0.290894  0.000208  1
  F  F17  1  0.709106  0.709106  0.000208  1
