# generated using pymatgen
data_Tb3YCo3SiI2
_symmetry_space_group_name_H-M   'P 1'
_cell_length_a   4.00313900
_cell_length_b   4.00313906
_cell_length_c   16.93737800
_cell_angle_alpha   90.00000000
_cell_angle_beta   90.00000000
_cell_angle_gamma   119.99997474
_symmetry_Int_Tables_number   1
_chemical_formula_structural   Tb3YCo3SiI2
_chemical_formula_sum   'Tb3 Y1 Co3 Si1 I2'
_cell_volume   235.05974944
_cell_formula_units_Z   1
loop_
 _symmetry_equiv_pos_site_id
 _symmetry_equiv_pos_as_xyz
  1  'x, y, z'
loop_
 _atom_site_type_symbol
 _atom_site_label
 _atom_site_symmetry_multiplicity
 _atom_site_fract_x
 _atom_site_fract_y
 _atom_site_fract_z
 _atom_site_occupancy
  Tb  Tb0  1  0.000000  0.000000  0.603059  1
  Tb  Tb1  1  0.000000  0.000000  0.396662  1
  Tb  Tb2  1  0.000000  0.000000  0.894537  1
  Y  Y3  1  0.000000  0.000000  0.103221  1
  Co  Co4  1  0.333333  0.666667  0.004632  1
  Co  Co5  1  0.666667  0.333333  0.501154  1
  Co  Co6  1  0.333333  0.666667  0.498766  1
  Si  Si7  1  0.666667  0.333333  0.996598  1
  I  I8  1  0.666667  0.333333  0.249026  1
  I  I9  1  0.333333  0.666667  0.752345  1
