# generated using pymatgen
data_La2Y4Ir17Rh
_symmetry_space_group_name_H-M   'P 1'
_cell_length_a   5.36088600
_cell_length_b   5.36100542
_cell_length_c   17.49882800
_cell_angle_alpha   90.00000000
_cell_angle_beta   90.00000000
_cell_angle_gamma   119.99777450
_symmetry_Int_Tables_number   1
_chemical_formula_structural   La2Y4Ir17Rh
_chemical_formula_sum   'La2 Y4 Ir17 Rh1'
_cell_volume   435.54411666
_cell_formula_units_Z   1
loop_
 _symmetry_equiv_pos_site_id
 _symmetry_equiv_pos_as_xyz
  1  'x, y, z'
loop_
 _atom_site_type_symbol
 _atom_site_label
 _atom_site_symmetry_multiplicity
 _atom_site_fract_x
 _atom_site_fract_y
 _atom_site_fract_z
 _atom_site_occupancy
  La  La0  1  0.333336  0.666664  0.750000  1
  La  La1  1  0.666669  0.333336  0.250000  1
  Y  Y2  1  0.333335  0.666666  0.959580  1
  Y  Y3  1  0.666666  0.333330  0.040027  1
  Y  Y4  1  0.666666  0.333330  0.459973  1
  Y  Y5  1  0.333335  0.666666  0.540420  1
  Ir  Ir6  1  0.166997  0.833002  0.374133  1
  Ir  Ir7  1  0.167000  0.334009  0.374110  1
  Ir  Ir8  1  0.665991  0.832995  0.374119  1
  Ir  Ir9  1  0.832962  0.167034  0.625462  1
  Ir  Ir10  1  0.832963  0.665917  0.625474  1
  Ir  Ir11  1  0.334081  0.167043  0.625468  1
  Ir  Ir12  1  0.832962  0.167034  0.874538  1
  Ir  Ir13  1  0.832963  0.665917  0.874526  1
  Ir  Ir14  1  0.334081  0.167043  0.874532  1
  Ir  Ir15  1  0.166997  0.833002  0.125867  1
  Ir  Ir16  1  0.167000  0.334009  0.125890  1
  Ir  Ir17  1  0.665991  0.832995  0.125881  1
  Ir  Ir18  1  0.333322  0.666765  0.250000  1
  Ir  Ir19  1  0.666676  0.333269  0.750000  1
  Ir  Ir20  1  0.000005  0.999907  0.250000  1
  Ir  Ir21  1  0.000003  0.000002  0.500025  1
  Ir  Ir22  1  0.000003  0.000002  0.999975  1
  Rh  Rh23  1  0.999997  0.000062  0.750000  1
