# generated using pymatgen
data_Mn4Fe3Co5(W6C)2
_symmetry_space_group_name_H-M   'P 1'
_cell_length_a   7.73945556
_cell_length_b   7.73478067
_cell_length_c   7.73754212
_cell_angle_alpha   59.97154572
_cell_angle_beta   59.99182328
_cell_angle_gamma   59.97999241
_symmetry_Int_Tables_number   1
_chemical_formula_structural   Mn4Fe3Co5(W6C)2
_chemical_formula_sum   'Mn4 Fe3 Co5 W12 C2'
_cell_volume   327.38626488
_cell_formula_units_Z   1
loop_
 _symmetry_equiv_pos_site_id
 _symmetry_equiv_pos_as_xyz
  1  'x, y, z'
loop_
 _atom_site_type_symbol
 _atom_site_label
 _atom_site_symmetry_multiplicity
 _atom_site_fract_x
 _atom_site_fract_y
 _atom_site_fract_z
 _atom_site_occupancy
  Mn  Mn0  1  0.126097  0.121677  0.626128  1
  Mn  Mn1  1  0.127606  0.625446  0.119343  1
  Mn  Mn2  1  0.128909  0.125218  0.121223  1
  Mn  Mn3  1  0.624651  0.125218  0.121223  1
  Fe  Fe4  1  0.232752  0.923220  0.922724  1
  Fe  Fe5  1  0.327930  0.327299  0.016840  1
  Fe  Fe6  1  0.921304  0.923220  0.922724  1
  Co  Co7  1  0.919942  0.239867  0.920250  1
  Co  Co8  1  0.329772  0.010170  0.330287  1
  Co  Co9  1  0.329700  0.329778  0.330635  1
  Co  Co10  1  0.009886  0.329778  0.330635  1
  Co  Co11  1  0.919875  0.920244  0.240006  1
  W  W12  1  0.303709  0.696273  0.696309  1
  W  W13  1  0.303325  0.303566  0.696670  1
  W  W14  1  0.553168  0.946905  0.553318  1
  W  W15  1  0.947041  0.552896  0.553021  1
  W  W16  1  0.553970  0.945765  0.946295  1
  W  W17  1  0.696847  0.302809  0.303497  1
  W  W18  1  0.946243  0.553336  0.947170  1
  W  W19  1  0.302745  0.696954  0.303430  1
  W  W20  1  0.553251  0.553336  0.947170  1
  W  W21  1  0.696439  0.303566  0.696670  1
  W  W22  1  0.696871  0.696954  0.303430  1
  W  W23  1  0.946610  0.946905  0.553318  1
  C  C24  1  0.750715  0.749570  0.749000  1
  C  C25  1  0.500643  0.500031  0.498682  1
