# generated using pymatgen
data_Ho10In8CuRh3
_symmetry_space_group_name_H-M   'P 1'
_cell_length_a   8.07125159
_cell_length_b   18.22002403
_cell_length_c   3.59450800
_cell_angle_alpha   90.00000000
_cell_angle_beta   90.00000000
_cell_angle_gamma   89.85806331
_symmetry_Int_Tables_number   1
_chemical_formula_structural   Ho10In8CuRh3
_chemical_formula_sum   'Ho10 In8 Cu1 Rh3'
_cell_volume   528.60096552
_cell_formula_units_Z   1
loop_
 _symmetry_equiv_pos_site_id
 _symmetry_equiv_pos_as_xyz
  1  'x, y, z'
loop_
 _atom_site_type_symbol
 _atom_site_label
 _atom_site_symmetry_multiplicity
 _atom_site_fract_x
 _atom_site_fract_y
 _atom_site_fract_z
 _atom_site_occupancy
  Ho  Ho0  1  0.499670  0.499924  0.000000  1
  Ho  Ho1  1  0.001152  0.000821  0.000000  1
  Ho  Ho2  1  0.735198  0.278553  0.000000  1
  Ho  Ho3  1  0.252497  0.721396  0.000000  1
  Ho  Ho4  1  0.752026  0.777743  0.000000  1
  Ho  Ho5  1  0.258748  0.220651  0.000000  1
  Ho  Ho6  1  0.618310  0.087532  0.000000  1
  Ho  Ho7  1  0.380688  0.911706  0.000000  1
  Ho  Ho8  1  0.882401  0.587837  0.000000  1
  Ho  Ho9  1  0.121456  0.413981  0.000000  1
  In  In10  1  0.706310  0.932457  0.500000  1
  In  In11  1  0.294481  0.068850  0.500000  1
  In  In12  1  0.796082  0.431810  0.500000  1
  In  In13  1  0.205356  0.566900  0.500000  1
  In  In14  1  0.568311  0.648982  0.500000  1
  In  In15  1  0.430032  0.350910  0.500000  1
  In  In16  1  0.927317  0.151763  0.500000  1
  In  In17  1  0.067644  0.850313  0.500000  1
  Cu  Cu18  1  0.022199  0.301901  0.500000  1
  Rh  Rh19  1  0.525785  0.196196  0.500000  1
  Rh  Rh20  1  0.477156  0.804867  0.500000  1
  Rh  Rh21  1  0.977181  0.694909  0.500000  1
