# generated using pymatgen
data_BaMn3Sb12Au
_symmetry_space_group_name_H-M   'P 1'
_cell_length_a   8.19318225
_cell_length_b   8.14603304
_cell_length_c   8.19318181
_cell_angle_alpha   109.35468611
_cell_angle_beta   109.58750084
_cell_angle_gamma   109.35468181
_symmetry_Int_Tables_number   1
_chemical_formula_structural   BaMn3Sb12Au
_chemical_formula_sum   'Ba1 Mn3 Sb12 Au1'
_cell_volume   421.55291726
_cell_formula_units_Z   1
loop_
 _symmetry_equiv_pos_site_id
 _symmetry_equiv_pos_as_xyz
  1  'x, y, z'
loop_
 _atom_site_type_symbol
 _atom_site_label
 _atom_site_symmetry_multiplicity
 _atom_site_fract_x
 _atom_site_fract_y
 _atom_site_fract_z
 _atom_site_occupancy
  Ba  Ba0  1  0.000000  0.000000  0.000000  1
  Mn  Mn1  1  0.500000  0.500000  0.500000  1
  Mn  Mn2  1  0.500000  0.000000  0.000000  1
  Mn  Mn3  1  0.000000  0.000000  0.500000  1
  Sb  Sb4  1  0.170854  0.501177  0.361241  1
  Sb  Sb5  1  0.500569  0.664888  0.836197  1
  Sb  Sb6  1  0.361241  0.860063  0.190387  1
  Sb  Sb7  1  0.809613  0.669677  0.170854  1
  Sb  Sb8  1  0.664372  0.835681  0.500569  1
  Sb  Sb9  1  0.190387  0.330323  0.829146  1
  Sb  Sb10  1  0.638759  0.139937  0.809613  1
  Sb  Sb11  1  0.335628  0.164319  0.499431  1
  Sb  Sb12  1  0.499431  0.335112  0.163803  1
  Sb  Sb13  1  0.829146  0.498823  0.638759  1
  Sb  Sb14  1  0.836197  0.171310  0.335628  1
  Sb  Sb15  1  0.163803  0.828690  0.664372  1
  Au  Au16  1  0.000000  0.500000  0.000000  1
