# generated using pymatgen
data_Ba2Gd3BiSe8
_symmetry_space_group_name_H-M   'P 1'
_cell_length_a   4.28051300
_cell_length_b   13.01086000
_cell_length_c   15.41184000
_cell_angle_alpha   90.00000000
_cell_angle_beta   90.00000000
_cell_angle_gamma   90.00000000
_symmetry_Int_Tables_number   1
_chemical_formula_structural   Ba2Gd3BiSe8
_chemical_formula_sum   'Ba4 Gd6 Bi2 Se16'
_cell_volume   858.33399968
_cell_formula_units_Z   2
loop_
 _symmetry_equiv_pos_site_id
 _symmetry_equiv_pos_as_xyz
  1  'x, y, z'
loop_
 _atom_site_type_symbol
 _atom_site_label
 _atom_site_symmetry_multiplicity
 _atom_site_fract_x
 _atom_site_fract_y
 _atom_site_fract_z
 _atom_site_occupancy
  Ba  Ba0  1  0.250000  0.761171  0.335206  1
  Ba  Ba1  1  0.250000  0.261171  0.164794  1
  Ba  Ba2  1  0.750000  0.239592  0.662626  1
  Ba  Ba3  1  0.750000  0.739592  0.837374  1
  Gd  Gd4  1  0.750000  0.565128  0.610935  1
  Gd  Gd5  1  0.750000  0.065128  0.889065  1
  Gd  Gd6  1  0.250000  0.420056  0.899589  1
  Gd  Gd7  1  0.250000  0.920056  0.600411  1
  Gd  Gd8  1  0.750000  0.578629  0.099321  1
  Gd  Gd9  1  0.750000  0.078629  0.400679  1
  Bi  Bi10  1  0.250000  0.436443  0.389911  1
  Bi  Bi11  1  0.250000  0.936443  0.110089  1
  Se  Se12  1  0.250000  0.206332  0.832921  1
  Se  Se13  1  0.250000  0.706332  0.667079  1
  Se  Se14  1  0.750000  0.789812  0.167929  1
  Se  Se15  1  0.750000  0.289812  0.332071  1
  Se  Se16  1  0.250000  0.124974  0.524883  1
  Se  Se17  1  0.250000  0.624974  0.975117  1
  Se  Se18  1  0.750000  0.873319  0.475897  1
  Se  Se19  1  0.750000  0.373319  0.024103  1
  Se  Se20  1  0.250000  0.524446  0.213731  1
  Se  Se21  1  0.250000  0.024446  0.286269  1
  Se  Se22  1  0.750000  0.475909  0.783884  1
  Se  Se23  1  0.750000  0.975909  0.716116  1
  Se  Se24  1  0.250000  0.415734  0.579849  1
  Se  Se25  1  0.250000  0.915734  0.920151  1
  Se  Se26  1  0.750000  0.588457  0.424685  1
  Se  Se27  1  0.750000  0.088457  0.075315  1
