# generated using pymatgen
data_Hf18Fe2Re7W
_symmetry_space_group_name_H-M   'P 1'
_cell_length_a   8.58463300
_cell_length_b   8.58463252
_cell_length_c   8.46519400
_cell_angle_alpha   90.00000000
_cell_angle_beta   90.00000000
_cell_angle_gamma   119.99999798
_symmetry_Int_Tables_number   1
_chemical_formula_structural   Hf18Fe2Re7W
_chemical_formula_sum   'Hf18 Fe2 Re7 W1'
_cell_volume   540.27018170
_cell_formula_units_Z   1
loop_
 _symmetry_equiv_pos_site_id
 _symmetry_equiv_pos_as_xyz
  1  'x, y, z'
loop_
 _atom_site_type_symbol
 _atom_site_label
 _atom_site_symmetry_multiplicity
 _atom_site_fract_x
 _atom_site_fract_y
 _atom_site_fract_z
 _atom_site_occupancy
  Hf  Hf0  1  0.201130  0.798870  0.441492  1
  Hf  Hf1  1  0.201130  0.402262  0.441492  1
  Hf  Hf2  1  0.597738  0.798870  0.441492  1
  Hf  Hf3  1  0.798870  0.201130  0.558508  1
  Hf  Hf4  1  0.798870  0.597738  0.558508  1
  Hf  Hf5  1  0.402262  0.201130  0.558508  1
  Hf  Hf6  1  0.799978  0.200022  0.940532  1
  Hf  Hf7  1  0.799978  0.599954  0.940532  1
  Hf  Hf8  1  0.400046  0.200022  0.940532  1
  Hf  Hf9  1  0.200022  0.799978  0.059468  1
  Hf  Hf10  1  0.200022  0.400046  0.059468  1
  Hf  Hf11  1  0.599954  0.799978  0.059468  1
  Hf  Hf12  1  0.540619  0.459381  0.248744  1
  Hf  Hf13  1  0.540619  0.081238  0.248744  1
  Hf  Hf14  1  0.918762  0.459381  0.248744  1
  Hf  Hf15  1  0.459381  0.540619  0.751256  1
  Hf  Hf16  1  0.459381  0.918762  0.751256  1
  Hf  Hf17  1  0.081238  0.540619  0.751256  1
  Fe  Fe18  1  0.333333  0.666667  0.249550  1
  Fe  Fe19  1  0.666667  0.333333  0.750450  1
  Re  Re20  1  0.888521  0.111479  0.250765  1
  Re  Re21  1  0.888521  0.777042  0.250765  1
  Re  Re22  1  0.222958  0.111479  0.250765  1
  Re  Re23  1  0.111479  0.888521  0.749235  1
  Re  Re24  1  0.111479  0.222958  0.749235  1
  Re  Re25  1  0.777042  0.888521  0.749235  1
  Re  Re26  1  0.000000  0.000000  0.000000  1
  W  W27  1  0.000000  0.000000  0.500000  1
