# generated using pymatgen
data_ErTm2ReB7
_symmetry_space_group_name_H-M   'P 1'
_cell_length_a   7.98252907
_cell_length_b   7.98252923
_cell_length_c   9.28812700
_cell_angle_alpha   90.00000000
_cell_angle_beta   90.00000000
_cell_angle_gamma   154.65022581
_symmetry_Int_Tables_number   1
_chemical_formula_structural   ErTm2ReB7
_chemical_formula_sum   'Er2 Tm4 Re2 B14'
_cell_volume   253.39504633
_cell_formula_units_Z   2
loop_
 _symmetry_equiv_pos_site_id
 _symmetry_equiv_pos_as_xyz
  1  'x, y, z'
loop_
 _atom_site_type_symbol
 _atom_site_label
 _atom_site_symmetry_multiplicity
 _atom_site_fract_x
 _atom_site_fract_y
 _atom_site_fract_z
 _atom_site_occupancy
  Er  Er0  1  0.243304  0.756696  0.250000  1
  Er  Er1  1  0.756696  0.243304  0.750000  1
  Tm  Tm2  1  0.894524  0.105476  0.059411  1
  Tm  Tm3  1  0.105476  0.894524  0.559411  1
  Tm  Tm4  1  0.105476  0.894524  0.940589  1
  Tm  Tm5  1  0.894524  0.105476  0.440589  1
  Re  Re6  1  0.052157  0.947843  0.250000  1
  Re  Re7  1  0.947843  0.052157  0.750000  1
  B  B8  1  0.454298  0.545702  0.250000  1
  B  B9  1  0.545702  0.454298  0.750000  1
  B  B10  1  0.727467  0.272533  0.033532  1
  B  B11  1  0.272533  0.727467  0.533532  1
  B  B12  1  0.272533  0.727467  0.966468  1
  B  B13  1  0.727467  0.272533  0.466468  1
  B  B14  1  0.632324  0.367676  0.349654  1
  B  B15  1  0.367676  0.632324  0.849654  1
  B  B16  1  0.367676  0.632324  0.650346  1
  B  B17  1  0.632324  0.367676  0.150346  1
  B  B18  1  0.519905  0.480095  0.405380  1
  B  B19  1  0.480095  0.519905  0.905380  1
  B  B20  1  0.480095  0.519905  0.594620  1
  B  B21  1  0.519905  0.480095  0.094620  1
