# generated using pymatgen
data_Dy2Mn2FeTc14C3
_symmetry_space_group_name_H-M   'P 1'
_cell_length_a   6.91155094
_cell_length_b   6.91155148
_cell_length_c   6.89994349
_cell_angle_alpha   82.38833352
_cell_angle_beta   82.38832200
_cell_angle_gamma   82.39910013
_symmetry_Int_Tables_number   1
_chemical_formula_structural   Dy2Mn2FeTc14C3
_chemical_formula_sum   'Dy2 Mn2 Fe1 Tc14 C3'
_cell_volume   321.60860312
_cell_formula_units_Z   1
loop_
 _symmetry_equiv_pos_site_id
 _symmetry_equiv_pos_as_xyz
  1  'x, y, z'
loop_
 _atom_site_type_symbol
 _atom_site_label
 _atom_site_symmetry_multiplicity
 _atom_site_fract_x
 _atom_site_fract_y
 _atom_site_fract_z
 _atom_site_occupancy
  Dy  Dy0  1  0.651844  0.651844  0.651376  1
  Dy  Dy1  1  0.348156  0.348156  0.348624  1
  Mn  Mn2  1  0.500000  0.000000  0.000000  1
  Mn  Mn3  1  0.000000  0.500000  0.000000  1
  Fe  Fe4  1  0.000000  0.000000  0.500000  1
  Tc  Tc5  1  0.723141  0.276859  0.000000  1
  Tc  Tc6  1  0.000200  0.724303  0.276635  1
  Tc  Tc7  1  0.275697  0.999800  0.723365  1
  Tc  Tc8  1  0.999800  0.275697  0.723365  1
  Tc  Tc9  1  0.724303  0.000200  0.276635  1
  Tc  Tc10  1  0.276859  0.723141  0.000000  1
  Tc  Tc11  1  0.348758  0.348758  0.857084  1
  Tc  Tc12  1  0.858520  0.348371  0.349720  1
  Tc  Tc13  1  0.348371  0.858520  0.349720  1
  Tc  Tc14  1  0.651242  0.651242  0.142916  1
  Tc  Tc15  1  0.141480  0.651629  0.650280  1
  Tc  Tc16  1  0.651629  0.141480  0.650280  1
  Tc  Tc17  1  0.900554  0.900554  0.898834  1
  Tc  Tc18  1  0.099446  0.099446  0.101166  1
  C  C19  1  0.500000  0.500000  0.000000  1
  C  C20  1  0.000000  0.500000  0.500000  1
  C  C21  1  0.500000  0.000000  0.500000  1
