# generated using pymatgen
data_La4Cd(FeB3)2
_symmetry_space_group_name_H-M   'P 1'
_cell_length_a   5.44154904
_cell_length_b   5.44154897
_cell_length_c   8.65082564
_cell_angle_alpha   71.66874349
_cell_angle_beta   71.66874551
_cell_angle_gamma   60.00001023
_symmetry_Int_Tables_number   1
_chemical_formula_structural   La4Cd(FeB3)2
_chemical_formula_sum   'La4 Cd1 Fe2 B6'
_cell_volume   206.69070720
_cell_formula_units_Z   1
loop_
 _symmetry_equiv_pos_site_id
 _symmetry_equiv_pos_as_xyz
  1  'x, y, z'
loop_
 _atom_site_type_symbol
 _atom_site_label
 _atom_site_symmetry_multiplicity
 _atom_site_fract_x
 _atom_site_fract_y
 _atom_site_fract_z
 _atom_site_occupancy
  La  La0  1  0.747184  0.747184  0.758447  1
  La  La1  1  0.252816  0.252816  0.241553  1
  La  La2  1  0.585275  0.585275  0.244174  1
  La  La3  1  0.414725  0.414725  0.755826  1
  Cd  Cd4  1  0.000000  0.000000  0.000000  1
  Fe  Fe5  1  0.879531  0.879531  0.361407  1
  Fe  Fe6  1  0.120469  0.120469  0.638593  1
  B  B7  1  0.500000  0.166744  0.500000  1
  B  B8  1  0.833256  0.500000  0.500000  1
  B  B9  1  0.166744  0.833256  0.500000  1
  B  B10  1  0.166744  0.500000  0.500000  1
  B  B11  1  0.833256  0.166744  0.500000  1
  B  B12  1  0.500000  0.833256  0.500000  1
