# generated using pymatgen
data_Ho2ErTm3ReBi2
_symmetry_space_group_name_H-M   'P 1'
_cell_length_a   8.19062660
_cell_length_b   8.19062516
_cell_length_c   4.32085800
_cell_angle_alpha   90.00000000
_cell_angle_beta   90.00000000
_cell_angle_gamma   119.95868501
_symmetry_Int_Tables_number   1
_chemical_formula_structural   Ho2ErTm3ReBi2
_chemical_formula_sum   'Ho2 Er1 Tm3 Re1 Bi2'
_cell_volume   251.13975031
_cell_formula_units_Z   1
loop_
 _symmetry_equiv_pos_site_id
 _symmetry_equiv_pos_as_xyz
  1  'x, y, z'
loop_
 _atom_site_type_symbol
 _atom_site_label
 _atom_site_symmetry_multiplicity
 _atom_site_fract_x
 _atom_site_fract_y
 _atom_site_fract_z
 _atom_site_occupancy
  Ho  Ho0  1  0.614114  0.999658  0.000000  1
  Ho  Ho1  1  0.999658  0.614114  0.000000  1
  Er  Er2  1  0.384307  0.384307  0.000000  1
  Tm  Tm3  1  0.231603  0.000171  0.500000  1
  Tm  Tm4  1  0.000171  0.231603  0.500000  1
  Tm  Tm5  1  0.769554  0.769554  0.500000  1
  Re  Re6  1  0.001010  0.001010  0.000000  1
  Bi  Bi7  1  0.333555  0.666031  0.500000  1
  Bi  Bi8  1  0.666031  0.333555  0.500000  1
