# generated using pymatgen
data_DyCo2O5
_symmetry_space_group_name_H-M   'P 1'
_cell_length_a   5.62064200
_cell_length_b   7.22214400
_cell_length_c   8.46778900
_cell_angle_alpha   90.00000000
_cell_angle_beta   90.00000000
_cell_angle_gamma   90.00000000
_symmetry_Int_Tables_number   1
_chemical_formula_structural   DyCo2O5
_chemical_formula_sum   'Dy4 Co8 O20'
_cell_volume   343.73368623
_cell_formula_units_Z   4
loop_
 _symmetry_equiv_pos_site_id
 _symmetry_equiv_pos_as_xyz
  1  'x, y, z'
loop_
 _atom_site_type_symbol
 _atom_site_label
 _atom_site_symmetry_multiplicity
 _atom_site_fract_x
 _atom_site_fract_y
 _atom_site_fract_z
 _atom_site_occupancy
  Dy  Dy0  1  0.000000  0.859140  0.826162  1
  Dy  Dy1  1  0.000000  0.140860  0.173838  1
  Dy  Dy2  1  0.000000  0.359140  0.673838  1
  Dy  Dy3  1  0.000000  0.640860  0.326162  1
  Co  Co4  1  0.743732  0.000000  0.500000  1
  Co  Co5  1  0.500000  0.597825  0.646408  1
  Co  Co6  1  0.500000  0.402175  0.353592  1
  Co  Co7  1  0.500000  0.902175  0.146408  1
  Co  Co8  1  0.500000  0.097825  0.853592  1
  Co  Co9  1  0.256268  0.500000  0.000000  1
  Co  Co10  1  0.743732  0.500000  0.000000  1
  Co  Co11  1  0.256268  0.000000  0.500000  1
  O  O12  1  0.000000  0.337903  0.947297  1
  O  O13  1  0.724771  0.000000  0.000000  1
  O  O14  1  0.275229  0.000000  0.000000  1
  O  O15  1  0.500000  0.154318  0.442053  1
  O  O16  1  0.000000  0.162097  0.447297  1
  O  O17  1  0.724771  0.500000  0.500000  1
  O  O18  1  0.000000  0.837903  0.552703  1
  O  O19  1  0.754619  0.598487  0.788848  1
  O  O20  1  0.245381  0.098487  0.711152  1
  O  O21  1  0.500000  0.654318  0.057947  1
  O  O22  1  0.500000  0.345682  0.942053  1
  O  O23  1  0.000000  0.662097  0.052703  1
  O  O24  1  0.754619  0.901513  0.288848  1
  O  O25  1  0.754619  0.401513  0.211152  1
  O  O26  1  0.754619  0.098487  0.711152  1
  O  O27  1  0.245381  0.598487  0.788848  1
  O  O28  1  0.275229  0.500000  0.500000  1
  O  O29  1  0.245381  0.901513  0.288848  1
  O  O30  1  0.245381  0.401513  0.211152  1
  O  O31  1  0.500000  0.845682  0.557947  1
