# generated using pymatgen
data_Pr5NdAl20(SiOs2)4
_symmetry_space_group_name_H-M   'P 1'
_cell_length_a   8.82167420
_cell_length_b   8.82167555
_cell_length_c   9.75702400
_cell_angle_alpha   90.00000000
_cell_angle_beta   90.00000000
_cell_angle_gamma   120.02438127
_symmetry_Int_Tables_number   1
_chemical_formula_structural   Pr5NdAl20(SiOs2)4
_chemical_formula_sum   'Pr5 Nd1 Al20 Si4 Os8'
_cell_volume   657.42066257
_cell_formula_units_Z   1
loop_
 _symmetry_equiv_pos_site_id
 _symmetry_equiv_pos_as_xyz
  1  'x, y, z'
loop_
 _atom_site_type_symbol
 _atom_site_label
 _atom_site_symmetry_multiplicity
 _atom_site_fract_x
 _atom_site_fract_y
 _atom_site_fract_z
 _atom_site_occupancy
  Pr  Pr0  1  0.193276  0.386518  0.250000  1
  Pr  Pr1  1  0.806684  0.613208  0.750000  1
  Pr  Pr2  1  0.613482  0.806724  0.250000  1
  Pr  Pr3  1  0.386792  0.193316  0.750000  1
  Pr  Pr4  1  0.193259  0.806741  0.250000  1
  Nd  Nd5  1  0.806382  0.193618  0.750000  1
  Al  Al6  1  0.164266  0.329080  0.573295  1
  Al  Al7  1  0.835404  0.670770  0.426851  1
  Al  Al8  1  0.670920  0.835734  0.573295  1
  Al  Al9  1  0.835404  0.670770  0.073149  1
  Al  Al10  1  0.329230  0.164596  0.426851  1
  Al  Al11  1  0.164266  0.329080  0.926705  1
  Al  Al12  1  0.164570  0.835430  0.573198  1
  Al  Al13  1  0.329230  0.164596  0.073149  1
  Al  Al14  1  0.835395  0.164605  0.427141  1
  Al  Al15  1  0.670920  0.835734  0.926705  1
  Al  Al16  1  0.835395  0.164605  0.072859  1
  Al  Al17  1  0.164570  0.835430  0.926802  1
  Al  Al18  1  0.565184  0.130381  0.250000  1
  Al  Al19  1  0.435345  0.870116  0.750000  1
  Al  Al20  1  0.869619  0.434816  0.250000  1
  Al  Al21  1  0.129884  0.564655  0.750000  1
  Al  Al22  1  0.565180  0.434820  0.250000  1
  Al  Al23  1  0.434826  0.565174  0.750000  1
  Al  Al24  1  0.000007  0.999993  0.250000  1
  Al  Al25  1  0.999721  0.000279  0.750000  1
  Si  Si26  1  0.333348  0.666652  0.026330  1
  Si  Si27  1  0.666962  0.333038  0.973196  1
  Si  Si28  1  0.666962  0.333038  0.526804  1
  Si  Si29  1  0.333348  0.666652  0.473670  1
  Os  Os30  1  0.500313  0.000177  0.999757  1
  Os  Os31  1  0.999823  0.499687  0.999757  1
  Os  Os32  1  0.500313  0.000177  0.500243  1
  Os  Os33  1  0.500031  0.499969  0.999919  1
  Os  Os34  1  0.999823  0.499687  0.500243  1
  Os  Os35  1  0.500031  0.499969  0.500081  1
  Os  Os36  1  0.999917  0.000083  0.999855  1
  Os  Os37  1  0.999917  0.000083  0.500145  1
