# generated using pymatgen
data_Zr18NbRe7Ni2
_symmetry_space_group_name_H-M   'P 1'
_cell_length_a   8.69170100
_cell_length_b   8.69169878
_cell_length_c   8.51595800
_cell_angle_alpha   90.00007910
_cell_angle_beta   89.99971654
_cell_angle_gamma   120.00168685
_symmetry_Int_Tables_number   1
_chemical_formula_structural   Zr18NbRe7Ni2
_chemical_formula_sum   'Zr18 Nb1 Re7 Ni2'
_cell_volume   557.14239321
_cell_formula_units_Z   1
loop_
 _symmetry_equiv_pos_site_id
 _symmetry_equiv_pos_as_xyz
  1  'x, y, z'
loop_
 _atom_site_type_symbol
 _atom_site_label
 _atom_site_symmetry_multiplicity
 _atom_site_fract_x
 _atom_site_fract_y
 _atom_site_fract_z
 _atom_site_occupancy
  Zr  Zr0  1  0.199509  0.800497  0.442810  1
  Zr  Zr1  1  0.199509  0.399021  0.442812  1
  Zr  Zr2  1  0.600979  0.800491  0.442811  1
  Zr  Zr3  1  0.800491  0.199503  0.557190  1
  Zr  Zr4  1  0.800491  0.600979  0.557188  1
  Zr  Zr5  1  0.399021  0.199509  0.557189  1
  Zr  Zr6  1  0.802351  0.197651  0.941958  1
  Zr  Zr7  1  0.802351  0.604701  0.941955  1
  Zr  Zr8  1  0.395296  0.197650  0.941954  1
  Zr  Zr9  1  0.197649  0.802349  0.058042  1
  Zr  Zr10  1  0.197649  0.395299  0.058045  1
  Zr  Zr11  1  0.604704  0.802350  0.058046  1
  Zr  Zr12  1  0.542381  0.457616  0.249495  1
  Zr  Zr13  1  0.542381  0.084760  0.249486  1
  Zr  Zr14  1  0.915239  0.457618  0.249494  1
  Zr  Zr15  1  0.457619  0.542384  0.750505  1
  Zr  Zr16  1  0.457619  0.915240  0.750514  1
  Zr  Zr17  1  0.084761  0.542382  0.750506  1
  Nb  Nb18  1  0.000000  0.000000  0.500000  1
  Re  Re19  1  0.890314  0.109688  0.248942  1
  Re  Re20  1  0.890308  0.780620  0.248944  1
  Re  Re21  1  0.219373  0.109688  0.248941  1
  Re  Re22  1  0.109686  0.890312  0.751058  1
  Re  Re23  1  0.109692  0.219380  0.751056  1
  Re  Re24  1  0.780627  0.890312  0.751059  1
  Re  Re25  1  0.000000  0.000000  0.000000  1
  Ni  Ni26  1  0.333332  0.666675  0.248597  1
  Ni  Ni27  1  0.666668  0.333325  0.751403  1
