# generated using pymatgen
data_La5Pr4DyC4I15
_symmetry_space_group_name_H-M   'P 1'
_cell_length_a   9.85659570
_cell_length_b   10.77094470
_cell_length_c   11.88013919
_cell_angle_alpha   93.55925177
_cell_angle_beta   114.33524199
_cell_angle_gamma   109.38808003
_symmetry_Int_Tables_number   1
_chemical_formula_structural   La5Pr4DyC4I15
_chemical_formula_sum   'La5 Pr4 Dy1 C4 I15'
_cell_volume   1054.60300098
_cell_formula_units_Z   1
loop_
 _symmetry_equiv_pos_site_id
 _symmetry_equiv_pos_as_xyz
  1  'x, y, z'
loop_
 _atom_site_type_symbol
 _atom_site_label
 _atom_site_symmetry_multiplicity
 _atom_site_fract_x
 _atom_site_fract_y
 _atom_site_fract_z
 _atom_site_occupancy
  La  La0  1  0.399894  0.457080  0.653175  1
  La  La1  1  0.471638  0.816252  0.897921  1
  La  La2  1  0.706798  0.568714  0.045742  1
  La  La3  1  0.293792  0.432208  0.956215  1
  La  La4  1  0.659011  0.253458  0.833929  1
  Pr  Pr5  1  0.345330  0.746668  0.164672  1
  Pr  Pr6  1  0.776468  0.882753  0.258514  1
  Pr  Pr7  1  0.527808  0.186539  0.101864  1
  Pr  Pr8  1  0.225044  0.115452  0.745411  1
  Dy  Dy9  1  0.594585  0.545154  0.334549  1
  C  C10  1  0.484005  0.302406  0.937367  1
  C  C11  1  0.518307  0.698920  0.062553  1
  C  C12  1  0.453467  0.362323  0.832811  1
  C  C13  1  0.546826  0.636165  0.165639  1
  I  I14  1  0.205308  0.908446  0.940237  1
  I  I15  1  0.100241  0.183136  0.469211  1
  I  I16  1  0.149172  0.556033  0.702682  1
  I  I17  1  0.402454  0.968136  0.644452  1
  I  I18  1  0.714067  0.734788  0.820093  1
  I  I19  1  0.298441  0.274002  0.188205  1
  I  I20  1  0.839299  0.445797  0.302289  1
  I  I21  1  0.883771  0.799403  0.526187  1
  I  I22  1  0.367929  0.628043  0.410240  1
  I  I23  1  0.055457  0.834168  0.222367  1
  I  I24  1  0.796397  0.096411  0.067556  1
  I  I25  1  0.642863  0.372708  0.582485  1
  I  I26  1  0.945241  0.163560  0.780106  1
  I  I27  1  0.593573  0.029553  0.351367  1
  I  I28  1  0.002814  0.501723  0.002163  1
