# generated using pymatgen
data_Nb2AlGaRu4
_symmetry_space_group_name_H-M   'P 1'
_cell_length_a   4.39725701
_cell_length_b   6.21005700
_cell_length_c   13.15442602
_cell_angle_alpha   90.00000000
_cell_angle_beta   89.99445442
_cell_angle_gamma   90.00000000
_symmetry_Int_Tables_number   1
_chemical_formula_structural   Nb2AlGaRu4
_chemical_formula_sum   'Nb6 Al3 Ga3 Ru12'
_cell_volume   359.21075937
_cell_formula_units_Z   3
loop_
 _symmetry_equiv_pos_site_id
 _symmetry_equiv_pos_as_xyz
  1  'x, y, z'
loop_
 _atom_site_type_symbol
 _atom_site_label
 _atom_site_symmetry_multiplicity
 _atom_site_fract_x
 _atom_site_fract_y
 _atom_site_fract_z
 _atom_site_occupancy
  Nb  Nb0  1  0.000000  0.500000  0.000443  1
  Nb  Nb1  1  0.499857  0.000000  0.166661  1
  Nb  Nb2  1  0.999878  0.500000  0.332903  1
  Nb  Nb3  1  0.500011  0.000000  0.499588  1
  Nb  Nb4  1  0.000117  0.500000  0.666674  1
  Nb  Nb5  1  0.500132  0.000000  0.833743  1
  Al  Al6  1  0.500000  0.500000  0.500341  1
  Al  Al7  1  0.000133  0.000000  0.666668  1
  Al  Al8  1  0.500130  0.500000  0.833006  1
  Ga  Ga9  1  0.999999  0.000000  0.999562  1
  Ga  Ga10  1  0.499857  0.500000  0.166679  1
  Ga  Ga11  1  0.999869  0.000000  0.333768  1
  Ru  Ru12  1  0.500003  0.251493  0.999095  1
  Ru  Ru13  1  0.500003  0.748507  0.999095  1
  Ru  Ru14  1  0.999853  0.249131  0.166641  1
  Ru  Ru15  1  0.999853  0.750868  0.166641  1
  Ru  Ru16  1  0.499877  0.251492  0.334229  1
  Ru  Ru17  1  0.499877  0.748510  0.334229  1
  Ru  Ru18  1  0.999996  0.250646  0.500851  1
  Ru  Ru19  1  0.999996  0.749354  0.500851  1
  Ru  Ru20  1  0.500126  0.249922  0.666643  1
  Ru  Ru21  1  0.500126  0.750080  0.666643  1
  Ru  Ru22  1  0.000154  0.250712  0.832522  1
  Ru  Ru23  1  0.000154  0.749287  0.832522  1
