# generated using pymatgen
data_Pu7Th(Si3Rh)4
_symmetry_space_group_name_H-M   'P 1'
_cell_length_a   8.23288500
_cell_length_b   8.27589545
_cell_length_c   8.16002900
_cell_angle_alpha   90.00000000
_cell_angle_beta   90.00000000
_cell_angle_gamma   120.17295659
_symmetry_Int_Tables_number   1
_chemical_formula_structural   Pu7Th(Si3Rh)4
_chemical_formula_sum   'Pu7 Th1 Si12 Rh4'
_cell_volume   480.65098637
_cell_formula_units_Z   1
loop_
 _symmetry_equiv_pos_site_id
 _symmetry_equiv_pos_as_xyz
  1  'x, y, z'
loop_
 _atom_site_type_symbol
 _atom_site_label
 _atom_site_symmetry_multiplicity
 _atom_site_fract_x
 _atom_site_fract_y
 _atom_site_fract_z
 _atom_site_occupancy
  Pu  Pu0  1  0.999280  0.999640  0.250000  1
  Pu  Pu1  1  0.000728  0.000364  0.750000  1
  Pu  Pu2  1  0.501566  0.498023  0.250000  1
  Pu  Pu3  1  0.501566  0.003543  0.250000  1
  Pu  Pu4  1  0.993534  0.496767  0.250000  1
  Pu  Pu5  1  0.498482  0.502044  0.750000  1
  Pu  Pu6  1  0.498482  0.996437  0.750000  1
  Th  Th7  1  0.007369  0.503684  0.750000  1
  Si  Si8  1  0.166116  0.838201  0.497554  1
  Si  Si9  1  0.166116  0.327917  0.497554  1
  Si  Si10  1  0.666195  0.833098  0.503518  1
  Si  Si11  1  0.833632  0.162173  0.495318  1
  Si  Si12  1  0.833632  0.671459  0.495318  1
  Si  Si13  1  0.333968  0.166983  0.498067  1
  Si  Si14  1  0.833632  0.162173  0.004682  1
  Si  Si15  1  0.833632  0.671459  0.004682  1
  Si  Si16  1  0.333968  0.166983  0.001933  1
  Si  Si17  1  0.166116  0.838201  0.002446  1
  Si  Si18  1  0.166116  0.327917  0.002446  1
  Si  Si19  1  0.666195  0.833098  0.996482  1
  Rh  Rh20  1  0.328069  0.664035  0.491381  1
  Rh  Rh21  1  0.671771  0.335884  0.513216  1
  Rh  Rh22  1  0.671771  0.335884  0.986784  1
  Rh  Rh23  1  0.328069  0.664035  0.008619  1
