# generated using pymatgen
data_SmLu2Mg3Sn2Au
_symmetry_space_group_name_H-M   'P 1'
_cell_length_a   7.52667546
_cell_length_b   7.52667455
_cell_length_c   4.43201800
_cell_angle_alpha   90.00000000
_cell_angle_beta   90.00000000
_cell_angle_gamma   120.58313947
_symmetry_Int_Tables_number   1
_chemical_formula_structural   SmLu2Mg3Sn2Au
_chemical_formula_sum   'Sm1 Lu2 Mg3 Sn2 Au1'
_cell_volume   216.15058127
_cell_formula_units_Z   1
loop_
 _symmetry_equiv_pos_site_id
 _symmetry_equiv_pos_as_xyz
  1  'x, y, z'
loop_
 _atom_site_type_symbol
 _atom_site_label
 _atom_site_symmetry_multiplicity
 _atom_site_fract_x
 _atom_site_fract_y
 _atom_site_fract_z
 _atom_site_occupancy
  Sm  Sm0  1  0.410602  0.410602  0.000000  1
  Lu  Lu1  1  0.596011  0.002462  0.000000  1
  Lu  Lu2  1  0.002462  0.596011  0.000000  1
  Mg  Mg3  1  0.235511  0.999985  0.500000  1
  Mg  Mg4  1  0.999985  0.235511  0.500000  1
  Mg  Mg5  1  0.761616  0.761616  0.500000  1
  Sn  Sn6  1  0.330299  0.672137  0.500000  1
  Sn  Sn7  1  0.672137  0.330299  0.500000  1
  Au  Au8  1  0.991377  0.991377  0.000000  1
