# generated using pymatgen
data_YbEu2(HoSi2)2
_symmetry_space_group_name_H-M   'P 1'
_cell_length_a   7.46242900
_cell_length_b   7.86195100
_cell_length_c   14.93615900
_cell_angle_alpha   90.00000000
_cell_angle_beta   90.00000000
_cell_angle_gamma   90.00000000
_symmetry_Int_Tables_number   1
_chemical_formula_structural   YbEu2(HoSi2)2
_chemical_formula_sum   'Yb4 Eu8 Ho8 Si16'
_cell_volume   876.29326342
_cell_formula_units_Z   4
loop_
 _symmetry_equiv_pos_site_id
 _symmetry_equiv_pos_as_xyz
  1  'x, y, z'
loop_
 _atom_site_type_symbol
 _atom_site_label
 _atom_site_symmetry_multiplicity
 _atom_site_fract_x
 _atom_site_fract_y
 _atom_site_fract_z
 _atom_site_occupancy
  Yb  Yb0  1  0.655600  0.982789  0.750000  1
  Yb  Yb1  1  0.844400  0.482789  0.250000  1
  Yb  Yb2  1  0.344400  0.017211  0.250000  1
  Yb  Yb3  1  0.155600  0.517211  0.750000  1
  Eu  Eu4  1  0.021098  0.179930  0.403065  1
  Eu  Eu5  1  0.521098  0.320070  0.403065  1
  Eu  Eu6  1  0.478902  0.679930  0.903065  1
  Eu  Eu7  1  0.478902  0.679930  0.596935  1
  Eu  Eu8  1  0.978902  0.820070  0.596935  1
  Eu  Eu9  1  0.978902  0.820070  0.903065  1
  Eu  Eu10  1  0.521098  0.320070  0.096935  1
  Eu  Eu11  1  0.021098  0.179930  0.096935  1
  Ho  Ho12  1  0.323017  0.180039  0.621594  1
  Ho  Ho13  1  0.676983  0.819961  0.378406  1
  Ho  Ho14  1  0.176983  0.680039  0.378406  1
  Ho  Ho15  1  0.823017  0.319961  0.878406  1
  Ho  Ho16  1  0.823017  0.319961  0.621594  1
  Ho  Ho17  1  0.323017  0.180039  0.878406  1
  Ho  Ho18  1  0.176983  0.680039  0.121594  1
  Ho  Ho19  1  0.676983  0.819961  0.121594  1
  Si  Si20  1  0.263487  0.895667  0.750000  1
  Si  Si21  1  0.466369  0.613434  0.250000  1
  Si  Si22  1  0.033631  0.113434  0.750000  1
  Si  Si23  1  0.533631  0.386566  0.750000  1
  Si  Si24  1  0.144947  0.466468  0.536982  1
  Si  Si25  1  0.966369  0.886566  0.250000  1
  Si  Si26  1  0.736513  0.104333  0.250000  1
  Si  Si27  1  0.855053  0.533532  0.036982  1
  Si  Si28  1  0.355053  0.966468  0.036982  1
  Si  Si29  1  0.144947  0.466468  0.963018  1
  Si  Si30  1  0.644947  0.033532  0.536982  1
  Si  Si31  1  0.355053  0.966468  0.463018  1
  Si  Si32  1  0.855053  0.533532  0.463018  1
  Si  Si33  1  0.763487  0.604333  0.750000  1
  Si  Si34  1  0.236513  0.395667  0.250000  1
  Si  Si35  1  0.644947  0.033532  0.963018  1
