# generated using pymatgen
data_Hf18BeRe8Ru
_symmetry_space_group_name_H-M   'P 1'
_cell_length_a   8.58491000
_cell_length_b   8.58490987
_cell_length_c   8.56422500
_cell_angle_alpha   90.00000000
_cell_angle_beta   90.00000000
_cell_angle_gamma   120.00000050
_symmetry_Int_Tables_number   1
_chemical_formula_structural   Hf18BeRe8Ru
_chemical_formula_sum   'Hf18 Be1 Re8 Ru1'
_cell_volume   546.62587401
_cell_formula_units_Z   1
loop_
 _symmetry_equiv_pos_site_id
 _symmetry_equiv_pos_as_xyz
  1  'x, y, z'
loop_
 _atom_site_type_symbol
 _atom_site_label
 _atom_site_symmetry_multiplicity
 _atom_site_fract_x
 _atom_site_fract_y
 _atom_site_fract_z
 _atom_site_occupancy
  Hf  Hf0  1  0.197522  0.802478  0.446378  1
  Hf  Hf1  1  0.197522  0.395043  0.446378  1
  Hf  Hf2  1  0.604957  0.802478  0.446378  1
  Hf  Hf3  1  0.803617  0.196383  0.553991  1
  Hf  Hf4  1  0.803617  0.607234  0.553991  1
  Hf  Hf5  1  0.392766  0.196383  0.553991  1
  Hf  Hf6  1  0.803617  0.196383  0.946009  1
  Hf  Hf7  1  0.803617  0.607234  0.946009  1
  Hf  Hf8  1  0.392766  0.196383  0.946009  1
  Hf  Hf9  1  0.197522  0.802478  0.053622  1
  Hf  Hf10  1  0.197522  0.395043  0.053622  1
  Hf  Hf11  1  0.604957  0.802478  0.053622  1
  Hf  Hf12  1  0.542071  0.457929  0.250000  1
  Hf  Hf13  1  0.542071  0.084142  0.250000  1
  Hf  Hf14  1  0.915858  0.457929  0.250000  1
  Hf  Hf15  1  0.460981  0.539019  0.750000  1
  Hf  Hf16  1  0.460981  0.921961  0.750000  1
  Hf  Hf17  1  0.078039  0.539019  0.750000  1
  Be  Be18  1  0.666667  0.333333  0.750000  1
  Re  Re19  1  0.889006  0.110994  0.250000  1
  Re  Re20  1  0.889006  0.778010  0.250000  1
  Re  Re21  1  0.221990  0.110994  0.250000  1
  Re  Re22  1  0.110702  0.889298  0.750000  1
  Re  Re23  1  0.110702  0.221406  0.750000  1
  Re  Re24  1  0.778594  0.889298  0.750000  1
  Re  Re25  1  0.000000  0.000000  0.499914  1
  Re  Re26  1  0.000000  0.000000  0.000086  1
  Ru  Ru27  1  0.333333  0.666667  0.250000  1
