# generated using pymatgen
data_Ce3Dy(InRh2)2
_symmetry_space_group_name_H-M   'P 1'
_cell_length_a   7.66290420
_cell_length_b   7.66290420
_cell_length_c   3.71918400
_cell_angle_alpha   90.00000000
_cell_angle_beta   90.00000000
_cell_angle_gamma   88.44535774
_symmetry_Int_Tables_number   1
_chemical_formula_structural   Ce3Dy(InRh2)2
_chemical_formula_sum   'Ce3 Dy1 In2 Rh4'
_cell_volume   218.31047088
_cell_formula_units_Z   1
loop_
 _symmetry_equiv_pos_site_id
 _symmetry_equiv_pos_as_xyz
  1  'x, y, z'
loop_
 _atom_site_type_symbol
 _atom_site_label
 _atom_site_symmetry_multiplicity
 _atom_site_fract_x
 _atom_site_fract_y
 _atom_site_fract_z
 _atom_site_occupancy
  Ce  Ce0  1  0.331233  0.831233  0.500000  1
  Ce  Ce1  1  0.167849  0.329150  0.500000  1
  Ce  Ce2  1  0.829150  0.667849  0.500000  1
  Dy  Dy3  1  0.668843  0.168843  0.500000  1
  In  In4  1  0.993920  0.001102  0.000000  1
  In  In5  1  0.501102  0.493920  0.000000  1
  Rh  Rh6  1  0.142120  0.642120  0.000000  1
  Rh  Rh7  1  0.875898  0.375898  0.000000  1
  Rh  Rh8  1  0.633918  0.855967  0.000000  1
  Rh  Rh9  1  0.355967  0.133918  0.000000  1
