# generated using pymatgen
data_Li2GdPaRh2
_symmetry_space_group_name_H-M   'P 1'
_cell_length_a   3.78775000
_cell_length_b   7.25786245
_cell_length_c   8.71167200
_cell_angle_alpha   93.50375758
_cell_angle_beta   90.00000000
_cell_angle_gamma   90.00000000
_symmetry_Int_Tables_number   1
_chemical_formula_structural   Li2GdPaRh2
_chemical_formula_sum   'Li4 Gd2 Pa2 Rh4'
_cell_volume   239.04463972
_cell_formula_units_Z   2
loop_
 _symmetry_equiv_pos_site_id
 _symmetry_equiv_pos_as_xyz
  1  'x, y, z'
loop_
 _atom_site_type_symbol
 _atom_site_label
 _atom_site_symmetry_multiplicity
 _atom_site_fract_x
 _atom_site_fract_y
 _atom_site_fract_z
 _atom_site_occupancy
  Li  Li0  1  0.750000  0.879326  0.947516  1
  Li  Li1  1  0.250000  0.120674  0.052484  1
  Li  Li2  1  0.250000  0.627379  0.443817  1
  Li  Li3  1  0.750000  0.372621  0.556183  1
  Gd  Gd4  1  0.250000  0.554694  0.820004  1
  Gd  Gd5  1  0.750000  0.445306  0.179996  1
  Pa  Pa6  1  0.750000  0.953128  0.310974  1
  Pa  Pa7  1  0.250000  0.046872  0.689026  1
  Rh  Rh8  1  0.750000  0.794239  0.620464  1
  Rh  Rh9  1  0.250000  0.205761  0.379536  1
  Rh  Rh10  1  0.250000  0.755327  0.151591  1
  Rh  Rh11  1  0.750000  0.244673  0.848409  1
