# generated using pymatgen
data_Lu8Ti11Si16Tc
_symmetry_space_group_name_H-M   'P 1'
_cell_length_a   6.96116619
_cell_length_b   6.95328470
_cell_length_c   12.77764988
_cell_angle_alpha   90.11086254
_cell_angle_beta   90.13128808
_cell_angle_gamma   90.02091151
_symmetry_Int_Tables_number   1
_chemical_formula_structural   Lu8Ti11Si16Tc
_chemical_formula_sum   'Lu8 Ti11 Si16 Tc1'
_cell_volume   618.47338501
_cell_formula_units_Z   1
loop_
 _symmetry_equiv_pos_site_id
 _symmetry_equiv_pos_as_xyz
  1  'x, y, z'
loop_
 _atom_site_type_symbol
 _atom_site_label
 _atom_site_symmetry_multiplicity
 _atom_site_fract_x
 _atom_site_fract_y
 _atom_site_fract_z
 _atom_site_occupancy
  Lu  Lu0  1  0.999174  0.658183  0.034655  1
  Lu  Lu1  1  0.000627  0.342059  0.530974  1
  Lu  Lu2  1  0.660468  0.997296  0.967297  1
  Lu  Lu3  1  0.157761  0.500642  0.783309  1
  Lu  Lu4  1  0.842226  0.497045  0.282850  1
  Lu  Lu5  1  0.500448  0.160014  0.218709  1
  Lu  Lu6  1  0.497523  0.839845  0.715736  1
  Lu  Lu7  1  0.340638  0.001091  0.467340  1
  Ti  Ti8  1  0.847273  0.992853  0.375157  1
  Ti  Ti9  1  0.009595  0.153885  0.127921  1
  Ti  Ti10  1  0.995651  0.845736  0.622661  1
  Ti  Ti11  1  0.506609  0.347538  0.625086  1
  Ti  Ti12  1  0.151086  0.006692  0.874176  1
  Ti  Ti13  1  0.668504  0.669668  0.498333  1
  Ti  Ti14  1  0.826840  0.172427  0.750001  1
  Ti  Ti15  1  0.176315  0.824960  0.250908  1
  Ti  Ti16  1  0.329256  0.328776  0.000741  1
  Ti  Ti17  1  0.497031  0.652532  0.123511  1
  Ti  Ti18  1  0.652013  0.493932  0.876022  1
  Si  Si19  1  0.047153  0.707882  0.435050  1
  Si  Si20  1  0.955255  0.292414  0.936360  1
  Si  Si21  1  0.706638  0.046431  0.564315  1
  Si  Si22  1  0.209140  0.455873  0.187328  1
  Si  Si23  1  0.791802  0.546036  0.685148  1
  Si  Si24  1  0.454681  0.206719  0.815078  1
  Si  Si25  1  0.543111  0.790291  0.313413  1
  Si  Si26  1  0.294165  0.953715  0.064336  1
  Si  Si27  1  0.796449  0.868105  0.182497  1
  Si  Si28  1  0.296945  0.631902  0.565297  1
  Si  Si29  1  0.704003  0.365612  0.068446  1
  Si  Si30  1  0.627503  0.299985  0.431918  1
  Si  Si31  1  0.367167  0.704045  0.931969  1
  Si  Si32  1  0.132357  0.207434  0.319603  1
  Si  Si33  1  0.202550  0.132902  0.681394  1
  Si  Si34  1  0.867249  0.795853  0.816955  1
  Tc  Tc35  1  0.344795  0.509628  0.375509  1
