# generated using pymatgen
data_ZrTiBe9W
_symmetry_space_group_name_H-M   'P 1'
_cell_length_a   7.56478490
_cell_length_b   7.56478488
_cell_length_c   7.56478492
_cell_angle_alpha   34.87045338
_cell_angle_beta   34.87045190
_cell_angle_gamma   34.87045396
_symmetry_Int_Tables_number   1
_chemical_formula_structural   ZrTiBe9W
_chemical_formula_sum   'Zr1 Ti1 Be9 W1'
_cell_volume   126.31598524
_cell_formula_units_Z   1
loop_
 _symmetry_equiv_pos_site_id
 _symmetry_equiv_pos_as_xyz
  1  'x, y, z'
loop_
 _atom_site_type_symbol
 _atom_site_label
 _atom_site_symmetry_multiplicity
 _atom_site_fract_x
 _atom_site_fract_y
 _atom_site_fract_z
 _atom_site_occupancy
  Zr  Zr0  1  0.996569  0.996569  0.996569  1
  Ti  Ti1  1  0.143417  0.143417  0.143417  1
  Be  Be2  1  0.412676  0.920889  0.412676  1
  Be  Be3  1  0.412676  0.412676  0.920889  1
  Be  Be4  1  0.920889  0.412676  0.412676  1
  Be  Be5  1  0.588940  0.075572  0.588940  1
  Be  Be6  1  0.588940  0.588940  0.075572  1
  Be  Be7  1  0.075572  0.588940  0.588940  1
  Be  Be8  1  0.667105  0.667105  0.667105  1
  Be  Be9  1  0.336844  0.336844  0.336844  1
  Be  Be10  1  0.499737  0.499737  0.499737  1
  W  W11  1  0.856634  0.856634  0.856634  1
