# generated using pymatgen
data_Pr2Ta3Ni9P7
_symmetry_space_group_name_H-M   'P 1'
_cell_length_a   9.35957200
_cell_length_b   9.35957376
_cell_length_c   3.75331300
_cell_angle_alpha   90.00000000
_cell_angle_beta   90.00000000
_cell_angle_gamma   120.00000791
_symmetry_Int_Tables_number   1
_chemical_formula_structural   Pr2Ta3Ni9P7
_chemical_formula_sum   'Pr2 Ta3 Ni9 P7'
_cell_volume   284.74587470
_cell_formula_units_Z   1
loop_
 _symmetry_equiv_pos_site_id
 _symmetry_equiv_pos_as_xyz
  1  'x, y, z'
loop_
 _atom_site_type_symbol
 _atom_site_label
 _atom_site_symmetry_multiplicity
 _atom_site_fract_x
 _atom_site_fract_y
 _atom_site_fract_z
 _atom_site_occupancy
  Pr  Pr0  1  0.333333  0.666667  0.000000  1
  Pr  Pr1  1  0.666667  0.333333  0.500000  1
  Ta  Ta2  1  0.883896  0.777291  0.500000  1
  Ta  Ta3  1  0.893395  0.116104  0.500000  1
  Ta  Ta4  1  0.222709  0.106605  0.500000  1
  Ni  Ni5  1  0.719965  0.871487  0.000000  1
  Ni  Ni6  1  0.151521  0.280035  0.000000  1
  Ni  Ni7  1  0.128513  0.848479  0.000000  1
  Ni  Ni8  1  0.633400  0.571694  0.000000  1
  Ni  Ni9  1  0.938296  0.366600  0.000000  1
  Ni  Ni10  1  0.428306  0.061704  0.000000  1
  Ni  Ni11  1  0.560799  0.944777  0.500000  1
  Ni  Ni12  1  0.383977  0.439201  0.500000  1
  Ni  Ni13  1  0.055223  0.616023  0.500000  1
  P  P14  1  0.594417  0.707221  0.500000  1
  P  P15  1  0.112804  0.405583  0.500000  1
  P  P16  1  0.292779  0.887196  0.500000  1
  P  P17  1  0.000000  0.000000  0.000000  1
  P  P18  1  0.895536  0.589349  0.000000  1
  P  P19  1  0.693812  0.104464  0.000000  1
  P  P20  1  0.410651  0.306188  0.000000  1
