# generated using pymatgen
data_Mg4ZnB4(IrRh)4
_symmetry_space_group_name_H-M   'P 1'
_cell_length_a   9.60851263
_cell_length_b   9.60851287
_cell_length_c   2.93776200
_cell_angle_alpha   90.00000000
_cell_angle_beta   90.00000000
_cell_angle_gamma   126.57482826
_symmetry_Int_Tables_number   1
_chemical_formula_structural   Mg4ZnB4(IrRh)4
_chemical_formula_sum   'Mg4 Zn1 B4 Ir4 Rh4'
_cell_volume   217.81480839
_cell_formula_units_Z   1
loop_
 _symmetry_equiv_pos_site_id
 _symmetry_equiv_pos_as_xyz
  1  'x, y, z'
loop_
 _atom_site_type_symbol
 _atom_site_label
 _atom_site_symmetry_multiplicity
 _atom_site_fract_x
 _atom_site_fract_y
 _atom_site_fract_z
 _atom_site_occupancy
  Mg  Mg0  1  0.201639  0.798361  0.500000  1
  Mg  Mg1  1  0.798361  0.201639  0.500000  1
  Mg  Mg2  1  0.346777  0.346777  0.500000  1
  Mg  Mg3  1  0.653223  0.653223  0.500000  1
  Zn  Zn4  1  0.000000  0.000000  0.500000  1
  B  B5  1  0.462742  0.152426  0.500000  1
  B  B6  1  0.152426  0.462742  0.500000  1
  B  B7  1  0.537258  0.847574  0.500000  1
  B  B8  1  0.847574  0.537258  0.500000  1
  Ir  Ir9  1  0.631620  0.368380  0.000000  1
  Ir  Ir10  1  0.368380  0.631620  0.000000  1
  Ir  Ir11  1  0.500000  0.000000  0.000000  1
  Ir  Ir12  1  0.000000  0.500000  0.000000  1
  Rh  Rh13  1  0.921235  0.734020  0.000000  1
  Rh  Rh14  1  0.078765  0.265980  0.000000  1
  Rh  Rh15  1  0.265980  0.078765  0.000000  1
  Rh  Rh16  1  0.734020  0.921235  0.000000  1
