# generated using pymatgen
data_Dy7Er4Tm5(InIr)4
_symmetry_space_group_name_H-M   'P 1'
_cell_length_a   9.61124289
_cell_length_b   9.61124281
_cell_length_c   9.62148500
_cell_angle_alpha   59.96473897
_cell_angle_beta   59.96473927
_cell_angle_gamma   60.03382463
_symmetry_Int_Tables_number   1
_chemical_formula_structural   Dy7Er4Tm5(InIr)4
_chemical_formula_sum   'Dy7 Er4 Tm5 In4 Ir4'
_cell_volume   628.29747902
_cell_formula_units_Z   1
loop_
 _symmetry_equiv_pos_site_id
 _symmetry_equiv_pos_as_xyz
  1  'x, y, z'
loop_
 _atom_site_type_symbol
 _atom_site_label
 _atom_site_symmetry_multiplicity
 _atom_site_fract_x
 _atom_site_fract_y
 _atom_site_fract_z
 _atom_site_occupancy
  Dy  Dy0  1  0.059945  0.059945  0.440055  1
  Dy  Dy1  1  0.190872  0.809404  0.809857  1
  Dy  Dy2  1  0.809404  0.190872  0.189866  1
  Dy  Dy3  1  0.809404  0.190872  0.809857  1
  Dy  Dy4  1  0.190872  0.809404  0.189866  1
  Dy  Dy5  1  0.810052  0.810052  0.189948  1
  Dy  Dy6  1  0.190852  0.190852  0.809148  1
  Er  Er7  1  0.598668  0.598668  0.597814  1
  Er  Er8  1  0.598668  0.598668  0.204852  1
  Er  Er9  1  0.598933  0.204097  0.598484  1
  Er  Er10  1  0.204097  0.598933  0.598484  1
  Tm  Tm11  1  0.059341  0.439882  0.440758  1
  Tm  Tm12  1  0.439882  0.059341  0.060020  1
  Tm  Tm13  1  0.439882  0.059341  0.440758  1
  Tm  Tm14  1  0.059341  0.439882  0.060020  1
  Tm  Tm15  1  0.439545  0.439545  0.060455  1
  In  In16  1  0.832682  0.832682  0.833247  1
  In  In17  1  0.832682  0.832682  0.501390  1
  In  In18  1  0.832365  0.502151  0.832742  1
  In  In19  1  0.502151  0.832365  0.832742  1
  Ir  Ir20  1  0.390451  0.390451  0.390879  1
  Ir  Ir21  1  0.390451  0.390451  0.828219  1
  Ir  Ir22  1  0.392633  0.826829  0.390270  1
  Ir  Ir23  1  0.826829  0.392633  0.390270  1
