# generated using pymatgen
data_Y5Th3(CdRu)2
_symmetry_space_group_name_H-M   'P 1'
_cell_length_a   9.70353087
_cell_length_b   9.80274178
_cell_length_c   9.80274218
_cell_angle_alpha   59.33153577
_cell_angle_beta   60.33423949
_cell_angle_gamma   60.33423171
_symmetry_Int_Tables_number   1
_chemical_formula_structural   Y5Th3(CdRu)2
_chemical_formula_sum   'Y10 Th6 Cd4 Ru4'
_cell_volume   659.20708992
_cell_formula_units_Z   2
loop_
 _symmetry_equiv_pos_site_id
 _symmetry_equiv_pos_as_xyz
  1  'x, y, z'
loop_
 _atom_site_type_symbol
 _atom_site_label
 _atom_site_symmetry_multiplicity
 _atom_site_fract_x
 _atom_site_fract_y
 _atom_site_fract_z
 _atom_site_occupancy
  Y  Y0  1  0.191120  0.808880  0.191120  1
  Y  Y1  1  0.808880  0.191120  0.808880  1
  Y  Y2  1  0.191120  0.191120  0.808880  1
  Y  Y3  1  0.808880  0.808880  0.191120  1
  Y  Y4  1  0.934244  0.565756  0.565756  1
  Y  Y5  1  0.565756  0.934244  0.934244  1
  Y  Y6  1  0.562232  0.937768  0.562232  1
  Y  Y7  1  0.937768  0.562232  0.937768  1
  Y  Y8  1  0.562232  0.562232  0.937768  1
  Y  Y9  1  0.937768  0.937768  0.562232  1
  Th  Th10  1  0.343151  0.349911  0.349911  1
  Th  Th11  1  0.349911  0.343151  0.957027  1
  Th  Th12  1  0.349911  0.957027  0.343151  1
  Th  Th13  1  0.957027  0.349911  0.349911  1
  Th  Th14  1  0.814899  0.185101  0.185101  1
  Th  Th15  1  0.185101  0.814899  0.814899  1
  Cd  Cd16  1  0.583880  0.580620  0.580620  1
  Cd  Cd17  1  0.580620  0.583880  0.254880  1
  Cd  Cd18  1  0.580620  0.254880  0.583880  1
  Cd  Cd19  1  0.254880  0.580620  0.580620  1
  Ru  Ru20  1  0.127696  0.149474  0.149474  1
  Ru  Ru21  1  0.149474  0.127696  0.573355  1
  Ru  Ru22  1  0.149474  0.573355  0.127696  1
  Ru  Ru23  1  0.573355  0.149474  0.149474  1
