# generated using pymatgen
data_Ho3ErCd2Cu3Ni
_symmetry_space_group_name_H-M   'P 1'
_cell_length_a   7.47201301
_cell_length_b   7.47207174
_cell_length_c   3.66702900
_cell_angle_alpha   90.00000000
_cell_angle_beta   90.00000000
_cell_angle_gamma   90.81480545
_symmetry_Int_Tables_number   1
_chemical_formula_structural   Ho3ErCd2Cu3Ni
_chemical_formula_sum   'Ho3 Er1 Cd2 Cu3 Ni1'
_cell_volume   204.71472388
_cell_formula_units_Z   1
loop_
 _symmetry_equiv_pos_site_id
 _symmetry_equiv_pos_as_xyz
  1  'x, y, z'
loop_
 _atom_site_type_symbol
 _atom_site_label
 _atom_site_symmetry_multiplicity
 _atom_site_fract_x
 _atom_site_fract_y
 _atom_site_fract_z
 _atom_site_occupancy
  Ho  Ho0  1  0.670784  0.170707  0.500000  1
  Ho  Ho1  1  0.317825  0.817747  0.500000  1
  Ho  Ho2  1  0.176184  0.339467  0.500000  1
  Er  Er3  1  0.839541  0.676225  0.500000  1
  Cd  Cd4  1  0.000383  0.003114  0.000000  1
  Cd  Cd5  1  0.503290  0.500569  0.000000  1
  Cu  Cu6  1  0.878910  0.379203  0.000000  1
  Cu  Cu7  1  0.617695  0.876424  0.000000  1
  Cu  Cu8  1  0.376620  0.117480  0.000000  1
  Ni  Ni9  1  0.118766  0.619064  0.000000  1
