# generated using pymatgen
data_Pa(NbCl3)6
_symmetry_space_group_name_H-M   'P 1'
_cell_length_a   10.29297833
_cell_length_b   10.29297842
_cell_length_c   10.29297895
_cell_angle_alpha   55.87953794
_cell_angle_beta   55.87953965
_cell_angle_gamma   55.87953939
_symmetry_Int_Tables_number   1
_chemical_formula_structural   Pa(NbCl3)6
_chemical_formula_sum   'Pa1 Nb6 Cl18'
_cell_volume   697.44773808
_cell_formula_units_Z   1
loop_
 _symmetry_equiv_pos_site_id
 _symmetry_equiv_pos_as_xyz
  1  'x, y, z'
loop_
 _atom_site_type_symbol
 _atom_site_label
 _atom_site_symmetry_multiplicity
 _atom_site_fract_x
 _atom_site_fract_y
 _atom_site_fract_z
 _atom_site_occupancy
  Pa  Pa0  1  0.000000  0.000000  0.000000  1
  Nb  Nb1  1  0.411053  0.305171  0.646218  1
  Nb  Nb2  1  0.353782  0.588947  0.694829  1
  Nb  Nb3  1  0.694829  0.353782  0.588947  1
  Nb  Nb4  1  0.305171  0.646218  0.411053  1
  Nb  Nb5  1  0.646218  0.411053  0.305171  1
  Nb  Nb6  1  0.588947  0.694829  0.353782  1
  Cl  Cl7  1  0.567884  0.164289  0.442323  1
  Cl  Cl8  1  0.225761  0.371357  0.905515  1
  Cl  Cl9  1  0.905515  0.225761  0.371357  1
  Cl  Cl10  1  0.371357  0.905515  0.225761  1
  Cl  Cl11  1  0.774239  0.628643  0.094485  1
  Cl  Cl12  1  0.094485  0.774239  0.628643  1
  Cl  Cl13  1  0.705596  0.959068  0.157894  1
  Cl  Cl14  1  0.959068  0.157894  0.705596  1
  Cl  Cl15  1  0.157894  0.705596  0.959068  1
  Cl  Cl16  1  0.294404  0.040932  0.842106  1
  Cl  Cl17  1  0.040932  0.842106  0.294404  1
  Cl  Cl18  1  0.842106  0.294404  0.040932  1
  Cl  Cl19  1  0.557677  0.432116  0.835711  1
  Cl  Cl20  1  0.164289  0.442323  0.567884  1
  Cl  Cl21  1  0.442323  0.567884  0.164289  1
  Cl  Cl22  1  0.432116  0.835711  0.557677  1
  Cl  Cl23  1  0.835711  0.557677  0.432116  1
  Cl  Cl24  1  0.628643  0.094485  0.774239  1
