# generated using pymatgen
data_Li2YMgPb2
_symmetry_space_group_name_H-M   'P 1'
_cell_length_a   4.80657000
_cell_length_b   4.80656965
_cell_length_c   6.87787900
_cell_angle_alpha   89.99997829
_cell_angle_beta   89.99998104
_cell_angle_gamma   60.00016886
_symmetry_Int_Tables_number   1
_chemical_formula_structural   Li2YMgPb2
_chemical_formula_sum   'Li2 Y1 Mg1 Pb2'
_cell_volume   137.61203377
_cell_formula_units_Z   1
loop_
 _symmetry_equiv_pos_site_id
 _symmetry_equiv_pos_as_xyz
  1  'x, y, z'
loop_
 _atom_site_type_symbol
 _atom_site_label
 _atom_site_symmetry_multiplicity
 _atom_site_fract_x
 _atom_site_fract_y
 _atom_site_fract_z
 _atom_site_occupancy
  Li  Li0  1  0.333328  0.333328  0.195878  1
  Li  Li1  1  0.666671  0.666671  0.804121  1
  Y  Y2  1  0.000000  0.000000  0.499999  1
  Mg  Mg3  1  0.000000  0.000000  0.000000  1
  Pb  Pb4  1  0.666666  0.666666  0.264808  1
  Pb  Pb5  1  0.333333  0.333333  0.735191  1
