# generated using pymatgen
data_Nd4Gd6C4Cl15
_symmetry_space_group_name_H-M   'P 1'
_cell_length_a   8.66539303
_cell_length_b   9.74007373
_cell_length_c   10.50933900
_cell_angle_alpha   70.17030175
_cell_angle_beta   66.73074571
_cell_angle_gamma   70.51707128
_symmetry_Int_Tables_number   1
_chemical_formula_structural   Nd4Gd6C4Cl15
_chemical_formula_sum   'Nd4 Gd6 C4 Cl15'
_cell_volume   745.82949207
_cell_formula_units_Z   1
loop_
 _symmetry_equiv_pos_site_id
 _symmetry_equiv_pos_as_xyz
  1  'x, y, z'
loop_
 _atom_site_type_symbol
 _atom_site_label
 _atom_site_symmetry_multiplicity
 _atom_site_fract_x
 _atom_site_fract_y
 _atom_site_fract_z
 _atom_site_occupancy
  Nd  Nd0  1  0.346106  0.753488  0.825479  1
  Nd  Nd1  1  0.653894  0.246512  0.174521  1
  Nd  Nd2  1  0.178019  0.428293  0.046500  1
  Nd  Nd3  1  0.821981  0.571707  0.953500  1
  Gd  Gd4  1  0.083362  0.181245  0.879859  1
  Gd  Gd5  1  0.916638  0.818755  0.120141  1
  Gd  Gd6  1  0.247894  0.543830  0.633897  1
  Gd  Gd7  1  0.752106  0.456170  0.366103  1
  Gd  Gd8  1  0.032444  0.097331  0.270058  1
  Gd  Gd9  1  0.967556  0.902669  0.729942  1
  C  C10  1  0.878425  0.354941  0.179717  1
  C  C11  1  0.121575  0.645059  0.820283  1
  C  C12  1  0.958029  0.288022  0.062098  1
  C  C13  1  0.041971  0.711978  0.937902  1
  Cl  Cl14  1  0.500000  0.500000  0.000000  1
  Cl  Cl15  1  0.127423  0.816634  0.469963  1
  Cl  Cl16  1  0.872577  0.183366  0.530037  1
  Cl  Cl17  1  0.245747  0.029460  0.648307  1
  Cl  Cl18  1  0.754253  0.970540  0.351693  1
  Cl  Cl19  1  0.334197  0.159363  0.224925  1
  Cl  Cl20  1  0.665803  0.840637  0.775075  1
  Cl  Cl21  1  0.453873  0.375559  0.415062  1
  Cl  Cl22  1  0.546127  0.624441  0.584938  1
  Cl  Cl23  1  0.958155  0.438545  0.700300  1
  Cl  Cl24  1  0.041845  0.561455  0.299700  1
  Cl  Cl25  1  0.219115  0.913760  0.059567  1
  Cl  Cl26  1  0.780885  0.086240  0.940433  1
  Cl  Cl27  1  0.378661  0.275988  0.807937  1
  Cl  Cl28  1  0.621339  0.724012  0.192063  1
