# generated using pymatgen
data_CsFeAsO4
_symmetry_space_group_name_H-M   'P 1'
_cell_length_a   5.67983402
_cell_length_b   9.79349501
_cell_length_c   9.94241102
_cell_angle_alpha   89.99807753
_cell_angle_beta   90.00746398
_cell_angle_gamma   90.00348602
_symmetry_Int_Tables_number   1
_chemical_formula_structural   CsFeAsO4
_chemical_formula_sum   'Cs4 Fe4 As4 O16'
_cell_volume   553.05084319
_cell_formula_units_Z   4
loop_
 _symmetry_equiv_pos_site_id
 _symmetry_equiv_pos_as_xyz
  1  'x, y, z'
loop_
 _atom_site_type_symbol
 _atom_site_label
 _atom_site_symmetry_multiplicity
 _atom_site_fract_x
 _atom_site_fract_y
 _atom_site_fract_z
 _atom_site_occupancy
  Cs  Cs0  1  0.996141  0.801212  0.008188  1
  Cs  Cs1  1  0.496153  0.301213  0.491816  1
  Cs  Cs2  1  0.996109  0.698784  0.508178  1
  Cs  Cs3  1  0.496158  0.198772  0.991816  1
  Fe  Fe4  1  0.008750  0.411679  0.169754  1
  Fe  Fe5  1  0.508675  0.911697  0.330257  1
  Fe  Fe6  1  0.008583  0.088269  0.669754  1
  Fe  Fe7  1  0.508565  0.588264  0.830214  1
  As  As8  1  0.500268  0.590211  0.192914  1
  As  As9  1  0.000185  0.090209  0.307057  1
  As  As10  1  0.500264  0.909801  0.692938  1
  As  As11  1  0.000218  0.409795  0.807070  1
  O  O12  1  0.480850  0.635270  0.026359  1
  O  O13  1  0.671081  0.447174  0.219570  1
  O  O14  1  0.127411  0.224417  0.222788  1
  O  O15  1  0.221716  0.553480  0.254793  1
  O  O16  1  0.721522  0.053597  0.245243  1
  O  O17  1  0.627537  0.724424  0.277173  1
  O  O18  1  0.170896  0.947103  0.280505  1
  O  O19  1  0.980752  0.135266  0.473596  1
  O  O20  1  0.480852  0.864766  0.526384  1
  O  O21  1  0.671077  0.052872  0.719560  1
  O  O22  1  0.127464  0.275614  0.722797  1
  O  O23  1  0.221704  0.946455  0.754796  1
  O  O24  1  0.721633  0.446471  0.745200  1
  O  O25  1  0.627500  0.775595  0.777192  1
  O  O26  1  0.171025  0.552865  0.780485  1
  O  O27  1  0.980766  0.364722  0.973608  1
