# generated using pymatgen
data_Nb3Al2FeN
_symmetry_space_group_name_H-M   'P 1'
_cell_length_a   8.19682639
_cell_length_b   8.19682571
_cell_length_c   8.19682700
_cell_angle_alpha   59.99999885
_cell_angle_beta   60.00000159
_cell_angle_gamma   59.99999832
_symmetry_Int_Tables_number   1
_chemical_formula_structural   Nb3Al2FeN
_chemical_formula_sum   'Nb12 Al8 Fe4 N4'
_cell_volume   389.42354419
_cell_formula_units_Z   4
loop_
 _symmetry_equiv_pos_site_id
 _symmetry_equiv_pos_as_xyz
  1  'x, y, z'
loop_
 _atom_site_type_symbol
 _atom_site_label
 _atom_site_symmetry_multiplicity
 _atom_site_fract_x
 _atom_site_fract_y
 _atom_site_fract_z
 _atom_site_occupancy
  Nb  Nb0  1  0.806421  0.806421  0.193579  1
  Nb  Nb1  1  0.193579  0.193579  0.806421  1
  Nb  Nb2  1  0.806421  0.193579  0.806421  1
  Nb  Nb3  1  0.193579  0.806421  0.193579  1
  Nb  Nb4  1  0.193579  0.806421  0.806421  1
  Nb  Nb5  1  0.806421  0.193579  0.193579  1
  Nb  Nb6  1  0.443579  0.443579  0.056421  1
  Nb  Nb7  1  0.056421  0.056421  0.443579  1
  Nb  Nb8  1  0.443579  0.056421  0.443579  1
  Nb  Nb9  1  0.056421  0.443579  0.056421  1
  Nb  Nb10  1  0.056421  0.443579  0.443579  1
  Nb  Nb11  1  0.443579  0.056421  0.056421  1
  Al  Al12  1  0.746173  0.417943  0.417943  1
  Al  Al13  1  0.417943  0.746173  0.417943  1
  Al  Al14  1  0.417943  0.417943  0.746173  1
  Al  Al15  1  0.417943  0.417943  0.417943  1
  Al  Al16  1  0.503827  0.832057  0.832057  1
  Al  Al17  1  0.832057  0.503827  0.832057  1
  Al  Al18  1  0.832057  0.832057  0.503827  1
  Al  Al19  1  0.832057  0.832057  0.832057  1
  Fe  Fe20  1  0.125000  0.625000  0.625000  1
  Fe  Fe21  1  0.625000  0.125000  0.625000  1
  Fe  Fe22  1  0.625000  0.625000  0.125000  1
  Fe  Fe23  1  0.625000  0.625000  0.625000  1
  N  N24  1  0.625000  0.125000  0.125000  1
  N  N25  1  0.125000  0.625000  0.125000  1
  N  N26  1  0.125000  0.125000  0.625000  1
  N  N27  1  0.125000  0.125000  0.125000  1
