# generated using pymatgen
data_Y5Ho15(Bi2Rh)4
_symmetry_space_group_name_H-M   'P 1'
_cell_length_a   7.98975920
_cell_length_b   8.97331500
_cell_length_c   12.43769191
_cell_angle_alpha   90.00000000
_cell_angle_beta   90.06322713
_cell_angle_gamma   90.00000000
_symmetry_Int_Tables_number   1
_chemical_formula_structural   Y5Ho15(Bi2Rh)4
_chemical_formula_sum   'Y5 Ho15 Bi8 Rh4'
_cell_volume   891.71512840
_cell_formula_units_Z   1
loop_
 _symmetry_equiv_pos_site_id
 _symmetry_equiv_pos_as_xyz
  1  'x, y, z'
loop_
 _atom_site_type_symbol
 _atom_site_label
 _atom_site_symmetry_multiplicity
 _atom_site_fract_x
 _atom_site_fract_y
 _atom_site_fract_z
 _atom_site_occupancy
  Y  Y0  1  0.838706  0.750000  0.791988  1
  Y  Y1  1  0.161943  0.250000  0.208367  1
  Y  Y2  1  0.338495  0.250000  0.708214  1
  Y  Y3  1  0.661782  0.750000  0.291348  1
  Y  Y4  1  0.373538  0.750000  0.693556  1
  Ho  Ho5  1  0.624784  0.250000  0.307891  1
  Ho  Ho6  1  0.875264  0.250000  0.808005  1
  Ho  Ho7  1  0.124654  0.750000  0.192033  1
  Ho  Ho8  1  0.951002  0.750000  0.501063  1
  Ho  Ho9  1  0.048492  0.250000  0.498600  1
  Ho  Ho10  1  0.451671  0.250000  0.999013  1
  Ho  Ho11  1  0.548482  0.750000  0.001053  1
  Ho  Ho12  1  0.676989  0.043298  0.565563  1
  Ho  Ho13  1  0.324191  0.957601  0.433896  1
  Ho  Ho14  1  0.176154  0.957686  0.934604  1
  Ho  Ho15  1  0.324191  0.542399  0.433896  1
  Ho  Ho16  1  0.823262  0.042982  0.065909  1
  Ho  Ho17  1  0.676989  0.456702  0.565563  1
  Ho  Ho18  1  0.823262  0.457018  0.065909  1
  Ho  Ho19  1  0.176154  0.542314  0.934604  1
  Bi  Bi20  1  0.568005  0.491157  0.827233  1
  Bi  Bi21  1  0.432286  0.508555  0.172769  1
  Bi  Bi22  1  0.066746  0.508054  0.672904  1
  Bi  Bi23  1  0.432286  0.991445  0.172769  1
  Bi  Bi24  1  0.932614  0.491507  0.327016  1
  Bi  Bi25  1  0.568005  0.008843  0.827233  1
  Bi  Bi26  1  0.932614  0.008493  0.327016  1
  Bi  Bi27  1  0.066746  0.991946  0.672904  1
  Rh  Rh28  1  0.573868  0.750000  0.509980  1
  Rh  Rh29  1  0.426898  0.250000  0.488803  1
  Rh  Rh30  1  0.072905  0.250000  0.989176  1
  Rh  Rh31  1  0.927022  0.750000  0.011120  1
