# generated using pymatgen
data_TbLu5(AuO7)2
_symmetry_space_group_name_H-M   'P 1'
_cell_length_a   6.38272636
_cell_length_b   6.38272764
_cell_length_c   7.31501912
_cell_angle_alpha   90.05174382
_cell_angle_beta   89.94825861
_cell_angle_gamma   108.59582344
_symmetry_Int_Tables_number   1
_chemical_formula_structural   TbLu5(AuO7)2
_chemical_formula_sum   'Tb1 Lu5 Au2 O14'
_cell_volume   282.44937505
_cell_formula_units_Z   1
loop_
 _symmetry_equiv_pos_site_id
 _symmetry_equiv_pos_as_xyz
  1  'x, y, z'
loop_
 _atom_site_type_symbol
 _atom_site_label
 _atom_site_symmetry_multiplicity
 _atom_site_fract_x
 _atom_site_fract_y
 _atom_site_fract_z
 _atom_site_occupancy
  Tb  Tb0  1  0.500000  0.500000  0.000000  1
  Lu  Lu1  1  0.500000  0.500000  0.500000  1
  Lu  Lu2  1  0.528489  0.998341  0.747943  1
  Lu  Lu3  1  0.998341  0.528489  0.252057  1
  Lu  Lu4  1  0.471511  0.001659  0.252057  1
  Lu  Lu5  1  0.001659  0.471511  0.747943  1
  Au  Au6  1  0.000000  0.000000  0.500000  1
  Au  Au7  1  0.000000  0.000000  0.000000  1
  O  O8  1  0.665302  0.915561  0.475214  1
  O  O9  1  0.915561  0.665302  0.524786  1
  O  O10  1  0.665026  0.919734  0.024493  1
  O  O11  1  0.919734  0.665026  0.975507  1
  O  O12  1  0.334698  0.084439  0.524786  1
  O  O13  1  0.084439  0.334698  0.475214  1
  O  O14  1  0.334974  0.080266  0.975507  1
  O  O15  1  0.080266  0.334974  0.024493  1
  O  O16  1  0.916105  0.083895  0.749899  1
  O  O17  1  0.083895  0.916105  0.250101  1
  O  O18  1  0.365036  0.634964  0.743695  1
  O  O19  1  0.634964  0.365036  0.256305  1
  O  O20  1  0.641310  0.358690  0.744015  1
  O  O21  1  0.358690  0.641310  0.255985  1
