# generated using pymatgen
data_TbNd2Er3Ta2O14
_symmetry_space_group_name_H-M   'P 1'
_cell_length_a   6.48838410
_cell_length_b   6.48191643
_cell_length_c   7.58619800
_cell_angle_alpha   90.00000000
_cell_angle_beta   90.00000000
_cell_angle_gamma   109.26221362
_symmetry_Int_Tables_number   1
_chemical_formula_structural   TbNd2Er3Ta2O14
_chemical_formula_sum   'Tb1 Nd2 Er3 Ta2 O14'
_cell_volume   301.19291992
_cell_formula_units_Z   1
loop_
 _symmetry_equiv_pos_site_id
 _symmetry_equiv_pos_as_xyz
  1  'x, y, z'
loop_
 _atom_site_type_symbol
 _atom_site_label
 _atom_site_symmetry_multiplicity
 _atom_site_fract_x
 _atom_site_fract_y
 _atom_site_fract_z
 _atom_site_occupancy
  Tb  Tb0  1  0.465949  0.999631  0.250000  1
  Nd  Nd1  1  0.503054  0.503281  0.500760  1
  Nd  Nd2  1  0.503054  0.503281  0.999240  1
  Er  Er3  1  0.001562  0.532285  0.250000  1
  Er  Er4  1  0.999012  0.466668  0.750000  1
  Er  Er5  1  0.532892  0.001422  0.750000  1
  Ta  Ta6  1  0.000599  0.000268  0.500867  1
  Ta  Ta7  1  0.000599  0.000268  0.999133  1
  O  O8  1  0.935963  0.067716  0.750000  1
  O  O9  1  0.063480  0.934362  0.250000  1
  O  O10  1  0.355535  0.640505  0.250000  1
  O  O11  1  0.644913  0.355795  0.750000  1
  O  O12  1  0.361893  0.637208  0.750000  1
  O  O13  1  0.639777  0.367076  0.250000  1
  O  O14  1  0.319773  0.069469  0.964721  1
  O  O15  1  0.677319  0.927120  0.471102  1
  O  O16  1  0.319773  0.069469  0.535279  1
  O  O17  1  0.677319  0.927120  0.028898  1
  O  O18  1  0.065758  0.319331  0.465828  1
  O  O19  1  0.933010  0.679197  0.966347  1
  O  O20  1  0.933010  0.679197  0.533653  1
  O  O21  1  0.065758  0.319331  0.034172  1
