# generated using pymatgen
data_Sc2B2RuRh4Pb
_symmetry_space_group_name_H-M   'P 1'
_cell_length_a   9.56438500
_cell_length_b   9.56438500
_cell_length_c   3.16426200
_cell_angle_alpha   90.00000000
_cell_angle_beta   90.00000000
_cell_angle_gamma   90.00000000
_symmetry_Int_Tables_number   1
_chemical_formula_structural   Sc2B2RuRh4Pb
_chemical_formula_sum   'Sc4 B4 Ru2 Rh8 Pb2'
_cell_volume   289.45865189
_cell_formula_units_Z   2
loop_
 _symmetry_equiv_pos_site_id
 _symmetry_equiv_pos_as_xyz
  1  'x, y, z'
loop_
 _atom_site_type_symbol
 _atom_site_label
 _atom_site_symmetry_multiplicity
 _atom_site_fract_x
 _atom_site_fract_y
 _atom_site_fract_z
 _atom_site_occupancy
  Sc  Sc0  1  0.672081  0.172081  0.000000  1
  Sc  Sc1  1  0.327919  0.827919  0.000000  1
  Sc  Sc2  1  0.172081  0.327919  0.000000  1
  Sc  Sc3  1  0.827919  0.672081  0.000000  1
  B  B4  1  0.120708  0.620708  0.000000  1
  B  B5  1  0.879292  0.379292  0.000000  1
  B  B6  1  0.620708  0.879292  0.000000  1
  B  B7  1  0.379292  0.120708  0.000000  1
  Ru  Ru8  1  0.500000  0.000000  0.500000  1
  Ru  Ru9  1  0.000000  0.500000  0.500000  1
  Rh  Rh10  1  0.574177  0.725358  0.500000  1
  Rh  Rh11  1  0.425823  0.274642  0.500000  1
  Rh  Rh12  1  0.074177  0.774642  0.500000  1
  Rh  Rh13  1  0.925823  0.225358  0.500000  1
  Rh  Rh14  1  0.274642  0.574177  0.500000  1
  Rh  Rh15  1  0.725358  0.425823  0.500000  1
  Rh  Rh16  1  0.225358  0.074177  0.500000  1
  Rh  Rh17  1  0.774642  0.925823  0.500000  1
  Pb  Pb18  1  0.500000  0.500000  0.000000  1
  Pb  Pb19  1  0.000000  0.000000  0.000000  1
