# generated using pymatgen
data_Tc(S2Cl3)2
_symmetry_space_group_name_H-M   'P 1'
_cell_length_a   7.11117146
_cell_length_b   7.16323460
_cell_length_c   7.80627206
_cell_angle_alpha   65.05638568
_cell_angle_beta   62.95841638
_cell_angle_gamma   60.80075060
_symmetry_Int_Tables_number   1
_chemical_formula_structural   Tc(S2Cl3)2
_chemical_formula_sum   'Tc1 S4 Cl6'
_cell_volume   298.77006977
_cell_formula_units_Z   1
loop_
 _symmetry_equiv_pos_site_id
 _symmetry_equiv_pos_as_xyz
  1  'x, y, z'
loop_
 _atom_site_type_symbol
 _atom_site_label
 _atom_site_symmetry_multiplicity
 _atom_site_fract_x
 _atom_site_fract_y
 _atom_site_fract_z
 _atom_site_occupancy
  Tc  Tc0  1  0.000000  0.000000  0.000000  1
  S  S1  1  0.558585  0.668250  0.322317  1
  S  S2  1  0.268833  0.603098  0.497982  1
  S  S3  1  0.731167  0.396902  0.502018  1
  S  S4  1  0.441417  0.331749  0.677684  1
  Cl  Cl5  1  0.038004  0.624816  0.174451  1
  Cl  Cl6  1  0.151596  0.017532  0.208176  1
  Cl  Cl7  1  0.633787  0.126403  0.218644  1
  Cl  Cl8  1  0.366212  0.873597  0.781357  1
  Cl  Cl9  1  0.848404  0.982467  0.791825  1
  Cl  Cl10  1  0.961997  0.375185  0.825548  1
