# generated using pymatgen
data_Tb3Sm(TcB2)6
_symmetry_space_group_name_H-M   'P 1'
_cell_length_a   6.23042357
_cell_length_b   6.21914101
_cell_length_c   7.53423313
_cell_angle_alpha   89.16067573
_cell_angle_beta   89.51769283
_cell_angle_gamma   113.86505929
_symmetry_Int_Tables_number   1
_chemical_formula_structural   Tb3Sm(TcB2)6
_chemical_formula_sum   'Tb3 Sm1 Tc6 B12'
_cell_volume   266.91384583
_cell_formula_units_Z   1
loop_
 _symmetry_equiv_pos_site_id
 _symmetry_equiv_pos_as_xyz
  1  'x, y, z'
loop_
 _atom_site_type_symbol
 _atom_site_label
 _atom_site_symmetry_multiplicity
 _atom_site_fract_x
 _atom_site_fract_y
 _atom_site_fract_z
 _atom_site_occupancy
  Tb  Tb0  1  0.442049  0.099929  0.176905  1
  Tb  Tb1  1  0.900431  0.559743  0.322241  1
  Tb  Tb2  1  0.558085  0.899741  0.823012  1
  Sm  Sm3  1  0.095670  0.439459  0.675343  1
  Tc  Tc4  1  0.804594  0.989742  0.410544  1
  Tc  Tc5  1  0.010324  0.195035  0.089655  1
  Tc  Tc6  1  0.196878  0.009538  0.588227  1
  Tc  Tc7  1  0.989318  0.805645  0.911029  1
  Tc  Tc8  1  0.412526  0.588170  0.249847  1
  Tc  Tc9  1  0.586127  0.411910  0.750971  1
  B  B10  1  0.152711  0.243627  0.368214  1
  B  B11  1  0.753147  0.848593  0.129425  1
  B  B12  1  0.848265  0.755982  0.629965  1
  B  B13  1  0.247588  0.150776  0.871352  1
  B  B14  1  0.158250  0.585090  0.019788  1
  B  B15  1  0.416524  0.842510  0.480803  1
  B  B16  1  0.840982  0.416126  0.984025  1
  B  B17  1  0.585735  0.158702  0.517976  1
  B  B18  1  0.350211  0.442198  0.966761  1
  B  B19  1  0.558084  0.649638  0.533847  1
  B  B20  1  0.649152  0.557552  0.034759  1
  B  B21  1  0.443348  0.350292  0.465309  1
