# generated using pymatgen
data_Tb4NbMoOs6
_symmetry_space_group_name_H-M   'P 1'
_cell_length_a   5.27477833
_cell_length_b   5.27477912
_cell_length_c   9.07213900
_cell_angle_alpha   90.00000000
_cell_angle_beta   90.00000000
_cell_angle_gamma   115.90361825
_symmetry_Int_Tables_number   1
_chemical_formula_structural   Tb4NbMoOs6
_chemical_formula_sum   'Tb4 Nb1 Mo1 Os6'
_cell_volume   227.05649668
_cell_formula_units_Z   1
loop_
 _symmetry_equiv_pos_site_id
 _symmetry_equiv_pos_as_xyz
  1  'x, y, z'
loop_
 _atom_site_type_symbol
 _atom_site_label
 _atom_site_symmetry_multiplicity
 _atom_site_fract_x
 _atom_site_fract_y
 _atom_site_fract_z
 _atom_site_occupancy
  Tb  Tb0  1  0.330851  0.669149  0.433376  1
  Tb  Tb1  1  0.670779  0.329221  0.562526  1
  Tb  Tb2  1  0.670779  0.329221  0.937474  1
  Tb  Tb3  1  0.330851  0.669149  0.066624  1
  Nb  Nb4  1  0.159504  0.840496  0.750000  1
  Mo  Mo5  1  0.837678  0.162322  0.250000  1
  Os  Os6  1  0.997178  0.002822  0.496155  1
  Os  Os7  1  0.997178  0.002822  0.003845  1
  Os  Os8  1  0.826030  0.648490  0.250000  1
  Os  Os9  1  0.351510  0.173970  0.250000  1
  Os  Os10  1  0.177165  0.349504  0.750000  1
  Os  Os11  1  0.650496  0.822835  0.750000  1
