# generated using pymatgen
data_LaTh7(Si4Mo3)4
_symmetry_space_group_name_H-M   'P 1'
_cell_length_a   7.03327549
_cell_length_b   7.10389350
_cell_length_c   13.14598759
_cell_angle_alpha   90.09655711
_cell_angle_beta   89.99187145
_cell_angle_gamma   89.89506045
_symmetry_Int_Tables_number   1
_chemical_formula_structural   LaTh7(Si4Mo3)4
_chemical_formula_sum   'La1 Th7 Si16 Mo12'
_cell_volume   656.81935069
_cell_formula_units_Z   1
loop_
 _symmetry_equiv_pos_site_id
 _symmetry_equiv_pos_as_xyz
  1  'x, y, z'
loop_
 _atom_site_type_symbol
 _atom_site_label
 _atom_site_symmetry_multiplicity
 _atom_site_fract_x
 _atom_site_fract_y
 _atom_site_fract_z
 _atom_site_occupancy
  La  La0  1  0.994523  0.163482  0.092992  1
  Th  Th1  1  0.491417  0.338523  0.095802  1
  Th  Th2  1  0.992059  0.162156  0.404908  1
  Th  Th3  1  0.508590  0.664615  0.595613  1
  Th  Th4  1  0.008293  0.836693  0.904933  1
  Th  Th5  1  0.509304  0.662342  0.904654  1
  Th  Th6  1  0.009593  0.836930  0.595179  1
  Th  Th7  1  0.490475  0.334902  0.404435  1
  Si  Si8  1  0.656085  0.049480  0.548831  1
  Si  Si9  1  0.154119  0.450835  0.949850  1
  Si  Si10  1  0.346141  0.950714  0.048685  1
  Si  Si11  1  0.842380  0.547320  0.452263  1
  Si  Si12  1  0.347828  0.948283  0.450477  1
  Si  Si13  1  0.845769  0.548976  0.049225  1
  Si  Si14  1  0.653585  0.049195  0.951217  1
  Si  Si15  1  0.155924  0.450448  0.548677  1
  Si  Si16  1  0.539056  0.350982  0.748730  1
  Si  Si17  1  0.038818  0.148817  0.751624  1
  Si  Si18  1  0.459762  0.649896  0.253995  1
  Si  Si19  1  0.961685  0.852196  0.247852  1
  Si  Si20  1  0.816181  0.615461  0.749579  1
  Si  Si21  1  0.314999  0.885615  0.750594  1
  Si  Si22  1  0.180800  0.386894  0.249918  1
  Si  Si23  1  0.685213  0.115084  0.248406  1
  Mo  Mo24  1  0.833170  0.335846  0.625482  1
  Mo  Mo25  1  0.334242  0.164273  0.874402  1
  Mo  Mo26  1  0.168985  0.662586  0.125541  1
  Mo  Mo27  1  0.676606  0.839344  0.374398  1
  Mo  Mo28  1  0.161841  0.662383  0.374606  1
  Mo  Mo29  1  0.662283  0.833580  0.125843  1
  Mo  Mo30  1  0.828310  0.338811  0.873125  1
  Mo  Mo31  1  0.331912  0.162053  0.625631  1
  Mo  Mo32  1  0.670803  0.997522  0.750469  1
  Mo  Mo33  1  0.171141  0.501991  0.749952  1
  Mo  Mo34  1  0.330992  0.999743  0.251074  1
  Mo  Mo35  1  0.827111  0.502028  0.251039  1
