# generated using pymatgen
data_Sr4LaSi12Ir19
_symmetry_space_group_name_H-M   'P 1'
_cell_length_a   12.92730900
_cell_length_b   12.91910503
_cell_length_c   4.03460400
_cell_angle_alpha   90.00000000
_cell_angle_beta   90.00000000
_cell_angle_gamma   119.97900838
_symmetry_Int_Tables_number   1
_chemical_formula_structural   Sr4LaSi12Ir19
_chemical_formula_sum   'Sr4 La1 Si12 Ir19'
_cell_volume   583.66537545
_cell_formula_units_Z   1
loop_
 _symmetry_equiv_pos_site_id
 _symmetry_equiv_pos_as_xyz
  1  'x, y, z'
loop_
 _atom_site_type_symbol
 _atom_site_label
 _atom_site_symmetry_multiplicity
 _atom_site_fract_x
 _atom_site_fract_y
 _atom_site_fract_z
 _atom_site_occupancy
  Sr  Sr0  1  0.183613  0.184086  0.500000  1
  Sr  Sr1  1  0.816387  0.000472  0.500000  1
  Sr  Sr2  1  0.333296  0.666385  0.000000  1
  Sr  Sr3  1  0.666704  0.333088  0.000000  1
  La  La4  1  0.000000  0.818259  0.500000  1
  Si  Si5  1  0.000000  0.185102  0.000000  1
  Si  Si6  1  0.813393  0.814884  0.000000  1
  Si  Si7  1  0.186607  0.001491  0.000000  1
  Si  Si8  1  0.521234  0.688632  0.500000  1
  Si  Si9  1  0.311913  0.832617  0.500000  1
  Si  Si10  1  0.167210  0.478498  0.500000  1
  Si  Si11  1  0.478766  0.167397  0.500000  1
  Si  Si12  1  0.688087  0.520703  0.500000  1
  Si  Si13  1  0.832790  0.311287  0.500000  1
  Si  Si14  1  0.000000  0.628017  0.000000  1
  Si  Si15  1  0.372064  0.371980  0.000000  1
  Si  Si16  1  0.627936  0.999916  0.000000  1
  Ir  Ir17  1  0.000000  0.285377  0.500000  1
  Ir  Ir18  1  0.714618  0.714086  0.500000  1
  Ir  Ir19  1  0.285382  0.999468  0.500000  1
  Ir  Ir20  1  0.620042  0.804042  0.000000  1
  Ir  Ir21  1  0.195083  0.816825  0.000000  1
  Ir  Ir22  1  0.183985  0.379901  0.000000  1
  Ir  Ir23  1  0.379958  0.183999  0.000000  1
  Ir  Ir24  1  0.804917  0.621741  0.000000  1
  Ir  Ir25  1  0.816015  0.195915  0.000000  1
  Ir  Ir26  1  0.513505  0.875504  0.500000  1
  Ir  Ir27  1  0.124636  0.638136  0.500000  1
  Ir  Ir28  1  0.362112  0.486406  0.500000  1
  Ir  Ir29  1  0.486495  0.361997  0.500000  1
  Ir  Ir30  1  0.875364  0.513499  0.500000  1
  Ir  Ir31  1  0.637888  0.124294  0.500000  1
  Ir  Ir32  1  0.000000  0.997062  0.000000  1
  Ir  Ir33  1  0.000000  0.446524  0.000000  1
  Ir  Ir34  1  0.554108  0.553257  0.000000  1
  Ir  Ir35  1  0.445892  0.999149  0.000000  1
