# generated using pymatgen
data_Dy4TaNbOs6
_symmetry_space_group_name_H-M   'P 1'
_cell_length_a   5.57510700
_cell_length_b   5.57510700
_cell_length_c   8.47583700
_cell_angle_alpha   90.00000000
_cell_angle_beta   90.00000000
_cell_angle_gamma   120.00000594
_symmetry_Int_Tables_number   1
_chemical_formula_structural   Dy4TaNbOs6
_chemical_formula_sum   'Dy4 Ta1 Nb1 Os6'
_cell_volume   228.14954954
_cell_formula_units_Z   1
loop_
 _symmetry_equiv_pos_site_id
 _symmetry_equiv_pos_as_xyz
  1  'x, y, z'
loop_
 _atom_site_type_symbol
 _atom_site_label
 _atom_site_symmetry_multiplicity
 _atom_site_fract_x
 _atom_site_fract_y
 _atom_site_fract_z
 _atom_site_occupancy
  Dy  Dy0  1  0.333333  0.666667  0.433952  1
  Dy  Dy1  1  0.666667  0.333333  0.566048  1
  Dy  Dy2  1  0.666667  0.333333  0.933928  1
  Dy  Dy3  1  0.333333  0.666667  0.066072  1
  Ta  Ta4  1  0.000000  0.000000  0.000000  1
  Nb  Nb5  1  0.000000  0.000000  0.500000  1
  Os  Os6  1  0.826281  0.173719  0.249475  1
  Os  Os7  1  0.826281  0.652559  0.249475  1
  Os  Os8  1  0.347441  0.173719  0.249475  1
  Os  Os9  1  0.173719  0.826281  0.750525  1
  Os  Os10  1  0.173719  0.347441  0.750525  1
  Os  Os11  1  0.652559  0.826281  0.750525  1
