# generated using pymatgen
data_La3Th(HgAu2)2
_symmetry_space_group_name_H-M   'P 1'
_cell_length_a   8.30938000
_cell_length_b   8.30938000
_cell_length_c   3.87325600
_cell_angle_alpha   90.00000000
_cell_angle_beta   90.00000000
_cell_angle_gamma   90.67808019
_symmetry_Int_Tables_number   1
_chemical_formula_structural   La3Th(HgAu2)2
_chemical_formula_sum   'La3 Th1 Hg2 Au4'
_cell_volume   267.41331542
_cell_formula_units_Z   1
loop_
 _symmetry_equiv_pos_site_id
 _symmetry_equiv_pos_as_xyz
  1  'x, y, z'
loop_
 _atom_site_type_symbol
 _atom_site_label
 _atom_site_symmetry_multiplicity
 _atom_site_fract_x
 _atom_site_fract_y
 _atom_site_fract_z
 _atom_site_occupancy
  La  La0  1  0.325402  0.825402  0.500000  1
  La  La1  1  0.173883  0.325880  0.500000  1
  La  La2  1  0.825880  0.673883  0.500000  1
  Th  Th3  1  0.672293  0.172293  0.500000  1
  Hg  Hg4  1  0.000840  0.000664  0.000000  1
  Hg  Hg5  1  0.500664  0.500840  0.000000  1
  Au  Au6  1  0.123560  0.623560  0.000000  1
  Au  Au7  1  0.868621  0.368621  0.000000  1
  Au  Au8  1  0.629414  0.879442  0.000000  1
  Au  Au9  1  0.379442  0.129414  0.000000  1
