# generated using pymatgen
data_Ce2Pr4Co15(P4Rh)3
_symmetry_space_group_name_H-M   'P 1'
_cell_length_a   3.79840200
_cell_length_b   10.70859900
_cell_length_c   12.52337249
_cell_angle_alpha   90.08565799
_cell_angle_beta   90.00000000
_cell_angle_gamma   90.00000000
_symmetry_Int_Tables_number   1
_chemical_formula_structural   Ce2Pr4Co15(P4Rh)3
_chemical_formula_sum   'Ce2 Pr4 Co15 P12 Rh3'
_cell_volume   509.39466815
_cell_formula_units_Z   1
loop_
 _symmetry_equiv_pos_site_id
 _symmetry_equiv_pos_as_xyz
  1  'x, y, z'
loop_
 _atom_site_type_symbol
 _atom_site_label
 _atom_site_symmetry_multiplicity
 _atom_site_fract_x
 _atom_site_fract_y
 _atom_site_fract_z
 _atom_site_occupancy
  Ce  Ce0  1  0.000000  0.500304  0.522366  1
  Ce  Ce1  1  0.500000  0.819593  0.209084  1
  Pr  Pr2  1  0.500000  0.000117  0.476064  1
  Pr  Pr3  1  0.500000  0.183085  0.207288  1
  Pr  Pr4  1  0.000000  0.686714  0.794339  1
  Pr  Pr5  1  0.000000  0.313348  0.794276  1
  Co  Co6  1  0.000000  0.992097  0.291074  1
  Co  Co7  1  0.000000  0.500720  0.989779  1
  Co  Co8  1  0.500000  0.999021  0.015068  1
  Co  Co9  1  0.500000  0.331891  0.995671  1
  Co  Co10  1  0.500000  0.668924  0.997157  1
  Co  Co11  1  0.000000  0.165857  0.007137  1
  Co  Co12  1  0.000000  0.833954  0.008308  1
  Co  Co13  1  0.500000  0.301773  0.428283  1
  Co  Co14  1  0.500000  0.698487  0.426296  1
  Co  Co15  1  0.000000  0.199038  0.568588  1
  Co  Co16  1  0.000000  0.800970  0.568534  1
  Co  Co17  1  0.500000  0.883711  0.711369  1
  Co  Co18  1  0.500000  0.116306  0.711332  1
  Co  Co19  1  0.000000  0.620975  0.287616  1
  Co  Co20  1  0.000000  0.383394  0.289777  1
  P  P21  1  0.500000  0.500368  0.892927  1
  P  P22  1  0.000000  0.999275  0.113403  1
  P  P23  1  0.500000  0.499617  0.346770  1
  P  P24  1  0.000000  0.999896  0.654000  1
  P  P25  1  0.500000  0.296284  0.609587  1
  P  P26  1  0.500000  0.703609  0.609148  1
  P  P27  1  0.000000  0.194424  0.385784  1
  P  P28  1  0.000000  0.804477  0.385687  1
  P  P29  1  0.500000  0.847320  0.898751  1
  P  P30  1  0.500000  0.152312  0.899024  1
  P  P31  1  0.000000  0.656606  0.103901  1
  P  P32  1  0.000000  0.345725  0.103008  1
  Rh  Rh33  1  0.500000  0.500534  0.159336  1
  Rh  Rh34  1  0.000000  0.999349  0.842530  1
  Rh  Rh35  1  0.500000  0.499923  0.696742  1
