# generated using pymatgen
data_Ba2Sr(InAs2)2
_symmetry_space_group_name_H-M   'P 1'
_cell_length_a   4.57527300
_cell_length_b   7.14424100
_cell_length_c   17.53386000
_cell_angle_alpha   90.00000000
_cell_angle_beta   90.00000000
_cell_angle_gamma   90.00000000
_symmetry_Int_Tables_number   1
_chemical_formula_structural   Ba2Sr(InAs2)2
_chemical_formula_sum   'Ba4 Sr2 In4 As8'
_cell_volume   573.12670351
_cell_formula_units_Z   2
loop_
 _symmetry_equiv_pos_site_id
 _symmetry_equiv_pos_as_xyz
  1  'x, y, z'
loop_
 _atom_site_type_symbol
 _atom_site_label
 _atom_site_symmetry_multiplicity
 _atom_site_fract_x
 _atom_site_fract_y
 _atom_site_fract_z
 _atom_site_occupancy
  Ba  Ba0  1  0.000000  0.281137  0.802690  1
  Ba  Ba1  1  0.500000  0.781137  0.697310  1
  Ba  Ba2  1  0.000000  0.718863  0.197310  1
  Ba  Ba3  1  0.500000  0.218863  0.302690  1
  Sr  Sr4  1  0.000000  0.000000  0.000000  1
  Sr  Sr5  1  0.500000  0.500000  0.500000  1
  In  In6  1  0.000000  0.866595  0.415606  1
  In  In7  1  0.500000  0.366595  0.084394  1
  In  In8  1  0.000000  0.133405  0.584394  1
  In  In9  1  0.500000  0.633405  0.915606  1
  As  As10  1  0.500000  0.256919  0.936007  1
  As  As11  1  0.500000  0.743081  0.063993  1
  As  As12  1  0.000000  0.240956  0.161981  1
  As  As13  1  0.000000  0.243081  0.436007  1
  As  As14  1  0.500000  0.740956  0.338019  1
  As  As15  1  0.000000  0.759044  0.838019  1
  As  As16  1  0.000000  0.756919  0.563993  1
  As  As17  1  0.500000  0.259044  0.661981  1
