# generated using pymatgen
data_Na4YbTcO6
_symmetry_space_group_name_H-M   'P 1'
_cell_length_a   5.66972705
_cell_length_b   5.66956432
_cell_length_c   5.71657205
_cell_angle_alpha   99.61419167
_cell_angle_beta   99.57444866
_cell_angle_gamma   120.08246506
_symmetry_Int_Tables_number   1
_chemical_formula_structural   Na4YbTcO6
_chemical_formula_sum   'Na4 Yb1 Tc1 O6'
_cell_volume   149.88947366
_cell_formula_units_Z   1
loop_
 _symmetry_equiv_pos_site_id
 _symmetry_equiv_pos_as_xyz
  1  'x, y, z'
loop_
 _atom_site_type_symbol
 _atom_site_label
 _atom_site_symmetry_multiplicity
 _atom_site_fract_x
 _atom_site_fract_y
 _atom_site_fract_z
 _atom_site_occupancy
  Na  Na0  1  0.498524  0.501464  0.999970  1
  Na  Na1  1  0.005677  0.994270  0.499971  1
  Na  Na2  1  0.661018  0.339050  0.499959  1
  Na  Na3  1  0.338289  0.661630  0.500012  1
  Yb  Yb4  1  0.833948  0.166210  0.000012  1
  Tc  Tc5  1  0.166742  0.833279  0.000012  1
  O  O6  1  0.957602  0.614407  0.203935  1
  O  O7  1  0.526886  0.914989  0.212773  1
  O  O8  1  0.225986  0.185522  0.212856  1
  O  O9  1  0.814724  0.774046  0.787315  1
  O  O10  1  0.084915  0.472813  0.787064  1
  O  O11  1  0.385694  0.042322  0.796125  1
