# generated using pymatgen
data_Ta8CdPbO22
_symmetry_space_group_name_H-M   'P 1'
_cell_length_a   6.29295300
_cell_length_b   6.29295174
_cell_length_c   12.48438400
_cell_angle_alpha   90.00000000
_cell_angle_beta   90.00000000
_cell_angle_gamma   120.00000135
_symmetry_Int_Tables_number   1
_chemical_formula_structural   Ta8CdPbO22
_chemical_formula_sum   'Ta8 Cd1 Pb1 O22'
_cell_volume   428.16053435
_cell_formula_units_Z   1
loop_
 _symmetry_equiv_pos_site_id
 _symmetry_equiv_pos_as_xyz
  1  'x, y, z'
loop_
 _atom_site_type_symbol
 _atom_site_label
 _atom_site_symmetry_multiplicity
 _atom_site_fract_x
 _atom_site_fract_y
 _atom_site_fract_z
 _atom_site_occupancy
  Ta  Ta0  1  0.666667  0.333333  0.750000  1
  Ta  Ta1  1  0.333333  0.666667  0.250000  1
  Ta  Ta2  1  0.643438  0.001315  0.498351  1
  Ta  Ta3  1  0.643438  0.642124  0.001649  1
  Ta  Ta4  1  0.998685  0.356562  0.001649  1
  Ta  Ta5  1  0.998685  0.642124  0.498351  1
  Ta  Ta6  1  0.357876  0.356562  0.498351  1
  Ta  Ta7  1  0.357876  0.001315  0.001649  1
  Cd  Cd8  1  0.666667  0.333333  0.250000  1
  Pb  Pb9  1  0.333333  0.666667  0.750000  1
  O  O10  1  0.333333  0.666667  0.530066  1
  O  O11  1  0.666667  0.333333  0.032778  1
  O  O12  1  0.666667  0.333333  0.467222  1
  O  O13  1  0.333333  0.666667  0.969934  1
  O  O14  1  0.243750  0.999225  0.498431  1
  O  O15  1  0.243750  0.244525  0.001569  1
  O  O16  1  0.000775  0.756250  0.001569  1
  O  O17  1  0.000775  0.244525  0.498431  1
  O  O18  1  0.755475  0.756250  0.498431  1
  O  O19  1  0.755475  0.999225  0.001569  1
  O  O20  1  0.382049  0.947468  0.156713  1
  O  O21  1  0.434469  0.371091  0.653010  1
  O  O22  1  0.936621  0.565531  0.653010  1
  O  O23  1  0.052532  0.434581  0.156713  1
  O  O24  1  0.565419  0.617951  0.156713  1
  O  O25  1  0.434469  0.063379  0.846990  1
  O  O26  1  0.628909  0.565531  0.846990  1
  O  O27  1  0.628909  0.063379  0.653010  1
  O  O28  1  0.936621  0.371091  0.846990  1
  O  O29  1  0.052532  0.617951  0.343287  1
  O  O30  1  0.565419  0.947468  0.343287  1
  O  O31  1  0.382049  0.434581  0.343287  1
