# generated using pymatgen
data_Dy20Si12Se
_symmetry_space_group_name_H-M   'P 1'
_cell_length_a   14.81695600
_cell_length_b   6.39747568
_cell_length_c   8.50156315
_cell_angle_alpha   89.96842652
_cell_angle_beta   90.00000000
_cell_angle_gamma   90.00000000
_symmetry_Int_Tables_number   1
_chemical_formula_structural   Dy20Si12Se
_chemical_formula_sum   'Dy20 Si12 Se1'
_cell_volume   805.87253351
_cell_formula_units_Z   1
loop_
 _symmetry_equiv_pos_site_id
 _symmetry_equiv_pos_as_xyz
  1  'x, y, z'
loop_
 _atom_site_type_symbol
 _atom_site_label
 _atom_site_symmetry_multiplicity
 _atom_site_fract_x
 _atom_site_fract_y
 _atom_site_fract_z
 _atom_site_occupancy
  Dy  Dy0  1  0.666490  0.500000  0.500000  1
  Dy  Dy1  1  0.168474  0.500000  0.000000  1
  Dy  Dy2  1  0.831526  0.500000  0.000000  1
  Dy  Dy3  1  0.333510  0.500000  0.500000  1
  Dy  Dy4  1  0.830930  0.000000  0.000000  1
  Dy  Dy5  1  0.336489  0.000000  0.500000  1
  Dy  Dy6  1  0.663511  0.000000  0.500000  1
  Dy  Dy7  1  0.169070  0.000000  0.000000  1
  Dy  Dy8  1  0.500000  0.252734  0.756129  1
  Dy  Dy9  1  0.000000  0.239564  0.242819  1
  Dy  Dy10  1  0.619721  0.250133  0.122656  1
  Dy  Dy11  1  0.128539  0.236959  0.629387  1
  Dy  Dy12  1  0.871461  0.236959  0.629387  1
  Dy  Dy13  1  0.380279  0.250133  0.122656  1
  Dy  Dy14  1  0.000000  0.760436  0.757181  1
  Dy  Dy15  1  0.500000  0.747266  0.243871  1
  Dy  Dy16  1  0.871461  0.763041  0.370613  1
  Dy  Dy17  1  0.380279  0.749867  0.877344  1
  Dy  Dy18  1  0.619721  0.749867  0.877344  1
  Dy  Dy19  1  0.128539  0.763041  0.370613  1
  Si  Si20  1  0.000000  0.246904  0.893955  1
  Si  Si21  1  0.500000  0.253520  0.394737  1
  Si  Si22  1  0.800942  0.245720  0.301853  1
  Si  Si23  1  0.304395  0.248790  0.803673  1
  Si  Si24  1  0.695605  0.248790  0.803673  1
  Si  Si25  1  0.199058  0.245720  0.301853  1
  Si  Si26  1  0.500000  0.746480  0.605263  1
  Si  Si27  1  0.000000  0.753096  0.106045  1
  Si  Si28  1  0.695605  0.751210  0.196327  1
  Si  Si29  1  0.199058  0.754280  0.698147  1
  Si  Si30  1  0.800942  0.754280  0.698147  1
  Si  Si31  1  0.304395  0.751210  0.196327  1
  Se  Se32  1  0.000000  0.500000  0.500000  1
