# generated using pymatgen
data_CsLi2TaS4
_symmetry_space_group_name_H-M   'P 1'
_cell_length_a   10.39602107
_cell_length_b   10.39602098
_cell_length_c   8.02036100
_cell_angle_alpha   90.00000000
_cell_angle_beta   90.00000000
_cell_angle_gamma   146.28679917
_symmetry_Int_Tables_number   1
_chemical_formula_structural   CsLi2TaS4
_chemical_formula_sum   'Cs2 Li4 Ta2 S8'
_cell_volume   481.11560171
_cell_formula_units_Z   2
loop_
 _symmetry_equiv_pos_site_id
 _symmetry_equiv_pos_as_xyz
  1  'x, y, z'
loop_
 _atom_site_type_symbol
 _atom_site_label
 _atom_site_symmetry_multiplicity
 _atom_site_fract_x
 _atom_site_fract_y
 _atom_site_fract_z
 _atom_site_occupancy
  Cs  Cs0  1  0.471307  0.833741  0.750000  1
  Cs  Cs1  1  0.833741  0.471307  0.250000  1
  Li  Li2  1  0.367548  0.367548  0.000000  1
  Li  Li3  1  0.367548  0.367548  0.500000  1
  Li  Li4  1  0.012729  0.806420  0.750000  1
  Li  Li5  1  0.806420  0.012729  0.250000  1
  Ta  Ta6  1  0.523196  0.295168  0.750000  1
  Ta  Ta7  1  0.295168  0.523196  0.250000  1
  S  S8  1  0.625546  0.593846  0.750000  1
  S  S9  1  0.593846  0.625546  0.250000  1
  S  S10  1  0.297374  0.073598  0.979827  1
  S  S11  1  0.073598  0.297374  0.479827  1
  S  S12  1  0.451106  0.853321  0.250000  1
  S  S13  1  0.073598  0.297374  0.020173  1
  S  S14  1  0.297374  0.073598  0.520173  1
  S  S15  1  0.853321  0.451106  0.750000  1
