# generated using pymatgen
data_Tb16Y4Si15Au
_symmetry_space_group_name_H-M   'P 1'
_cell_length_a   7.48600241
_cell_length_b   7.72538393
_cell_length_c   14.73018513
_cell_angle_alpha   90.15109065
_cell_angle_beta   90.50640376
_cell_angle_gamma   90.17684018
_symmetry_Int_Tables_number   1
_chemical_formula_structural   Tb16Y4Si15Au
_chemical_formula_sum   'Tb16 Y4 Si15 Au1'
_cell_volume   851.83928689
_cell_formula_units_Z   1
loop_
 _symmetry_equiv_pos_site_id
 _symmetry_equiv_pos_as_xyz
  1  'x, y, z'
loop_
 _atom_site_type_symbol
 _atom_site_label
 _atom_site_symmetry_multiplicity
 _atom_site_fract_x
 _atom_site_fract_y
 _atom_site_fract_z
 _atom_site_occupancy
  Tb  Tb0  1  0.680054  0.173897  0.623076  1
  Tb  Tb1  1  0.182903  0.321786  0.877491  1
  Tb  Tb2  1  0.318366  0.819575  0.121282  1
  Tb  Tb3  1  0.823584  0.677501  0.377632  1
  Tb  Tb4  1  0.318978  0.824943  0.377903  1
  Tb  Tb5  1  0.817335  0.678686  0.121756  1
  Tb  Tb6  1  0.680978  0.179455  0.877705  1
  Tb  Tb7  1  0.178388  0.321518  0.623311  1
  Tb  Tb8  1  0.525958  0.679303  0.600962  1
  Tb  Tb9  1  0.028821  0.816470  0.901227  1
  Tb  Tb10  1  0.470068  0.317753  0.098610  1
  Tb  Tb11  1  0.976470  0.182055  0.399760  1
  Tb  Tb12  1  0.470884  0.321691  0.400049  1
  Tb  Tb13  1  0.970086  0.183453  0.098319  1
  Tb  Tb14  1  0.530497  0.682943  0.900176  1
  Tb  Tb15  1  0.025295  0.817756  0.600813  1
  Y  Y16  1  0.851378  0.508584  0.750001  1
  Y  Y17  1  0.349590  0.988770  0.748844  1
  Y  Y18  1  0.149928  0.488518  0.250013  1
  Y  Y19  1  0.651521  0.011338  0.250669  1
  Si  Si20  1  0.144768  0.527905  0.040086  1
  Si  Si21  1  0.354124  0.029257  0.960047  1
  Si  Si22  1  0.851261  0.471713  0.541713  1
  Si  Si23  1  0.342240  0.027891  0.542814  1
  Si  Si24  1  0.855401  0.471317  0.959325  1
  Si  Si25  1  0.644207  0.971057  0.039327  1
  Si  Si26  1  0.148198  0.530574  0.461232  1
  Si  Si27  1  0.478105  0.395556  0.750304  1
  Si  Si28  1  0.976398  0.103899  0.752056  1
  Si  Si29  1  0.523094  0.606872  0.248653  1
  Si  Si30  1  0.025095  0.895238  0.247239  1
  Si  Si31  1  0.734195  0.871302  0.752284  1
  Si  Si32  1  0.233876  0.626774  0.751209  1
  Si  Si33  1  0.267763  0.126207  0.247020  1
  Si  Si34  1  0.765487  0.375207  0.248679  1
  Au  Au35  1  0.654706  0.973233  0.458411  1
