# generated using pymatgen
data_ZnNiSnO4
_symmetry_space_group_name_H-M   'P 1'
_cell_length_a   6.14906597
_cell_length_b   6.14903019
_cell_length_c   6.14908572
_cell_angle_alpha   120.78158540
_cell_angle_beta   118.23503650
_cell_angle_gamma   90.86783022
_symmetry_Int_Tables_number   1
_chemical_formula_structural   ZnNiSnO4
_chemical_formula_sum   'Zn2 Ni2 Sn2 O8'
_cell_volume   165.50431507
_cell_formula_units_Z   2
loop_
 _symmetry_equiv_pos_site_id
 _symmetry_equiv_pos_as_xyz
  1  'x, y, z'
loop_
 _atom_site_type_symbol
 _atom_site_label
 _atom_site_symmetry_multiplicity
 _atom_site_fract_x
 _atom_site_fract_y
 _atom_site_fract_z
 _atom_site_occupancy
  Zn  Zn0  1  0.388718  0.138716  0.250001  1
  Zn  Zn1  1  0.611282  0.861284  0.749999  1
  Ni  Ni2  1  0.000000  0.500000  0.000000  1
  Ni  Ni3  1  0.000000  0.000000  0.500000  1
  Sn  Sn4  1  0.500000  0.500000  0.000000  1
  Sn  Sn5  1  0.000000  0.500000  0.500000  1
  O  O6  1  0.754990  0.738788  0.483807  1
  O  O7  1  0.754994  0.271191  0.016211  1
  O  O8  1  0.218682  0.738365  0.480322  1
  O  O9  1  0.758033  0.738351  0.019681  1
  O  O10  1  0.245010  0.261212  0.516193  1
  O  O11  1  0.245006  0.728809  0.983789  1
  O  O12  1  0.781318  0.261635  0.519678  1
  O  O13  1  0.241967  0.261649  0.980319  1
