# generated using pymatgen
data_Er2UCoSn3Ir2
_symmetry_space_group_name_H-M   'P 1'
_cell_length_a   7.40792046
_cell_length_b   7.40792005
_cell_length_c   3.84122900
_cell_angle_alpha   90.00000000
_cell_angle_beta   90.00000000
_cell_angle_gamma   118.99624478
_symmetry_Int_Tables_number   1
_chemical_formula_structural   Er2UCoSn3Ir2
_chemical_formula_sum   'Er2 U1 Co1 Sn3 Ir2'
_cell_volume   184.37321622
_cell_formula_units_Z   1
loop_
 _symmetry_equiv_pos_site_id
 _symmetry_equiv_pos_as_xyz
  1  'x, y, z'
loop_
 _atom_site_type_symbol
 _atom_site_label
 _atom_site_symmetry_multiplicity
 _atom_site_fract_x
 _atom_site_fract_y
 _atom_site_fract_z
 _atom_site_occupancy
  Er  Er0  1  0.594075  0.000005  0.500000  1
  Er  Er1  1  0.000005  0.594075  0.500000  1
  U  U2  1  0.411844  0.411844  0.500000  1
  Co  Co3  1  0.018974  0.018974  0.500000  1
  Sn  Sn4  1  0.763888  0.763888  0.000000  1
  Sn  Sn5  1  0.249288  0.986934  0.000000  1
  Sn  Sn6  1  0.986934  0.249288  0.000000  1
  Ir  Ir7  1  0.638485  0.336507  0.000000  1
  Ir  Ir8  1  0.336507  0.638485  0.000000  1
