# generated using pymatgen
data_DyTm7(CdPt)2
_symmetry_space_group_name_H-M   'P 1'
_cell_length_a   9.56806348
_cell_length_b   9.56806433
_cell_length_c   9.56143800
_cell_angle_alpha   60.02290660
_cell_angle_beta   60.02290367
_cell_angle_gamma   59.95418971
_symmetry_Int_Tables_number   1
_chemical_formula_structural   DyTm7(CdPt)2
_chemical_formula_sum   'Dy2 Tm14 Cd4 Pt4'
_cell_volume   618.95052188
_cell_formula_units_Z   2
loop_
 _symmetry_equiv_pos_site_id
 _symmetry_equiv_pos_as_xyz
  1  'x, y, z'
loop_
 _atom_site_type_symbol
 _atom_site_label
 _atom_site_symmetry_multiplicity
 _atom_site_fract_x
 _atom_site_fract_y
 _atom_site_fract_z
 _atom_site_occupancy
  Dy  Dy0  1  0.565309  0.565309  0.934691  1
  Dy  Dy1  1  0.934691  0.934691  0.565308  1
  Tm  Tm2  1  0.352188  0.352188  0.352601  1
  Tm  Tm3  1  0.352188  0.352188  0.943023  1
  Tm  Tm4  1  0.352601  0.943023  0.352188  1
  Tm  Tm5  1  0.943023  0.352601  0.352188  1
  Tm  Tm6  1  0.810279  0.189721  0.189721  1
  Tm  Tm7  1  0.189721  0.810279  0.810279  1
  Tm  Tm8  1  0.189721  0.810279  0.189721  1
  Tm  Tm9  1  0.810279  0.189721  0.810279  1
  Tm  Tm10  1  0.189717  0.189717  0.810283  1
  Tm  Tm11  1  0.810283  0.810283  0.189717  1
  Tm  Tm12  1  0.935633  0.564367  0.564367  1
  Tm  Tm13  1  0.564367  0.935633  0.935633  1
  Tm  Tm14  1  0.564367  0.935633  0.564367  1
  Tm  Tm15  1  0.935633  0.564366  0.935633  1
  Cd  Cd16  1  0.581742  0.581742  0.581940  1
  Cd  Cd17  1  0.581742  0.581742  0.254575  1
  Cd  Cd18  1  0.581940  0.254575  0.581742  1
  Cd  Cd19  1  0.254575  0.581940  0.581742  1
  Pt  Pt20  1  0.143320  0.143320  0.142906  1
  Pt  Pt21  1  0.143320  0.143320  0.570455  1
  Pt  Pt22  1  0.142906  0.570455  0.143320  1
  Pt  Pt23  1  0.570455  0.142906  0.143320  1
