# generated using pymatgen
data_Lu20Ir11Os
_symmetry_space_group_name_H-M   'P 1'
_cell_length_a   10.66135600
_cell_length_b   10.66135600
_cell_length_c   6.27983500
_cell_angle_alpha   90.00000000
_cell_angle_beta   90.00000000
_cell_angle_gamma   90.00000000
_symmetry_Int_Tables_number   1
_chemical_formula_structural   Lu20Ir11Os
_chemical_formula_sum   'Lu20 Ir11 Os1'
_cell_volume   713.79437920
_cell_formula_units_Z   1
loop_
 _symmetry_equiv_pos_site_id
 _symmetry_equiv_pos_as_xyz
  1  'x, y, z'
loop_
 _atom_site_type_symbol
 _atom_site_label
 _atom_site_symmetry_multiplicity
 _atom_site_fract_x
 _atom_site_fract_y
 _atom_site_fract_z
 _atom_site_occupancy
  Lu  Lu0  1  0.292733  0.087126  0.376017  1
  Lu  Lu1  1  0.293212  0.912898  0.879800  1
  Lu  Lu2  1  0.706788  0.087102  0.879800  1
  Lu  Lu3  1  0.707267  0.912874  0.376017  1
  Lu  Lu4  1  0.587102  0.793212  0.879800  1
  Lu  Lu5  1  0.587126  0.207267  0.376017  1
  Lu  Lu6  1  0.412874  0.792733  0.376017  1
  Lu  Lu7  1  0.412898  0.206788  0.879800  1
  Lu  Lu8  1  0.208746  0.411896  0.621897  1
  Lu  Lu9  1  0.208719  0.587897  0.121648  1
  Lu  Lu10  1  0.791281  0.412103  0.121648  1
  Lu  Lu11  1  0.791254  0.588104  0.621897  1
  Lu  Lu12  1  0.912103  0.708719  0.121648  1
  Lu  Lu13  1  0.911896  0.291254  0.621897  1
  Lu  Lu14  1  0.088104  0.708746  0.621897  1
  Lu  Lu15  1  0.087897  0.291281  0.121648  1
  Lu  Lu16  1  0.000000  0.000000  0.499667  1
  Lu  Lu17  1  0.000000  0.000000  0.999400  1
  Lu  Lu18  1  0.500000  0.500000  0.999400  1
  Lu  Lu19  1  0.500000  0.500000  0.499667  1
  Ir  Ir20  1  0.847399  0.153844  0.250338  1
  Ir  Ir21  1  0.847409  0.846368  0.749803  1
  Ir  Ir22  1  0.152591  0.153632  0.749803  1
  Ir  Ir23  1  0.152601  0.846156  0.250338  1
  Ir  Ir24  1  0.653632  0.347409  0.749803  1
  Ir  Ir25  1  0.653844  0.652601  0.250338  1
  Ir  Ir26  1  0.346156  0.347399  0.250338  1
  Ir  Ir27  1  0.346368  0.652591  0.749803  1
  Ir  Ir28  1  0.500000  0.000000  0.624412  1
  Ir  Ir29  1  0.000000  0.500000  0.876477  1
  Ir  Ir30  1  0.000000  0.500000  0.376850  1
  Os  Os31  1  0.500000  0.000000  0.126109  1
