# generated using pymatgen
data_Y4Tm6OsRu3
_symmetry_space_group_name_H-M   'P 1'
_cell_length_a   6.28509627
_cell_length_b   7.27804112
_cell_length_c   8.40460194
_cell_angle_alpha   96.97694143
_cell_angle_beta   111.99438557
_cell_angle_gamma   90.02574007
_symmetry_Int_Tables_number   1
_chemical_formula_structural   Y4Tm6OsRu3
_chemical_formula_sum   'Y4 Tm6 Os1 Ru3'
_cell_volume   353.39225381
_cell_formula_units_Z   1
loop_
 _symmetry_equiv_pos_site_id
 _symmetry_equiv_pos_as_xyz
  1  'x, y, z'
loop_
 _atom_site_type_symbol
 _atom_site_label
 _atom_site_symmetry_multiplicity
 _atom_site_fract_x
 _atom_site_fract_y
 _atom_site_fract_z
 _atom_site_occupancy
  Y  Y0  1  0.789126  0.081405  0.810304  1
  Y  Y1  1  0.975719  0.416852  0.185624  1
  Y  Y2  1  0.210207  0.917222  0.189003  1
  Y  Y3  1  0.023443  0.582717  0.811511  1
  Tm  Tm4  1  0.203764  0.184687  0.566476  1
  Tm  Tm5  1  0.637063  0.317361  0.436061  1
  Tm  Tm6  1  0.797207  0.816022  0.433642  1
  Tm  Tm7  1  0.361541  0.683511  0.564898  1
  Tm  Tm8  1  0.421271  0.249784  0.999567  1
  Tm  Tm9  1  0.578916  0.750461  0.999949  1
  Os  Os10  1  0.596102  0.424313  0.779750  1
  Ru  Ru11  1  0.817704  0.076052  0.223552  1
  Ru  Ru12  1  0.404867  0.575656  0.222313  1
  Ru  Ru13  1  0.183071  0.923956  0.777350  1
