# generated using pymatgen
data_Y20Ga3GeBi8
_symmetry_space_group_name_H-M   'P 1'
_cell_length_a   12.15951885
_cell_length_b   9.28828400
_cell_length_c   8.12586761
_cell_angle_alpha   90.00000000
_cell_angle_beta   90.12189170
_cell_angle_gamma   90.00000000
_symmetry_Int_Tables_number   1
_chemical_formula_structural   Y20Ga3GeBi8
_chemical_formula_sum   'Y20 Ga3 Ge1 Bi8'
_cell_volume   917.74206084
_cell_formula_units_Z   1
loop_
 _symmetry_equiv_pos_site_id
 _symmetry_equiv_pos_as_xyz
  1  'x, y, z'
loop_
 _atom_site_type_symbol
 _atom_site_label
 _atom_site_symmetry_multiplicity
 _atom_site_fract_x
 _atom_site_fract_y
 _atom_site_fract_z
 _atom_site_occupancy
  Y  Y0  1  0.563757  0.052084  0.318770  1
  Y  Y1  1  0.063706  0.448233  0.181089  1
  Y  Y2  1  0.436251  0.552618  0.681373  1
  Y  Y3  1  0.936241  0.947950  0.818987  1
  Y  Y4  1  0.436251  0.947382  0.681373  1
  Y  Y5  1  0.936241  0.552050  0.818987  1
  Y  Y6  1  0.563757  0.447916  0.318770  1
  Y  Y7  1  0.063706  0.051767  0.181089  1
  Y  Y8  1  0.714387  0.250000  0.667972  1
  Y  Y9  1  0.214718  0.250000  0.831690  1
  Y  Y10  1  0.285962  0.750000  0.331963  1
  Y  Y11  1  0.785967  0.750000  0.167952  1
  Y  Y12  1  0.502095  0.250000  0.961568  1
  Y  Y13  1  0.001676  0.250000  0.538474  1
  Y  Y14  1  0.498332  0.750000  0.037652  1
  Y  Y15  1  0.998030  0.750000  0.461888  1
  Y  Y16  1  0.794068  0.250000  0.140563  1
  Y  Y17  1  0.294519  0.250000  0.359229  1
  Y  Y18  1  0.205824  0.750000  0.859390  1
  Y  Y19  1  0.705111  0.750000  0.639813  1
  Ga  Ga20  1  0.976681  0.250000  0.909450  1
  Ga  Ga21  1  0.476749  0.250000  0.590138  1
  Ga  Ga22  1  0.023534  0.750000  0.090600  1
  Ge  Ge23  1  0.522267  0.750000  0.410800  1
  Bi  Bi24  1  0.825576  0.009219  0.433909  1
  Bi  Bi25  1  0.326275  0.490681  0.066353  1
  Bi  Bi26  1  0.174443  0.509776  0.566035  1
  Bi  Bi27  1  0.673791  0.990104  0.933913  1
  Bi  Bi28  1  0.174443  0.990224  0.566035  1
  Bi  Bi29  1  0.673791  0.509896  0.933913  1
  Bi  Bi30  1  0.825576  0.490781  0.433909  1
  Bi  Bi31  1  0.326275  0.009319  0.066353  1
