# generated using pymatgen
data_LiNd16Hg3Rh4
_symmetry_space_group_name_H-M   'P 1'
_cell_length_a   9.92311708
_cell_length_b   9.94043043
_cell_length_c   9.94043000
_cell_angle_alpha   60.00000144
_cell_angle_beta   59.94226878
_cell_angle_gamma   59.94226665
_symmetry_Int_Tables_number   1
_chemical_formula_structural   LiNd16Hg3Rh4
_chemical_formula_sum   'Li1 Nd16 Hg3 Rh4'
_cell_volume   692.72993731
_cell_formula_units_Z   1
loop_
 _symmetry_equiv_pos_site_id
 _symmetry_equiv_pos_as_xyz
  1  'x, y, z'
loop_
 _atom_site_type_symbol
 _atom_site_label
 _atom_site_symmetry_multiplicity
 _atom_site_fract_x
 _atom_site_fract_y
 _atom_site_fract_z
 _atom_site_occupancy
  Li  Li0  1  0.545545  0.818152  0.818152  1
  Nd  Nd1  1  0.598782  0.598685  0.598685  1
  Nd  Nd2  1  0.598782  0.598685  0.203849  1
  Nd  Nd3  1  0.598782  0.203849  0.598685  1
  Nd  Nd4  1  0.197061  0.600980  0.600980  1
  Nd  Nd5  1  0.057857  0.440980  0.440980  1
  Nd  Nd6  1  0.436275  0.063351  0.063351  1
  Nd  Nd7  1  0.436275  0.063351  0.437024  1
  Nd  Nd8  1  0.057857  0.440980  0.060183  1
  Nd  Nd9  1  0.436275  0.437024  0.063351  1
  Nd  Nd10  1  0.057857  0.060183  0.440980  1
  Nd  Nd11  1  0.186357  0.813929  0.813929  1
  Nd  Nd12  1  0.812401  0.186952  0.186952  1
  Nd  Nd13  1  0.812401  0.186952  0.813695  1
  Nd  Nd14  1  0.186357  0.813929  0.185784  1
  Nd  Nd15  1  0.812401  0.813695  0.186952  1
  Nd  Nd16  1  0.186357  0.185784  0.813929  1
  Hg  Hg17  1  0.829691  0.835768  0.835768  1
  Hg  Hg18  1  0.829691  0.835768  0.498774  1
  Hg  Hg19  1  0.829691  0.498774  0.835768  1
  Rh  Rh20  1  0.390532  0.392998  0.392998  1
  Rh  Rh21  1  0.390532  0.392998  0.823470  1
  Rh  Rh22  1  0.390532  0.823470  0.392998  1
  Rh  Rh23  1  0.821713  0.392762  0.392762  1
