# generated using pymatgen
data_CaYb5(YBi3)2
_symmetry_space_group_name_H-M   'P 1'
_cell_length_a   8.17572385
_cell_length_b   8.35794227
_cell_length_c   8.35933305
_cell_angle_alpha   109.92226056
_cell_angle_beta   109.02847933
_cell_angle_gamma   109.02222923
_symmetry_Int_Tables_number   1
_chemical_formula_structural   CaYb5(YBi3)2
_chemical_formula_sum   'Ca1 Yb5 Y2 Bi6'
_cell_volume   442.06723253
_cell_formula_units_Z   1
loop_
 _symmetry_equiv_pos_site_id
 _symmetry_equiv_pos_as_xyz
  1  'x, y, z'
loop_
 _atom_site_type_symbol
 _atom_site_label
 _atom_site_symmetry_multiplicity
 _atom_site_fract_x
 _atom_site_fract_y
 _atom_site_fract_z
 _atom_site_occupancy
  Ca  Ca0  1  0.500895  0.998973  0.646475  1
  Yb  Yb1  1  0.354438  0.352390  0.353523  1
  Yb  Yb2  1  0.501958  0.001075  0.147597  1
  Yb  Yb3  1  0.001705  0.647417  0.501006  1
  Yb  Yb4  1  0.854521  0.853384  0.852481  1
  Yb  Yb5  1  0.000818  0.146442  0.498865  1
  Y  Y6  1  0.141958  0.500082  0.000008  1
  Y  Y7  1  0.642080  0.500240  0.000189  1
  Bi  Bi8  1  0.376527  0.622964  0.755871  1
  Bi  Bi9  1  0.876868  0.256021  0.123518  1
  Bi  Bi10  1  0.620876  0.743982  0.367171  1
  Bi  Bi11  1  0.120500  0.867268  0.243784  1
  Bi  Bi12  1  0.253293  0.132706  0.876893  1
  Bi  Bi13  1  0.753564  0.377055  0.632619  1
