# generated using pymatgen
data_Dy7Au10
_symmetry_space_group_name_H-M   'P 1'
_cell_length_a   8.73450030
_cell_length_b   8.73450105
_cell_length_c   10.42162000
_cell_angle_alpha   90.00000000
_cell_angle_beta   90.00000000
_cell_angle_gamma   107.00810153
_symmetry_Int_Tables_number   1
_chemical_formula_structural   Dy7Au10
_chemical_formula_sum   'Dy14 Au20'
_cell_volume   760.30690611
_cell_formula_units_Z   2
loop_
 _symmetry_equiv_pos_site_id
 _symmetry_equiv_pos_as_xyz
  1  'x, y, z'
loop_
 _atom_site_type_symbol
 _atom_site_label
 _atom_site_symmetry_multiplicity
 _atom_site_fract_x
 _atom_site_fract_y
 _atom_site_fract_z
 _atom_site_occupancy
  Dy  Dy0  1  0.692561  0.307439  0.000000  1
  Dy  Dy1  1  0.307439  0.692561  0.000000  1
  Dy  Dy2  1  0.807439  0.192561  0.500000  1
  Dy  Dy3  1  0.192561  0.807439  0.500000  1
  Dy  Dy4  1  0.000000  0.000000  0.000000  1
  Dy  Dy5  1  0.500000  0.500000  0.500000  1
  Dy  Dy6  1  0.002900  0.502900  0.250000  1
  Dy  Dy7  1  0.997100  0.497100  0.750000  1
  Dy  Dy8  1  0.497100  0.997100  0.750000  1
  Dy  Dy9  1  0.502900  0.002900  0.250000  1
  Dy  Dy10  1  0.313166  0.313166  0.188172  1
  Dy  Dy11  1  0.686834  0.686834  0.811828  1
  Dy  Dy12  1  0.186834  0.186834  0.688172  1
  Dy  Dy13  1  0.813166  0.813166  0.311828  1
  Au  Au14  1  0.859860  0.149528  0.209140  1
  Au  Au15  1  0.140140  0.850472  0.790860  1
  Au  Au16  1  0.640140  0.350472  0.709140  1
  Au  Au17  1  0.649528  0.359860  0.290860  1
  Au  Au18  1  0.359860  0.649528  0.290860  1
  Au  Au19  1  0.350472  0.640140  0.709140  1
  Au  Au20  1  0.850472  0.140140  0.790860  1
  Au  Au21  1  0.149528  0.859860  0.209140  1
  Au  Au22  1  0.937948  0.645171  0.001932  1
  Au  Au23  1  0.062052  0.354829  0.998068  1
  Au  Au24  1  0.562052  0.854829  0.501932  1
  Au  Au25  1  0.145171  0.437948  0.498068  1
  Au  Au26  1  0.437948  0.145171  0.498068  1
  Au  Au27  1  0.854829  0.562052  0.501932  1
  Au  Au28  1  0.354829  0.062052  0.998068  1
  Au  Au29  1  0.645171  0.937948  0.001932  1
  Au  Au30  1  0.105734  0.105734  0.397224  1
  Au  Au31  1  0.894266  0.894266  0.602776  1
  Au  Au32  1  0.394266  0.394266  0.897224  1
  Au  Au33  1  0.605734  0.605734  0.102776  1
