# generated using pymatgen
data_Tb3Mg3InAgRu
_symmetry_space_group_name_H-M   'P 1'
_cell_length_a   8.01130500
_cell_length_b   8.01130282
_cell_length_c   3.85039300
_cell_angle_alpha   90.00000000
_cell_angle_beta   90.00000000
_cell_angle_gamma   119.99999660
_symmetry_Int_Tables_number   1
_chemical_formula_structural   Tb3Mg3InAgRu
_chemical_formula_sum   'Tb3 Mg3 In1 Ag1 Ru1'
_cell_volume   214.01396837
_cell_formula_units_Z   1
loop_
 _symmetry_equiv_pos_site_id
 _symmetry_equiv_pos_as_xyz
  1  'x, y, z'
loop_
 _atom_site_type_symbol
 _atom_site_label
 _atom_site_symmetry_multiplicity
 _atom_site_fract_x
 _atom_site_fract_y
 _atom_site_fract_z
 _atom_site_occupancy
  Tb  Tb0  1  0.564537  0.957806  0.000000  1
  Tb  Tb1  1  0.042194  0.606731  0.000000  1
  Tb  Tb2  1  0.393269  0.435463  0.000000  1
  Mg  Mg3  1  0.251482  0.999776  0.500000  1
  Mg  Mg4  1  0.000224  0.251706  0.500000  1
  Mg  Mg5  1  0.748294  0.748518  0.500000  1
  In  In6  1  0.666667  0.333333  0.500000  1
  Ag  Ag7  1  0.000000  0.000000  0.000000  1
  Ru  Ru8  1  0.333333  0.666667  0.500000  1
