# generated using pymatgen
data_Np2Si4P2Pd21
_symmetry_space_group_name_H-M   'P 1'
_cell_length_a   8.71911258
_cell_length_b   8.69883813
_cell_length_c   8.69883800
_cell_angle_alpha   60.03187786
_cell_angle_beta   59.92286428
_cell_angle_gamma   59.92286102
_symmetry_Int_Tables_number   1
_chemical_formula_structural   Np2Si4P2Pd21
_chemical_formula_sum   'Np2 Si4 P2 Pd21'
_cell_volume   466.09743420
_cell_formula_units_Z   1
loop_
 _symmetry_equiv_pos_site_id
 _symmetry_equiv_pos_as_xyz
  1  'x, y, z'
loop_
 _atom_site_type_symbol
 _atom_site_label
 _atom_site_symmetry_multiplicity
 _atom_site_fract_x
 _atom_site_fract_y
 _atom_site_fract_z
 _atom_site_occupancy
  Np  Np0  1  0.750011  0.748878  0.751100  1
  Np  Np1  1  0.249989  0.248900  0.251122  1
  Si  Si2  1  0.737957  0.260594  0.263492  1
  Si  Si3  1  0.262982  0.261750  0.738250  1
  Si  Si4  1  0.737018  0.261750  0.738250  1
  Si  Si5  1  0.262043  0.736508  0.739406  1
  P  P6  1  0.737832  0.736049  0.263951  1
  P  P7  1  0.262168  0.736049  0.263951  1
  Pd  Pd8  1  0.000000  0.003352  0.996648  1
  Pd  Pd9  1  0.614349  0.615226  0.156077  1
  Pd  Pd10  1  0.615824  0.153163  0.615190  1
  Pd  Pd11  1  0.155008  0.615849  0.613736  1
  Pd  Pd12  1  0.615408  0.615849  0.613736  1
  Pd  Pd13  1  0.384176  0.384810  0.846837  1
  Pd  Pd14  1  0.385651  0.843923  0.384774  1
  Pd  Pd15  1  0.844992  0.386264  0.384151  1
  Pd  Pd16  1  0.384592  0.386264  0.384151  1
  Pd  Pd17  1  0.003240  0.998869  0.343586  1
  Pd  Pd18  1  0.654305  0.998869  0.343586  1
  Pd  Pd19  1  0.000000  0.657521  0.342479  1
  Pd  Pd20  1  0.654439  0.346970  0.999594  1
  Pd  Pd21  1  0.998997  0.346970  0.999594  1
  Pd  Pd22  1  0.000000  0.346373  0.653627  1
  Pd  Pd23  1  0.345695  0.656414  0.001131  1
  Pd  Pd24  1  0.345561  0.000406  0.653030  1
  Pd  Pd25  1  0.344659  0.997805  0.002195  1
  Pd  Pd26  1  0.001003  0.000406  0.653030  1
  Pd  Pd27  1  0.996760  0.656414  0.001131  1
  Pd  Pd28  1  0.655341  0.997805  0.002195  1
