# generated using pymatgen
data_Tb3Dy14Tm3Pb16
_symmetry_space_group_name_H-M   'P 1'
_cell_length_a   8.20241226
_cell_length_b   8.28564143
_cell_length_c   15.65258700
_cell_angle_alpha   90.00638952
_cell_angle_beta   90.01437561
_cell_angle_gamma   90.01730681
_symmetry_Int_Tables_number   1
_chemical_formula_structural   Tb3Dy14Tm3Pb16
_chemical_formula_sum   'Tb3 Dy14 Tm3 Pb16'
_cell_volume   1063.78489257
_cell_formula_units_Z   1
loop_
 _symmetry_equiv_pos_site_id
 _symmetry_equiv_pos_as_xyz
  1  'x, y, z'
loop_
 _atom_site_type_symbol
 _atom_site_label
 _atom_site_symmetry_multiplicity
 _atom_site_fract_x
 _atom_site_fract_y
 _atom_site_fract_z
 _atom_site_occupancy
  Tb  Tb0  1  0.965298  0.823334  0.400075  1
  Tb  Tb1  1  0.534868  0.323181  0.599834  1
  Tb  Tb2  1  0.034552  0.176360  0.900134  1
  Dy  Dy3  1  0.377725  0.841027  0.879465  1
  Dy  Dy4  1  0.877090  0.659272  0.620577  1
  Dy  Dy5  1  0.622610  0.158969  0.379271  1
  Dy  Dy6  1  0.122610  0.341081  0.120836  1
  Dy  Dy7  1  0.622632  0.158938  0.120651  1
  Dy  Dy8  1  0.122640  0.341056  0.379191  1
  Dy  Dy9  1  0.377598  0.841117  0.620559  1
  Dy  Dy10  1  0.877118  0.659295  0.879467  1
  Dy  Dy11  1  0.535055  0.323329  0.899981  1
  Dy  Dy12  1  0.034699  0.176264  0.600042  1
  Dy  Dy13  1  0.465124  0.676494  0.399825  1
  Dy  Dy14  1  0.965108  0.823446  0.100081  1
  Dy  Dy15  1  0.465075  0.676507  0.100116  1
  Dy  Dy16  1  0.208965  0.503891  0.750032  1
  Tm  Tm17  1  0.709208  0.995818  0.749994  1
  Tm  Tm18  1  0.790730  0.495919  0.249966  1
  Tm  Tm19  1  0.290917  0.003951  0.249942  1
  Pb  Pb20  1  0.281128  0.032831  0.043377  1
  Pb  Pb21  1  0.781089  0.467058  0.456630  1
  Pb  Pb22  1  0.718896  0.967035  0.543200  1
  Pb  Pb23  1  0.219193  0.533347  0.957391  1
  Pb  Pb24  1  0.718649  0.966740  0.957004  1
  Pb  Pb25  1  0.218682  0.533507  0.542558  1
  Pb  Pb26  1  0.281341  0.033373  0.456856  1
  Pb  Pb27  1  0.781027  0.467051  0.043204  1
  Pb  Pb28  1  0.573299  0.626627  0.749982  1
  Pb  Pb29  1  0.072224  0.874441  0.750018  1
  Pb  Pb30  1  0.427700  0.373846  0.249965  1
  Pb  Pb31  1  0.927686  0.126182  0.250002  1
  Pb  Pb32  1  0.346873  0.152202  0.750112  1
  Pb  Pb33  1  0.846181  0.346421  0.749884  1
  Pb  Pb34  1  0.653123  0.846477  0.249939  1
  Pb  Pb35  1  0.153284  0.653613  0.249841  1
