# generated using pymatgen
data_Dy3Tm(Lu2Co)4
_symmetry_space_group_name_H-M   'P 1'
_cell_length_a   6.13920231
_cell_length_b   6.88399930
_cell_length_c   9.17988200
_cell_angle_alpha   90.00000000
_cell_angle_beta   90.00000000
_cell_angle_gamma   89.93347784
_symmetry_Int_Tables_number   1
_chemical_formula_structural   Dy3Tm(Lu2Co)4
_chemical_formula_sum   'Dy3 Tm1 Lu8 Co4'
_cell_volume   387.96233844
_cell_formula_units_Z   1
loop_
 _symmetry_equiv_pos_site_id
 _symmetry_equiv_pos_as_xyz
  1  'x, y, z'
loop_
 _atom_site_type_symbol
 _atom_site_label
 _atom_site_symmetry_multiplicity
 _atom_site_fract_x
 _atom_site_fract_y
 _atom_site_fract_z
 _atom_site_occupancy
  Dy  Dy0  1  0.635019  0.041650  0.250000  1
  Dy  Dy1  1  0.133743  0.459128  0.750000  1
  Dy  Dy2  1  0.366906  0.958505  0.750000  1
  Tm  Tm3  1  0.865437  0.540857  0.250000  1
  Lu  Lu4  1  0.324608  0.674443  0.067313  1
  Lu  Lu5  1  0.174534  0.175185  0.433388  1
  Lu  Lu6  1  0.674824  0.325975  0.566015  1
  Lu  Lu7  1  0.825502  0.824611  0.933866  1
  Lu  Lu8  1  0.674824  0.325975  0.933985  1
  Lu  Lu9  1  0.825502  0.824611  0.566134  1
  Lu  Lu10  1  0.324608  0.674443  0.432687  1
  Lu  Lu11  1  0.174534  0.175185  0.066612  1
  Co  Co12  1  0.047679  0.886196  0.250000  1
  Co  Co13  1  0.452367  0.387583  0.250000  1
  Co  Co14  1  0.951096  0.112711  0.750000  1
  Co  Co15  1  0.548819  0.612943  0.750000  1
