# generated using pymatgen
data_Ta14Si5As3
_symmetry_space_group_name_H-M   'P 1'
_cell_length_a   3.48682400
_cell_length_b   7.89946100
_cell_length_c   14.09368183
_cell_angle_alpha   103.76391289
_cell_angle_beta   90.00000000
_cell_angle_gamma   102.75016523
_symmetry_Int_Tables_number   1
_chemical_formula_structural   Ta14Si5As3
_chemical_formula_sum   'Ta14 Si5 As3'
_cell_volume   367.18669806
_cell_formula_units_Z   1
loop_
 _symmetry_equiv_pos_site_id
 _symmetry_equiv_pos_as_xyz
  1  'x, y, z'
loop_
 _atom_site_type_symbol
 _atom_site_label
 _atom_site_symmetry_multiplicity
 _atom_site_fract_x
 _atom_site_fract_y
 _atom_site_fract_z
 _atom_site_occupancy
  Ta  Ta0  1  0.000361  0.000721  0.000505  1
  Ta  Ta1  1  0.498651  0.997300  0.498960  1
  Ta  Ta2  1  0.425905  0.851811  0.825351  1
  Ta  Ta3  1  0.574377  0.148753  0.173972  1
  Ta  Ta4  1  0.197990  0.395981  0.309455  1
  Ta  Ta5  1  0.803438  0.606876  0.690847  1
  Ta  Ta6  1  0.212694  0.425389  0.800867  1
  Ta  Ta7  1  0.789102  0.578205  0.202280  1
  Ta  Ta8  1  0.330962  0.661925  0.028491  1
  Ta  Ta9  1  0.670433  0.340869  0.971377  1
  Ta  Ta10  1  0.996409  0.992817  0.661827  1
  Ta  Ta11  1  0.999335  0.998669  0.339197  1
  Ta  Ta12  1  0.181259  0.362517  0.543504  1
  Ta  Ta13  1  0.820179  0.640359  0.453194  1
  Si  Si14  1  0.175579  0.351158  0.109718  1
  Si  Si15  1  0.826486  0.652973  0.891259  1
  Si  Si16  1  0.369902  0.739804  0.596404  1
  Si  Si17  1  0.627784  0.255568  0.400715  1
  Si  Si18  1  0.371906  0.743810  0.334170  1
  As  As19  1  0.626859  0.253719  0.666514  1
  As  As20  1  0.063183  0.126368  0.848402  1
  As  As21  1  0.937204  0.874407  0.152995  1
