# generated using pymatgen
data_Li3Br5O12
_symmetry_space_group_name_H-M   'P 1'
_cell_length_a   5.38059210
_cell_length_b   5.41314907
_cell_length_c   12.39778011
_cell_angle_alpha   85.91635906
_cell_angle_beta   92.45134495
_cell_angle_gamma   114.99018592
_symmetry_Int_Tables_number   1
_chemical_formula_structural   Li3Br5O12
_chemical_formula_sum   'Li3 Br5 O12'
_cell_volume   326.42815402
_cell_formula_units_Z   1
loop_
 _symmetry_equiv_pos_site_id
 _symmetry_equiv_pos_as_xyz
  1  'x, y, z'
loop_
 _atom_site_type_symbol
 _atom_site_label
 _atom_site_symmetry_multiplicity
 _atom_site_fract_x
 _atom_site_fract_y
 _atom_site_fract_z
 _atom_site_occupancy
  Li  Li0  1  0.700617  0.249312  0.603813  1
  Li  Li1  1  0.825055  0.573254  0.004178  1
  Li  Li2  1  0.970941  0.867026  0.758379  1
  Br  Br3  1  0.978382  0.072770  0.164637  1
  Br  Br4  1  0.461075  0.974934  0.946892  1
  Br  Br5  1  0.066565  0.738661  0.496865  1
  Br  Br6  1  0.609874  0.374465  0.335743  1
  Br  Br7  1  0.320537  0.515986  0.733156  1
  O  O8  1  0.664691  0.195676  0.441709  1
  O  O9  1  0.295390  0.095643  0.150150  1
  O  O10  1  0.941247  0.290250  0.068103  1
  O  O11  1  0.529024  0.301018  0.908759  1
  O  O12  1  0.611852  0.536979  0.678189  1
  O  O13  1  0.062513  0.242101  0.678754  1
  O  O14  1  0.335124  0.423011  0.355980  1
  O  O15  1  0.904992  0.729205  0.359874  1
  O  O16  1  0.133483  0.797896  0.899778  1
  O  O17  1  0.761610  0.759350  0.124956  1
  O  O18  1  0.651056  0.887423  0.865349  1
  O  O19  1  0.278496  0.792189  0.670217  1
