# generated using pymatgen
data_Dy3Mn2(Al6Pt)2
_symmetry_space_group_name_H-M   'P 1'
_cell_length_a   8.81936217
_cell_length_b   8.81936205
_cell_length_c   9.46271408
_cell_angle_alpha   89.70816431
_cell_angle_beta   90.29183173
_cell_angle_gamma   119.98992378
_symmetry_Int_Tables_number   1
_chemical_formula_structural   Dy3Mn2(Al6Pt)2
_chemical_formula_sum   'Dy6 Mn4 Al24 Pt4'
_cell_volume   637.46636266
_cell_formula_units_Z   2
loop_
 _symmetry_equiv_pos_site_id
 _symmetry_equiv_pos_as_xyz
  1  'x, y, z'
loop_
 _atom_site_type_symbol
 _atom_site_label
 _atom_site_symmetry_multiplicity
 _atom_site_fract_x
 _atom_site_fract_y
 _atom_site_fract_z
 _atom_site_occupancy
  Dy  Dy0  1  0.192743  0.807257  0.246944  1
  Dy  Dy1  1  0.189998  0.383834  0.247219  1
  Dy  Dy2  1  0.616166  0.810002  0.247219  1
  Dy  Dy3  1  0.807257  0.192743  0.753056  1
  Dy  Dy4  1  0.810002  0.616166  0.752781  1
  Dy  Dy5  1  0.383834  0.189998  0.752781  1
  Mn  Mn6  1  0.000000  0.000000  0.500000  1
  Mn  Mn7  1  0.000000  0.000000  0.000000  1
  Mn  Mn8  1  0.500000  0.000000  0.000000  1
  Mn  Mn9  1  0.000000  0.500000  0.000000  1
  Al  Al10  1  0.564266  0.435734  0.251646  1
  Al  Al11  1  0.562175  0.124806  0.244744  1
  Al  Al12  1  0.875194  0.437825  0.244744  1
  Al  Al13  1  0.435734  0.564266  0.748354  1
  Al  Al14  1  0.437825  0.875194  0.755256  1
  Al  Al15  1  0.124806  0.562175  0.755256  1
  Al  Al16  1  0.316065  0.158367  0.422413  1
  Al  Al17  1  0.841422  0.158578  0.423298  1
  Al  Al18  1  0.841633  0.683935  0.422413  1
  Al  Al19  1  0.683935  0.841633  0.577587  1
  Al  Al20  1  0.158578  0.841422  0.576702  1
  Al  Al21  1  0.158367  0.316065  0.577587  1
  Al  Al22  1  0.678371  0.843719  0.922790  1
  Al  Al23  1  0.160637  0.839363  0.922025  1
  Al  Al24  1  0.156281  0.321629  0.922790  1
  Al  Al25  1  0.321629  0.156281  0.077210  1
  Al  Al26  1  0.839363  0.160637  0.077975  1
  Al  Al27  1  0.843719  0.678371  0.077210  1
  Al  Al28  1  0.666704  0.333296  0.526550  1
  Al  Al29  1  0.333296  0.666704  0.473450  1
  Al  Al30  1  0.330675  0.669325  0.023006  1
  Al  Al31  1  0.669325  0.330675  0.976994  1
  Al  Al32  1  0.000220  0.999780  0.250174  1
  Al  Al33  1  0.999780  0.000220  0.749826  1
  Pt  Pt34  1  0.500000  0.500000  0.500000  1
  Pt  Pt35  1  0.500000  0.000000  0.500000  1
  Pt  Pt36  1  0.000000  0.500000  0.500000  1
  Pt  Pt37  1  0.500000  0.500000  0.000000  1
