# generated using pymatgen
data_Ta2Ti2GaC2O
_symmetry_space_group_name_H-M   'P 1'
_cell_length_a   3.08267000
_cell_length_b   3.08266991
_cell_length_c   23.92790600
_cell_angle_alpha   90.00000000
_cell_angle_beta   90.00000000
_cell_angle_gamma   119.99997955
_symmetry_Int_Tables_number   1
_chemical_formula_structural   Ta2Ti2GaC2O
_chemical_formula_sum   'Ta4 Ti4 Ga2 C4 O2'
_cell_volume   196.91983979
_cell_formula_units_Z   2
loop_
 _symmetry_equiv_pos_site_id
 _symmetry_equiv_pos_as_xyz
  1  'x, y, z'
loop_
 _atom_site_type_symbol
 _atom_site_label
 _atom_site_symmetry_multiplicity
 _atom_site_fract_x
 _atom_site_fract_y
 _atom_site_fract_z
 _atom_site_occupancy
  Ta  Ta0  1  0.000000  0.000000  0.343006  1
  Ta  Ta1  1  0.000000  0.000000  0.656994  1
  Ta  Ta2  1  0.000000  0.000000  0.843006  1
  Ta  Ta3  1  0.000000  0.000000  0.156994  1
  Ti  Ti4  1  0.333333  0.666667  0.442351  1
  Ti  Ti5  1  0.666667  0.333333  0.557649  1
  Ti  Ti6  1  0.666667  0.333333  0.942351  1
  Ti  Ti7  1  0.333333  0.666667  0.057649  1
  Ga  Ga8  1  0.333333  0.666667  0.250000  1
  Ga  Ga9  1  0.666667  0.333333  0.750000  1
  C  C10  1  0.666667  0.333333  0.394878  1
  C  C11  1  0.333333  0.666667  0.605122  1
  C  C12  1  0.333333  0.666667  0.894878  1
  C  C13  1  0.666667  0.333333  0.105122  1
  O  O14  1  0.000000  0.000000  0.500000  1
  O  O15  1  0.000000  0.000000  0.000000  1
