# generated using pymatgen
data_AlBr7
_symmetry_space_group_name_H-M   'P 1'
_cell_length_a   13.25008500
_cell_length_b   7.25561107
_cell_length_c   8.36793816
_cell_angle_alpha   89.40100136
_cell_angle_beta   90.00000000
_cell_angle_gamma   90.00000000
_symmetry_Int_Tables_number   1
_chemical_formula_structural   AlBr7
_chemical_formula_sum   'Al2 Br14'
_cell_volume   804.42838680
_cell_formula_units_Z   2
loop_
 _symmetry_equiv_pos_site_id
 _symmetry_equiv_pos_as_xyz
  1  'x, y, z'
loop_
 _atom_site_type_symbol
 _atom_site_label
 _atom_site_symmetry_multiplicity
 _atom_site_fract_x
 _atom_site_fract_y
 _atom_site_fract_z
 _atom_site_occupancy
  Al  Al0  1  0.106437  0.605335  0.422885  1
  Al  Al1  1  0.606437  0.394665  0.577115  1
  Br  Br2  1  0.770956  0.994219  0.986809  1
  Br  Br3  1  0.270956  0.005781  0.013191  1
  Br  Br4  1  0.739419  0.572000  0.651361  1
  Br  Br5  1  0.239419  0.428000  0.348639  1
  Br  Br6  1  0.175505  0.779635  0.846555  1
  Br  Br7  1  0.675505  0.220365  0.153445  1
  Br  Br8  1  0.363256  0.236760  0.847424  1
  Br  Br9  1  0.863256  0.763240  0.152576  1
  Br  Br10  1  0.065957  0.531781  0.698148  1
  Br  Br11  1  0.565957  0.468219  0.301852  1
  Br  Br12  1  0.119815  0.915441  0.390480  1
  Br  Br13  1  0.619815  0.084559  0.609520  1
  Br  Br14  1  0.459658  0.515278  0.708470  1
  Br  Br15  1  0.959658  0.484722  0.291530  1
