# generated using pymatgen
data_SmMnAl10Rh
_symmetry_space_group_name_H-M   'P 1'
_cell_length_a   6.85202304
_cell_length_b   6.85202401
_cell_length_c   9.13962363
_cell_angle_alpha   90.39915479
_cell_angle_beta   90.39915560
_cell_angle_gamma   96.91958813
_symmetry_Int_Tables_number   1
_chemical_formula_structural   SmMnAl10Rh
_chemical_formula_sum   'Sm2 Mn2 Al20 Rh2'
_cell_volume   425.95836507
_cell_formula_units_Z   2
loop_
 _symmetry_equiv_pos_site_id
 _symmetry_equiv_pos_as_xyz
  1  'x, y, z'
loop_
 _atom_site_type_symbol
 _atom_site_label
 _atom_site_symmetry_multiplicity
 _atom_site_fract_x
 _atom_site_fract_y
 _atom_site_fract_z
 _atom_site_occupancy
  Sm  Sm0  1  0.875379  0.124621  0.750000  1
  Sm  Sm1  1  0.124621  0.875379  0.250000  1
  Mn  Mn2  1  0.000000  0.500000  0.000000  1
  Mn  Mn3  1  0.500000  0.000000  0.500000  1
  Al  Al4  1  0.619286  0.372964  0.549341  1
  Al  Al5  1  0.380714  0.627036  0.450659  1
  Al  Al6  1  0.372964  0.619286  0.049341  1
  Al  Al7  1  0.627036  0.380714  0.950659  1
  Al  Al8  1  0.230547  0.223187  0.496875  1
  Al  Al9  1  0.769453  0.776813  0.503125  1
  Al  Al10  1  0.776813  0.769453  0.003125  1
  Al  Al11  1  0.223187  0.230547  0.996875  1
  Al  Al12  1  0.845864  0.163913  0.099870  1
  Al  Al13  1  0.154136  0.836087  0.900130  1
  Al  Al14  1  0.163913  0.845864  0.599870  1
  Al  Al15  1  0.836087  0.154136  0.400130  1
  Al  Al16  1  0.862458  0.588833  0.753520  1
  Al  Al17  1  0.137542  0.411167  0.246480  1
  Al  Al18  1  0.411167  0.137542  0.746480  1
  Al  Al19  1  0.588833  0.862458  0.253520  1
  Al  Al20  1  0.222119  0.479739  0.755716  1
  Al  Al21  1  0.777881  0.520261  0.244284  1
  Al  Al22  1  0.520261  0.777881  0.744284  1
  Al  Al23  1  0.479739  0.222119  0.255716  1
  Rh  Rh24  1  0.000000  0.500000  0.500000  1
  Rh  Rh25  1  0.500000  0.000000  0.000000  1
