# generated using pymatgen
data_Cs2NaYBi2
_symmetry_space_group_name_H-M   'P 1'
_cell_length_a   10.53343755
_cell_length_b   10.53343785
_cell_length_c   10.53343849
_cell_angle_alpha   136.65865552
_cell_angle_beta   62.99130900
_cell_angle_gamma   136.62279564
_symmetry_Int_Tables_number   1
_chemical_formula_structural   Cs2NaYBi2
_chemical_formula_sum   'Cs4 Na2 Y2 Bi4'
_cell_volume   543.98752389
_cell_formula_units_Z   2
loop_
 _symmetry_equiv_pos_site_id
 _symmetry_equiv_pos_as_xyz
  1  'x, y, z'
loop_
 _atom_site_type_symbol
 _atom_site_label
 _atom_site_symmetry_multiplicity
 _atom_site_fract_x
 _atom_site_fract_y
 _atom_site_fract_z
 _atom_site_occupancy
  Cs  Cs0  1  0.324186  0.776704  0.100891  1
  Cs  Cs1  1  0.175815  0.276704  0.452520  1
  Cs  Cs2  1  0.824185  0.723296  0.547480  1
  Cs  Cs3  1  0.675815  0.223296  0.899110  1
  Na  Na4  1  0.749999  0.249999  0.500000  1
  Na  Na5  1  0.249999  0.749999  0.500000  1
  Y  Y6  1  0.249999  0.249999  0.000000  1
  Y  Y7  1  0.750000  0.750000  0.000000  1
  Bi  Bi8  1  0.905444  0.226461  0.131905  1
  Bi  Bi9  1  0.594556  0.726461  0.321017  1
  Bi  Bi10  1  0.405444  0.273539  0.678983  1
  Bi  Bi11  1  0.094556  0.773539  0.868094  1
