# generated using pymatgen
data_Ta6ReSi6TcMo4
_symmetry_space_group_name_H-M   'P 1'
_cell_length_a   7.66501783
_cell_length_b   7.66753447
_cell_length_c   7.66330593
_cell_angle_alpha   126.51596803
_cell_angle_beta   128.36994004
_cell_angle_gamma   77.52180997
_symmetry_Int_Tables_number   1
_chemical_formula_structural   Ta6ReSi6TcMo4
_chemical_formula_sum   'Ta6 Re1 Si6 Tc1 Mo4'
_cell_volume   275.26555545
_cell_formula_units_Z   1
loop_
 _symmetry_equiv_pos_site_id
 _symmetry_equiv_pos_as_xyz
  1  'x, y, z'
loop_
 _atom_site_type_symbol
 _atom_site_label
 _atom_site_symmetry_multiplicity
 _atom_site_fract_x
 _atom_site_fract_y
 _atom_site_fract_z
 _atom_site_occupancy
  Ta  Ta0  1  0.548997  0.093683  0.047751  1
  Ta  Ta1  1  0.450903  0.501193  0.548730  1
  Ta  Ta2  1  0.952488  0.501051  0.050182  1
  Ta  Ta3  1  0.045891  0.093709  0.544789  1
  Ta  Ta4  1  0.752886  0.896323  0.646713  1
  Ta  Ta5  1  0.249518  0.896184  0.143390  1
  Re  Re6  1  0.371539  0.496788  0.125285  1
  Si  Si7  1  0.748884  0.492817  0.243091  1
  Si  Si8  1  0.249676  0.492822  0.743955  1
  Si  Si9  1  0.335511  0.833301  0.497776  1
  Si  Si10  1  0.664875  0.165448  0.500417  1
  Si  Si11  1  0.833989  0.831374  0.997417  1
  Si  Si12  1  0.167881  0.166276  0.998582  1
  Tc  Tc13  1  0.499157  0.238663  0.739430  1
  Mo  Mo14  1  0.000584  0.237584  0.237035  1
  Mo  Mo15  1  0.129199  0.755284  0.626093  1
  Mo  Mo16  1  0.870290  0.496735  0.626350  1
  Mo  Mo17  1  0.627733  0.752962  0.125209  1
