# generated using pymatgen
data_Pr16Cd3HgRu3Pt
_symmetry_space_group_name_H-M   'P 1'
_cell_length_a   10.00710522
_cell_length_b   10.02773537
_cell_length_c   10.02773408
_cell_angle_alpha   59.99642369
_cell_angle_beta   59.91710687
_cell_angle_gamma   59.91710517
_symmetry_Int_Tables_number   1
_chemical_formula_structural   Pr16Cd3HgRu3Pt
_chemical_formula_sum   'Pr16 Cd3 Hg1 Ru3 Pt1'
_cell_volume   710.62772624
_cell_formula_units_Z   1
loop_
 _symmetry_equiv_pos_site_id
 _symmetry_equiv_pos_as_xyz
  1  'x, y, z'
loop_
 _atom_site_type_symbol
 _atom_site_label
 _atom_site_symmetry_multiplicity
 _atom_site_fract_x
 _atom_site_fract_y
 _atom_site_fract_z
 _atom_site_occupancy
  Pr  Pr0  1  0.343100  0.349936  0.349936  1
  Pr  Pr1  1  0.343932  0.350501  0.954326  1
  Pr  Pr2  1  0.343932  0.954326  0.350501  1
  Pr  Pr3  1  0.959861  0.345792  0.345792  1
  Pr  Pr4  1  0.813896  0.191047  0.191047  1
  Pr  Pr5  1  0.190183  0.809563  0.809563  1
  Pr  Pr6  1  0.191319  0.808967  0.189918  1
  Pr  Pr7  1  0.814059  0.191883  0.802652  1
  Pr  Pr8  1  0.191319  0.189918  0.808967  1
  Pr  Pr9  1  0.814059  0.802652  0.191883  1
  Pr  Pr10  1  0.937323  0.562015  0.562015  1
  Pr  Pr11  1  0.558765  0.939509  0.939509  1
  Pr  Pr12  1  0.558892  0.938028  0.564160  1
  Pr  Pr13  1  0.937817  0.561286  0.940283  1
  Pr  Pr14  1  0.558892  0.564160  0.938028  1
  Pr  Pr15  1  0.937817  0.940283  0.561286  1
  Cd  Cd16  1  0.579266  0.579088  0.261010  1
  Cd  Cd17  1  0.579266  0.261010  0.579088  1
  Cd  Cd18  1  0.260310  0.579376  0.579376  1
  Hg  Hg19  1  0.583003  0.581984  0.581984  1
  Ru  Ru20  1  0.142239  0.137156  0.137156  1
  Ru  Ru21  1  0.142644  0.138902  0.581106  1
  Ru  Ru22  1  0.142644  0.581106  0.138902  1
  Pt  Pt23  1  0.575460  0.141512  0.141512  1
