# generated using pymatgen
data_Ga3Ni(AuO2)4
_symmetry_space_group_name_H-M   'P 1'
_cell_length_a   5.27896452
_cell_length_b   6.13115261
_cell_length_c   7.10782953
_cell_angle_alpha   64.44370342
_cell_angle_beta   75.61750470
_cell_angle_gamma   89.99008555
_symmetry_Int_Tables_number   1
_chemical_formula_structural   Ga3Ni(AuO2)4
_chemical_formula_sum   'Ga3 Ni1 Au4 O8'
_cell_volume   199.52816359
_cell_formula_units_Z   1
loop_
 _symmetry_equiv_pos_site_id
 _symmetry_equiv_pos_as_xyz
  1  'x, y, z'
loop_
 _atom_site_type_symbol
 _atom_site_label
 _atom_site_symmetry_multiplicity
 _atom_site_fract_x
 _atom_site_fract_y
 _atom_site_fract_z
 _atom_site_occupancy
  Ga  Ga0  1  0.999946  0.502422  0.000004  1
  Ga  Ga1  1  0.500004  0.249939  0.000001  1
  Ga  Ga2  1  0.000056  0.997729  0.999994  1
  Ni  Ni3  1  0.499998  0.749913  0.999999  1
  Au  Au4  1  0.002254  0.999743  0.500607  1
  Au  Au5  1  0.997746  0.500358  0.499395  1
  Au  Au6  1  0.499998  0.749945  0.499996  1
  Au  Au7  1  0.500001  0.249944  0.500004  1
  O  O8  1  0.897846  0.832611  0.834856  1
  O  O9  1  0.887905  0.332019  0.835985  1
  O  O10  1  0.383165  0.574264  0.836174  1
  O  O11  1  0.383187  0.089438  0.836207  1
  O  O12  1  0.112093  0.168090  0.164013  1
  O  O13  1  0.102153  0.667506  0.165144  1
  O  O14  1  0.616824  0.925631  0.163816  1
  O  O15  1  0.616825  0.410449  0.163803  1
