# generated using pymatgen
data_DyHoMn9Fe3P7
_symmetry_space_group_name_H-M   'P 1'
_cell_length_a   9.26254300
_cell_length_b   9.26254451
_cell_length_c   3.56289900
_cell_angle_alpha   90.00000000
_cell_angle_beta   90.00000000
_cell_angle_gamma   119.99999817
_symmetry_Int_Tables_number   1
_chemical_formula_structural   DyHoMn9Fe3P7
_chemical_formula_sum   'Dy1 Ho1 Mn9 Fe3 P7'
_cell_volume   264.72484105
_cell_formula_units_Z   1
loop_
 _symmetry_equiv_pos_site_id
 _symmetry_equiv_pos_as_xyz
  1  'x, y, z'
loop_
 _atom_site_type_symbol
 _atom_site_label
 _atom_site_symmetry_multiplicity
 _atom_site_fract_x
 _atom_site_fract_y
 _atom_site_fract_z
 _atom_site_occupancy
  Dy  Dy0  1  0.333333  0.666667  0.000000  1
  Ho  Ho1  1  0.000000  0.000000  0.500000  1
  Mn  Mn2  1  0.716648  0.761103  0.000000  1
  Mn  Mn3  1  0.238897  0.955545  0.000000  1
  Mn  Mn4  1  0.044455  0.283352  0.000000  1
  Mn  Mn5  1  0.103748  0.725703  0.500000  1
  Mn  Mn6  1  0.274297  0.378044  0.500000  1
  Mn  Mn7  1  0.621956  0.896252  0.500000  1
  Mn  Mn8  1  0.770712  0.564002  0.500000  1
  Mn  Mn9  1  0.435998  0.206712  0.500000  1
  Mn  Mn10  1  0.793288  0.229288  0.500000  1
  Fe  Fe11  1  0.939802  0.489007  0.000000  1
  Fe  Fe12  1  0.510993  0.450794  0.000000  1
  Fe  Fe13  1  0.549206  0.060198  0.000000  1
  P  P14  1  0.955702  0.741651  0.000000  1
  P  P15  1  0.258349  0.214050  0.000000  1
  P  P16  1  0.785950  0.044298  0.000000  1
  P  P17  1  0.071677  0.459520  0.500000  1
  P  P18  1  0.540480  0.612156  0.500000  1
  P  P19  1  0.387844  0.928323  0.500000  1
  P  P20  1  0.666667  0.333333  0.000000  1
