# generated using pymatgen
data_Dy8CdCo2Hg
_symmetry_space_group_name_H-M   'P 1'
_cell_length_a   9.49428784
_cell_length_b   9.49092649
_cell_length_c   9.49428872
_cell_angle_alpha   60.01170938
_cell_angle_beta   60.06891737
_cell_angle_gamma   60.01170553
_symmetry_Int_Tables_number   1
_chemical_formula_structural   Dy8CdCo2Hg
_chemical_formula_sum   'Dy16 Cd2 Co4 Hg2'
_cell_volume   605.37019980
_cell_formula_units_Z   2
loop_
 _symmetry_equiv_pos_site_id
 _symmetry_equiv_pos_as_xyz
  1  'x, y, z'
loop_
 _atom_site_type_symbol
 _atom_site_label
 _atom_site_symmetry_multiplicity
 _atom_site_fract_x
 _atom_site_fract_y
 _atom_site_fract_z
 _atom_site_occupancy
  Dy  Dy0  1  0.153395  0.538433  0.153395  1
  Dy  Dy1  1  0.689292  0.310708  0.689292  1
  Dy  Dy2  1  0.689397  0.310231  0.312619  1
  Dy  Dy3  1  0.938517  0.561043  0.562168  1
  Dy  Dy4  1  0.541508  0.153362  0.151767  1
  Dy  Dy5  1  0.151767  0.153362  0.541508  1
  Dy  Dy6  1  0.938517  0.938271  0.562168  1
  Dy  Dy7  1  0.311916  0.688084  0.311916  1
  Dy  Dy8  1  0.562168  0.938271  0.938517  1
  Dy  Dy9  1  0.561579  0.938421  0.561579  1
  Dy  Dy10  1  0.689397  0.687753  0.312619  1
  Dy  Dy11  1  0.562168  0.561043  0.938517  1
  Dy  Dy12  1  0.938587  0.561413  0.938587  1
  Dy  Dy13  1  0.312619  0.687753  0.689397  1
  Dy  Dy14  1  0.153395  0.154776  0.153395  1
  Dy  Dy15  1  0.312619  0.310231  0.689397  1
  Cd  Cd16  1  0.919695  0.919125  0.242056  1
  Cd  Cd17  1  0.242056  0.919125  0.919695  1
  Co  Co18  1  0.358305  0.359762  0.922173  1
  Co  Co19  1  0.358585  0.922873  0.358585  1
  Co  Co20  1  0.922173  0.359762  0.358305  1
  Co  Co21  1  0.358585  0.359958  0.358585  1
  Hg  Hg22  1  0.916879  0.251027  0.916879  1
  Hg  Hg23  1  0.916879  0.915214  0.916879  1
