# generated using pymatgen
data_Ce2ScPaSb5
_symmetry_space_group_name_H-M   'P 1'
_cell_length_a   9.35114800
_cell_length_b   9.34409485
_cell_length_c   6.37729600
_cell_angle_alpha   90.00000000
_cell_angle_beta   90.00000000
_cell_angle_gamma   120.02496545
_symmetry_Int_Tables_number   1
_chemical_formula_structural   Ce2ScPaSb5
_chemical_formula_sum   'Ce4 Sc2 Pa2 Sb10'
_cell_volume   482.45861512
_cell_formula_units_Z   2
loop_
 _symmetry_equiv_pos_site_id
 _symmetry_equiv_pos_as_xyz
  1  'x, y, z'
loop_
 _atom_site_type_symbol
 _atom_site_label
 _atom_site_symmetry_multiplicity
 _atom_site_fract_x
 _atom_site_fract_y
 _atom_site_fract_z
 _atom_site_occupancy
  Ce  Ce0  1  0.996051  0.612948  0.250000  1
  Ce  Ce1  1  0.003949  0.387052  0.750000  1
  Ce  Ce2  1  0.383104  0.387052  0.250000  1
  Ce  Ce3  1  0.616896  0.612948  0.750000  1
  Sc  Sc4  1  0.000000  0.000000  0.000000  1
  Sc  Sc5  1  0.000000  0.000000  0.500000  1
  Pa  Pa6  1  0.611719  0.000000  0.250000  1
  Pa  Pa7  1  0.388281  0.000000  0.750000  1
  Sb  Sb8  1  0.268247  0.000000  0.250000  1
  Sb  Sb9  1  0.731753  0.000000  0.750000  1
  Sb  Sb10  1  0.995670  0.262272  0.250000  1
  Sb  Sb11  1  0.004330  0.737728  0.750000  1
  Sb  Sb12  1  0.733398  0.737728  0.250000  1
  Sb  Sb13  1  0.266602  0.262272  0.750000  1
  Sb  Sb14  1  0.337028  0.674055  0.000000  1
  Sb  Sb15  1  0.662972  0.325945  0.000000  1
  Sb  Sb16  1  0.662972  0.325945  0.500000  1
  Sb  Sb17  1  0.337028  0.674055  0.500000  1
