# generated using pymatgen
data_Er20Ir11Os
_symmetry_space_group_name_H-M   'P 1'
_cell_length_a   10.77402400
_cell_length_b   10.77402400
_cell_length_c   6.35535900
_cell_angle_alpha   90.00000000
_cell_angle_beta   90.00000000
_cell_angle_gamma   90.00000000
_symmetry_Int_Tables_number   1
_chemical_formula_structural   Er20Ir11Os
_chemical_formula_sum   'Er20 Ir11 Os1'
_cell_volume   737.72748706
_cell_formula_units_Z   1
loop_
 _symmetry_equiv_pos_site_id
 _symmetry_equiv_pos_as_xyz
  1  'x, y, z'
loop_
 _atom_site_type_symbol
 _atom_site_label
 _atom_site_symmetry_multiplicity
 _atom_site_fract_x
 _atom_site_fract_y
 _atom_site_fract_z
 _atom_site_occupancy
  Er  Er0  1  0.292489  0.086874  0.375780  1
  Er  Er1  1  0.292893  0.913067  0.879300  1
  Er  Er2  1  0.707107  0.086933  0.879300  1
  Er  Er3  1  0.707511  0.913126  0.375780  1
  Er  Er4  1  0.586933  0.792893  0.879300  1
  Er  Er5  1  0.586874  0.207511  0.375780  1
  Er  Er6  1  0.413126  0.792489  0.375780  1
  Er  Er7  1  0.413067  0.207107  0.879300  1
  Er  Er8  1  0.209094  0.411964  0.622445  1
  Er  Er9  1  0.209055  0.587867  0.122062  1
  Er  Er10  1  0.790945  0.412133  0.122062  1
  Er  Er11  1  0.790906  0.588036  0.622445  1
  Er  Er12  1  0.912133  0.709055  0.122062  1
  Er  Er13  1  0.911964  0.290906  0.622445  1
  Er  Er14  1  0.088036  0.709094  0.622445  1
  Er  Er15  1  0.087867  0.290945  0.122062  1
  Er  Er16  1  0.000000  0.000000  0.499358  1
  Er  Er17  1  0.000000  0.000000  0.999356  1
  Er  Er18  1  0.500000  0.500000  0.999356  1
  Er  Er19  1  0.500000  0.500000  0.499358  1
  Ir  Ir20  1  0.847300  0.153785  0.250171  1
  Ir  Ir21  1  0.847298  0.846559  0.749818  1
  Ir  Ir22  1  0.152702  0.153441  0.749818  1
  Ir  Ir23  1  0.152700  0.846215  0.250171  1
  Ir  Ir24  1  0.653441  0.347298  0.749818  1
  Ir  Ir25  1  0.653785  0.652700  0.250171  1
  Ir  Ir26  1  0.346215  0.347300  0.250171  1
  Ir  Ir27  1  0.346559  0.652702  0.749818  1
  Ir  Ir28  1  0.500000  0.000000  0.623027  1
  Ir  Ir29  1  0.000000  0.500000  0.878450  1
  Ir  Ir30  1  0.000000  0.500000  0.378577  1
  Os  Os31  1  0.500000  0.000000  0.124215  1
