# generated using pymatgen
data_Sr2CaHo(Al3Pd)6
_symmetry_space_group_name_H-M   'P 1'
_cell_length_a   7.70995805
_cell_length_b   7.70619859
_cell_length_c   9.62702400
_cell_angle_alpha   90.00000000
_cell_angle_beta   90.00000000
_cell_angle_gamma   119.44410420
_symmetry_Int_Tables_number   1
_chemical_formula_structural   Sr2CaHo(Al3Pd)6
_chemical_formula_sum   'Sr2 Ca1 Ho1 Al18 Pd6'
_cell_volume   498.10451418
_cell_formula_units_Z   1
loop_
 _symmetry_equiv_pos_site_id
 _symmetry_equiv_pos_as_xyz
  1  'x, y, z'
loop_
 _atom_site_type_symbol
 _atom_site_label
 _atom_site_symmetry_multiplicity
 _atom_site_fract_x
 _atom_site_fract_y
 _atom_site_fract_z
 _atom_site_occupancy
  Sr  Sr0  1  0.993174  0.669184  0.250000  1
  Sr  Sr1  1  0.671669  0.995622  0.250000  1
  Ca  Ca2  1  0.003472  0.329639  0.750000  1
  Ho  Ho3  1  0.329893  0.002255  0.750000  1
  Al  Al4  1  0.137508  0.137699  0.250000  1
  Al  Al5  1  0.872958  0.870242  0.750000  1
  Al  Al6  1  0.006014  0.335239  0.067406  1
  Al  Al7  1  0.000356  0.664988  0.917041  1
  Al  Al8  1  0.000356  0.664988  0.582959  1
  Al  Al9  1  0.334796  0.004538  0.432447  1
  Al  Al10  1  0.006014  0.335239  0.432594  1
  Al  Al11  1  0.664724  0.000545  0.582966  1
  Al  Al12  1  0.664724  0.000545  0.917034  1
  Al  Al13  1  0.334796  0.004538  0.067553  1
  Al  Al14  1  0.331795  0.330450  0.564981  1
  Al  Al15  1  0.662750  0.662954  0.459596  1
  Al  Al16  1  0.662750  0.662954  0.040404  1
  Al  Al17  1  0.331795  0.330450  0.935019  1
  Al  Al18  1  0.339955  0.542865  0.250000  1
  Al  Al19  1  0.655047  0.450567  0.750000  1
  Al  Al20  1  0.540419  0.340279  0.250000  1
  Al  Al21  1  0.454638  0.664571  0.750000  1
  Pd  Pd22  1  0.670290  0.327604  0.996452  1
  Pd  Pd23  1  0.328100  0.671253  0.995873  1
  Pd  Pd24  1  0.328100  0.671253  0.504127  1
  Pd  Pd25  1  0.670290  0.327604  0.503548  1
  Pd  Pd26  1  0.001810  0.000966  0.995683  1
  Pd  Pd27  1  0.001810  0.000966  0.504317  1
