# generated using pymatgen
data_Ti6InSn5Rh12
_symmetry_space_group_name_H-M   'P 1'
_cell_length_a   4.14850800
_cell_length_b   7.29738100
_cell_length_c   12.43933500
_cell_angle_alpha   89.99978016
_cell_angle_beta   89.99977902
_cell_angle_gamma   90.00018844
_symmetry_Int_Tables_number   1
_chemical_formula_structural   Ti6InSn5Rh12
_chemical_formula_sum   'Ti6 In1 Sn5 Rh12'
_cell_volume   376.57901690
_cell_formula_units_Z   1
loop_
 _symmetry_equiv_pos_site_id
 _symmetry_equiv_pos_as_xyz
  1  'x, y, z'
loop_
 _atom_site_type_symbol
 _atom_site_label
 _atom_site_symmetry_multiplicity
 _atom_site_fract_x
 _atom_site_fract_y
 _atom_site_fract_z
 _atom_site_occupancy
  Ti  Ti0  1  0.999997  0.500035  0.997681  1
  Ti  Ti1  1  0.499999  0.999948  0.166488  1
  Ti  Ti2  1  0.999997  0.500070  0.333330  1
  Ti  Ti3  1  0.499998  0.999951  0.500180  1
  Ti  Ti4  1  0.999997  0.500036  0.668994  1
  Ti  Ti5  1  0.499997  0.999964  0.833333  1
  In  In6  1  0.499998  0.500199  0.833332  1
  Sn  Sn7  1  0.000016  0.999874  0.000271  1
  Sn  Sn8  1  0.499998  0.500086  0.165623  1
  Sn  Sn9  1  0.999999  0.999775  0.333330  1
  Sn  Sn10  1  0.499997  0.500088  0.501039  1
  Sn  Sn11  1  0.999996  0.999875  0.666402  1
  Rh  Rh12  1  0.499970  0.248071  0.000827  1
  Rh  Rh13  1  0.500033  0.752071  0.000839  1
  Rh  Rh14  1  0.000005  0.249830  0.167540  1
  Rh  Rh15  1  0.999985  0.750104  0.167508  1
  Rh  Rh16  1  0.499989  0.250936  0.333332  1
  Rh  Rh17  1  0.500018  0.749040  0.333329  1
  Rh  Rh18  1  0.000006  0.249844  0.499130  1
  Rh  Rh19  1  0.999986  0.750096  0.499156  1
  Rh  Rh20  1  0.499967  0.248068  0.665841  1
  Rh  Rh21  1  0.500034  0.752071  0.665827  1
  Rh  Rh22  1  0.000087  0.247163  0.833331  1
  Rh  Rh23  1  0.999929  0.752812  0.833332  1
