# generated using pymatgen
data_La4InOs
_symmetry_space_group_name_H-M   'P 1'
_cell_length_a   10.08113480
_cell_length_b   10.08259649
_cell_length_c   10.07887400
_cell_angle_alpha   59.96673452
_cell_angle_beta   59.96219428
_cell_angle_gamma   59.97783116
_symmetry_Int_Tables_number   1
_chemical_formula_structural   La4InOs
_chemical_formula_sum   'La16 In4 Os4'
_cell_volume   723.89005748
_cell_formula_units_Z   4
loop_
 _symmetry_equiv_pos_site_id
 _symmetry_equiv_pos_as_xyz
  1  'x, y, z'
loop_
 _atom_site_type_symbol
 _atom_site_label
 _atom_site_symmetry_multiplicity
 _atom_site_fract_x
 _atom_site_fract_y
 _atom_site_fract_z
 _atom_site_occupancy
  La  La0  1  0.442304  0.442595  0.056569  1
  La  La1  1  0.055559  0.445807  0.055660  1
  La  La2  1  0.446232  0.055062  0.055544  1
  La  La3  1  0.055791  0.055906  0.445436  1
  La  La4  1  0.443185  0.055625  0.442739  1
  La  La5  1  0.056197  0.442982  0.442901  1
  La  La6  1  0.807586  0.807000  0.192867  1
  La  La7  1  0.191298  0.808457  0.191263  1
  La  La8  1  0.808011  0.191680  0.191594  1
  La  La9  1  0.191765  0.191773  0.808001  1
  La  La10  1  0.807425  0.192784  0.807611  1
  La  La11  1  0.192683  0.807873  0.806982  1
  La  La12  1  0.653146  0.653486  0.039904  1
  La  La13  1  0.653250  0.039875  0.653502  1
  La  La14  1  0.039889  0.653285  0.653421  1
  La  La15  1  0.654686  0.654229  0.654782  1
  In  In16  1  0.420435  0.420513  0.740162  1
  In  In17  1  0.420487  0.740035  0.420400  1
  In  In18  1  0.740101  0.420414  0.420508  1
  In  In19  1  0.419629  0.419918  0.419747  1
  Os  Os20  1  0.862567  0.862468  0.412618  1
  Os  Os21  1  0.862860  0.412522  0.862379  1
  Os  Os22  1  0.412365  0.862973  0.862492  1
  Os  Os23  1  0.862548  0.862735  0.862917  1
