# generated using pymatgen
data_Pm4Mn3NbO12
_symmetry_space_group_name_H-M   'P 1'
_cell_length_a   5.50622206
_cell_length_b   5.86018048
_cell_length_c   7.92543700
_cell_angle_alpha   90.70803908
_cell_angle_beta   89.66510289
_cell_angle_gamma   90.95202999
_symmetry_Int_Tables_number   1
_chemical_formula_structural   Pm4Mn3NbO12
_chemical_formula_sum   'Pm4 Mn3 Nb1 O12'
_cell_volume   255.67478806
_cell_formula_units_Z   1
loop_
 _symmetry_equiv_pos_site_id
 _symmetry_equiv_pos_as_xyz
  1  'x, y, z'
loop_
 _atom_site_type_symbol
 _atom_site_label
 _atom_site_symmetry_multiplicity
 _atom_site_fract_x
 _atom_site_fract_y
 _atom_site_fract_z
 _atom_site_occupancy
  Pm  Pm0  1  0.982753  0.072777  0.263733  1
  Pm  Pm1  1  0.518634  0.563960  0.266296  1
  Pm  Pm2  1  0.481365  0.436040  0.733704  1
  Pm  Pm3  1  0.017246  0.927223  0.736267  1
  Mn  Mn4  1  0.000000  0.500000  0.000000  1
  Mn  Mn5  1  0.500001  0.000000  0.499999  1
  Mn  Mn6  1  0.000000  0.500000  0.499999  1
  Nb  Nb7  1  0.500001  0.000000  0.000000  1
  O  O8  1  0.681935  0.289323  0.071155  1
  O  O9  1  0.792362  0.815558  0.059617  1
  O  O10  1  0.113700  0.458742  0.254778  1
  O  O11  1  0.380777  0.953856  0.237052  1
  O  O12  1  0.701352  0.315365  0.452125  1
  O  O13  1  0.803334  0.812425  0.443926  1
  O  O14  1  0.196666  0.187574  0.556074  1
  O  O15  1  0.298649  0.684635  0.547875  1
  O  O16  1  0.619222  0.046142  0.762948  1
  O  O17  1  0.886301  0.541258  0.745222  1
  O  O18  1  0.207638  0.184441  0.940383  1
  O  O19  1  0.318066  0.710677  0.928845  1
