# generated using pymatgen
data_Hf18ZnRe8Rh
_symmetry_space_group_name_H-M   'P 1'
_cell_length_a   8.56915000
_cell_length_b   8.62983490
_cell_length_c   8.63013400
_cell_angle_alpha   120.00115190
_cell_angle_beta   90.00000000
_cell_angle_gamma   90.00000000
_symmetry_Int_Tables_number   1
_chemical_formula_structural   Hf18ZnRe8Rh
_chemical_formula_sum   'Hf18 Zn1 Re8 Rh1'
_cell_volume   552.69223345
_cell_formula_units_Z   1
loop_
 _symmetry_equiv_pos_site_id
 _symmetry_equiv_pos_as_xyz
  1  'x, y, z'
loop_
 _atom_site_type_symbol
 _atom_site_label
 _atom_site_symmetry_multiplicity
 _atom_site_fract_x
 _atom_site_fract_y
 _atom_site_fract_z
 _atom_site_occupancy
  Hf  Hf0  1  0.550530  0.806915  0.613841  1
  Hf  Hf1  1  0.550517  0.806914  0.193076  1
  Hf  Hf2  1  0.550523  0.386181  0.193087  1
  Hf  Hf3  1  0.446123  0.196059  0.392125  1
  Hf  Hf4  1  0.446136  0.196071  0.803933  1
  Hf  Hf5  1  0.446123  0.607855  0.803926  1
  Hf  Hf6  1  0.053877  0.196059  0.392125  1
  Hf  Hf7  1  0.053864  0.196071  0.803933  1
  Hf  Hf8  1  0.053877  0.607855  0.803926  1
  Hf  Hf9  1  0.949470  0.806915  0.613841  1
  Hf  Hf10  1  0.949483  0.806914  0.193076  1
  Hf  Hf11  1  0.949477  0.386181  0.193087  1
  Hf  Hf12  1  0.750000  0.458806  0.917583  1
  Hf  Hf13  1  0.750000  0.458794  0.541205  1
  Hf  Hf14  1  0.750000  0.082420  0.541195  1
  Hf  Hf15  1  0.250000  0.542202  0.084431  1
  Hf  Hf16  1  0.250000  0.542216  0.457768  1
  Hf  Hf17  1  0.250000  0.915562  0.457784  1
  Zn  Zn18  1  0.750000  0.666666  0.333325  1
  Re  Re19  1  0.750000  0.110428  0.220856  1
  Re  Re20  1  0.750000  0.110434  0.889585  1
  Re  Re21  1  0.750000  0.779147  0.889576  1
  Re  Re22  1  0.250000  0.889401  0.778787  1
  Re  Re23  1  0.250000  0.889386  0.110621  1
  Re  Re24  1  0.250000  0.221222  0.110613  1
  Re  Re25  1  0.499415  0.000003  0.000008  1
  Re  Re26  1  0.000585  0.000003  0.000008  1
  Rh  Rh27  1  0.250000  0.333322  0.666677  1
