# generated using pymatgen
data_Hf18Ti2Re6PtSe
_symmetry_space_group_name_H-M   'P 1'
_cell_length_a   8.70858600
_cell_length_b   8.70858539
_cell_length_c   8.54086200
_cell_angle_alpha   90.00000000
_cell_angle_beta   90.00000000
_cell_angle_gamma   120.00000233
_symmetry_Int_Tables_number   1
_chemical_formula_structural   Hf18Ti2Re6PtSe
_chemical_formula_sum   'Hf18 Ti2 Re6 Pt1 Se1'
_cell_volume   560.95443467
_cell_formula_units_Z   1
loop_
 _symmetry_equiv_pos_site_id
 _symmetry_equiv_pos_as_xyz
  1  'x, y, z'
loop_
 _atom_site_type_symbol
 _atom_site_label
 _atom_site_symmetry_multiplicity
 _atom_site_fract_x
 _atom_site_fract_y
 _atom_site_fract_z
 _atom_site_occupancy
  Hf  Hf0  1  0.194692  0.805308  0.446426  1
  Hf  Hf1  1  0.194692  0.389383  0.446426  1
  Hf  Hf2  1  0.610617  0.805308  0.446426  1
  Hf  Hf3  1  0.807142  0.192858  0.548090  1
  Hf  Hf4  1  0.807142  0.614284  0.548090  1
  Hf  Hf5  1  0.385716  0.192858  0.548090  1
  Hf  Hf6  1  0.807142  0.192858  0.951910  1
  Hf  Hf7  1  0.807142  0.614284  0.951910  1
  Hf  Hf8  1  0.385716  0.192858  0.951910  1
  Hf  Hf9  1  0.194692  0.805308  0.053574  1
  Hf  Hf10  1  0.194692  0.389383  0.053574  1
  Hf  Hf11  1  0.610617  0.805308  0.053574  1
  Hf  Hf12  1  0.542762  0.457238  0.250000  1
  Hf  Hf13  1  0.542762  0.085525  0.250000  1
  Hf  Hf14  1  0.914475  0.457238  0.250000  1
  Hf  Hf15  1  0.454531  0.545469  0.750000  1
  Hf  Hf16  1  0.454531  0.909063  0.750000  1
  Hf  Hf17  1  0.090937  0.545469  0.750000  1
  Ti  Ti18  1  0.000000  0.000000  0.500752  1
  Ti  Ti19  1  0.000000  0.000000  0.999248  1
  Re  Re20  1  0.886994  0.113006  0.250000  1
  Re  Re21  1  0.886994  0.773987  0.250000  1
  Re  Re22  1  0.226013  0.113006  0.250000  1
  Re  Re23  1  0.112168  0.887832  0.750000  1
  Re  Re24  1  0.112168  0.224336  0.750000  1
  Re  Re25  1  0.775664  0.887832  0.750000  1
  Pt  Pt26  1  0.333333  0.666667  0.250000  1
  Se  Se27  1  0.666667  0.333333  0.750000  1
