# generated using pymatgen
data_Tm3LuTcOs7
_symmetry_space_group_name_H-M   'P 1'
_cell_length_a   5.35169500
_cell_length_b   5.25290240
_cell_length_c   8.84483300
_cell_angle_alpha   90.00241142
_cell_angle_beta   90.00000000
_cell_angle_gamma   120.62409432
_symmetry_Int_Tables_number   1
_chemical_formula_structural   Tm3LuTcOs7
_chemical_formula_sum   'Tm3 Lu1 Tc1 Os7'
_cell_volume   213.96624836
_cell_formula_units_Z   1
loop_
 _symmetry_equiv_pos_site_id
 _symmetry_equiv_pos_as_xyz
  1  'x, y, z'
loop_
 _atom_site_type_symbol
 _atom_site_label
 _atom_site_symmetry_multiplicity
 _atom_site_fract_x
 _atom_site_fract_y
 _atom_site_fract_z
 _atom_site_occupancy
  Tm  Tm0  1  0.334015  0.668030  0.434037  1
  Tm  Tm1  1  0.669195  0.338389  0.564202  1
  Tm  Tm2  1  0.669183  0.338366  0.936074  1
  Lu  Lu3  1  0.333921  0.667842  0.065693  1
  Tc  Tc4  1  0.167120  0.334241  0.750286  1
  Os  Os5  1  0.173081  0.823841  0.750430  1
  Os  Os6  1  0.339042  0.166396  0.249500  1
  Os  Os7  1  0.823068  0.646135  0.249591  1
  Os  Os8  1  0.650760  0.823841  0.750430  1
  Os  Os9  1  0.006724  0.013448  0.000461  1
  Os  Os10  1  0.827356  0.166396  0.249500  1
  Os  Os11  1  0.006537  0.013075  0.499795  1
