# generated using pymatgen
data_Ac3Al11Pt
_symmetry_space_group_name_H-M   'P 1'
_cell_length_a   8.91896777
_cell_length_b   8.91896564
_cell_length_c   8.91896636
_cell_angle_alpha   150.33292642
_cell_angle_beta   104.74576765
_cell_angle_gamma   82.90894591
_symmetry_Int_Tables_number   1
_chemical_formula_structural   Ac3Al11Pt
_chemical_formula_sum   'Ac3 Al11 Pt1'
_cell_volume   332.44853942
_cell_formula_units_Z   1
loop_
 _symmetry_equiv_pos_site_id
 _symmetry_equiv_pos_as_xyz
  1  'x, y, z'
loop_
 _atom_site_type_symbol
 _atom_site_label
 _atom_site_symmetry_multiplicity
 _atom_site_fract_x
 _atom_site_fract_y
 _atom_site_fract_z
 _atom_site_occupancy
  Ac  Ac0  1  0.992464  0.000000  0.992464  1
  Ac  Ac1  1  0.330244  0.331835  0.998410  1
  Ac  Ac2  1  0.666575  0.668165  0.998410  1
  Al  Al3  1  0.398580  0.000000  0.398580  1
  Al  Al4  1  0.252301  0.500000  0.752301  1
  Al  Al5  1  0.737741  0.500000  0.237741  1
  Al  Al6  1  0.588452  0.839917  0.748535  1
  Al  Al7  1  0.908619  0.160083  0.748535  1
  Al  Al8  1  0.290993  0.668463  0.622530  1
  Al  Al9  1  0.954067  0.331537  0.622530  1
  Al  Al10  1  0.046975  0.666121  0.380854  1
  Al  Al11  1  0.714731  0.333879  0.380854  1
  Al  Al12  1  0.087110  0.836753  0.250358  1
  Al  Al13  1  0.413604  0.163247  0.250358  1
  Pt  Pt14  1  0.628545  0.000000  0.628545  1
