# generated using pymatgen
data_Tb3Y5(Tm3Sn4)4
_symmetry_space_group_name_H-M   'P 1'
_cell_length_a   7.99129202
_cell_length_b   8.12103700
_cell_length_c   15.35112004
_cell_angle_alpha   89.99735944
_cell_angle_beta   90.00791027
_cell_angle_gamma   89.99943826
_symmetry_Int_Tables_number   1
_chemical_formula_structural   Tb3Y5(Tm3Sn4)4
_chemical_formula_sum   'Tb3 Y5 Tm12 Sn16'
_cell_volume   996.25050244
_cell_formula_units_Z   1
loop_
 _symmetry_equiv_pos_site_id
 _symmetry_equiv_pos_as_xyz
  1  'x, y, z'
loop_
 _atom_site_type_symbol
 _atom_site_label
 _atom_site_symmetry_multiplicity
 _atom_site_fract_x
 _atom_site_fract_y
 _atom_site_fract_z
 _atom_site_occupancy
  Tb  Tb0  1  0.522163  0.320987  0.902686  1
  Tb  Tb1  1  0.022137  0.179021  0.597313  1
  Tb  Tb2  1  0.477860  0.679039  0.402656  1
  Y  Y3  1  0.977721  0.821031  0.097320  1
  Y  Y4  1  0.477699  0.678987  0.097390  1
  Y  Y5  1  0.977698  0.821058  0.402646  1
  Y  Y6  1  0.522325  0.321031  0.597391  1
  Y  Y7  1  0.022336  0.178959  0.902633  1
  Tm  Tm8  1  0.367349  0.836628  0.877262  1
  Tm  Tm9  1  0.867345  0.663341  0.622746  1
  Tm  Tm10  1  0.632653  0.163341  0.377238  1
  Tm  Tm11  1  0.132634  0.336648  0.122758  1
  Tm  Tm12  1  0.632616  0.163372  0.122723  1
  Tm  Tm13  1  0.132644  0.336596  0.377258  1
  Tm  Tm14  1  0.367363  0.836582  0.622708  1
  Tm  Tm15  1  0.867355  0.663395  0.877278  1
  Tm  Tm16  1  0.198177  0.504250  0.749968  1
  Tm  Tm17  1  0.698181  0.995750  0.750037  1
  Tm  Tm18  1  0.801842  0.495731  0.249951  1
  Tm  Tm19  1  0.301839  0.004203  0.250015  1
  Sn  Sn20  1  0.294055  0.036832  0.041819  1
  Sn  Sn21  1  0.794088  0.463124  0.458198  1
  Sn  Sn22  1  0.705909  0.963133  0.541805  1
  Sn  Sn23  1  0.205915  0.536839  0.958173  1
  Sn  Sn24  1  0.706017  0.963180  0.958145  1
  Sn  Sn25  1  0.205908  0.536779  0.541883  1
  Sn  Sn26  1  0.294107  0.036801  0.458116  1
  Sn  Sn27  1  0.794117  0.463254  0.041878  1
  Sn  Sn28  1  0.564415  0.620895  0.750039  1
  Sn  Sn29  1  0.064400  0.879108  0.749971  1
  Sn  Sn30  1  0.435596  0.379105  0.250046  1
  Sn  Sn31  1  0.935590  0.120884  0.249996  1
  Sn  Sn32  1  0.331075  0.147516  0.749966  1
  Sn  Sn33  1  0.831049  0.352502  0.750032  1
  Sn  Sn34  1  0.668943  0.852501  0.249966  1
  Sn  Sn35  1  0.168878  0.647594  0.249991  1
