# generated using pymatgen
data_K8V3Fe5P8(O4F)8
_symmetry_space_group_name_H-M   'P 1'
_cell_length_a   6.44680100
_cell_length_b   10.80440100
_cell_length_c   13.05242200
_cell_angle_alpha   90.00000000
_cell_angle_beta   90.00000000
_cell_angle_gamma   90.00000000
_symmetry_Int_Tables_number   1
_chemical_formula_structural   K8V3Fe5P8(O4F)8
_chemical_formula_sum   'K8 V3 Fe5 P8 O32 F8'
_cell_volume   909.15109394
_cell_formula_units_Z   1
loop_
 _symmetry_equiv_pos_site_id
 _symmetry_equiv_pos_as_xyz
  1  'x, y, z'
loop_
 _atom_site_type_symbol
 _atom_site_label
 _atom_site_symmetry_multiplicity
 _atom_site_fract_x
 _atom_site_fract_y
 _atom_site_fract_z
 _atom_site_occupancy
  K  K0  1  0.772782  0.203142  0.375446  1
  K  K1  1  0.303055  0.942545  0.895186  1
  K  K2  1  0.803007  0.442516  0.604800  1
  K  K3  1  0.197395  0.942903  0.394979  1
  K  K4  1  0.697166  0.442655  0.104932  1
  K  K5  1  0.272344  0.703129  0.124612  1
  K  K6  1  0.727716  0.203070  0.875422  1
  K  K7  1  0.227615  0.703146  0.624545  1
  V  V8  1  0.750731  0.748380  0.252429  1
  V  V9  1  0.249262  0.248414  0.747513  1
  V  V10  1  0.749171  0.748437  0.752454  1
  Fe  Fe11  1  0.251003  0.248696  0.247016  1
  Fe  Fe12  1  0.492676  0.499006  0.388564  1
  Fe  Fe13  1  0.506750  0.998991  0.611671  1
  Fe  Fe14  1  0.006830  0.498951  0.888257  1
  Fe  Fe15  1  0.993721  0.998888  0.111763  1
  P  P16  1  0.998145  0.495643  0.317395  1
  P  P17  1  0.498050  0.996670  0.182508  1
  P  P18  1  0.501920  0.496134  0.817596  1
  P  P19  1  0.001934  0.996140  0.682397  1
  P  P20  1  0.169855  0.247729  0.000365  1
  P  P21  1  0.829880  0.747736  0.999837  1
  P  P22  1  0.329790  0.247711  0.499811  1
  P  P23  1  0.670224  0.747840  0.499884  1
  O  O24  1  0.308481  0.969467  0.112678  1
  O  O25  1  0.810652  0.023081  0.614969  1
  O  O26  1  0.310647  0.523095  0.885035  1
  O  O27  1  0.689916  0.023337  0.115191  1
  O  O28  1  0.035802  0.381022  0.246920  1
  O  O29  1  0.966204  0.881221  0.753137  1
  O  O30  1  0.466190  0.381230  0.746853  1
  O  O31  1  0.534130  0.881606  0.253159  1
  O  O32  1  0.519228  0.858972  0.514228  1
  O  O33  1  0.480966  0.358983  0.485817  1
  O  O34  1  0.980823  0.858966  0.014231  1
  O  O35  1  0.019189  0.359041  0.985887  1
  O  O36  1  0.807793  0.469145  0.386903  1
  O  O37  1  0.191710  0.969472  0.612753  1
  O  O38  1  0.691680  0.469494  0.887267  1
  O  O39  1  0.189085  0.523144  0.385076  1
  O  O40  1  0.529476  0.631065  0.488616  1
  O  O41  1  0.470494  0.131040  0.511452  1
  O  O42  1  0.970401  0.631029  0.988436  1
  O  O43  1  0.452177  0.107510  0.255351  1
  O  O44  1  0.808660  0.768635  0.404817  1
  O  O45  1  0.191254  0.268414  0.594944  1
  O  O46  1  0.691386  0.768643  0.904805  1
  O  O47  1  0.307161  0.267350  0.095949  1
  O  O48  1  0.693530  0.728424  0.096524  1
  O  O49  1  0.306827  0.228774  0.903828  1
  O  O50  1  0.806562  0.728450  0.596549  1
  O  O51  1  0.194420  0.229459  0.402818  1
  O  O52  1  0.954250  0.607148  0.244531  1
  O  O53  1  0.045561  0.107406  0.755472  1
  O  O54  1  0.545503  0.607417  0.744564  1
  O  O55  1  0.029223  0.130997  0.011500  1
  F  F56  1  0.983631  0.870603  0.227713  1
  F  F57  1  0.016404  0.370344  0.772303  1
  F  F58  1  0.516390  0.870361  0.727663  1
  F  F59  1  0.481009  0.368380  0.272405  1
  F  F60  1  0.025995  0.120201  0.230364  1
  F  F61  1  0.976251  0.618760  0.769828  1
  F  F62  1  0.476202  0.118704  0.730144  1
  F  F63  1  0.523717  0.618340  0.269938  1
