# generated using pymatgen
data_Dy12InCuNi4
_symmetry_space_group_name_H-M   'P 1'
_cell_length_a   8.35071768
_cell_length_b   8.35071728
_cell_length_c   8.35071900
_cell_angle_alpha   112.40229333
_cell_angle_beta   109.42042113
_cell_angle_gamma   106.64228502
_symmetry_Int_Tables_number   1
_chemical_formula_structural   Dy12InCuNi4
_chemical_formula_sum   'Dy12 In1 Cu1 Ni4'
_cell_volume   447.14604509
_cell_formula_units_Z   1
loop_
 _symmetry_equiv_pos_site_id
 _symmetry_equiv_pos_as_xyz
  1  'x, y, z'
loop_
 _atom_site_type_symbol
 _atom_site_label
 _atom_site_symmetry_multiplicity
 _atom_site_fract_x
 _atom_site_fract_y
 _atom_site_fract_z
 _atom_site_occupancy
  Dy  Dy0  1  0.025808  0.719204  0.306603  1
  Dy  Dy1  1  0.974192  0.280796  0.693397  1
  Dy  Dy2  1  0.587398  0.280796  0.306603  1
  Dy  Dy3  1  0.412602  0.719204  0.693397  1
  Dy  Dy4  1  0.676500  0.868773  0.192273  1
  Dy  Dy5  1  0.323500  0.515773  0.192273  1
  Dy  Dy6  1  0.323500  0.131227  0.807727  1
  Dy  Dy7  1  0.676500  0.484227  0.807727  1
  Dy  Dy8  1  0.180841  0.206553  0.387394  1
  Dy  Dy9  1  0.819159  0.206553  0.025709  1
  Dy  Dy10  1  0.180841  0.793447  0.974291  1
  Dy  Dy11  1  0.819159  0.793447  0.612606  1
  In  In12  1  0.500000  0.000000  0.500000  1
  Cu  Cu13  1  0.000000  0.500000  0.500000  1
  Ni  Ni14  1  0.641355  0.500000  0.141355  1
  Ni  Ni15  1  0.358645  0.500000  0.858645  1
  Ni  Ni16  1  0.875787  0.875787  0.000000  1
  Ni  Ni17  1  0.124213  0.124213  0.000000  1
