# generated using pymatgen
data_Ho3PaCo2(NiSn)2
_symmetry_space_group_name_H-M   'P 1'
_cell_length_a   7.33425898
_cell_length_b   7.42693605
_cell_length_c   3.55079800
_cell_angle_alpha   90.00000000
_cell_angle_beta   90.00000000
_cell_angle_gamma   92.66646726
_symmetry_Int_Tables_number   1
_chemical_formula_structural   Ho3PaCo2(NiSn)2
_chemical_formula_sum   'Ho3 Pa1 Co2 Ni2 Sn2'
_cell_volume   193.20635862
_cell_formula_units_Z   1
loop_
 _symmetry_equiv_pos_site_id
 _symmetry_equiv_pos_as_xyz
  1  'x, y, z'
loop_
 _atom_site_type_symbol
 _atom_site_label
 _atom_site_symmetry_multiplicity
 _atom_site_fract_x
 _atom_site_fract_y
 _atom_site_fract_z
 _atom_site_occupancy
  Ho  Ho0  1  0.323271  0.833283  0.500000  1
  Ho  Ho1  1  0.174712  0.323245  0.500000  1
  Ho  Ho2  1  0.830688  0.670407  0.500000  1
  Pa  Pa3  1  0.665926  0.188215  0.500000  1
  Co  Co4  1  0.856686  0.344512  0.000000  1
  Co  Co5  1  0.415014  0.138606  0.000000  1
  Ni  Ni6  1  0.114417  0.603435  0.000000  1
  Ni  Ni7  1  0.627743  0.883273  0.000000  1
  Sn  Sn8  1  0.493955  0.515670  0.000000  1
  Sn  Sn9  1  0.997589  0.999354  0.000000  1
