# generated using pymatgen
data_Y8Al2CoPd
_symmetry_space_group_name_H-M   'P 1'
_cell_length_a   9.55350364
_cell_length_b   9.55350308
_cell_length_c   9.57327300
_cell_angle_alpha   59.93151805
_cell_angle_beta   59.93151998
_cell_angle_gamma   59.89496759
_symmetry_Int_Tables_number   1
_chemical_formula_structural   Y8Al2CoPd
_chemical_formula_sum   'Y16 Al4 Co2 Pd2'
_cell_volume   616.70184844
_cell_formula_units_Z   2
loop_
 _symmetry_equiv_pos_site_id
 _symmetry_equiv_pos_as_xyz
  1  'x, y, z'
loop_
 _atom_site_type_symbol
 _atom_site_label
 _atom_site_symmetry_multiplicity
 _atom_site_fract_x
 _atom_site_fract_y
 _atom_site_fract_z
 _atom_site_occupancy
  Y  Y0  1  0.349934  0.349934  0.362956  1
  Y  Y1  1  0.349934  0.349934  0.937175  1
  Y  Y2  1  0.343132  0.948670  0.354098  1
  Y  Y3  1  0.948670  0.343132  0.354098  1
  Y  Y4  1  0.816356  0.191800  0.192579  1
  Y  Y5  1  0.191800  0.816356  0.799263  1
  Y  Y6  1  0.191800  0.816356  0.192579  1
  Y  Y7  1  0.816356  0.191800  0.799263  1
  Y  Y8  1  0.190305  0.190305  0.809695  1
  Y  Y9  1  0.805690  0.805690  0.194310  1
  Y  Y10  1  0.934968  0.561127  0.565626  1
  Y  Y11  1  0.561127  0.934968  0.938280  1
  Y  Y12  1  0.561127  0.934968  0.565626  1
  Y  Y13  1  0.934968  0.561127  0.938280  1
  Y  Y14  1  0.561230  0.561230  0.938770  1
  Y  Y15  1  0.934703  0.934703  0.565297  1
  Al  Al16  1  0.578328  0.578328  0.574751  1
  Al  Al17  1  0.578328  0.578328  0.268594  1
  Al  Al18  1  0.580073  0.266520  0.576703  1
  Al  Al19  1  0.266520  0.580073  0.576703  1
  Co  Co20  1  0.143750  0.143750  0.139513  1
  Co  Co21  1  0.143750  0.143750  0.572987  1
  Pd  Pd22  1  0.147248  0.569900  0.141426  1
  Pd  Pd23  1  0.569900  0.147248  0.141426  1
