# generated using pymatgen
data_La2Nd2Y2IrI10
_symmetry_space_group_name_H-M   'P 1'
_cell_length_a   7.93469499
_cell_length_b   10.06984441
_cell_length_c   9.93011808
_cell_angle_alpha   107.14162109
_cell_angle_beta   95.58644519
_cell_angle_gamma   105.29675033
_symmetry_Int_Tables_number   1
_chemical_formula_structural   La2Nd2Y2IrI10
_chemical_formula_sum   'La2 Nd2 Y2 Ir1 I10'
_cell_volume   718.00442595
_cell_formula_units_Z   1
loop_
 _symmetry_equiv_pos_site_id
 _symmetry_equiv_pos_as_xyz
  1  'x, y, z'
loop_
 _atom_site_type_symbol
 _atom_site_label
 _atom_site_symmetry_multiplicity
 _atom_site_fract_x
 _atom_site_fract_y
 _atom_site_fract_z
 _atom_site_occupancy
  La  La0  1  0.117098  0.042827  0.762711  1
  La  La1  1  0.882902  0.957173  0.237289  1
  Nd  Nd2  1  0.969751  0.291578  0.089321  1
  Nd  Nd3  1  0.030249  0.708422  0.910679  1
  Y  Y4  1  0.348930  0.126747  0.164647  1
  Y  Y5  1  0.651070  0.873253  0.835353  1
  Ir  Ir6  1  0.000000  0.000000  0.000000  1
  I  I7  1  0.355264  0.444845  0.270770  1
  I  I8  1  0.644736  0.555155  0.729230  1
  I  I9  1  0.266823  0.087904  0.454160  1
  I  I10  1  0.733177  0.912096  0.545840  1
  I  I11  1  0.084871  0.373029  0.818382  1
  I  I12  1  0.915129  0.626971  0.181618  1
  I  I13  1  0.450623  0.822813  0.089292  1
  I  I14  1  0.549377  0.177187  0.910708  1
  I  I15  1  0.764249  0.256902  0.344062  1
  I  I16  1  0.235751  0.743098  0.655938  1
