# generated using pymatgen
data_TbGd3Sb6Rh7
_symmetry_space_group_name_H-M   'P 1'
_cell_length_a   7.58713881
_cell_length_b   7.58713975
_cell_length_c   7.59639900
_cell_angle_alpha   109.49594404
_cell_angle_beta   109.49594656
_cell_angle_gamma   109.44648467
_symmetry_Int_Tables_number   1
_chemical_formula_structural   TbGd3Sb6Rh7
_chemical_formula_sum   'Tb1 Gd3 Sb6 Rh7'
_cell_volume   336.51883838
_cell_formula_units_Z   1
loop_
 _symmetry_equiv_pos_site_id
 _symmetry_equiv_pos_as_xyz
  1  'x, y, z'
loop_
 _atom_site_type_symbol
 _atom_site_label
 _atom_site_symmetry_multiplicity
 _atom_site_fract_x
 _atom_site_fract_y
 _atom_site_fract_z
 _atom_site_occupancy
  Tb  Tb0  1  0.000000  0.000000  0.500000  1
  Gd  Gd1  1  0.500000  0.000000  0.000000  1
  Gd  Gd2  1  0.000000  0.500000  0.000000  1
  Gd  Gd3  1  0.500000  0.500000  0.500000  1
  Sb  Sb4  1  0.316901  0.000000  0.316178  1
  Sb  Sb5  1  0.000000  0.683099  0.683822  1
  Sb  Sb6  1  0.683099  0.683099  0.999277  1
  Sb  Sb7  1  0.683099  0.000000  0.683822  1
  Sb  Sb8  1  0.000000  0.316901  0.316178  1
  Sb  Sb9  1  0.316901  0.316901  0.000723  1
  Rh  Rh10  1  0.248656  0.497313  0.748656  1
  Rh  Rh11  1  0.497313  0.248656  0.748656  1
  Rh  Rh12  1  0.751344  0.248656  0.500000  1
  Rh  Rh13  1  0.502687  0.751344  0.251344  1
  Rh  Rh14  1  0.000000  0.000000  0.000000  1
  Rh  Rh15  1  0.248656  0.751344  0.500000  1
  Rh  Rh16  1  0.751344  0.502687  0.251344  1
