# generated using pymatgen
data_CaSm6RhBr12
_symmetry_space_group_name_H-M   'P 1'
_cell_length_a   9.43608458
_cell_length_b   9.43608425
_cell_length_c   9.43608395
_cell_angle_alpha   107.02512895
_cell_angle_beta   107.02513414
_cell_angle_gamma   107.02512858
_symmetry_Int_Tables_number   1
_chemical_formula_structural   CaSm6RhBr12
_chemical_formula_sum   'Ca1 Sm6 Rh1 Br12'
_cell_volume   699.23469450
_cell_formula_units_Z   1
loop_
 _symmetry_equiv_pos_site_id
 _symmetry_equiv_pos_as_xyz
  1  'x, y, z'
loop_
 _atom_site_type_symbol
 _atom_site_label
 _atom_site_symmetry_multiplicity
 _atom_site_fract_x
 _atom_site_fract_y
 _atom_site_fract_z
 _atom_site_occupancy
  Ca  Ca0  1  0.500000  0.500000  0.500000  1
  Sm  Sm1  1  0.313689  0.103713  0.022021  1
  Sm  Sm2  1  0.022021  0.313689  0.103713  1
  Sm  Sm3  1  0.103713  0.022021  0.313689  1
  Sm  Sm4  1  0.686311  0.896287  0.977979  1
  Sm  Sm5  1  0.977979  0.686311  0.896287  1
  Sm  Sm6  1  0.896287  0.977979  0.686311  1
  Rh  Rh7  1  0.000000  0.000000  0.000000  1
  Br  Br8  1  0.679802  0.220657  0.072474  1
  Br  Br9  1  0.072474  0.679802  0.220657  1
  Br  Br10  1  0.220657  0.072474  0.679802  1
  Br  Br11  1  0.320198  0.779343  0.927526  1
  Br  Br12  1  0.927526  0.320198  0.779343  1
  Br  Br13  1  0.779343  0.927526  0.320198  1
  Br  Br14  1  0.455705  0.160184  0.375567  1
  Br  Br15  1  0.375567  0.455705  0.160184  1
  Br  Br16  1  0.160184  0.375567  0.455705  1
  Br  Br17  1  0.544295  0.839816  0.624433  1
  Br  Br18  1  0.624433  0.544295  0.839816  1
  Br  Br19  1  0.839816  0.624433  0.544295  1
