# generated using pymatgen
data_Tb2YPa(B4Ru)4
_symmetry_space_group_name_H-M   'P 1'
_cell_length_a   3.57786000
_cell_length_b   5.97384724
_cell_length_c   11.58418997
_cell_angle_alpha   89.96044740
_cell_angle_beta   90.00000000
_cell_angle_gamma   90.00000000
_symmetry_Int_Tables_number   1
_chemical_formula_structural   Tb2YPa(B4Ru)4
_chemical_formula_sum   'Tb2 Y1 Pa1 B16 Ru4'
_cell_volume   247.59565715
_cell_formula_units_Z   1
loop_
 _symmetry_equiv_pos_site_id
 _symmetry_equiv_pos_as_xyz
  1  'x, y, z'
loop_
 _atom_site_type_symbol
 _atom_site_label
 _atom_site_symmetry_multiplicity
 _atom_site_fract_x
 _atom_site_fract_y
 _atom_site_fract_z
 _atom_site_occupancy
  Tb  Tb0  1  0.500000  0.127864  0.649765  1
  Tb  Tb1  1  0.500000  0.872087  0.352717  1
  Y  Y2  1  0.500000  0.628951  0.848732  1
  Pa  Pa3  1  0.500000  0.371549  0.149905  1
  B  B4  1  0.000000  0.111750  0.045668  1
  B  B5  1  0.000000  0.887079  0.952414  1
  B  B6  1  0.000000  0.388070  0.546478  1
  B  B7  1  0.000000  0.613356  0.454661  1
  B  B8  1  0.000000  0.137619  0.468765  1
  B  B9  1  0.000000  0.864039  0.531432  1
  B  B10  1  0.000000  0.363656  0.968443  1
  B  B11  1  0.000000  0.635542  0.030574  1
  B  B12  1  0.000000  0.025723  0.191801  1
  B  B13  1  0.000000  0.974747  0.808062  1
  B  B14  1  0.000000  0.473777  0.691470  1
  B  B15  1  0.000000  0.527713  0.308953  1
  B  B16  1  0.000000  0.212487  0.313650  1
  B  B17  1  0.000000  0.787482  0.685319  1
  B  B18  1  0.000000  0.285691  0.812974  1
  B  B19  1  0.000000  0.713497  0.187108  1
  Ru  Ru20  1  0.500000  0.361514  0.404732  1
  Ru  Ru21  1  0.500000  0.637277  0.592601  1
  Ru  Ru22  1  0.500000  0.140422  0.908959  1
  Ru  Ru23  1  0.500000  0.858108  0.094819  1
