# generated using pymatgen
data_Rb2Te13
_symmetry_space_group_name_H-M   'P 1'
_cell_length_a   7.21045200
_cell_length_b   13.75834200
_cell_length_c   22.86490100
_cell_angle_alpha   90.00000000
_cell_angle_beta   90.00000000
_cell_angle_gamma   90.00000000
_symmetry_Int_Tables_number   1
_chemical_formula_structural   Rb2Te13
_chemical_formula_sum   'Rb8 Te52'
_cell_volume   2268.28654268
_cell_formula_units_Z   4
loop_
 _symmetry_equiv_pos_site_id
 _symmetry_equiv_pos_as_xyz
  1  'x, y, z'
loop_
 _atom_site_type_symbol
 _atom_site_label
 _atom_site_symmetry_multiplicity
 _atom_site_fract_x
 _atom_site_fract_y
 _atom_site_fract_z
 _atom_site_occupancy
  Rb  Rb0  1  0.882604  0.250000  0.500000  1
  Rb  Rb1  1  0.117396  0.750000  0.000000  1
  Rb  Rb2  1  0.117396  0.750000  0.500000  1
  Rb  Rb3  1  0.882604  0.250000  0.000000  1
  Rb  Rb4  1  0.640962  0.524564  0.250000  1
  Rb  Rb5  1  0.640962  0.975436  0.750000  1
  Rb  Rb6  1  0.359038  0.024564  0.250000  1
  Rb  Rb7  1  0.359038  0.475436  0.750000  1
  Te  Te8  1  0.290589  0.101396  0.453083  1
  Te  Te9  1  0.290589  0.398604  0.546917  1
  Te  Te10  1  0.709411  0.601396  0.046917  1
  Te  Te11  1  0.709411  0.898604  0.953083  1
  Te  Te12  1  0.709411  0.898604  0.546917  1
  Te  Te13  1  0.709411  0.601396  0.453083  1
  Te  Te14  1  0.290589  0.398604  0.953083  1
  Te  Te15  1  0.290589  0.101396  0.046917  1
  Te  Te16  1  0.067931  0.960931  0.396651  1
  Te  Te17  1  0.067931  0.539069  0.603349  1
  Te  Te18  1  0.932069  0.460931  0.103349  1
  Te  Te19  1  0.932069  0.039069  0.896651  1
  Te  Te20  1  0.932069  0.039069  0.603349  1
  Te  Te21  1  0.932069  0.460931  0.396651  1
  Te  Te22  1  0.067931  0.539069  0.896651  1
  Te  Te23  1  0.067931  0.960931  0.103349  1
  Te  Te24  1  0.695207  0.027832  0.430581  1
  Te  Te25  1  0.695207  0.472168  0.569419  1
  Te  Te26  1  0.304793  0.527832  0.069419  1
  Te  Te27  1  0.304793  0.972168  0.930581  1
  Te  Te28  1  0.304793  0.972168  0.569419  1
  Te  Te29  1  0.304793  0.527832  0.430581  1
  Te  Te30  1  0.695207  0.472168  0.930581  1
  Te  Te31  1  0.695207  0.027832  0.069419  1
  Te  Te32  1  0.741435  0.165777  0.332549  1
  Te  Te33  1  0.741435  0.334223  0.667451  1
  Te  Te34  1  0.258565  0.665777  0.167451  1
  Te  Te35  1  0.258565  0.834223  0.832549  1
  Te  Te36  1  0.258565  0.834223  0.667451  1
  Te  Te37  1  0.258565  0.665777  0.332549  1
  Te  Te38  1  0.741435  0.334223  0.832549  1
  Te  Te39  1  0.741435  0.165777  0.167451  1
  Te  Te40  1  0.546359  0.328272  0.373746  1
  Te  Te41  1  0.546359  0.171728  0.626254  1
  Te  Te42  1  0.453641  0.828272  0.126254  1
  Te  Te43  1  0.453641  0.671728  0.873746  1
  Te  Te44  1  0.453641  0.671728  0.626254  1
  Te  Te45  1  0.453641  0.828272  0.373746  1
  Te  Te46  1  0.546359  0.171728  0.873746  1
  Te  Te47  1  0.546359  0.328272  0.126254  1
  Te  Te48  1  0.182945  0.258723  0.345941  1
  Te  Te49  1  0.182945  0.241277  0.654059  1
  Te  Te50  1  0.817055  0.758723  0.154059  1
  Te  Te51  1  0.817055  0.741277  0.845941  1
  Te  Te52  1  0.817055  0.741277  0.654059  1
  Te  Te53  1  0.817055  0.758723  0.345941  1
  Te  Te54  1  0.182945  0.241277  0.845941  1
  Te  Te55  1  0.182945  0.258723  0.154059  1
  Te  Te56  1  0.102716  0.382370  0.250000  1
  Te  Te57  1  0.102716  0.117630  0.750000  1
  Te  Te58  1  0.897284  0.882370  0.250000  1
  Te  Te59  1  0.897284  0.617630  0.750000  1
