# generated using pymatgen
data_Tb2Y3AlRuO12
_symmetry_space_group_name_H-M   'P 1'
_cell_length_a   6.82651331
_cell_length_b   6.82629071
_cell_length_c   7.29367710
_cell_angle_alpha   74.49354302
_cell_angle_beta   74.48861130
_cell_angle_gamma   50.58351388
_symmetry_Int_Tables_number   1
_chemical_formula_structural   Tb2Y3AlRuO12
_chemical_formula_sum   'Tb2 Y3 Al1 Ru1 O12'
_cell_volume   250.83219920
_cell_formula_units_Z   1
loop_
 _symmetry_equiv_pos_site_id
 _symmetry_equiv_pos_as_xyz
  1  'x, y, z'
loop_
 _atom_site_type_symbol
 _atom_site_label
 _atom_site_symmetry_multiplicity
 _atom_site_fract_x
 _atom_site_fract_y
 _atom_site_fract_z
 _atom_site_occupancy
  Tb  Tb0  1  0.293989  0.314083  0.858391  1
  Tb  Tb1  1  0.308479  0.306936  0.332633  1
  Y  Y2  1  0.693172  0.690997  0.667860  1
  Y  Y3  1  0.685913  0.706009  0.141352  1
  Y  Y4  1  0.997525  0.002229  0.999965  1
  Al  Al5  1  0.253347  0.746719  0.500065  1
  Ru  Ru6  1  0.764116  0.236002  0.499889  1
  O  O7  1  0.399817  0.907550  0.923062  1
  O  O8  1  0.577074  0.098622  0.581874  1
  O  O9  1  0.900628  0.423791  0.418097  1
  O  O10  1  0.091507  0.600855  0.076963  1
  O  O11  1  0.006005  0.994352  0.322338  1
  O  O12  1  0.503899  0.497235  0.679578  1
  O  O13  1  0.898577  0.404115  0.926565  1
  O  O14  1  0.100213  0.580871  0.580195  1
  O  O15  1  0.420227  0.898690  0.419779  1
  O  O16  1  0.596678  0.100511  0.073531  1
  O  O17  1  0.503000  0.496384  0.320174  1
  O  O18  1  0.005835  0.994050  0.677690  1
