# generated using pymatgen
data_Tb6Ho4In8Ir2PdAu
_symmetry_space_group_name_H-M   'P 1'
_cell_length_a   3.64016500
_cell_length_b   8.14258008
_cell_length_c   18.28441500
_cell_angle_alpha   90.10654067
_cell_angle_beta   90.00000000
_cell_angle_gamma   90.00000000
_symmetry_Int_Tables_number   1
_chemical_formula_structural   Tb6Ho4In8Ir2PdAu
_chemical_formula_sum   'Tb6 Ho4 In8 Ir2 Pd1 Au1'
_cell_volume   541.95524905
_cell_formula_units_Z   1
loop_
 _symmetry_equiv_pos_site_id
 _symmetry_equiv_pos_as_xyz
  1  'x, y, z'
loop_
 _atom_site_type_symbol
 _atom_site_label
 _atom_site_symmetry_multiplicity
 _atom_site_fract_x
 _atom_site_fract_y
 _atom_site_fract_z
 _atom_site_occupancy
  Tb  Tb0  1  0.000000  0.500184  0.499717  1
  Tb  Tb1  1  0.000000  0.999208  0.000461  1
  Tb  Tb2  1  0.000000  0.728450  0.278126  1
  Tb  Tb3  1  0.000000  0.279839  0.721539  1
  Tb  Tb4  1  0.000000  0.742756  0.782265  1
  Tb  Tb5  1  0.000000  0.252527  0.219675  1
  Ho  Ho6  1  0.000000  0.614169  0.087219  1
  Ho  Ho7  1  0.000000  0.385952  0.913840  1
  Ho  Ho8  1  0.000000  0.880655  0.580572  1
  Ho  Ho9  1  0.000000  0.116098  0.415050  1
  In  In10  1  0.500000  0.707175  0.933364  1
  In  In11  1  0.500000  0.292268  0.067469  1
  In  In12  1  0.500000  0.792186  0.431953  1
  In  In13  1  0.500000  0.207690  0.565484  1
  In  In14  1  0.500000  0.578780  0.648166  1
  In  In15  1  0.500000  0.421483  0.351501  1
  In  In16  1  0.500000  0.922242  0.150240  1
  In  In17  1  0.500000  0.081175  0.851546  1
  Ir  Ir18  1  0.500000  0.519673  0.195108  1
  Ir  Ir19  1  0.500000  0.479124  0.805380  1
  Pd  Pd20  1  0.500000  0.019802  0.304310  1
  Au  Au21  1  0.500000  0.978565  0.697015  1
