# generated using pymatgen
data_Hf4Si4Mo
_symmetry_space_group_name_H-M   'P 1'
_cell_length_a   6.95340200
_cell_length_b   6.95340200
_cell_length_c   12.69998000
_cell_angle_alpha   90.00000000
_cell_angle_beta   90.00000000
_cell_angle_gamma   90.00000000
_symmetry_Int_Tables_number   1
_chemical_formula_structural   Hf4Si4Mo
_chemical_formula_sum   'Hf16 Si16 Mo4'
_cell_volume   614.04148505
_cell_formula_units_Z   4
loop_
 _symmetry_equiv_pos_site_id
 _symmetry_equiv_pos_as_xyz
  1  'x, y, z'
loop_
 _atom_site_type_symbol
 _atom_site_label
 _atom_site_symmetry_multiplicity
 _atom_site_fract_x
 _atom_site_fract_y
 _atom_site_fract_z
 _atom_site_occupancy
  Hf  Hf0  1  0.495831  0.154032  0.530470  1
  Hf  Hf1  1  0.504169  0.845968  0.030470  1
  Hf  Hf2  1  0.654032  0.004169  0.280470  1
  Hf  Hf3  1  0.345968  0.995831  0.780470  1
  Hf  Hf4  1  0.845968  0.504169  0.969530  1
  Hf  Hf5  1  0.154032  0.495831  0.469530  1
  Hf  Hf6  1  0.004169  0.654032  0.719530  1
  Hf  Hf7  1  0.995831  0.345968  0.219530  1
  Hf  Hf8  1  0.498020  0.355939  0.124641  1
  Hf  Hf9  1  0.501980  0.644061  0.624641  1
  Hf  Hf10  1  0.855939  0.001980  0.874641  1
  Hf  Hf11  1  0.144061  0.998020  0.374641  1
  Hf  Hf12  1  0.644061  0.501980  0.375359  1
  Hf  Hf13  1  0.355939  0.498020  0.875359  1
  Hf  Hf14  1  0.001980  0.855939  0.125359  1
  Hf  Hf15  1  0.998020  0.144061  0.625359  1
  Si  Si16  1  0.796552  0.146442  0.071913  1
  Si  Si17  1  0.203448  0.853558  0.571913  1
  Si  Si18  1  0.646442  0.703448  0.821913  1
  Si  Si19  1  0.353558  0.296552  0.321913  1
  Si  Si20  1  0.853558  0.203448  0.428087  1
  Si  Si21  1  0.146442  0.796552  0.928087  1
  Si  Si22  1  0.703448  0.646442  0.178087  1
  Si  Si23  1  0.296552  0.353558  0.678087  1
  Si  Si24  1  0.546946  0.197736  0.933059  1
  Si  Si25  1  0.453054  0.802264  0.433059  1
  Si  Si26  1  0.697736  0.953054  0.683059  1
  Si  Si27  1  0.302264  0.046946  0.183059  1
  Si  Si28  1  0.802264  0.453054  0.566941  1
  Si  Si29  1  0.197736  0.546946  0.066941  1
  Si  Si30  1  0.953054  0.697736  0.316941  1
  Si  Si31  1  0.046946  0.302264  0.816941  1
  Mo  Mo32  1  0.672242  0.327758  0.750000  1
  Mo  Mo33  1  0.327758  0.672242  0.250000  1
  Mo  Mo34  1  0.827758  0.827758  0.500000  1
  Mo  Mo35  1  0.172242  0.172242  0.000000  1
