# generated using pymatgen
data_Pr5Cd2(HgPt)2
_symmetry_space_group_name_H-M   'P 1'
_cell_length_a   3.83960700
_cell_length_b   8.25868000
_cell_length_c   18.83174900
_cell_angle_alpha   90.00000000
_cell_angle_beta   90.00000000
_cell_angle_gamma   90.00000000
_symmetry_Int_Tables_number   1
_chemical_formula_structural   Pr5Cd2(HgPt)2
_chemical_formula_sum   'Pr10 Cd4 Hg4 Pt4'
_cell_volume   597.15637163
_cell_formula_units_Z   2
loop_
 _symmetry_equiv_pos_site_id
 _symmetry_equiv_pos_as_xyz
  1  'x, y, z'
loop_
 _atom_site_type_symbol
 _atom_site_label
 _atom_site_symmetry_multiplicity
 _atom_site_fract_x
 _atom_site_fract_y
 _atom_site_fract_z
 _atom_site_occupancy
  Pr  Pr0  1  0.000000  0.110984  0.413823  1
  Pr  Pr1  1  0.000000  0.889016  0.586177  1
  Pr  Pr2  1  0.000000  0.389016  0.913823  1
  Pr  Pr3  1  0.000000  0.610984  0.086177  1
  Pr  Pr4  1  0.000000  0.238777  0.215856  1
  Pr  Pr5  1  0.000000  0.761223  0.784144  1
  Pr  Pr6  1  0.000000  0.261223  0.715856  1
  Pr  Pr7  1  0.000000  0.738777  0.284144  1
  Pr  Pr8  1  0.000000  0.000000  0.000000  1
  Pr  Pr9  1  0.000000  0.500000  0.500000  1
  Cd  Cd10  1  0.500000  0.422579  0.350878  1
  Cd  Cd11  1  0.500000  0.577421  0.649122  1
  Cd  Cd12  1  0.500000  0.077421  0.850878  1
  Cd  Cd13  1  0.500000  0.922579  0.149122  1
  Hg  Hg14  1  0.500000  0.283318  0.065153  1
  Hg  Hg15  1  0.500000  0.716682  0.934847  1
  Hg  Hg16  1  0.500000  0.216682  0.565153  1
  Hg  Hg17  1  0.500000  0.783318  0.434847  1
  Pt  Pt18  1  0.500000  0.026278  0.301653  1
  Pt  Pt19  1  0.500000  0.973722  0.698347  1
  Pt  Pt20  1  0.500000  0.473722  0.801653  1
  Pt  Pt21  1  0.500000  0.526278  0.198347  1
