# generated using pymatgen
data_Eu4Al18CuIr5
_symmetry_space_group_name_H-M   'P 1'
_cell_length_a   7.63458652
_cell_length_b   7.63458644
_cell_length_c   9.72070478
_cell_angle_alpha   90.02347390
_cell_angle_beta   90.02347257
_cell_angle_gamma   119.46118197
_symmetry_Int_Tables_number   1
_chemical_formula_structural   Eu4Al18CuIr5
_chemical_formula_sum   'Eu4 Al18 Cu1 Ir5'
_cell_volume   493.32345323
_cell_formula_units_Z   1
loop_
 _symmetry_equiv_pos_site_id
 _symmetry_equiv_pos_as_xyz
  1  'x, y, z'
loop_
 _atom_site_type_symbol
 _atom_site_label
 _atom_site_symmetry_multiplicity
 _atom_site_fract_x
 _atom_site_fract_y
 _atom_site_fract_z
 _atom_site_occupancy
  Eu  Eu0  1  0.004769  0.329094  0.750567  1
  Eu  Eu1  1  0.329094  0.004769  0.750567  1
  Eu  Eu2  1  0.670906  0.995231  0.249433  1
  Eu  Eu3  1  0.995231  0.670906  0.249433  1
  Al  Al4  1  0.999205  0.665430  0.569547  1
  Al  Al5  1  0.002415  0.338447  0.072890  1
  Al  Al6  1  0.334570  0.000795  0.430453  1
  Al  Al7  1  0.662655  0.454493  0.750437  1
  Al  Al8  1  0.665430  0.999205  0.569547  1
  Al  Al9  1  0.662035  0.662035  0.049368  1
  Al  Al10  1  0.337965  0.337965  0.950632  1
  Al  Al11  1  0.666505  0.666505  0.453415  1
  Al  Al12  1  0.131823  0.131823  0.251993  1
  Al  Al13  1  0.333495  0.333495  0.546585  1
  Al  Al14  1  0.454493  0.662655  0.750437  1
  Al  Al15  1  0.545507  0.337345  0.249563  1
  Al  Al16  1  0.661553  0.997585  0.927110  1
  Al  Al17  1  0.338447  0.002415  0.072890  1
  Al  Al18  1  0.000795  0.334570  0.430453  1
  Al  Al19  1  0.868177  0.868177  0.748007  1
  Al  Al20  1  0.337345  0.545507  0.249563  1
  Al  Al21  1  0.997585  0.661553  0.927110  1
  Cu  Cu22  1  0.000000  0.000000  0.000000  1
  Ir  Ir23  1  0.670904  0.329096  0.000000  1
  Ir  Ir24  1  0.330236  0.669764  0.500000  1
  Ir  Ir25  1  0.329096  0.670904  0.000000  1
  Ir  Ir26  1  0.000000  0.000000  0.500000  1
  Ir  Ir27  1  0.669764  0.330236  0.500000  1
