# generated using pymatgen
data_HfScCuS4
_symmetry_space_group_name_H-M   'P 1'
_cell_length_a   7.38268964
_cell_length_b   7.38269103
_cell_length_c   7.38269036
_cell_angle_alpha   120.20101878
_cell_angle_beta   119.91203411
_cell_angle_gamma   89.90230546
_symmetry_Int_Tables_number   1
_chemical_formula_structural   HfScCuS4
_chemical_formula_sum   'Hf2 Sc2 Cu2 S8'
_cell_volume   284.28476869
_cell_formula_units_Z   2
loop_
 _symmetry_equiv_pos_site_id
 _symmetry_equiv_pos_as_xyz
  1  'x, y, z'
loop_
 _atom_site_type_symbol
 _atom_site_label
 _atom_site_symmetry_multiplicity
 _atom_site_fract_x
 _atom_site_fract_y
 _atom_site_fract_z
 _atom_site_occupancy
  Hf  Hf0  1  0.000000  0.500000  0.000000  1
  Hf  Hf1  1  0.000000  0.000000  0.500000  1
  Sc  Sc2  1  0.500000  0.500000  0.000000  1
  Sc  Sc3  1  0.000000  0.500000  0.500000  1
  Cu  Cu4  1  0.627917  0.877917  0.750000  1
  Cu  Cu5  1  0.372083  0.122083  0.250000  1
  S  S6  1  0.241275  0.749896  0.491379  1
  S  S7  1  0.758518  0.749896  0.008621  1
  S  S8  1  0.756973  0.750310  0.493338  1
  S  S9  1  0.756973  0.263635  0.006662  1
  S  S10  1  0.758725  0.250104  0.508621  1
  S  S11  1  0.241482  0.250104  0.991379  1
  S  S12  1  0.243027  0.249690  0.506662  1
  S  S13  1  0.243027  0.736365  0.993338  1
