# generated using pymatgen
data_Tb3Dy2P12Ru6Rh13
_symmetry_space_group_name_H-M   'P 1'
_cell_length_a   12.65338527
_cell_length_b   12.66247766
_cell_length_c   3.94149900
_cell_angle_alpha   90.00000000
_cell_angle_beta   90.00000000
_cell_angle_gamma   120.09600755
_symmetry_Int_Tables_number   1
_chemical_formula_structural   Tb3Dy2P12Ru6Rh13
_chemical_formula_sum   'Tb3 Dy2 P12 Ru6 Rh13'
_cell_volume   546.38216043
_cell_formula_units_Z   1
loop_
 _symmetry_equiv_pos_site_id
 _symmetry_equiv_pos_as_xyz
  1  'x, y, z'
loop_
 _atom_site_type_symbol
 _atom_site_label
 _atom_site_symmetry_multiplicity
 _atom_site_fract_x
 _atom_site_fract_y
 _atom_site_fract_z
 _atom_site_occupancy
  Tb  Tb0  1  0.668594  0.332097  0.000000  1
  Tb  Tb1  1  0.332640  0.667337  0.000000  1
  Tb  Tb2  1  0.813999  0.001234  0.500000  1
  Dy  Dy3  1  0.184906  0.187040  0.500000  1
  Dy  Dy4  1  0.999591  0.813378  0.500000  1
  P  P5  1  0.635486  0.999588  0.000000  1
  P  P6  1  0.364758  0.365260  0.000000  1
  P  P7  1  0.000390  0.633315  0.000000  1
  P  P8  1  0.688275  0.519163  0.500000  1
  P  P9  1  0.832375  0.309942  0.500000  1
  P  P10  1  0.316210  0.834117  0.500000  1
  P  P11  1  0.518948  0.690966  0.500000  1
  P  P12  1  0.180745  0.999796  0.000000  1
  P  P13  1  0.818670  0.818131  0.000000  1
  P  P14  1  0.996631  0.179178  0.000000  1
  P  P15  1  0.478839  0.167643  0.500000  1
  P  P16  1  0.165060  0.480047  0.500000  1
  Ru  Ru17  1  0.513717  0.874089  0.500000  1
  Ru  Ru18  1  0.715380  0.714791  0.500000  1
  Ru  Ru19  1  0.000703  0.284774  0.500000  1
  Ru  Ru20  1  0.003368  0.451870  0.000000  1
  Ru  Ru21  1  0.818228  0.195408  0.000000  1
  Ru  Ru22  1  0.281718  0.999171  0.500000  1
  Rh  Rh23  1  0.623932  0.804500  0.000000  1
  Rh  Rh24  1  0.181800  0.374881  0.000000  1
  Rh  Rh25  1  0.375388  0.182083  0.000000  1
  Rh  Rh26  1  0.194804  0.817641  0.000000  1
  Rh  Rh27  1  0.804193  0.621320  0.000000  1
  Rh  Rh28  1  0.872707  0.509973  0.500000  1
  Rh  Rh29  1  0.491156  0.360046  0.500000  1
  Rh  Rh30  1  0.637473  0.129746  0.500000  1
  Rh  Rh31  1  0.129052  0.640350  0.500000  1
  Rh  Rh32  1  0.358789  0.492139  0.500000  1
  Rh  Rh33  1  0.999824  0.998976  0.000000  1
  Rh  Rh34  1  0.454126  0.002108  0.000000  1
  Rh  Rh35  1  0.547526  0.547904  0.000000  1
