# generated using pymatgen
data_Hf4Co2CuSi4Pt
_symmetry_space_group_name_H-M   'P 1'
_cell_length_a   3.82267100
_cell_length_b   6.47132570
_cell_length_c   7.33044315
_cell_angle_alpha   91.30131715
_cell_angle_beta   90.00000000
_cell_angle_gamma   90.00000000
_symmetry_Int_Tables_number   1
_chemical_formula_structural   Hf4Co2CuSi4Pt
_chemical_formula_sum   'Hf4 Co2 Cu1 Si4 Pt1'
_cell_volume   181.29189393
_cell_formula_units_Z   1
loop_
 _symmetry_equiv_pos_site_id
 _symmetry_equiv_pos_as_xyz
  1  'x, y, z'
loop_
 _atom_site_type_symbol
 _atom_site_label
 _atom_site_symmetry_multiplicity
 _atom_site_fract_x
 _atom_site_fract_y
 _atom_site_fract_z
 _atom_site_occupancy
  Hf  Hf0  1  0.750000  0.482908  0.321984  1
  Hf  Hf1  1  0.250000  0.019609  0.808420  1
  Hf  Hf2  1  0.750000  0.978616  0.192938  1
  Hf  Hf3  1  0.250000  0.517268  0.673449  1
  Co  Co4  1  0.250000  0.139878  0.438284  1
  Co  Co5  1  0.750000  0.859186  0.563020  1
  Cu  Cu6  1  0.250000  0.653116  0.064920  1
  Si  Si7  1  0.250000  0.260455  0.133648  1
  Si  Si8  1  0.250000  0.779244  0.396003  1
  Si  Si9  1  0.750000  0.736328  0.871428  1
  Si  Si10  1  0.750000  0.219065  0.600008  1
  Pt  Pt11  1  0.750000  0.354326  0.935898  1
