# generated using pymatgen
data_Ca6Pr11Sm3Pb16
_symmetry_space_group_name_H-M   'P 1'
_cell_length_a   8.22942427
_cell_length_b   8.65463777
_cell_length_c   16.29552779
_cell_angle_alpha   90.05066338
_cell_angle_beta   89.73494108
_cell_angle_gamma   90.04774644
_symmetry_Int_Tables_number   1
_chemical_formula_structural   Ca6Pr11Sm3Pb16
_chemical_formula_sum   'Ca6 Pr11 Sm3 Pb16'
_cell_volume   1160.59798973
_cell_formula_units_Z   1
loop_
 _symmetry_equiv_pos_site_id
 _symmetry_equiv_pos_as_xyz
  1  'x, y, z'
loop_
 _atom_site_type_symbol
 _atom_site_label
 _atom_site_symmetry_multiplicity
 _atom_site_fract_x
 _atom_site_fract_y
 _atom_site_fract_z
 _atom_site_occupancy
  Ca  Ca0  1  0.830061  0.663297  0.376908  1
  Ca  Ca1  1  0.333324  0.834442  0.376637  1
  Ca  Ca2  1  0.834861  0.503048  0.749998  1
  Ca  Ca3  1  0.335059  0.997346  0.750038  1
  Ca  Ca4  1  0.164355  0.500330  0.251813  1
  Ca  Ca5  1  0.665416  0.999569  0.251905  1
  Pr  Pr6  1  0.837435  0.670411  0.124140  1
  Pr  Pr7  1  0.663272  0.168478  0.876048  1
  Pr  Pr8  1  0.165336  0.331866  0.623531  1
  Pr  Pr9  1  0.504288  0.684756  0.594297  1
  Pr  Pr10  1  0.005970  0.816623  0.904927  1
  Pr  Pr11  1  0.494498  0.314396  0.094401  1
  Pr  Pr12  1  0.993246  0.186378  0.404443  1
  Pr  Pr13  1  0.493795  0.314758  0.405146  1
  Pr  Pr14  1  0.996295  0.184051  0.094274  1
  Pr  Pr15  1  0.505527  0.682414  0.905071  1
  Pr  Pr16  1  0.004720  0.816030  0.594653  1
  Sm  Sm17  1  0.668403  0.165377  0.623879  1
  Sm  Sm18  1  0.165909  0.334230  0.876075  1
  Sm  Sm19  1  0.336281  0.832228  0.123586  1
  Pb  Pb20  1  0.681385  0.962057  0.460345  1
  Pb  Pb21  1  0.186343  0.539975  0.039027  1
  Pb  Pb22  1  0.314334  0.039960  0.961570  1
  Pb  Pb23  1  0.818564  0.461568  0.540513  1
  Pb  Pb24  1  0.324608  0.037274  0.539898  1
  Pb  Pb25  1  0.821027  0.460874  0.961034  1
  Pb  Pb26  1  0.681069  0.960825  0.039713  1
  Pb  Pb27  1  0.179237  0.538993  0.459378  1
  Pb  Pb28  1  0.470880  0.388603  0.749043  1
  Pb  Pb29  1  0.970885  0.110638  0.750194  1
  Pb  Pb30  1  0.528592  0.609105  0.249131  1
  Pb  Pb31  1  0.032265  0.891108  0.250167  1
  Pb  Pb32  1  0.700147  0.852185  0.750065  1
  Pb  Pb33  1  0.200497  0.647976  0.750308  1
  Pb  Pb34  1  0.296838  0.146163  0.249081  1
  Pb  Pb35  1  0.795282  0.352669  0.248762  1
