# generated using pymatgen
data_TbDy3Sc6(SiGe)4
_symmetry_space_group_name_H-M   'P 1'
_cell_length_a   7.16147816
_cell_length_b   7.42446326
_cell_length_c   14.07443119
_cell_angle_alpha   90.01891773
_cell_angle_beta   90.00223760
_cell_angle_gamma   90.02401655
_symmetry_Int_Tables_number   1
_chemical_formula_structural   TbDy3Sc6(SiGe)4
_chemical_formula_sum   'Tb2 Dy6 Sc12 Si8 Ge8'
_cell_volume   748.33925038
_cell_formula_units_Z   2
loop_
 _symmetry_equiv_pos_site_id
 _symmetry_equiv_pos_as_xyz
  1  'x, y, z'
loop_
 _atom_site_type_symbol
 _atom_site_label
 _atom_site_symmetry_multiplicity
 _atom_site_fract_x
 _atom_site_fract_y
 _atom_site_fract_z
 _atom_site_occupancy
  Tb  Tb0  1  0.009209  0.176379  0.098758  1
  Tb  Tb1  1  0.990791  0.823621  0.901242  1
  Dy  Dy2  1  0.490848  0.676359  0.901109  1
  Dy  Dy3  1  0.990799  0.823545  0.598895  1
  Dy  Dy4  1  0.509152  0.323641  0.098891  1
  Dy  Dy5  1  0.009201  0.176455  0.401105  1
  Dy  Dy6  1  0.509271  0.323612  0.401201  1
  Dy  Dy7  1  0.490729  0.676388  0.598799  1
  Sc  Sc8  1  0.162463  0.501867  0.749936  1
  Sc  Sc9  1  0.837537  0.498133  0.250064  1
  Sc  Sc10  1  0.337635  0.001880  0.250047  1
  Sc  Sc11  1  0.662365  0.998120  0.749953  1
  Sc  Sc12  1  0.333504  0.173418  0.626493  1
  Sc  Sc13  1  0.666496  0.826582  0.373507  1
  Sc  Sc14  1  0.166503  0.673387  0.373523  1
  Sc  Sc15  1  0.666381  0.826518  0.126593  1
  Sc  Sc16  1  0.833497  0.326613  0.626477  1
  Sc  Sc17  1  0.333619  0.173482  0.873407  1
  Sc  Sc18  1  0.833371  0.326790  0.873432  1
  Sc  Sc19  1  0.166629  0.673210  0.126568  1
  Si  Si20  1  0.034472  0.117897  0.749881  1
  Si  Si21  1  0.965528  0.882103  0.250119  1
  Si  Si22  1  0.465587  0.617560  0.250053  1
  Si  Si23  1  0.534413  0.382440  0.749947  1
  Si  Si24  1  0.287759  0.872455  0.749827  1
  Si  Si25  1  0.712241  0.127545  0.250173  1
  Si  Si26  1  0.212592  0.372688  0.250159  1
  Si  Si27  1  0.787408  0.627312  0.749841  1
  Ge  Ge28  1  0.168318  0.461622  0.540815  1
  Ge  Ge29  1  0.831682  0.538378  0.459185  1
  Ge  Ge30  1  0.331632  0.961647  0.459221  1
  Ge  Ge31  1  0.831479  0.538392  0.040837  1
  Ge  Ge32  1  0.668368  0.038353  0.540779  1
  Ge  Ge33  1  0.168521  0.461608  0.959163  1
  Ge  Ge34  1  0.667619  0.038489  0.959249  1
  Ge  Ge35  1  0.332381  0.961511  0.040751  1
