# generated using pymatgen
data_Tb5Tm5InPb5
_symmetry_space_group_name_H-M   'P 1'
_cell_length_a   6.62805802
_cell_length_b   8.99358554
_cell_length_c   9.02238320
_cell_angle_alpha   119.97207375
_cell_angle_beta   89.99640605
_cell_angle_gamma   90.00761835
_symmetry_Int_Tables_number   1
_chemical_formula_structural   Tb5Tm5InPb5
_chemical_formula_sum   'Tb5 Tm5 In1 Pb5'
_cell_volume   465.90053664
_cell_formula_units_Z   1
loop_
 _symmetry_equiv_pos_site_id
 _symmetry_equiv_pos_as_xyz
  1  'x, y, z'
loop_
 _atom_site_type_symbol
 _atom_site_label
 _atom_site_symmetry_multiplicity
 _atom_site_fract_x
 _atom_site_fract_y
 _atom_site_fract_z
 _atom_site_occupancy
  Tb  Tb0  1  0.749938  0.239119  0.000184  1
  Tb  Tb1  1  0.749974  0.760493  0.765924  1
  Tb  Tb2  1  0.250156  0.762873  0.000669  1
  Tb  Tb3  1  0.249941  0.237786  0.237658  1
  Tb  Tb4  1  0.249920  0.000689  0.761269  1
  Tm  Tm5  1  0.501982  0.336581  0.670355  1
  Tm  Tm6  1  0.502133  0.666257  0.329155  1
  Tm  Tm7  1  0.997857  0.666346  0.329311  1
  Tm  Tm8  1  0.998062  0.336728  0.670239  1
  Tm  Tm9  1  0.750225  0.994403  0.233987  1
  In  In10  1  0.749812  0.602916  0.001574  1
  Pb  Pb11  1  0.750051  0.393184  0.395339  1
  Pb  Pb12  1  0.750041  0.999380  0.603375  1
  Pb  Pb13  1  0.249969  0.397600  0.000231  1
  Pb  Pb14  1  0.250015  0.603768  0.602350  1
  Pb  Pb15  1  0.249923  0.001878  0.398377  1
