# generated using pymatgen
data_Nb6Al4CrNiC2
_symmetry_space_group_name_H-M   'P 1'
_cell_length_a   8.29814773
_cell_length_b   8.29814782
_cell_length_c   8.32112800
_cell_angle_alpha   59.90835744
_cell_angle_beta   59.90835708
_cell_angle_gamma   59.85022586
_symmetry_Int_Tables_number   1
_chemical_formula_structural   Nb6Al4CrNiC2
_chemical_formula_sum   'Nb12 Al8 Cr2 Ni2 C4'
_cell_volume   404.14194950
_cell_formula_units_Z   2
loop_
 _symmetry_equiv_pos_site_id
 _symmetry_equiv_pos_as_xyz
  1  'x, y, z'
loop_
 _atom_site_type_symbol
 _atom_site_label
 _atom_site_symmetry_multiplicity
 _atom_site_fract_x
 _atom_site_fract_y
 _atom_site_fract_z
 _atom_site_occupancy
  Nb  Nb0  1  0.803476  0.803476  0.196524  1
  Nb  Nb1  1  0.186788  0.186788  0.813212  1
  Nb  Nb2  1  0.807450  0.199395  0.809405  1
  Nb  Nb3  1  0.199395  0.807450  0.183750  1
  Nb  Nb4  1  0.199395  0.807450  0.809405  1
  Nb  Nb5  1  0.807450  0.199395  0.183750  1
  Nb  Nb6  1  0.446524  0.446524  0.053476  1
  Nb  Nb7  1  0.063212  0.063212  0.436788  1
  Nb  Nb8  1  0.442550  0.050605  0.440595  1
  Nb  Nb9  1  0.050605  0.442550  0.066250  1
  Nb  Nb10  1  0.050605  0.442550  0.440595  1
  Nb  Nb11  1  0.442550  0.050605  0.066250  1
  Al  Al12  1  0.745444  0.409558  0.422499  1
  Al  Al13  1  0.409558  0.745444  0.422499  1
  Al  Al14  1  0.413002  0.413002  0.753017  1
  Al  Al15  1  0.413002  0.413002  0.420979  1
  Al  Al16  1  0.504556  0.840442  0.827501  1
  Al  Al17  1  0.840442  0.504556  0.827501  1
  Al  Al18  1  0.836998  0.836998  0.496983  1
  Al  Al19  1  0.836998  0.836998  0.829021  1
  Cr  Cr20  1  0.625000  0.625000  0.125000  1
  Cr  Cr21  1  0.625000  0.625000  0.625000  1
  Ni  Ni22  1  0.125000  0.625000  0.625000  1
  Ni  Ni23  1  0.625000  0.125000  0.625000  1
  C  C24  1  0.625000  0.125000  0.125000  1
  C  C25  1  0.125000  0.625000  0.125000  1
  C  C26  1  0.125000  0.125000  0.625000  1
  C  C27  1  0.125000  0.125000  0.125000  1
