# generated using pymatgen
data_Li3Ac2LaSi3
_symmetry_space_group_name_H-M   'P 1'
_cell_length_a   7.59984200
_cell_length_b   7.57118320
_cell_length_c   4.49419200
_cell_angle_alpha   90.00000000
_cell_angle_beta   90.00000000
_cell_angle_gamma   120.12529417
_symmetry_Int_Tables_number   1
_chemical_formula_structural   Li3Ac2LaSi3
_chemical_formula_sum   'Li3 Ac2 La1 Si3'
_cell_volume   223.66646267
_cell_formula_units_Z   1
loop_
 _symmetry_equiv_pos_site_id
 _symmetry_equiv_pos_as_xyz
  1  'x, y, z'
loop_
 _atom_site_type_symbol
 _atom_site_label
 _atom_site_symmetry_multiplicity
 _atom_site_fract_x
 _atom_site_fract_y
 _atom_site_fract_z
 _atom_site_occupancy
  Li  Li0  1  0.768517  0.774407  0.500000  1
  Li  Li1  1  0.234208  0.000000  0.500000  1
  Li  Li2  1  0.994110  0.225593  0.500000  1
  Ac  Ac3  1  0.001815  0.583761  0.000000  1
  Ac  Ac4  1  0.418055  0.416239  0.000000  1
  La  La5  1  0.585842  0.000000  0.000000  1
  Si  Si6  1  0.341748  0.677755  0.500000  1
  Si  Si7  1  0.663993  0.322245  0.500000  1
  Si  Si8  1  0.991711  0.000000  0.000000  1
