# generated using pymatgen
data_Ac2Se3O10
_symmetry_space_group_name_H-M   'P 1'
_cell_length_a   9.30044756
_cell_length_b   9.30044721
_cell_length_c   8.62334718
_cell_angle_alpha   67.26624658
_cell_angle_beta   67.26624928
_cell_angle_gamma   47.21891615
_symmetry_Int_Tables_number   1
_chemical_formula_structural   Ac2Se3O10
_chemical_formula_sum   'Ac4 Se6 O20'
_cell_volume   496.38836618
_cell_formula_units_Z   2
loop_
 _symmetry_equiv_pos_site_id
 _symmetry_equiv_pos_as_xyz
  1  'x, y, z'
loop_
 _atom_site_type_symbol
 _atom_site_label
 _atom_site_symmetry_multiplicity
 _atom_site_fract_x
 _atom_site_fract_y
 _atom_site_fract_z
 _atom_site_occupancy
  Ac  Ac0  1  0.783199  0.593397  0.855814  1
  Ac  Ac1  1  0.406603  0.216801  0.644186  1
  Ac  Ac2  1  0.216801  0.406603  0.144186  1
  Ac  Ac3  1  0.593397  0.783199  0.355814  1
  Se  Se4  1  0.943709  0.792890  0.459302  1
  Se  Se5  1  0.207110  0.056291  0.040698  1
  Se  Se6  1  0.056291  0.207110  0.540698  1
  Se  Se7  1  0.792890  0.943709  0.959302  1
  Se  Se8  1  0.623635  0.376365  0.250000  1
  Se  Se9  1  0.376365  0.623635  0.750000  1
  O  O10  1  0.766413  0.288359  0.068995  1
  O  O11  1  0.711641  0.233587  0.431005  1
  O  O12  1  0.233587  0.711641  0.931005  1
  O  O13  1  0.288359  0.766413  0.568995  1
  O  O14  1  0.407469  0.414540  0.294295  1
  O  O15  1  0.585460  0.592531  0.205705  1
  O  O16  1  0.592531  0.585460  0.705705  1
  O  O17  1  0.414540  0.407469  0.794295  1
  O  O18  1  0.066559  0.576451  0.608911  1
  O  O19  1  0.423549  0.933441  0.891089  1
  O  O20  1  0.933441  0.423549  0.391089  1
  O  O21  1  0.576451  0.066559  0.108911  1
  O  O22  1  0.982161  0.720574  0.284390  1
  O  O23  1  0.279426  0.017839  0.215610  1
  O  O24  1  0.017839  0.279426  0.715610  1
  O  O25  1  0.720574  0.982161  0.784390  1
  O  O26  1  0.699791  0.860911  0.548062  1
  O  O27  1  0.139089  0.300209  0.951938  1
  O  O28  1  0.300209  0.139089  0.451938  1
  O  O29  1  0.860911  0.699791  0.048062  1
