# generated using pymatgen
data_Dy4Lu8TcRu3
_symmetry_space_group_name_H-M   'P 1'
_cell_length_a   6.21573532
_cell_length_b   7.29280708
_cell_length_c   8.93675400
_cell_angle_alpha   90.00000000
_cell_angle_beta   90.00000000
_cell_angle_gamma   89.99005398
_symmetry_Int_Tables_number   1
_chemical_formula_structural   Dy4Lu8TcRu3
_chemical_formula_sum   'Dy4 Lu8 Tc1 Ru3'
_cell_volume   405.10446929
_cell_formula_units_Z   1
loop_
 _symmetry_equiv_pos_site_id
 _symmetry_equiv_pos_as_xyz
  1  'x, y, z'
loop_
 _atom_site_type_symbol
 _atom_site_label
 _atom_site_symmetry_multiplicity
 _atom_site_fract_x
 _atom_site_fract_y
 _atom_site_fract_z
 _atom_site_occupancy
  Dy  Dy0  1  0.871452  0.539714  0.250000  1
  Dy  Dy1  1  0.625173  0.041057  0.250000  1
  Dy  Dy2  1  0.129983  0.458427  0.750000  1
  Dy  Dy3  1  0.369894  0.958662  0.750000  1
  Lu  Lu4  1  0.335354  0.676085  0.063985  1
  Lu  Lu5  1  0.165552  0.175946  0.436370  1
  Lu  Lu6  1  0.665493  0.323734  0.563686  1
  Lu  Lu7  1  0.836688  0.824974  0.937343  1
  Lu  Lu8  1  0.665493  0.323734  0.936314  1
  Lu  Lu9  1  0.836688  0.824974  0.562657  1
  Lu  Lu10  1  0.335354  0.676085  0.436015  1
  Lu  Lu11  1  0.165552  0.175946  0.063630  1
  Tc  Tc12  1  0.039230  0.883679  0.250000  1
  Ru  Ru13  1  0.458986  0.383563  0.250000  1
  Ru  Ru14  1  0.957932  0.117592  0.750000  1
  Ru  Ru15  1  0.541177  0.615829  0.750000  1
