# generated using pymatgen
data_SmY2Th(ReB6)2
_symmetry_space_group_name_H-M   'P 1'
_cell_length_a   3.74565900
_cell_length_b   9.26260293
_cell_length_c   11.68834505
_cell_angle_alpha   89.85646329
_cell_angle_beta   90.00000000
_cell_angle_gamma   90.00000000
_symmetry_Int_Tables_number   1
_chemical_formula_structural   SmY2Th(ReB6)2
_chemical_formula_sum   'Sm2 Y4 Th2 Re4 B24'
_cell_volume   405.52062302
_cell_formula_units_Z   2
loop_
 _symmetry_equiv_pos_site_id
 _symmetry_equiv_pos_as_xyz
  1  'x, y, z'
loop_
 _atom_site_type_symbol
 _atom_site_label
 _atom_site_symmetry_multiplicity
 _atom_site_fract_x
 _atom_site_fract_y
 _atom_site_fract_z
 _atom_site_occupancy
  Sm  Sm0  1  0.000000  0.324064  0.414467  1
  Sm  Sm1  1  0.000000  0.675936  0.585533  1
  Y  Y2  1  0.000000  0.443079  0.130083  1
  Y  Y3  1  0.000000  0.556921  0.869917  1
  Y  Y4  1  0.000000  0.942681  0.371748  1
  Y  Y5  1  0.000000  0.057319  0.628252  1
  Th  Th6  1  0.000000  0.821809  0.086278  1
  Th  Th7  1  0.000000  0.178191  0.913722  1
  Re  Re8  1  0.000000  0.137614  0.179360  1
  Re  Re9  1  0.000000  0.862386  0.820640  1
  Re  Re10  1  0.000000  0.639597  0.319763  1
  Re  Re11  1  0.000000  0.360403  0.680237  1
  B  B12  1  0.500000  0.055414  0.070526  1
  B  B13  1  0.500000  0.944586  0.929475  1
  B  B14  1  0.500000  0.554298  0.432042  1
  B  B15  1  0.500000  0.445702  0.567957  1
  B  B16  1  0.500000  0.249074  0.084776  1
  B  B17  1  0.500000  0.750926  0.915224  1
  B  B18  1  0.500000  0.748185  0.418010  1
  B  B19  1  0.500000  0.251815  0.581990  1
  B  B20  1  0.500000  0.290712  0.234830  1
  B  B21  1  0.500000  0.709288  0.765170  1
  B  B22  1  0.500000  0.789930  0.267504  1
  B  B23  1  0.500000  0.210070  0.732496  1
  B  B24  1  0.500000  0.130527  0.314650  1
  B  B25  1  0.500000  0.869473  0.685350  1
  B  B26  1  0.500000  0.629920  0.187708  1
  B  B27  1  0.500000  0.370080  0.812292  1
  B  B28  1  0.500000  0.483942  0.288348  1
  B  B29  1  0.500000  0.516058  0.711652  1
  B  B30  1  0.500000  0.984875  0.214365  1
  B  B31  1  0.500000  0.015125  0.785635  1
  B  B32  1  0.500000  0.100528  0.471973  1
  B  B33  1  0.500000  0.899472  0.528027  1
  B  B34  1  0.500000  0.600782  0.028077  1
  B  B35  1  0.500000  0.399218  0.971923  1
