# generated using pymatgen
data_YbMgZr2(B4Ru5)2
_symmetry_space_group_name_H-M   'P 1'
_cell_length_a   3.01851800
_cell_length_b   8.60158508
_cell_length_c   10.15793900
_cell_angle_alpha   90.48177439
_cell_angle_beta   90.00000000
_cell_angle_gamma   90.00000000
_symmetry_Int_Tables_number   1
_chemical_formula_structural   YbMgZr2(B4Ru5)2
_chemical_formula_sum   'Yb1 Mg1 Zr2 B8 Ru10'
_cell_volume   263.73180467
_cell_formula_units_Z   1
loop_
 _symmetry_equiv_pos_site_id
 _symmetry_equiv_pos_as_xyz
  1  'x, y, z'
loop_
 _atom_site_type_symbol
 _atom_site_label
 _atom_site_symmetry_multiplicity
 _atom_site_fract_x
 _atom_site_fract_y
 _atom_site_fract_z
 _atom_site_occupancy
  Yb  Yb0  1  0.500000  0.659872  0.820737  1
  Mg  Mg1  1  0.500000  0.845729  0.313091  1
  Zr  Zr2  1  0.500000  0.344569  0.185113  1
  Zr  Zr3  1  0.500000  0.156793  0.675743  1
  B  B4  1  0.500000  0.849551  0.600149  1
  B  B5  1  0.500000  0.141258  0.397818  1
  B  B6  1  0.500000  0.353127  0.900405  1
  B  B7  1  0.500000  0.651773  0.104669  1
  B  B8  1  0.500000  0.965407  0.911341  1
  B  B9  1  0.500000  0.034918  0.087342  1
  B  B10  1  0.500000  0.465759  0.588378  1
  B  B11  1  0.500000  0.537013  0.412386  1
  Ru  Ru12  1  0.000000  0.401840  0.738934  1
  Ru  Ru13  1  0.000000  0.600889  0.264826  1
  Ru  Ru14  1  0.000000  0.911445  0.759884  1
  Ru  Ru15  1  0.000000  0.094334  0.237059  1
  Ru  Ru16  1  0.000000  0.993202  0.496221  1
  Ru  Ru17  1  0.000000  0.497442  0.004791  1
  Ru  Ru18  1  0.000000  0.656803  0.548317  1
  Ru  Ru19  1  0.000000  0.334790  0.452373  1
  Ru  Ru20  1  0.000000  0.161714  0.954246  1
  Ru  Ru21  1  0.000000  0.841776  0.046177  1
