# generated using pymatgen
data_Dy3Er7(AlSb2)2
_symmetry_space_group_name_H-M   'P 1'
_cell_length_a   8.83803528
_cell_length_b   8.84105664
_cell_length_c   6.36043800
_cell_angle_alpha   90.00000000
_cell_angle_beta   90.00000000
_cell_angle_gamma   119.95717015
_symmetry_Int_Tables_number   1
_chemical_formula_structural   Dy3Er7(AlSb2)2
_chemical_formula_sum   'Dy3 Er7 Al2 Sb4'
_cell_volume   430.59088386
_cell_formula_units_Z   1
loop_
 _symmetry_equiv_pos_site_id
 _symmetry_equiv_pos_as_xyz
  1  'x, y, z'
loop_
 _atom_site_type_symbol
 _atom_site_label
 _atom_site_symmetry_multiplicity
 _atom_site_fract_x
 _atom_site_fract_y
 _atom_site_fract_z
 _atom_site_occupancy
  Dy  Dy0  1  0.008840  0.766491  0.750000  1
  Dy  Dy1  1  0.008837  0.242391  0.250000  1
  Dy  Dy2  1  0.755498  0.998815  0.750000  1
  Er  Er3  1  0.755205  0.756284  0.250000  1
  Er  Er4  1  0.242144  0.232399  0.750000  1
  Er  Er5  1  0.241902  0.009636  0.250000  1
  Er  Er6  1  0.335885  0.667928  0.499953  1
  Er  Er7  1  0.655563  0.327818  0.000061  1
  Er  Er8  1  0.655563  0.327818  0.499939  1
  Er  Er9  1  0.335885  0.667928  0.000047  1
  Al  Al10  1  0.397940  0.997353  0.750000  1
  Al  Al11  1  0.398300  0.400945  0.250000  1
  Sb  Sb12  1  0.998588  0.606805  0.250000  1
  Sb  Sb13  1  0.998968  0.392341  0.750000  1
  Sb  Sb14  1  0.605323  0.604390  0.750000  1
  Sb  Sb15  1  0.605559  0.000658  0.250000  1
