# generated using pymatgen
data_TbPa3Co2(NiGe2)2
_symmetry_space_group_name_H-M   'P 1'
_cell_length_a   4.21039300
_cell_length_b   6.97835665
_cell_length_c   7.26699192
_cell_angle_alpha   89.92812508
_cell_angle_beta   90.00000000
_cell_angle_gamma   90.00000000
_symmetry_Int_Tables_number   1
_chemical_formula_structural   TbPa3Co2(NiGe2)2
_chemical_formula_sum   'Tb1 Pa3 Co2 Ni2 Ge4'
_cell_volume   213.51585604
_cell_formula_units_Z   1
loop_
 _symmetry_equiv_pos_site_id
 _symmetry_equiv_pos_as_xyz
  1  'x, y, z'
loop_
 _atom_site_type_symbol
 _atom_site_label
 _atom_site_symmetry_multiplicity
 _atom_site_fract_x
 _atom_site_fract_y
 _atom_site_fract_z
 _atom_site_occupancy
  Tb  Tb0  1  0.750000  0.511306  0.792248  1
  Pa  Pa1  1  0.250000  0.491868  0.213071  1
  Pa  Pa2  1  0.250000  0.989857  0.288481  1
  Pa  Pa3  1  0.750000  0.012439  0.705665  1
  Co  Co4  1  0.750000  0.790477  0.092259  1
  Co  Co5  1  0.750000  0.280630  0.412162  1
  Ni  Ni6  1  0.250000  0.206768  0.917458  1
  Ni  Ni7  1  0.250000  0.720923  0.578383  1
  Ge  Ge8  1  0.750000  0.198775  0.084330  1
  Ge  Ge9  1  0.250000  0.297056  0.587664  1
  Ge  Ge10  1  0.250000  0.805188  0.912021  1
  Ge  Ge11  1  0.750000  0.694712  0.416259  1
