# generated using pymatgen
data_Tb6ScMoO12
_symmetry_space_group_name_H-M   'P 1'
_cell_length_a   6.65995967
_cell_length_b   6.65995867
_cell_length_c   6.65995955
_cell_angle_alpha   92.13053534
_cell_angle_beta   92.13051762
_cell_angle_gamma   92.13053560
_symmetry_Int_Tables_number   1
_chemical_formula_structural   Tb6ScMoO12
_chemical_formula_sum   'Tb6 Sc1 Mo1 O12'
_cell_volume   294.77463361
_cell_formula_units_Z   1
loop_
 _symmetry_equiv_pos_site_id
 _symmetry_equiv_pos_as_xyz
  1  'x, y, z'
loop_
 _atom_site_type_symbol
 _atom_site_label
 _atom_site_symmetry_multiplicity
 _atom_site_fract_x
 _atom_site_fract_y
 _atom_site_fract_z
 _atom_site_occupancy
  Tb  Tb0  1  0.745693  0.931242  0.439716  1
  Tb  Tb1  1  0.931242  0.439716  0.745693  1
  Tb  Tb2  1  0.439716  0.745693  0.931242  1
  Tb  Tb3  1  0.254307  0.068758  0.560284  1
  Tb  Tb4  1  0.068758  0.560284  0.254307  1
  Tb  Tb5  1  0.560284  0.254307  0.068758  1
  Sc  Sc6  1  0.500000  0.500000  0.500000  1
  Mo  Mo7  1  0.000000  0.000000  0.000000  1
  O  O8  1  0.592172  0.463345  0.804881  1
  O  O9  1  0.463345  0.804881  0.592172  1
  O  O10  1  0.804881  0.592172  0.463345  1
  O  O11  1  0.407828  0.536655  0.195119  1
  O  O12  1  0.536655  0.195119  0.407828  1
  O  O13  1  0.195119  0.407828  0.536655  1
  O  O14  1  0.068576  0.910066  0.309504  1
  O  O15  1  0.910066  0.309504  0.068576  1
  O  O16  1  0.690496  0.931424  0.089934  1
  O  O17  1  0.089934  0.690496  0.931424  1
  O  O18  1  0.931424  0.089934  0.690496  1
  O  O19  1  0.309504  0.068576  0.910066  1
