# generated using pymatgen
data_Ce2V3Co9As7
_symmetry_space_group_name_H-M   'P 1'
_cell_length_a   3.82058700
_cell_length_b   9.39595995
_cell_length_c   9.39596100
_cell_angle_alpha   120.00000016
_cell_angle_beta   90.00000000
_cell_angle_gamma   90.00000000
_symmetry_Int_Tables_number   1
_chemical_formula_structural   Ce2V3Co9As7
_chemical_formula_sum   'Ce2 V3 Co9 As7'
_cell_volume   292.10775517
_cell_formula_units_Z   1
loop_
 _symmetry_equiv_pos_site_id
 _symmetry_equiv_pos_as_xyz
  1  'x, y, z'
loop_
 _atom_site_type_symbol
 _atom_site_label
 _atom_site_symmetry_multiplicity
 _atom_site_fract_x
 _atom_site_fract_y
 _atom_site_fract_z
 _atom_site_occupancy
  Ce  Ce0  1  0.000000  0.666667  0.333333  1
  Ce  Ce1  1  0.500000  0.333333  0.666667  1
  V  V2  1  0.500000  0.784514  0.899840  1
  V  V3  1  0.500000  0.115325  0.215486  1
  V  V4  1  0.500000  0.100160  0.884675  1
  Co  Co5  1  0.000000  0.566880  0.937934  1
  Co  Co6  1  0.000000  0.371052  0.433120  1
  Co  Co7  1  0.000000  0.062066  0.628948  1
  Co  Co8  1  0.000000  0.874742  0.154991  1
  Co  Co9  1  0.000000  0.280248  0.125258  1
  Co  Co10  1  0.000000  0.845009  0.719752  1
  Co  Co11  1  0.500000  0.949424  0.380806  1
  Co  Co12  1  0.500000  0.431381  0.050576  1
  Co  Co13  1  0.500000  0.619194  0.568619  1
  As  As14  1  0.000000  0.000000  0.000000  1
  As  As15  1  0.500000  0.706819  0.111190  1
  As  As16  1  0.500000  0.404371  0.293181  1
  As  As17  1  0.500000  0.888810  0.595629  1
  As  As18  1  0.000000  0.592611  0.702816  1
  As  As19  1  0.000000  0.110205  0.407389  1
  As  As20  1  0.000000  0.297184  0.889795  1
