# generated using pymatgen
data_Er5In2PbCl
_symmetry_space_group_name_H-M   'P 1'
_cell_length_a   9.03037644
_cell_length_b   9.03037605
_cell_length_c   6.67282100
_cell_angle_alpha   90.00000000
_cell_angle_beta   90.00000000
_cell_angle_gamma   119.93530632
_symmetry_Int_Tables_number   1
_chemical_formula_structural   Er5In2PbCl
_chemical_formula_sum   'Er10 In4 Pb2 Cl2'
_cell_volume   471.55737711
_cell_formula_units_Z   2
loop_
 _symmetry_equiv_pos_site_id
 _symmetry_equiv_pos_as_xyz
  1  'x, y, z'
loop_
 _atom_site_type_symbol
 _atom_site_label
 _atom_site_symmetry_multiplicity
 _atom_site_fract_x
 _atom_site_fract_y
 _atom_site_fract_z
 _atom_site_occupancy
  Er  Er0  1  0.737871  0.741701  0.250000  1
  Er  Er1  1  0.997472  0.740730  0.750000  1
  Er  Er2  1  0.743898  0.001197  0.750000  1
  Er  Er3  1  0.335220  0.664780  0.500000  1
  Er  Er4  1  0.258299  0.262129  0.750000  1
  Er  Er5  1  0.998803  0.256102  0.250000  1
  Er  Er6  1  0.666898  0.333102  0.500000  1
  Er  Er7  1  0.259270  0.002528  0.250000  1
  Er  Er8  1  0.335220  0.664780  0.000000  1
  Er  Er9  1  0.666898  0.333102  0.000000  1
  In  In10  1  0.607647  0.000409  0.250000  1
  In  In11  1  0.999591  0.392353  0.750000  1
  In  In12  1  0.393449  0.393560  0.250000  1
  In  In13  1  0.606440  0.606551  0.750000  1
  Pb  Pb14  1  0.391443  0.999599  0.750000  1
  Pb  Pb15  1  0.000401  0.608557  0.250000  1
  Cl  Cl16  1  0.000590  0.999410  0.500000  1
  Cl  Cl17  1  0.000590  0.999410  0.000000  1
