# generated using pymatgen
data_Th4Ga7SiTc16
_symmetry_space_group_name_H-M   'P 1'
_cell_length_a   4.32400700
_cell_length_b   7.20514592
_cell_length_c   15.80282339
_cell_angle_alpha   89.77501675
_cell_angle_beta   90.00000000
_cell_angle_gamma   90.00000000
_symmetry_Int_Tables_number   1
_chemical_formula_structural   Th4Ga7SiTc16
_chemical_formula_sum   'Th4 Ga7 Si1 Tc16'
_cell_volume   492.33476922
_cell_formula_units_Z   1
loop_
 _symmetry_equiv_pos_site_id
 _symmetry_equiv_pos_as_xyz
  1  'x, y, z'
loop_
 _atom_site_type_symbol
 _atom_site_label
 _atom_site_symmetry_multiplicity
 _atom_site_fract_x
 _atom_site_fract_y
 _atom_site_fract_z
 _atom_site_occupancy
  Th  Th0  1  0.000000  0.598134  0.117193  1
  Th  Th1  1  0.000000  0.403959  0.881865  1
  Th  Th2  1  0.500000  0.096830  0.383090  1
  Th  Th3  1  0.500000  0.902194  0.618506  1
  Ga  Ga4  1  0.000000  0.831010  0.473355  1
  Ga  Ga5  1  0.000000  0.169125  0.527924  1
  Ga  Ga6  1  0.500000  0.331269  0.027432  1
  Ga  Ga7  1  0.500000  0.670015  0.972218  1
  Ga  Ga8  1  0.000000  0.307650  0.271918  1
  Ga  Ga9  1  0.000000  0.692261  0.728079  1
  Ga  Ga10  1  0.500000  0.807655  0.227677  1
  Si  Si11  1  0.500000  0.190535  0.772988  1
  Tc  Tc12  1  0.000000  0.133852  0.052933  1
  Tc  Tc13  1  0.000000  0.867055  0.944502  1
  Tc  Tc14  1  0.500000  0.635025  0.446603  1
  Tc  Tc15  1  0.500000  0.365874  0.554365  1
  Tc  Tc16  1  0.000000  0.727083  0.316178  1
  Tc  Tc17  1  0.000000  0.273046  0.685344  1
  Tc  Tc18  1  0.500000  0.224127  0.184232  1
  Tc  Tc19  1  0.500000  0.772003  0.815363  1
  Tc  Tc20  1  0.000000  0.448422  0.422137  1
  Tc  Tc21  1  0.000000  0.552130  0.578836  1
  Tc  Tc22  1  0.500000  0.948741  0.076582  1
  Tc  Tc23  1  0.500000  0.057814  0.918618  1
  Tc  Tc24  1  0.000000  0.993852  0.202271  1
  Tc  Tc25  1  0.000000  0.010366  0.795180  1
  Tc  Tc26  1  0.500000  0.492963  0.297897  1
  Tc  Tc27  1  0.500000  0.497009  0.706713  1
