# generated using pymatgen
data_Lu(TiRe6)4
_symmetry_space_group_name_H-M   'P 1'
_cell_length_a   8.40689336
_cell_length_b   8.40689425
_cell_length_c   8.40689400
_cell_angle_alpha   109.47122003
_cell_angle_beta   109.47122217
_cell_angle_gamma   109.47121355
_symmetry_Int_Tables_number   1
_chemical_formula_structural   Lu(TiRe6)4
_chemical_formula_sum   'Lu1 Ti4 Re24'
_cell_volume   457.38807459
_cell_formula_units_Z   1
loop_
 _symmetry_equiv_pos_site_id
 _symmetry_equiv_pos_as_xyz
  1  'x, y, z'
loop_
 _atom_site_type_symbol
 _atom_site_label
 _atom_site_symmetry_multiplicity
 _atom_site_fract_x
 _atom_site_fract_y
 _atom_site_fract_z
 _atom_site_occupancy
  Lu  Lu0  1  0.000000  0.000000  0.000000  1
  Ti  Ti1  1  0.628803  0.000000  0.000000  1
  Ti  Ti2  1  0.000000  0.628803  0.000000  1
  Ti  Ti3  1  0.371195  0.371195  0.371195  1
  Ti  Ti4  1  0.000000  0.000000  0.628803  1
  Re  Re5  1  0.377563  0.194223  0.000000  1
  Re  Re6  1  0.194223  0.377563  0.000000  1
  Re  Re7  1  0.681527  0.400081  0.000000  1
  Re  Re8  1  0.400081  0.681527  0.000000  1
  Re  Re9  1  0.805777  0.805777  0.183340  1
  Re  Re10  1  0.377563  0.000000  0.194223  1
  Re  Re11  1  0.000000  0.377563  0.194223  1
  Re  Re12  1  0.599918  0.599918  0.281446  1
  Re  Re13  1  0.718553  0.318472  0.318472  1
  Re  Re14  1  0.318472  0.718553  0.318472  1
  Re  Re15  1  0.194223  0.000000  0.377563  1
  Re  Re16  1  0.000000  0.194223  0.377563  1
  Re  Re17  1  0.681527  0.000000  0.400081  1
  Re  Re18  1  0.000000  0.681527  0.400081  1
  Re  Re19  1  0.599918  0.281446  0.599918  1
  Re  Re20  1  0.281446  0.599918  0.599918  1
  Re  Re21  1  0.816660  0.622437  0.622437  1
  Re  Re22  1  0.622437  0.816660  0.622437  1
  Re  Re23  1  0.400081  0.000000  0.681527  1
  Re  Re24  1  0.000000  0.400081  0.681527  1
  Re  Re25  1  0.318472  0.318472  0.718553  1
  Re  Re26  1  0.805777  0.183340  0.805777  1
  Re  Re27  1  0.183340  0.805777  0.805777  1
  Re  Re28  1  0.622437  0.622437  0.816660  1
