# generated using pymatgen
data_SmTi2(GaPd)2
_symmetry_space_group_name_H-M   'P 1'
_cell_length_a   5.57141624
_cell_length_b   5.57141578
_cell_length_c   5.57141791
_cell_angle_alpha   100.45459551
_cell_angle_beta   102.91808884
_cell_angle_gamma   126.51161806
_symmetry_Int_Tables_number   1
_chemical_formula_structural   SmTi2(GaPd)2
_chemical_formula_sum   'Sm1 Ti2 Ga2 Pd2'
_cell_volume   124.08593012
_cell_formula_units_Z   1
loop_
 _symmetry_equiv_pos_site_id
 _symmetry_equiv_pos_as_xyz
  1  'x, y, z'
loop_
 _atom_site_type_symbol
 _atom_site_label
 _atom_site_symmetry_multiplicity
 _atom_site_fract_x
 _atom_site_fract_y
 _atom_site_fract_z
 _atom_site_occupancy
  Sm  Sm0  1  0.001455  0.000000  0.001455  1
  Ti  Ti1  1  0.248489  0.749609  0.498881  1
  Ti  Ti2  1  0.749272  0.250391  0.498881  1
  Ga  Ga3  1  0.306556  0.301045  0.607599  1
  Ga  Ga4  1  0.306556  0.698955  0.005511  1
  Pd  Pd5  1  0.693837  0.299722  0.993558  1
  Pd  Pd6  1  0.693837  0.700278  0.394116  1
