# generated using pymatgen
data_Yb8LuSc11Pt16
_symmetry_space_group_name_H-M   'P 1'
_cell_length_a   7.27739300
_cell_length_b   7.36084660
_cell_length_c   13.91479200
_cell_angle_alpha   90.00000000
_cell_angle_beta   90.00000000
_cell_angle_gamma   89.82687897
_symmetry_Int_Tables_number   1
_chemical_formula_structural   Yb8LuSc11Pt16
_chemical_formula_sum   'Yb8 Lu1 Sc11 Pt16'
_cell_volume   745.38102400
_cell_formula_units_Z   1
loop_
 _symmetry_equiv_pos_site_id
 _symmetry_equiv_pos_as_xyz
  1  'x, y, z'
loop_
 _atom_site_type_symbol
 _atom_site_label
 _atom_site_symmetry_multiplicity
 _atom_site_fract_x
 _atom_site_fract_y
 _atom_site_fract_z
 _atom_site_occupancy
  Yb  Yb0  1  0.489199  0.675962  0.591810  1
  Yb  Yb1  1  0.993110  0.825396  0.908125  1
  Yb  Yb2  1  0.509001  0.324500  0.093563  1
  Yb  Yb3  1  0.008593  0.175272  0.406577  1
  Yb  Yb4  1  0.509001  0.324500  0.406437  1
  Yb  Yb5  1  0.008593  0.175272  0.093423  1
  Yb  Yb6  1  0.489199  0.675962  0.908190  1
  Yb  Yb7  1  0.993110  0.825396  0.591875  1
  Lu  Lu8  1  0.814296  0.507986  0.750000  1
  Sc  Sc9  1  0.654437  0.163647  0.623004  1
  Sc  Sc10  1  0.152964  0.334907  0.876555  1
  Sc  Sc11  1  0.346198  0.835728  0.123966  1
  Sc  Sc12  1  0.846425  0.664552  0.375131  1
  Sc  Sc13  1  0.346198  0.835728  0.376034  1
  Sc  Sc14  1  0.846425  0.664552  0.124869  1
  Sc  Sc15  1  0.654437  0.163647  0.876996  1
  Sc  Sc16  1  0.152964  0.334907  0.623445  1
  Sc  Sc17  1  0.314638  0.995978  0.750000  1
  Sc  Sc18  1  0.185379  0.494530  0.250000  1
  Sc  Sc19  1  0.685230  0.005320  0.250000  1
  Pt  Pt20  1  0.674009  0.956490  0.452646  1
  Pt  Pt21  1  0.174758  0.543293  0.047508  1
  Pt  Pt22  1  0.325937  0.043913  0.952780  1
  Pt  Pt23  1  0.825192  0.456019  0.544289  1
  Pt  Pt24  1  0.325937  0.043913  0.547220  1
  Pt  Pt25  1  0.825192  0.456019  0.955711  1
  Pt  Pt26  1  0.674009  0.956490  0.047354  1
  Pt  Pt27  1  0.174758  0.543293  0.452492  1
  Pt  Pt28  1  0.448642  0.365140  0.750000  1
  Pt  Pt29  1  0.954145  0.126545  0.750000  1
  Pt  Pt30  1  0.547076  0.629661  0.250000  1
  Pt  Pt31  1  0.047880  0.870439  0.250000  1
  Pt  Pt32  1  0.672487  0.869390  0.750000  1
  Pt  Pt33  1  0.182575  0.637098  0.750000  1
  Pt  Pt34  1  0.323772  0.134146  0.250000  1
  Pt  Pt35  1  0.824231  0.364416  0.250000  1
