# generated using pymatgen
data_Ca20ZnHg3Pd8
_symmetry_space_group_name_H-M   'P 1'
_cell_length_a   7.86180000
_cell_length_b   7.86180000
_cell_length_c   14.85534600
_cell_angle_alpha   90.00000000
_cell_angle_beta   90.00000000
_cell_angle_gamma   90.00000000
_symmetry_Int_Tables_number   1
_chemical_formula_structural   Ca20ZnHg3Pd8
_chemical_formula_sum   'Ca20 Zn1 Hg3 Pd8'
_cell_volume   918.17772874
_cell_formula_units_Z   1
loop_
 _symmetry_equiv_pos_site_id
 _symmetry_equiv_pos_as_xyz
  1  'x, y, z'
loop_
 _atom_site_type_symbol
 _atom_site_label
 _atom_site_symmetry_multiplicity
 _atom_site_fract_x
 _atom_site_fract_y
 _atom_site_fract_z
 _atom_site_occupancy
  Ca  Ca0  1  0.669659  0.163643  0.113170  1
  Ca  Ca1  1  0.167287  0.666070  0.615937  1
  Ca  Ca2  1  0.330341  0.836357  0.113170  1
  Ca  Ca3  1  0.832713  0.333930  0.615937  1
  Ca  Ca4  1  0.836357  0.669659  0.113170  1
  Ca  Ca5  1  0.333930  0.167287  0.615937  1
  Ca  Ca6  1  0.163643  0.330341  0.113170  1
  Ca  Ca7  1  0.666070  0.832713  0.615937  1
  Ca  Ca8  1  0.836357  0.330341  0.886830  1
  Ca  Ca9  1  0.333930  0.832713  0.384063  1
  Ca  Ca10  1  0.163643  0.669659  0.886830  1
  Ca  Ca11  1  0.666070  0.167287  0.384063  1
  Ca  Ca12  1  0.669659  0.836357  0.886830  1
  Ca  Ca13  1  0.167287  0.333930  0.384063  1
  Ca  Ca14  1  0.330341  0.163643  0.886830  1
  Ca  Ca15  1  0.832713  0.666070  0.384063  1
  Ca  Ca16  1  0.500000  0.500000  0.753983  1
  Ca  Ca17  1  0.000000  0.000000  0.250357  1
  Ca  Ca18  1  0.000000  0.000000  0.749643  1
  Ca  Ca19  1  0.500000  0.500000  0.246017  1
  Zn  Zn20  1  0.000000  0.000000  0.000000  1
  Hg  Hg21  1  0.500000  0.500000  0.500000  1
  Hg  Hg22  1  0.500000  0.500000  0.000000  1
  Hg  Hg23  1  0.000000  0.000000  0.500000  1
  Pd  Pd24  1  0.628931  0.128914  0.751437  1
  Pd  Pd25  1  0.128914  0.628931  0.248563  1
  Pd  Pd26  1  0.871086  0.371069  0.248563  1
  Pd  Pd27  1  0.371069  0.871086  0.751437  1
  Pd  Pd28  1  0.871086  0.628931  0.751437  1
  Pd  Pd29  1  0.371069  0.128914  0.248563  1
  Pd  Pd30  1  0.128914  0.371069  0.751437  1
  Pd  Pd31  1  0.628931  0.871086  0.248563  1
