# generated using pymatgen
data_YTh(Tc2Ge)4
_symmetry_space_group_name_H-M   'P 1'
_cell_length_a   7.52419077
_cell_length_b   7.52419077
_cell_length_c   4.19489900
_cell_angle_alpha   90.00000000
_cell_angle_beta   90.00000000
_cell_angle_gamma   91.45530284
_symmetry_Int_Tables_number   1
_chemical_formula_structural   YTh(Tc2Ge)4
_chemical_formula_sum   'Y1 Th1 Tc8 Ge4'
_cell_volume   237.41108764
_cell_formula_units_Z   1
loop_
 _symmetry_equiv_pos_site_id
 _symmetry_equiv_pos_as_xyz
  1  'x, y, z'
loop_
 _atom_site_type_symbol
 _atom_site_label
 _atom_site_symmetry_multiplicity
 _atom_site_fract_x
 _atom_site_fract_y
 _atom_site_fract_z
 _atom_site_occupancy
  Y  Y0  1  0.500000  0.500000  0.500000  1
  Th  Th1  1  0.000000  0.000000  0.000000  1
  Tc  Tc2  1  0.587639  0.151681  0.000000  1
  Tc  Tc3  1  0.412361  0.848319  0.000000  1
  Tc  Tc4  1  0.646434  0.903134  0.500000  1
  Tc  Tc5  1  0.096866  0.353566  0.500000  1
  Tc  Tc6  1  0.353566  0.096866  0.500000  1
  Tc  Tc7  1  0.903134  0.646434  0.500000  1
  Tc  Tc8  1  0.151681  0.587639  0.000000  1
  Tc  Tc9  1  0.848319  0.412361  0.000000  1
  Ge  Ge10  1  0.297845  0.297845  0.000000  1
  Ge  Ge11  1  0.702155  0.702155  0.000000  1
  Ge  Ge12  1  0.783988  0.216012  0.500000  1
  Ge  Ge13  1  0.216012  0.783988  0.500000  1
