# generated using pymatgen
data_Li3CaReN3
_symmetry_space_group_name_H-M   'P 1'
_cell_length_a   7.26040716
_cell_length_b   7.26040686
_cell_length_c   7.26040775
_cell_angle_alpha   47.38048790
_cell_angle_beta   47.38049212
_cell_angle_gamma   47.38049369
_symmetry_Int_Tables_number   1
_chemical_formula_structural   Li3CaReN3
_chemical_formula_sum   'Li6 Ca2 Re2 N6'
_cell_volume   189.60153007
_cell_formula_units_Z   2
loop_
 _symmetry_equiv_pos_site_id
 _symmetry_equiv_pos_as_xyz
  1  'x, y, z'
loop_
 _atom_site_type_symbol
 _atom_site_label
 _atom_site_symmetry_multiplicity
 _atom_site_fract_x
 _atom_site_fract_y
 _atom_site_fract_z
 _atom_site_occupancy
  Li  Li0  1  0.473452  0.894431  0.240773  1
  Li  Li1  1  0.894431  0.240773  0.473452  1
  Li  Li2  1  0.759227  0.526548  0.105569  1
  Li  Li3  1  0.526548  0.105569  0.759227  1
  Li  Li4  1  0.105569  0.759227  0.526548  1
  Li  Li5  1  0.240773  0.473452  0.894431  1
  Ca  Ca6  1  0.338720  0.338720  0.338720  1
  Ca  Ca7  1  0.661280  0.661280  0.661280  1
  Re  Re8  1  0.939196  0.939196  0.939196  1
  Re  Re9  1  0.060804  0.060804  0.060804  1
  N  N10  1  0.223781  0.904871  0.600382  1
  N  N11  1  0.600382  0.223781  0.904871  1
  N  N12  1  0.776219  0.095129  0.399618  1
  N  N13  1  0.095129  0.399618  0.776219  1
  N  N14  1  0.399618  0.776219  0.095129  1
  N  N15  1  0.904871  0.600382  0.223781  1
