# generated using pymatgen
data_TbFeCo4As3
_symmetry_space_group_name_H-M   'P 1'
_cell_length_a   3.81478400
_cell_length_b   10.67906200
_cell_length_c   12.22260700
_cell_angle_alpha   90.00000000
_cell_angle_beta   90.00000000
_cell_angle_gamma   90.00000000
_symmetry_Int_Tables_number   1
_chemical_formula_structural   TbFeCo4As3
_chemical_formula_sum   'Tb4 Fe4 Co16 As12'
_cell_volume   497.92841229
_cell_formula_units_Z   4
loop_
 _symmetry_equiv_pos_site_id
 _symmetry_equiv_pos_as_xyz
  1  'x, y, z'
loop_
 _atom_site_type_symbol
 _atom_site_label
 _atom_site_symmetry_multiplicity
 _atom_site_fract_x
 _atom_site_fract_y
 _atom_site_fract_z
 _atom_site_occupancy
  Tb  Tb0  1  0.250000  0.580517  0.702007  1
  Tb  Tb1  1  0.250000  0.919483  0.202007  1
  Tb  Tb2  1  0.750000  0.419483  0.297993  1
  Tb  Tb3  1  0.750000  0.080517  0.797993  1
  Fe  Fe4  1  0.250000  0.707104  0.989081  1
  Fe  Fe5  1  0.250000  0.792896  0.489081  1
  Fe  Fe6  1  0.750000  0.292896  0.010919  1
  Fe  Fe7  1  0.750000  0.207104  0.510919  1
  Co  Co8  1  0.250000  0.406634  0.487897  1
  Co  Co9  1  0.250000  0.093366  0.987897  1
  Co  Co10  1  0.750000  0.593366  0.512103  1
  Co  Co11  1  0.750000  0.906634  0.012103  1
  Co  Co12  1  0.250000  0.215811  0.177657  1
  Co  Co13  1  0.250000  0.284189  0.677657  1
  Co  Co14  1  0.750000  0.784189  0.822343  1
  Co  Co15  1  0.750000  0.715811  0.322343  1
  Co  Co16  1  0.250000  0.883592  0.696308  1
  Co  Co17  1  0.250000  0.616408  0.196308  1
  Co  Co18  1  0.750000  0.116408  0.303692  1
  Co  Co19  1  0.750000  0.383592  0.803692  1
  Co  Co20  1  0.250000  0.469508  0.932812  1
  Co  Co21  1  0.250000  0.030492  0.432812  1
  Co  Co22  1  0.750000  0.530492  0.067188  1
  Co  Co23  1  0.750000  0.969508  0.567188  1
  As  As24  1  0.250000  0.415646  0.114661  1
  As  As25  1  0.250000  0.084354  0.614661  1
  As  As26  1  0.750000  0.584354  0.885339  1
  As  As27  1  0.750000  0.915646  0.385339  1
  As  As28  1  0.250000  0.268889  0.869218  1
  As  As29  1  0.250000  0.231111  0.369218  1
  As  As30  1  0.750000  0.731111  0.130782  1
  As  As31  1  0.750000  0.768889  0.630782  1
  As  As32  1  0.250000  0.601376  0.391430  1
  As  As33  1  0.250000  0.898624  0.891430  1
  As  As34  1  0.750000  0.398624  0.608570  1
  As  As35  1  0.750000  0.101376  0.108570  1
