# generated using pymatgen
data_CaDy4Zr3(Ni4As3)4
_symmetry_space_group_name_H-M   'P 1'
_cell_length_a   12.79480338
_cell_length_b   12.79320831
_cell_length_c   3.93806400
_cell_angle_alpha   90.00000000
_cell_angle_beta   90.00000000
_cell_angle_gamma   120.04166362
_symmetry_Int_Tables_number   1
_chemical_formula_structural   CaDy4Zr3(Ni4As3)4
_chemical_formula_sum   'Ca1 Dy4 Zr3 Ni16 As12'
_cell_volume   558.01260108
_cell_formula_units_Z   1
loop_
 _symmetry_equiv_pos_site_id
 _symmetry_equiv_pos_as_xyz
  1  'x, y, z'
loop_
 _atom_site_type_symbol
 _atom_site_label
 _atom_site_symmetry_multiplicity
 _atom_site_fract_x
 _atom_site_fract_y
 _atom_site_fract_z
 _atom_site_occupancy
  Ca  Ca0  1  0.665987  0.332840  0.000000  1
  Dy  Dy1  1  0.333004  0.666650  0.000000  1
  Dy  Dy2  1  0.184756  0.000715  0.499999  1
  Dy  Dy3  1  0.999713  0.183901  0.499999  1
  Dy  Dy4  1  0.816403  0.815703  0.499999  1
  Zr  Zr5  1  0.563946  0.999875  0.000000  1
  Zr  Zr6  1  0.436150  0.436148  0.000000  1
  Zr  Zr7  1  0.999800  0.563835  0.000000  1
  Ni  Ni8  1  0.999885  0.999891  0.000000  1
  Ni  Ni9  1  0.807952  0.181622  0.000000  1
  Ni  Ni10  1  0.374072  0.192439  0.000000  1
  Ni  Ni11  1  0.192771  0.378116  0.000000  1
  Ni  Ni12  1  0.818289  0.626076  0.000000  1
  Ni  Ni13  1  0.185655  0.807735  0.000000  1
  Ni  Ni14  1  0.621722  0.814106  0.000000  1
  Ni  Ni15  1  0.724312  0.000153  0.499999  1
  Ni  Ni16  1  0.482222  0.119505  0.499999  1
  Ni  Ni17  1  0.275742  0.275575  0.499999  1
  Ni  Ni18  1  0.880258  0.362648  0.499999  1
  Ni  Ni19  1  0.121356  0.483341  0.499999  1
  Ni  Ni20  1  0.637437  0.518409  0.499999  1
  Ni  Ni21  1  0.516509  0.638074  0.499999  1
  Ni  Ni22  1  0.999923  0.724152  0.499999  1
  Ni  Ni23  1  0.361944  0.878393  0.499999  1
  As  As24  1  0.356677  0.000987  0.000000  1
  As  As25  1  0.821436  0.998220  0.000000  1
  As  As26  1  0.176714  0.178271  0.000000  1
  As  As27  1  0.999347  0.355684  0.000000  1
  As  As28  1  0.644503  0.643746  0.000000  1
  As  As29  1  0.001789  0.823318  0.000000  1
  As  As30  1  0.694719  0.172288  0.499999  1
  As  As31  1  0.477747  0.305545  0.499999  1
  As  As32  1  0.306500  0.478998  0.499999  1
  As  As33  1  0.827292  0.522177  0.499999  1
  As  As34  1  0.172362  0.693512  0.499999  1
  As  As35  1  0.521186  0.827433  0.499999  1
