# generated using pymatgen
data_La2Sn(AsRh2)6
_symmetry_space_group_name_H-M   'P 1'
_cell_length_a   10.13707100
_cell_length_b   10.13707038
_cell_length_c   3.99751100
_cell_angle_alpha   90.00000000
_cell_angle_beta   90.00000000
_cell_angle_gamma   120.00000529
_symmetry_Int_Tables_number   1
_chemical_formula_structural   La2Sn(AsRh2)6
_chemical_formula_sum   'La2 Sn1 As6 Rh12'
_cell_volume   355.75025987
_cell_formula_units_Z   1
loop_
 _symmetry_equiv_pos_site_id
 _symmetry_equiv_pos_as_xyz
  1  'x, y, z'
loop_
 _atom_site_type_symbol
 _atom_site_label
 _atom_site_symmetry_multiplicity
 _atom_site_fract_x
 _atom_site_fract_y
 _atom_site_fract_z
 _atom_site_occupancy
  La  La0  1  0.333333  0.666667  0.751703  1
  La  La1  1  0.000000  0.000000  0.248993  1
  Sn  Sn2  1  0.666667  0.333333  0.592054  1
  As  As3  1  0.955437  0.219390  0.748041  1
  As  As4  1  0.780610  0.736047  0.748041  1
  As  As5  1  0.263953  0.044563  0.748041  1
  As  As6  1  0.377281  0.444986  0.253064  1
  As  As7  1  0.555014  0.932295  0.253064  1
  As  As8  1  0.067705  0.622719  0.253064  1
  Rh  Rh9  1  0.730074  0.951419  0.750002  1
  Rh  Rh10  1  0.048581  0.778655  0.750002  1
  Rh  Rh11  1  0.221345  0.269926  0.750002  1
  Rh  Rh12  1  0.605856  0.718913  0.251652  1
  Rh  Rh13  1  0.281087  0.886944  0.251652  1
  Rh  Rh14  1  0.113056  0.394144  0.251652  1
  Rh  Rh15  1  0.952583  0.458997  0.756572  1
  Rh  Rh16  1  0.541003  0.493586  0.756572  1
  Rh  Rh17  1  0.506414  0.047417  0.756572  1
  Rh  Rh18  1  0.395276  0.212029  0.244479  1
  Rh  Rh19  1  0.787971  0.183247  0.244479  1
  Rh  Rh20  1  0.816753  0.604724  0.244479  1
