# generated using pymatgen
data_AcLa3Pr2(OsI3)2
_symmetry_space_group_name_H-M   'P 1'
_cell_length_a   4.45516800
_cell_length_b   9.67326637
_cell_length_c   12.61359009
_cell_angle_alpha   87.16686142
_cell_angle_beta   90.00000000
_cell_angle_gamma   90.00000000
_symmetry_Int_Tables_number   1
_chemical_formula_structural   AcLa3Pr2(OsI3)2
_chemical_formula_sum   'Ac1 La3 Pr2 Os2 I6'
_cell_volume   542.93118833
_cell_formula_units_Z   1
loop_
 _symmetry_equiv_pos_site_id
 _symmetry_equiv_pos_as_xyz
  1  'x, y, z'
loop_
 _atom_site_type_symbol
 _atom_site_label
 _atom_site_symmetry_multiplicity
 _atom_site_fract_x
 _atom_site_fract_y
 _atom_site_fract_z
 _atom_site_occupancy
  Ac  Ac0  1  0.750000  0.682374  0.116831  1
  La  La1  1  0.250000  0.888759  0.330334  1
  La  La2  1  0.750000  0.116282  0.670464  1
  La  La3  1  0.750000  0.097042  0.103590  1
  Pr  Pr4  1  0.250000  0.308616  0.880045  1
  Pr  Pr5  1  0.250000  0.907817  0.893635  1
  Os  Os6  1  0.250000  0.892334  0.128055  1
  Os  Os7  1  0.750000  0.111655  0.874857  1
  I  I8  1  0.250000  0.386862  0.134758  1
  I  I9  1  0.750000  0.131856  0.380847  1
  I  I10  1  0.750000  0.598757  0.857666  1
  I  I11  1  0.250000  0.361268  0.623525  1
  I  I12  1  0.750000  0.643653  0.384704  1
  I  I13  1  0.250000  0.872726  0.620689  1
