# generated using pymatgen
data_Dy5Ho15(IrRu)6
_symmetry_space_group_name_H-M   'P 1'
_cell_length_a   10.80544941
_cell_length_b   10.79973001
_cell_length_c   6.38426101
_cell_angle_alpha   90.00494918
_cell_angle_beta   89.94469398
_cell_angle_gamma   90.00339166
_symmetry_Int_Tables_number   1
_chemical_formula_structural   Dy5Ho15(IrRu)6
_chemical_formula_sum   'Dy5 Ho15 Ir6 Ru6'
_cell_volume   745.01696528
_cell_formula_units_Z   1
loop_
 _symmetry_equiv_pos_site_id
 _symmetry_equiv_pos_as_xyz
  1  'x, y, z'
loop_
 _atom_site_type_symbol
 _atom_site_label
 _atom_site_symmetry_multiplicity
 _atom_site_fract_x
 _atom_site_fract_y
 _atom_site_fract_z
 _atom_site_occupancy
  Dy  Dy0  1  0.292926  0.086280  0.378241  1
  Dy  Dy1  1  0.292826  0.913757  0.878252  1
  Dy  Dy2  1  0.707988  0.086556  0.877300  1
  Dy  Dy3  1  0.707984  0.913600  0.377315  1
  Dy  Dy4  1  0.587407  0.793222  0.878415  1
  Ho  Ho5  1  0.587357  0.206712  0.378528  1
  Ho  Ho6  1  0.413519  0.793432  0.377626  1
  Ho  Ho7  1  0.413583  0.206589  0.877645  1
  Ho  Ho8  1  0.206241  0.413662  0.621704  1
  Ho  Ho9  1  0.206239  0.586339  0.121732  1
  Ho  Ho10  1  0.793400  0.412751  0.122172  1
  Ho  Ho11  1  0.793466  0.587215  0.622100  1
  Ho  Ho12  1  0.913629  0.707098  0.121674  1
  Ho  Ho13  1  0.913595  0.292910  0.621700  1
  Ho  Ho14  1  0.085935  0.707692  0.622647  1
  Ho  Ho15  1  0.085948  0.292311  0.122623  1
  Ho  Ho16  1  0.998601  0.000631  0.499834  1
  Ho  Ho17  1  0.998627  0.999320  0.999788  1
  Ho  Ho18  1  0.499864  0.500256  0.000241  1
  Ho  Ho19  1  0.499915  0.499650  0.500187  1
  Ir  Ir20  1  0.153676  0.153687  0.750444  1
  Ir  Ir21  1  0.153660  0.846300  0.250444  1
  Ir  Ir22  1  0.652361  0.348136  0.749583  1
  Ir  Ir23  1  0.652412  0.651737  0.249897  1
  Ir  Ir24  1  0.347434  0.347011  0.250291  1
  Ir  Ir25  1  0.347308  0.652937  0.750220  1
  Ru  Ru26  1  0.847293  0.153024  0.249844  1
  Ru  Ru27  1  0.847418  0.846981  0.749751  1
  Ru  Ru28  1  0.500135  0.000340  0.122949  1
  Ru  Ru29  1  0.500139  0.999844  0.622736  1
  Ru  Ru30  1  0.999563  0.500329  0.877042  1
  Ru  Ru31  1  0.999549  0.499692  0.377076  1
