# generated using pymatgen
data_TbHo3Al18Pd5W
_symmetry_space_group_name_H-M   'P 1'
_cell_length_a   7.63150991
_cell_length_b   7.63328288
_cell_length_c   9.53165444
_cell_angle_alpha   89.63071981
_cell_angle_beta   89.60859920
_cell_angle_gamma   118.83567286
_symmetry_Int_Tables_number   1
_chemical_formula_structural   TbHo3Al18Pd5W
_chemical_formula_sum   'Tb1 Ho3 Al18 Pd5 W1'
_cell_volume   486.36296796
_cell_formula_units_Z   1
loop_
 _symmetry_equiv_pos_site_id
 _symmetry_equiv_pos_as_xyz
  1  'x, y, z'
loop_
 _atom_site_type_symbol
 _atom_site_label
 _atom_site_symmetry_multiplicity
 _atom_site_fract_x
 _atom_site_fract_y
 _atom_site_fract_z
 _atom_site_occupancy
  Tb  Tb0  1  0.995116  0.679229  0.246875  1
  Ho  Ho1  1  0.004862  0.320203  0.753487  1
  Ho  Ho2  1  0.679627  0.995206  0.246536  1
  Ho  Ho3  1  0.320337  0.004996  0.753418  1
  Al  Al4  1  0.135927  0.136199  0.249194  1
  Al  Al5  1  0.864184  0.864245  0.750726  1
  Al  Al6  1  0.002935  0.335488  0.076550  1
  Al  Al7  1  0.997110  0.664212  0.922776  1
  Al  Al8  1  0.998528  0.660524  0.578800  1
  Al  Al9  1  0.339710  0.001743  0.421771  1
  Al  Al10  1  0.001433  0.339010  0.421793  1
  Al  Al11  1  0.660619  0.998570  0.578511  1
  Al  Al12  1  0.664139  0.997120  0.923165  1
  Al  Al13  1  0.336273  0.003390  0.076480  1
  Al  Al14  1  0.333276  0.333279  0.554990  1
  Al  Al15  1  0.666389  0.666740  0.445433  1
  Al  Al16  1  0.666589  0.666995  0.052178  1
  Al  Al17  1  0.333070  0.333078  0.947428  1
  Al  Al18  1  0.342881  0.551618  0.250261  1
  Al  Al19  1  0.657298  0.448226  0.749745  1
  Al  Al20  1  0.551326  0.342314  0.250267  1
  Al  Al21  1  0.448241  0.657397  0.749722  1
  Pd  Pd22  1  0.672727  0.327247  0.999948  1
  Pd  Pd23  1  0.327317  0.672730  0.999928  1
  Pd  Pd24  1  0.327726  0.672358  0.500074  1
  Pd  Pd25  1  0.672290  0.327560  0.500071  1
  Pd  Pd26  1  0.000006  0.000110  0.500115  1
  W  W27  1  0.000064  0.000215  0.999757  1
