# generated using pymatgen
data_LuMgGa3Ru
_symmetry_space_group_name_H-M   'P 1'
_cell_length_a   5.28918700
_cell_length_b   5.28918735
_cell_length_c   8.65372200
_cell_angle_alpha   90.00000000
_cell_angle_beta   90.00000000
_cell_angle_gamma   119.99999156
_symmetry_Int_Tables_number   1
_chemical_formula_structural   LuMgGa3Ru
_chemical_formula_sum   'Lu2 Mg2 Ga6 Ru2'
_cell_volume   209.65802021
_cell_formula_units_Z   2
loop_
 _symmetry_equiv_pos_site_id
 _symmetry_equiv_pos_as_xyz
  1  'x, y, z'
loop_
 _atom_site_type_symbol
 _atom_site_label
 _atom_site_symmetry_multiplicity
 _atom_site_fract_x
 _atom_site_fract_y
 _atom_site_fract_z
 _atom_site_occupancy
  Lu  Lu0  1  0.333334  0.666667  0.551981  1
  Lu  Lu1  1  0.333334  0.666667  0.948020  1
  Mg  Mg2  1  0.666667  0.333332  0.050091  1
  Mg  Mg3  1  0.666667  0.333332  0.449909  1
  Ga  Ga4  1  0.165266  0.330530  0.250000  1
  Ga  Ga5  1  0.165266  0.834734  0.250000  1
  Ga  Ga6  1  0.669469  0.834734  0.250000  1
  Ga  Ga7  1  0.331498  0.165750  0.750000  1
  Ga  Ga8  1  0.834250  0.165750  0.750000  1
  Ga  Ga9  1  0.834251  0.668501  0.750000  1
  Ru  Ru10  1  0.000000  0.000000  0.007641  1
  Ru  Ru11  1  0.000000  0.000000  0.492359  1
