# generated using pymatgen
data_YHo2Tm(Al8Pt3)3
_symmetry_space_group_name_H-M   'P 1'
_cell_length_a   7.52090494
_cell_length_b   7.54378050
_cell_length_c   13.15587011
_cell_angle_alpha   84.58527877
_cell_angle_beta   79.11697627
_cell_angle_gamma   59.97923444
_symmetry_Int_Tables_number   1
_chemical_formula_structural   YHo2Tm(Al8Pt3)3
_chemical_formula_sum   'Y1 Ho2 Tm1 Al24 Pt9'
_cell_volume   634.65312535
_cell_formula_units_Z   1
loop_
 _symmetry_equiv_pos_site_id
 _symmetry_equiv_pos_as_xyz
  1  'x, y, z'
loop_
 _atom_site_type_symbol
 _atom_site_label
 _atom_site_symmetry_multiplicity
 _atom_site_fract_x
 _atom_site_fract_y
 _atom_site_fract_z
 _atom_site_occupancy
  Y  Y0  1  0.393550  0.168574  0.808143  1
  Ho  Ho1  1  0.606396  0.831313  0.192374  1
  Ho  Ho2  1  0.734005  0.498725  0.807503  1
  Tm  Tm3  1  0.265730  0.501340  0.192898  1
  Al  Al4  1  0.684538  0.833475  0.944542  1
  Al  Al5  1  0.315634  0.166426  0.056288  1
  Al  Al6  1  0.146582  0.832417  0.561432  1
  Al  Al7  1  0.853521  0.167561  0.438387  1
  Al  Al8  1  0.479460  0.166728  0.558509  1
  Al  Al9  1  0.520556  0.833247  0.441317  1
  Al  Al10  1  0.217250  0.165569  0.329039  1
  Al  Al11  1  0.782903  0.834686  0.670497  1
  Al  Al12  1  0.437251  0.506457  0.670629  1
  Al  Al13  1  0.562591  0.493505  0.328921  1
  Al  Al14  1  0.109512  0.159735  0.669524  1
  Al  Al15  1  0.890956  0.840010  0.329985  1
  Al  Al16  1  0.353114  0.499678  0.944721  1
  Al  Al17  1  0.646365  0.500759  0.055926  1
  Al  Al18  1  0.015335  0.167764  0.952704  1
  Al  Al19  1  0.984365  0.832001  0.047886  1
  Al  Al20  1  0.186826  0.499278  0.441199  1
  Al  Al21  1  0.813239  0.500770  0.558506  1
  Al  Al22  1  0.733829  0.164188  0.183376  1
  Al  Al23  1  0.266023  0.835468  0.816588  1
  Al  Al24  1  0.061157  0.631645  0.815491  1
  Al  Al25  1  0.938567  0.368788  0.184464  1
  Al  Al26  1  0.855738  0.041793  0.816084  1
  Al  Al27  1  0.144743  0.957954  0.183902  1
  Pt  Pt28  1  0.119726  0.491722  0.638858  1
  Pt  Pt29  1  0.880557  0.508588  0.360702  1
  Pt  Pt30  1  0.656906  0.171540  0.000010  1
  Pt  Pt31  1  0.342839  0.828565  0.000261  1
  Pt  Pt32  1  0.537332  0.167055  0.360795  1
  Pt  Pt33  1  0.462400  0.833089  0.638800  1
  Pt  Pt34  1  0.778494  0.175295  0.637276  1
  Pt  Pt35  1  0.221870  0.824285  0.362302  1
  Pt  Pt36  1  0.000144  0.500007  0.000162  1
