# generated using pymatgen
data_CaAcFe3Re14C3
_symmetry_space_group_name_H-M   'P 1'
_cell_length_a   6.97354880
_cell_length_b   6.97354867
_cell_length_c   6.97354886
_cell_angle_alpha   82.81982705
_cell_angle_beta   82.81981771
_cell_angle_gamma   82.81982282
_symmetry_Int_Tables_number   1
_chemical_formula_structural   CaAcFe3Re14C3
_chemical_formula_sum   'Ca1 Ac1 Fe3 Re14 C3'
_cell_volume   331.76157137
_cell_formula_units_Z   1
loop_
 _symmetry_equiv_pos_site_id
 _symmetry_equiv_pos_as_xyz
  1  'x, y, z'
loop_
 _atom_site_type_symbol
 _atom_site_label
 _atom_site_symmetry_multiplicity
 _atom_site_fract_x
 _atom_site_fract_y
 _atom_site_fract_z
 _atom_site_occupancy
  Ca  Ca0  1  0.647952  0.647952  0.647952  1
  Ac  Ac1  1  0.355304  0.355304  0.355304  1
  Fe  Fe2  1  0.001366  0.001366  0.498871  1
  Fe  Fe3  1  0.498871  0.001366  0.001366  1
  Fe  Fe4  1  0.001366  0.498871  0.001366  1
  Re  Re5  1  0.722687  0.278616  0.998381  1
  Re  Re6  1  0.998381  0.722687  0.278616  1
  Re  Re7  1  0.278616  0.998381  0.722687  1
  Re  Re8  1  0.998381  0.278616  0.722687  1
  Re  Re9  1  0.722687  0.998381  0.278616  1
  Re  Re10  1  0.278616  0.722687  0.998381  1
  Re  Re11  1  0.344325  0.344325  0.864748  1
  Re  Re12  1  0.864748  0.344325  0.344325  1
  Re  Re13  1  0.344325  0.864748  0.344325  1
  Re  Re14  1  0.657732  0.657732  0.129627  1
  Re  Re15  1  0.129627  0.657732  0.657732  1
  Re  Re16  1  0.657732  0.129627  0.657732  1
  Re  Re17  1  0.899165  0.899165  0.899165  1
  Re  Re18  1  0.099984  0.099984  0.099984  1
  C  C19  1  0.506302  0.506302  0.985532  1
  C  C20  1  0.985532  0.506302  0.506302  1
  C  C21  1  0.506302  0.985532  0.506302  1
