# generated using pymatgen
data_PrSm2Bi(Mo2O7)2
_symmetry_space_group_name_H-M   'P 1'
_cell_length_a   7.53502856
_cell_length_b   7.46472488
_cell_length_c   7.47955573
_cell_angle_alpha   119.37050598
_cell_angle_beta   120.34766644
_cell_angle_gamma   90.13613040
_symmetry_Int_Tables_number   1
_chemical_formula_structural   PrSm2Bi(Mo2O7)2
_chemical_formula_sum   'Pr1 Sm2 Bi1 Mo4 O14'
_cell_volume   298.37149150
_cell_formula_units_Z   1
loop_
 _symmetry_equiv_pos_site_id
 _symmetry_equiv_pos_as_xyz
  1  'x, y, z'
loop_
 _atom_site_type_symbol
 _atom_site_label
 _atom_site_symmetry_multiplicity
 _atom_site_fract_x
 _atom_site_fract_y
 _atom_site_fract_z
 _atom_site_occupancy
  Pr  Pr0  1  0.375000  0.625000  0.250000  1
  Sm  Sm1  1  0.875000  0.625000  0.250000  1
  Sm  Sm2  1  0.375000  0.125000  0.750000  1
  Bi  Bi3  1  0.375000  0.625000  0.750000  1
  Mo  Mo4  1  0.875000  0.625000  0.750000  1
  Mo  Mo5  1  0.375000  0.125000  0.250000  1
  Mo  Mo6  1  0.875000  0.125000  0.250000  1
  Mo  Mo7  1  0.875000  0.125000  0.750000  1
  O  O8  1  0.780807  0.201235  0.994658  1
  O  O9  1  0.547920  0.461871  0.498828  1
  O  O10  1  0.208910  0.206774  0.998236  1
  O  O11  1  0.955482  0.457482  0.496706  1
  O  O12  1  0.799222  0.795498  0.579908  1
  O  O13  1  0.536463  0.033556  0.082393  1
  O  O14  1  0.246036  0.754294  0.499587  1
  O  O15  1  0.950778  0.454502  0.920092  1
  O  O16  1  0.969193  0.048765  0.505342  1
  O  O17  1  0.541090  0.043226  0.501764  1
  O  O18  1  0.213537  0.216444  0.417607  1
  O  O19  1  0.503964  0.495706  0.000413  1
  O  O20  1  0.794518  0.792518  0.003294  1
  O  O21  1  0.202080  0.788129  0.001172  1
