# generated using pymatgen
data_Dy2Si7(Pt5Rh)2
_symmetry_space_group_name_H-M   'P 1'
_cell_length_a   9.92593518
_cell_length_b   9.92825658
_cell_length_c   3.93001181
_cell_angle_alpha   89.82606190
_cell_angle_beta   90.00783324
_cell_angle_gamma   120.01282951
_symmetry_Int_Tables_number   1
_chemical_formula_structural   Dy2Si7(Pt5Rh)2
_chemical_formula_sum   'Dy2 Si7 Pt10 Rh2'
_cell_volume   335.35918089
_cell_formula_units_Z   1
loop_
 _symmetry_equiv_pos_site_id
 _symmetry_equiv_pos_as_xyz
  1  'x, y, z'
loop_
 _atom_site_type_symbol
 _atom_site_label
 _atom_site_symmetry_multiplicity
 _atom_site_fract_x
 _atom_site_fract_y
 _atom_site_fract_z
 _atom_site_occupancy
  Dy  Dy0  1  0.333490  0.666615  0.750982  1
  Dy  Dy1  1  0.665763  0.331575  0.248731  1
  Si  Si2  1  0.002727  0.003798  0.494297  1
  Si  Si3  1  0.400204  0.283748  0.750662  1
  Si  Si4  1  0.715567  0.116324  0.751054  1
  Si  Si5  1  0.883481  0.595825  0.748715  1
  Si  Si6  1  0.595952  0.712935  0.250604  1
  Si  Si7  1  0.287782  0.888384  0.250509  1
  Si  Si8  1  0.111983  0.399379  0.250875  1
  Pt  Pt9  1  0.453674  0.073219  0.750163  1
  Pt  Pt10  1  0.927347  0.379835  0.749525  1
  Pt  Pt11  1  0.618557  0.543859  0.748626  1
  Pt  Pt12  1  0.546604  0.927617  0.249711  1
  Pt  Pt13  1  0.074888  0.619867  0.247842  1
  Pt  Pt14  1  0.379561  0.453257  0.248209  1
  Pt  Pt15  1  0.146266  0.263038  0.754201  1
  Pt  Pt16  1  0.741245  0.886239  0.753227  1
  Pt  Pt17  1  0.115411  0.853764  0.753206  1
  Pt  Pt18  1  0.853700  0.739677  0.243708  1
  Rh  Rh19  1  0.261525  0.116344  0.252923  1
  Rh  Rh20  1  0.884273  0.144702  0.252231  1
