# generated using pymatgen
data_TbDyGa5Co3
_symmetry_space_group_name_H-M   'P 1'
_cell_length_a   8.32809193
_cell_length_b   8.32809104
_cell_length_c   5.50944459
_cell_angle_alpha   70.59383054
_cell_angle_beta   70.59382588
_cell_angle_gamma   96.43003907
_symmetry_Int_Tables_number   1
_chemical_formula_structural   TbDyGa5Co3
_chemical_formula_sum   'Tb2 Dy2 Ga10 Co6'
_cell_volume   329.14061686
_cell_formula_units_Z   2
loop_
 _symmetry_equiv_pos_site_id
 _symmetry_equiv_pos_as_xyz
  1  'x, y, z'
loop_
 _atom_site_type_symbol
 _atom_site_label
 _atom_site_symmetry_multiplicity
 _atom_site_fract_x
 _atom_site_fract_y
 _atom_site_fract_z
 _atom_site_occupancy
  Tb  Tb0  1  0.420857  0.132089  0.722329  1
  Tb  Tb1  1  0.867911  0.579143  0.777671  1
  Dy  Dy2  1  0.132076  0.420862  0.222250  1
  Dy  Dy3  1  0.579138  0.867924  0.277750  1
  Ga  Ga4  1  0.500309  0.499691  0.750000  1
  Ga  Ga5  1  0.499541  0.500459  0.250000  1
  Ga  Ga6  1  0.795922  0.204078  0.750000  1
  Ga  Ga7  1  0.204219  0.795781  0.250000  1
  Ga  Ga8  1  0.096620  0.263483  0.819087  1
  Ga  Ga9  1  0.736517  0.903380  0.680913  1
  Ga  Ga10  1  0.796531  0.203469  0.250000  1
  Ga  Ga11  1  0.203837  0.796163  0.750000  1
  Ga  Ga12  1  0.262985  0.096701  0.319080  1
  Ga  Ga13  1  0.903299  0.737015  0.180920  1
  Co  Co14  1  0.999924  0.000076  0.750000  1
  Co  Co15  1  0.000017  0.999983  0.250000  1
  Co  Co16  1  0.265322  0.564810  0.585853  1
  Co  Co17  1  0.564721  0.264935  0.086091  1
  Co  Co18  1  0.735065  0.435279  0.413909  1
  Co  Co19  1  0.435190  0.734678  0.914147  1
