# generated using pymatgen
data_Y3AuO6
_symmetry_space_group_name_H-M   'P 1'
_cell_length_a   3.61682537
_cell_length_b   5.58756778
_cell_length_c   7.10008408
_cell_angle_alpha   89.99152746
_cell_angle_beta   102.57089373
_cell_angle_gamma   91.11506209
_symmetry_Int_Tables_number   1
_chemical_formula_structural   Y3AuO6
_chemical_formula_sum   'Y3 Au1 O6'
_cell_volume   140.01991500
_cell_formula_units_Z   1
loop_
 _symmetry_equiv_pos_site_id
 _symmetry_equiv_pos_as_xyz
  1  'x, y, z'
loop_
 _atom_site_type_symbol
 _atom_site_label
 _atom_site_symmetry_multiplicity
 _atom_site_fract_x
 _atom_site_fract_y
 _atom_site_fract_z
 _atom_site_occupancy
  Y  Y0  1  0.610566  0.530096  0.763155  1
  Y  Y1  1  0.389434  0.469904  0.236845  1
  Y  Y2  1  0.000000  0.000000  0.500000  1
  Au  Au3  1  0.000000  0.000000  0.000000  1
  O  O4  1  0.838086  0.684234  0.108134  1
  O  O5  1  0.161914  0.315766  0.891866  1
  O  O6  1  0.521197  0.256430  0.528227  1
  O  O7  1  0.478803  0.743570  0.471773  1
  O  O8  1  0.124508  0.797409  0.786112  1
  O  O9  1  0.875492  0.202591  0.213888  1
