# generated using pymatgen
data_Dy8Tc11Ge16Ir
_symmetry_space_group_name_H-M   'P 1'
_cell_length_a   6.94048737
_cell_length_b   6.94295458
_cell_length_c   12.96483300
_cell_angle_alpha   90.01630667
_cell_angle_beta   89.91648939
_cell_angle_gamma   89.89216544
_symmetry_Int_Tables_number   1
_chemical_formula_structural   Dy8Tc11Ge16Ir
_chemical_formula_sum   'Dy8 Tc11 Ge16 Ir1'
_cell_volume   624.74094666
_cell_formula_units_Z   1
loop_
 _symmetry_equiv_pos_site_id
 _symmetry_equiv_pos_as_xyz
  1  'x, y, z'
loop_
 _atom_site_type_symbol
 _atom_site_label
 _atom_site_symmetry_multiplicity
 _atom_site_fract_x
 _atom_site_fract_y
 _atom_site_fract_z
 _atom_site_occupancy
  Dy  Dy0  1  0.012036  0.659604  0.028834  1
  Dy  Dy1  1  0.990073  0.338606  0.528020  1
  Dy  Dy2  1  0.661250  0.007531  0.972474  1
  Dy  Dy3  1  0.158273  0.491326  0.776865  1
  Dy  Dy4  1  0.838000  0.509949  0.278013  1
  Dy  Dy5  1  0.491813  0.160485  0.222158  1
  Dy  Dy6  1  0.508293  0.840014  0.720946  1
  Dy  Dy7  1  0.336140  0.990603  0.471037  1
  Tc  Tc8  1  0.308994  0.476214  0.381176  1
  Tc  Tc9  1  0.812016  0.018385  0.371697  1
  Tc  Tc10  1  0.978980  0.192363  0.128728  1
  Tc  Tc11  1  0.013832  0.811870  0.629151  1
  Tc  Tc12  1  0.473589  0.310196  0.620085  1
  Tc  Tc13  1  0.198094  0.970440  0.870384  1
  Tc  Tc14  1  0.659545  0.662711  0.499726  1
  Tc  Tc15  1  0.837142  0.164457  0.752993  1
  Tc  Tc16  1  0.161515  0.837296  0.249611  1
  Tc  Tc17  1  0.338696  0.337337  0.996925  1
  Tc  Tc18  1  0.520752  0.691707  0.121497  1
  Ge  Ge19  1  0.014320  0.725414  0.435687  1
  Ge  Ge20  1  0.991575  0.262833  0.935815  1
  Ge  Ge21  1  0.723912  0.016832  0.563629  1
  Ge  Ge22  1  0.228748  0.484134  0.187050  1
  Ge  Ge23  1  0.765798  0.513184  0.684743  1
  Ge  Ge24  1  0.485148  0.233182  0.814358  1
  Ge  Ge25  1  0.513834  0.770895  0.314777  1
  Ge  Ge26  1  0.271420  0.983888  0.064826  1
  Ge  Ge27  1  0.811459  0.890337  0.181428  1
  Ge  Ge28  1  0.307626  0.612626  0.569164  1
  Ge  Ge29  1  0.688632  0.390932  0.068397  1
  Ge  Ge30  1  0.611160  0.309879  0.431002  1
  Ge  Ge31  1  0.392937  0.685060  0.932237  1
  Ge  Ge32  1  0.109993  0.189608  0.317848  1
  Ge  Ge33  1  0.187955  0.108833  0.682023  1
  Ge  Ge34  1  0.893431  0.816906  0.816752  1
  Ir  Ir35  1  0.703016  0.534365  0.879941  1
