# generated using pymatgen
data_Sc4Ga2TcAg
_symmetry_space_group_name_H-M   'P 1'
_cell_length_a   6.75371200
_cell_length_b   6.63563100
_cell_length_c   6.75314700
_cell_angle_alpha   90.00000000
_cell_angle_beta   90.00018665
_cell_angle_gamma   90.00000000
_symmetry_Int_Tables_number   1
_chemical_formula_structural   Sc4Ga2TcAg
_chemical_formula_sum   'Sc8 Ga4 Tc2 Ag2'
_cell_volume   302.64323305
_cell_formula_units_Z   2
loop_
 _symmetry_equiv_pos_site_id
 _symmetry_equiv_pos_as_xyz
  1  'x, y, z'
loop_
 _atom_site_type_symbol
 _atom_site_label
 _atom_site_symmetry_multiplicity
 _atom_site_fract_x
 _atom_site_fract_y
 _atom_site_fract_z
 _atom_site_occupancy
  Sc  Sc0  1  0.763281  0.501161  0.263269  1
  Sc  Sc1  1  0.763281  0.998839  0.263269  1
  Sc  Sc2  1  0.236654  0.001155  0.263335  1
  Sc  Sc3  1  0.236654  0.498845  0.263335  1
  Sc  Sc4  1  0.763346  0.501155  0.736665  1
  Sc  Sc5  1  0.763346  0.998845  0.736665  1
  Sc  Sc6  1  0.236719  0.001161  0.736731  1
  Sc  Sc7  1  0.236719  0.498839  0.736731  1
  Ga  Ga8  1  0.997727  0.250000  0.999997  1
  Ga  Ga9  1  0.002273  0.750000  0.000003  1
  Ga  Ga10  1  0.502257  0.250000  0.499994  1
  Ga  Ga11  1  0.497743  0.750000  0.500006  1
  Tc  Tc12  1  0.001467  0.750000  0.500008  1
  Tc  Tc13  1  0.998533  0.250000  0.499992  1
  Ag  Ag14  1  0.502428  0.250000  0.000013  1
  Ag  Ag15  1  0.497573  0.750000  0.999987  1
