# generated using pymatgen
data_Y10Ho6CdIn3Ir4
_symmetry_space_group_name_H-M   'P 1'
_cell_length_a   9.65497037
_cell_length_b   9.67496647
_cell_length_c   9.67504437
_cell_angle_alpha   59.90074939
_cell_angle_beta   59.99332201
_cell_angle_gamma   59.99193716
_symmetry_Int_Tables_number   1
_chemical_formula_structural   Y10Ho6CdIn3Ir4
_chemical_formula_sum   'Y10 Ho6 Cd1 In3 Ir4'
_cell_volume   638.50344560
_cell_formula_units_Z   1
loop_
 _symmetry_equiv_pos_site_id
 _symmetry_equiv_pos_as_xyz
  1  'x, y, z'
loop_
 _atom_site_type_symbol
 _atom_site_label
 _atom_site_symmetry_multiplicity
 _atom_site_fract_x
 _atom_site_fract_y
 _atom_site_fract_z
 _atom_site_occupancy
  Y  Y0  1  0.190103  0.810226  0.189655  1
  Y  Y1  1  0.808036  0.191087  0.808624  1
  Y  Y2  1  0.190103  0.189652  0.810226  1
  Y  Y3  1  0.808033  0.808622  0.191087  1
  Y  Y4  1  0.939814  0.561985  0.561987  1
  Y  Y5  1  0.560985  0.939275  0.939271  1
  Y  Y6  1  0.561666  0.939270  0.559874  1
  Y  Y7  1  0.940979  0.560284  0.938328  1
  Y  Y8  1  0.561668  0.559868  0.939271  1
  Y  Y9  1  0.940976  0.938322  0.560292  1
  Ho  Ho10  1  0.348592  0.348682  0.348682  1
  Ho  Ho11  1  0.349602  0.349462  0.952551  1
  Ho  Ho12  1  0.349601  0.952552  0.349462  1
  Ho  Ho13  1  0.952118  0.349786  0.349789  1
  Ho  Ho14  1  0.808835  0.191105  0.191108  1
  Ho  Ho15  1  0.189566  0.809862  0.809867  1
  Cd  Cd16  1  0.253662  0.581728  0.581729  1
  In  In17  1  0.582793  0.583442  0.583424  1
  In  In18  1  0.582134  0.583361  0.250789  1
  In  In19  1  0.582150  0.250789  0.583351  1
  Ir  Ir20  1  0.139958  0.143469  0.143460  1
  Ir  Ir21  1  0.142437  0.139563  0.574581  1
  Ir  Ir22  1  0.142433  0.574581  0.139566  1
  Ir  Ir23  1  0.573759  0.143032  0.143029  1
