# generated using pymatgen
data_NpAg3(Pt2O7)2
_symmetry_space_group_name_H-M   'P 1'
_cell_length_a   7.25214046
_cell_length_b   7.29515393
_cell_length_c   7.25214000
_cell_angle_alpha   60.19485491
_cell_angle_beta   60.00000209
_cell_angle_gamma   60.19485161
_symmetry_Int_Tables_number   1
_chemical_formula_structural   NpAg3(Pt2O7)2
_chemical_formula_sum   'Np1 Ag3 Pt4 O14'
_cell_volume   272.09758243
_cell_formula_units_Z   1
loop_
 _symmetry_equiv_pos_site_id
 _symmetry_equiv_pos_as_xyz
  1  'x, y, z'
loop_
 _atom_site_type_symbol
 _atom_site_label
 _atom_site_symmetry_multiplicity
 _atom_site_fract_x
 _atom_site_fract_y
 _atom_site_fract_z
 _atom_site_occupancy
  Np  Np0  1  0.125000  0.625000  0.125000  1
  Ag  Ag1  1  0.125000  0.125000  0.125000  1
  Ag  Ag2  1  0.625000  0.125000  0.125000  1
  Ag  Ag3  1  0.125000  0.125000  0.625000  1
  Pt  Pt4  1  0.625000  0.625000  0.625000  1
  Pt  Pt5  1  0.125000  0.625000  0.625000  1
  Pt  Pt6  1  0.625000  0.625000  0.125000  1
  Pt  Pt7  1  0.625000  0.125000  0.625000  1
  O  O8  1  0.016760  0.949721  0.016760  1
  O  O9  1  0.233240  0.300279  0.233240  1
  O  O10  1  0.515677  0.575694  0.954315  1
  O  O11  1  0.285762  0.292288  0.710975  1
  O  O12  1  0.954315  0.575694  0.954315  1
  O  O13  1  0.954315  0.575694  0.515677  1
  O  O14  1  0.539025  0.957712  0.964238  1
  O  O15  1  0.539025  0.957712  0.539025  1
  O  O16  1  0.964238  0.957712  0.539025  1
  O  O17  1  0.710975  0.292288  0.285762  1
  O  O18  1  0.295685  0.674306  0.734323  1
  O  O19  1  0.734323  0.674306  0.295685  1
  O  O20  1  0.710975  0.292288  0.710975  1
  O  O21  1  0.295685  0.674306  0.295685  1
