# generated using pymatgen
data_Ce2Mn17BeSi8
_symmetry_space_group_name_H-M   'P 1'
_cell_length_a   7.99246712
_cell_length_b   7.99246693
_cell_length_c   8.00034059
_cell_angle_alpha   121.28645516
_cell_angle_beta   121.28645744
_cell_angle_gamma   87.72704168
_symmetry_Int_Tables_number   1
_chemical_formula_structural   Ce2Mn17BeSi8
_chemical_formula_sum   'Ce2 Mn17 Be1 Si8'
_cell_volume   354.23304326
_cell_formula_units_Z   1
loop_
 _symmetry_equiv_pos_site_id
 _symmetry_equiv_pos_as_xyz
  1  'x, y, z'
loop_
 _atom_site_type_symbol
 _atom_site_label
 _atom_site_symmetry_multiplicity
 _atom_site_fract_x
 _atom_site_fract_y
 _atom_site_fract_z
 _atom_site_occupancy
  Ce  Ce0  1  0.749989  0.750011  0.000000  1
  Ce  Ce1  1  0.250011  0.249989  0.000000  1
  Mn  Mn2  1  0.500000  0.000000  0.500000  1
  Mn  Mn3  1  0.060210  0.195137  0.255361  1
  Mn  Mn4  1  0.939790  0.804863  0.744639  1
  Mn  Mn5  1  0.556924  0.312981  0.869906  1
  Mn  Mn6  1  0.443076  0.687019  0.130094  1
  Mn  Mn7  1  0.812981  0.056924  0.869906  1
  Mn  Mn8  1  0.187019  0.943076  0.130094  1
  Mn  Mn9  1  0.695137  0.560210  0.255361  1
  Mn  Mn10  1  0.304863  0.439790  0.744639  1
  Mn  Mn11  1  0.444027  0.944027  0.740333  1
  Mn  Mn12  1  0.203676  0.703676  0.259631  1
  Mn  Mn13  1  0.945207  0.212278  0.499986  1
  Mn  Mn14  1  0.712278  0.445207  0.499986  1
  Mn  Mn15  1  0.555973  0.055973  0.259667  1
  Mn  Mn16  1  0.796324  0.296324  0.740369  1
  Mn  Mn17  1  0.054793  0.787722  0.500014  1
  Mn  Mn18  1  0.287722  0.554793  0.500014  1
  Be  Be19  1  0.000000  0.500000  0.500000  1
  Si  Si20  1  0.054580  0.554580  0.851317  1
  Si  Si21  1  0.703296  0.203296  0.148724  1
  Si  Si22  1  0.550584  0.700048  0.500017  1
  Si  Si23  1  0.200048  0.050584  0.500017  1
  Si  Si24  1  0.945420  0.445420  0.148683  1
  Si  Si25  1  0.296704  0.796704  0.851276  1
  Si  Si26  1  0.449416  0.299952  0.499983  1
  Si  Si27  1  0.799952  0.949416  0.499983  1
