# generated using pymatgen
data_CdSnSbPt3
_symmetry_space_group_name_H-M   'P 1'
_cell_length_a   7.24915500
_cell_length_b   7.24915565
_cell_length_c   5.52616800
_cell_angle_alpha   90.00000000
_cell_angle_beta   90.00000000
_cell_angle_gamma   60.28381141
_symmetry_Int_Tables_number   1
_chemical_formula_structural   CdSnSbPt3
_chemical_formula_sum   'Cd2 Sn2 Sb2 Pt6'
_cell_volume   252.21125444
_cell_formula_units_Z   2
loop_
 _symmetry_equiv_pos_site_id
 _symmetry_equiv_pos_as_xyz
  1  'x, y, z'
loop_
 _atom_site_type_symbol
 _atom_site_label
 _atom_site_symmetry_multiplicity
 _atom_site_fract_x
 _atom_site_fract_y
 _atom_site_fract_z
 _atom_site_occupancy
  Cd  Cd0  1  0.164511  0.495549  0.750000  1
  Cd  Cd1  1  0.504450  0.835489  0.750000  1
  Sn  Sn2  1  0.487906  0.165393  0.250000  1
  Sn  Sn3  1  0.834607  0.512093  0.250000  1
  Sb  Sb4  1  0.181402  0.818598  0.250000  1
  Sb  Sb5  1  0.828362  0.171638  0.750000  1
  Pt  Pt6  1  0.154932  0.163458  0.001679  1
  Pt  Pt7  1  0.507906  0.492094  0.000873  1
  Pt  Pt8  1  0.836542  0.845068  0.001679  1
  Pt  Pt9  1  0.154932  0.163458  0.498321  1
  Pt  Pt10  1  0.507906  0.492094  0.499127  1
  Pt  Pt11  1  0.836542  0.845068  0.498321  1
