# generated using pymatgen
data_YEr5Mn2(Co4P3)4
_symmetry_space_group_name_H-M   'P 1'
_cell_length_a   3.67405600
_cell_length_b   10.50038300
_cell_length_c   12.15533600
_cell_angle_alpha   90.00000000
_cell_angle_beta   90.00000000
_cell_angle_gamma   90.00000000
_symmetry_Int_Tables_number   1
_chemical_formula_structural   YEr5Mn2(Co4P3)4
_chemical_formula_sum   'Y1 Er5 Mn2 Co16 P12'
_cell_volume   468.94064875
_cell_formula_units_Z   1
loop_
 _symmetry_equiv_pos_site_id
 _symmetry_equiv_pos_as_xyz
  1  'x, y, z'
loop_
 _atom_site_type_symbol
 _atom_site_label
 _atom_site_symmetry_multiplicity
 _atom_site_fract_x
 _atom_site_fract_y
 _atom_site_fract_z
 _atom_site_occupancy
  Y  Y0  1  0.500000  0.000000  0.477078  1
  Er  Er1  1  0.000000  0.500000  0.522736  1
  Er  Er2  1  0.500000  0.818117  0.205147  1
  Er  Er3  1  0.500000  0.181883  0.205147  1
  Er  Er4  1  0.000000  0.681915  0.794819  1
  Er  Er5  1  0.000000  0.318085  0.794819  1
  Mn  Mn6  1  0.500000  0.500000  0.158767  1
  Mn  Mn7  1  0.000000  0.000000  0.841533  1
  Co  Co8  1  0.500000  0.500000  0.702585  1
  Co  Co9  1  0.000000  0.000000  0.296509  1
  Co  Co10  1  0.000000  0.500000  0.985900  1
  Co  Co11  1  0.500000  0.000000  0.014105  1
  Co  Co12  1  0.500000  0.333060  0.993586  1
  Co  Co13  1  0.500000  0.666940  0.993586  1
  Co  Co14  1  0.000000  0.166908  0.006420  1
  Co  Co15  1  0.000000  0.833092  0.006420  1
  Co  Co16  1  0.500000  0.297122  0.430434  1
  Co  Co17  1  0.500000  0.702878  0.430434  1
  Co  Co18  1  0.000000  0.203886  0.569726  1
  Co  Co19  1  0.000000  0.796114  0.569726  1
  Co  Co20  1  0.500000  0.878988  0.709528  1
  Co  Co21  1  0.500000  0.121012  0.709528  1
  Co  Co22  1  0.000000  0.620761  0.290716  1
  Co  Co23  1  0.000000  0.379239  0.290716  1
  P  P24  1  0.500000  0.500000  0.882124  1
  P  P25  1  0.000000  0.000000  0.117628  1
  P  P26  1  0.500000  0.500000  0.345487  1
  P  P27  1  0.000000  0.000000  0.655387  1
  P  P28  1  0.500000  0.311817  0.616503  1
  P  P29  1  0.500000  0.688183  0.616503  1
  P  P30  1  0.000000  0.188881  0.383161  1
  P  P31  1  0.000000  0.811119  0.383161  1
  P  P32  1  0.500000  0.847197  0.892572  1
  P  P33  1  0.500000  0.152803  0.892572  1
  P  P34  1  0.000000  0.652793  0.107467  1
  P  P35  1  0.000000  0.347207  0.107467  1
