# generated using pymatgen
data_Zr2Cd2C
_symmetry_space_group_name_H-M   'P 1'
_cell_length_a   3.34719300
_cell_length_b   3.34719347
_cell_length_c   10.06930200
_cell_angle_alpha   90.00000000
_cell_angle_beta   90.00000000
_cell_angle_gamma   119.99998548
_symmetry_Int_Tables_number   1
_chemical_formula_structural   Zr2Cd2C
_chemical_formula_sum   'Zr2 Cd2 C1'
_cell_volume   97.69934044
_cell_formula_units_Z   1
loop_
 _symmetry_equiv_pos_site_id
 _symmetry_equiv_pos_as_xyz
  1  'x, y, z'
loop_
 _atom_site_type_symbol
 _atom_site_label
 _atom_site_symmetry_multiplicity
 _atom_site_fract_x
 _atom_site_fract_y
 _atom_site_fract_z
 _atom_site_occupancy
  Zr  Zr0  1  0.333333  0.666666  0.375969  1
  Zr  Zr1  1  0.666665  0.333333  0.624032  1
  Cd  Cd2  1  0.666665  0.333333  0.123137  1
  Cd  Cd3  1  0.333333  0.666666  0.876863  1
  C  C4  1  0.000000  0.000000  0.500000  1
