# generated using pymatgen
data_Li4Y(Ni2P3)2
_symmetry_space_group_name_H-M   'P 1'
_cell_length_a   7.77053131
_cell_length_b   7.77053252
_cell_length_c   7.77053204
_cell_angle_alpha   151.44705286
_cell_angle_beta   113.47988046
_cell_angle_gamma   73.93052094
_symmetry_Int_Tables_number   1
_chemical_formula_structural   Li4Y(Ni2P3)2
_chemical_formula_sum   'Li4 Y1 Ni4 P6'
_cell_volume   202.80718469
_cell_formula_units_Z   1
loop_
 _symmetry_equiv_pos_site_id
 _symmetry_equiv_pos_as_xyz
  1  'x, y, z'
loop_
 _atom_site_type_symbol
 _atom_site_label
 _atom_site_symmetry_multiplicity
 _atom_site_fract_x
 _atom_site_fract_y
 _atom_site_fract_z
 _atom_site_occupancy
  Li  Li0  1  0.718329  0.718329  0.000000  1
  Li  Li1  1  0.674228  0.500000  0.174228  1
  Li  Li2  1  0.325772  0.500000  0.825772  1
  Li  Li3  1  0.281671  0.281671  0.000000  1
  Y  Y4  1  0.000000  0.000000  0.000000  1
  Ni  Ni5  1  0.905844  0.172998  0.732847  1
  Ni  Ni6  1  0.559849  0.827002  0.732847  1
  Ni  Ni7  1  0.440151  0.172998  0.267153  1
  Ni  Ni8  1  0.094156  0.827002  0.267153  1
  P  P9  1  0.976948  0.344501  0.632448  1
  P  P10  1  0.712052  0.344501  0.367552  1
  P  P11  1  0.586719  0.086719  0.500000  1
  P  P12  1  0.413281  0.913281  0.500000  1
  P  P13  1  0.287948  0.655499  0.632448  1
  P  P14  1  0.023052  0.655499  0.367552  1
