# generated using pymatgen
data_YbYHo(BPt2)3
_symmetry_space_group_name_H-M   'P 1'
_cell_length_a   5.40052893
_cell_length_b   5.41360673
_cell_length_c   7.79211700
_cell_angle_alpha   90.00000000
_cell_angle_beta   90.00000000
_cell_angle_gamma   119.84196600
_symmetry_Int_Tables_number   1
_chemical_formula_structural   YbYHo(BPt2)3
_chemical_formula_sum   'Yb1 Y1 Ho1 B3 Pt6'
_cell_volume   197.60525558
_cell_formula_units_Z   1
loop_
 _symmetry_equiv_pos_site_id
 _symmetry_equiv_pos_as_xyz
  1  'x, y, z'
loop_
 _atom_site_type_symbol
 _atom_site_label
 _atom_site_symmetry_multiplicity
 _atom_site_fract_x
 _atom_site_fract_y
 _atom_site_fract_z
 _atom_site_occupancy
  Yb  Yb0  1  0.500000  0.500000  0.833153  1
  Y  Y1  1  0.000000  0.500000  0.163434  1
  Ho  Ho2  1  0.500000  0.000000  0.503506  1
  B  B3  1  0.500000  0.500000  0.333533  1
  B  B4  1  0.500000  0.000000  0.997800  1
  B  B5  1  0.000000  0.500000  0.668630  1
  Pt  Pt6  1  0.148868  0.852592  0.832398  1
  Pt  Pt7  1  0.148518  0.300840  0.499933  1
  Pt  Pt8  1  0.697866  0.851474  0.167641  1
  Pt  Pt9  1  0.851132  0.147408  0.832398  1
  Pt  Pt10  1  0.851482  0.699160  0.499933  1
  Pt  Pt11  1  0.302134  0.148526  0.167641  1
