# generated using pymatgen
data_Tb13Ho3In4NiRh3
_symmetry_space_group_name_H-M   'P 1'
_cell_length_a   9.68247726
_cell_length_b   9.66855883
_cell_length_c   9.68781822
_cell_angle_alpha   59.97591339
_cell_angle_beta   60.03280332
_cell_angle_gamma   59.95276021
_symmetry_Int_Tables_number   1
_chemical_formula_structural   Tb13Ho3In4NiRh3
_chemical_formula_sum   'Tb13 Ho3 In4 Ni1 Rh3'
_cell_volume   641.10962304
_cell_formula_units_Z   1
loop_
 _symmetry_equiv_pos_site_id
 _symmetry_equiv_pos_as_xyz
  1  'x, y, z'
loop_
 _atom_site_type_symbol
 _atom_site_label
 _atom_site_symmetry_multiplicity
 _atom_site_fract_x
 _atom_site_fract_y
 _atom_site_fract_z
 _atom_site_occupancy
  Tb  Tb0  1  0.650160  0.049778  0.649916  1
  Tb  Tb1  1  0.061736  0.061703  0.438334  1
  Tb  Tb2  1  0.437371  0.438142  0.062144  1
  Tb  Tb3  1  0.652530  0.648805  0.651731  1
  Tb  Tb4  1  0.811234  0.189943  0.187377  1
  Tb  Tb5  1  0.188843  0.811398  0.810635  1
  Tb  Tb6  1  0.046847  0.648718  0.652003  1
  Tb  Tb7  1  0.438605  0.061605  0.061498  1
  Tb  Tb8  1  0.438404  0.061590  0.438248  1
  Tb  Tb9  1  0.062281  0.438277  0.062222  1
  Tb  Tb10  1  0.652035  0.648784  0.047459  1
  Tb  Tb11  1  0.188945  0.811246  0.189180  1
  Tb  Tb12  1  0.062238  0.438193  0.437186  1
  Ho  Ho13  1  0.810456  0.811304  0.189120  1
  Ho  Ho14  1  0.811245  0.189927  0.811369  1
  Ho  Ho15  1  0.187421  0.190144  0.811161  1
  In  In16  1  0.416723  0.417872  0.417030  1
  In  In17  1  0.416938  0.417895  0.748250  1
  In  In18  1  0.417859  0.746543  0.417837  1
  In  In19  1  0.748380  0.417949  0.416999  1
  Ni  Ni20  1  0.858021  0.426170  0.857819  1
  Rh  Rh21  1  0.857525  0.858097  0.858011  1
  Rh  Rh22  1  0.857547  0.857772  0.426801  1
  Rh  Rh23  1  0.426656  0.858145  0.857669  1
