# generated using pymatgen
data_YbYTh3Pb3C
_symmetry_space_group_name_H-M   'P 1'
_cell_length_a   9.32848700
_cell_length_b   9.32848749
_cell_length_c   6.63651400
_cell_angle_alpha   90.00000000
_cell_angle_beta   90.00000000
_cell_angle_gamma   120.00000180
_symmetry_Int_Tables_number   1
_chemical_formula_structural   YbYTh3Pb3C
_chemical_formula_sum   'Yb2 Y2 Th6 Pb6 C2'
_cell_volume   500.14171950
_cell_formula_units_Z   2
loop_
 _symmetry_equiv_pos_site_id
 _symmetry_equiv_pos_as_xyz
  1  'x, y, z'
loop_
 _atom_site_type_symbol
 _atom_site_label
 _atom_site_symmetry_multiplicity
 _atom_site_fract_x
 _atom_site_fract_y
 _atom_site_fract_z
 _atom_site_occupancy
  Yb  Yb0  1  0.333333  0.666667  0.500000  1
  Yb  Yb1  1  0.666667  0.333333  0.500000  1
  Y  Y2  1  0.666667  0.333333  0.000000  1
  Y  Y3  1  0.333333  0.666667  0.000000  1
  Th  Th4  1  0.781491  0.781491  0.750570  1
  Th  Th5  1  0.218509  0.000000  0.750570  1
  Th  Th6  1  0.000000  0.218509  0.750570  1
  Th  Th7  1  0.218509  0.218509  0.249430  1
  Th  Th8  1  0.781491  0.000000  0.249430  1
  Th  Th9  1  0.000000  0.781491  0.249430  1
  Pb  Pb10  1  0.407086  0.407086  0.751896  1
  Pb  Pb11  1  0.592914  0.000000  0.751896  1
  Pb  Pb12  1  0.000000  0.592914  0.751896  1
  Pb  Pb13  1  0.592914  0.592914  0.248104  1
  Pb  Pb14  1  0.407086  0.000000  0.248104  1
  Pb  Pb15  1  0.000000  0.407086  0.248104  1
  C  C16  1  0.000000  0.000000  0.000000  1
  C  C17  1  0.000000  0.000000  0.500000  1
