# generated using pymatgen
data_Dy9Y(GaSb)4
_symmetry_space_group_name_H-M   'P 1'
_cell_length_a   8.64384222
_cell_length_b   8.64650457
_cell_length_c   7.93064024
_cell_angle_alpha   90.02487286
_cell_angle_beta   89.97477935
_cell_angle_gamma   125.36939205
_symmetry_Int_Tables_number   1
_chemical_formula_structural   Dy9Y(GaSb)4
_chemical_formula_sum   'Dy9 Y1 Ga4 Sb4'
_cell_volume   483.33260100
_cell_formula_units_Z   1
loop_
 _symmetry_equiv_pos_site_id
 _symmetry_equiv_pos_as_xyz
  1  'x, y, z'
loop_
 _atom_site_type_symbol
 _atom_site_label
 _atom_site_symmetry_multiplicity
 _atom_site_fract_x
 _atom_site_fract_y
 _atom_site_fract_z
 _atom_site_occupancy
  Dy  Dy0  1  0.960219  0.698574  0.668410  1
  Dy  Dy1  1  0.460170  0.198613  0.831783  1
  Dy  Dy2  1  0.801225  0.539830  0.168186  1
  Dy  Dy3  1  0.539945  0.801558  0.168328  1
  Dy  Dy4  1  0.198510  0.460123  0.831502  1
  Dy  Dy5  1  0.698421  0.960073  0.668453  1
  Dy  Dy6  1  0.301479  0.039890  0.331502  1
  Dy  Dy7  1  0.000084  0.999735  0.999729  1
  Dy  Dy8  1  0.500399  0.500157  0.500181  1
  Y  Y9  1  0.039207  0.301717  0.331840  1
  Ga  Ga10  1  0.376962  0.376357  0.122712  1
  Ga  Ga11  1  0.623519  0.623575  0.876995  1
  Ga  Ga12  1  0.123785  0.123268  0.623407  1
  Ga  Ga13  1  0.876171  0.875755  0.377163  1
  Sb  Sb14  1  0.794557  0.205402  0.999632  1
  Sb  Sb15  1  0.205315  0.794789  0.999878  1
  Sb  Sb16  1  0.704854  0.294607  0.500210  1
  Sb  Sb17  1  0.295178  0.705978  0.500089  1
