# generated using pymatgen
data_Tb6Zn22RhS
_symmetry_space_group_name_H-M   'P 1'
_cell_length_a   8.95593275
_cell_length_b   8.95629388
_cell_length_c   8.95628800
_cell_angle_alpha   59.99660888
_cell_angle_beta   60.00081536
_cell_angle_gamma   59.99964043
_symmetry_Int_Tables_number   1
_chemical_formula_structural   Tb6Zn22RhS
_chemical_formula_sum   'Tb6 Zn22 Rh1 S1'
_cell_volume   507.97527715
_cell_formula_units_Z   1
loop_
 _symmetry_equiv_pos_site_id
 _symmetry_equiv_pos_as_xyz
  1  'x, y, z'
loop_
 _atom_site_type_symbol
 _atom_site_label
 _atom_site_symmetry_multiplicity
 _atom_site_fract_x
 _atom_site_fract_y
 _atom_site_fract_z
 _atom_site_occupancy
  Tb  Tb0  1  0.712560  0.287439  0.287438  1
  Tb  Tb1  1  0.287434  0.712562  0.712567  1
  Tb  Tb2  1  0.287477  0.712522  0.287477  1
  Tb  Tb3  1  0.712508  0.287489  0.712513  1
  Tb  Tb4  1  0.287483  0.287486  0.712519  1
  Tb  Tb5  1  0.712520  0.712515  0.287481  1
  Zn  Zn6  1  0.120178  0.120173  0.120157  1
  Zn  Zn7  1  0.879821  0.879828  0.879839  1
  Zn  Zn8  1  0.120165  0.120171  0.639520  1
  Zn  Zn9  1  0.120171  0.639457  0.120190  1
  Zn  Zn10  1  0.879816  0.879809  0.360542  1
  Zn  Zn11  1  0.879850  0.360488  0.879825  1
  Zn  Zn12  1  0.639484  0.120160  0.120175  1
  Zn  Zn13  1  0.360505  0.879845  0.879826  1
  Zn  Zn14  1  0.499997  0.000001  0.000001  1
  Zn  Zn15  1  0.000001  0.499993  0.500006  1
  Zn  Zn16  1  0.999998  0.499997  0.999999  1
  Zn  Zn17  1  0.499994  0.000002  0.500004  1
  Zn  Zn18  1  0.000000  0.000001  0.500002  1
  Zn  Zn19  1  0.500003  0.499999  0.999999  1
  Zn  Zn20  1  0.328831  0.328785  0.328795  1
  Zn  Zn21  1  0.671167  0.671214  0.671204  1
  Zn  Zn22  1  0.328783  0.328842  0.013574  1
  Zn  Zn23  1  0.328808  0.013576  0.328836  1
  Zn  Zn24  1  0.671215  0.671161  0.986423  1
  Zn  Zn25  1  0.671193  0.986424  0.671165  1
  Zn  Zn26  1  0.013579  0.328809  0.328779  1
  Zn  Zn27  1  0.986421  0.671191  0.671217  1
  Rh  Rh28  1  0.000022  0.000082  0.999912  1
  S  S29  1  0.500018  0.499979  0.500012  1
