# generated using pymatgen
data_Er3Tm13In4(NiIr)2
_symmetry_space_group_name_H-M   'P 1'
_cell_length_a   9.47184898
_cell_length_b   9.49340131
_cell_length_c   9.49368333
_cell_angle_alpha   60.33708920
_cell_angle_beta   60.07540610
_cell_angle_gamma   60.07269094
_symmetry_Int_Tables_number   1
_chemical_formula_structural   Er3Tm13In4(NiIr)2
_chemical_formula_sum   'Er3 Tm13 In4 Ni2 Ir2'
_cell_volume   605.84035081
_cell_formula_units_Z   1
loop_
 _symmetry_equiv_pos_site_id
 _symmetry_equiv_pos_as_xyz
  1  'x, y, z'
loop_
 _atom_site_type_symbol
 _atom_site_label
 _atom_site_symmetry_multiplicity
 _atom_site_fract_x
 _atom_site_fract_y
 _atom_site_fract_z
 _atom_site_occupancy
  Er  Er0  1  0.060868  0.439162  0.439162  1
  Er  Er1  1  0.442572  0.435550  0.060931  1
  Er  Er2  1  0.061013  0.435563  0.060934  1
  Tm  Tm3  1  0.061054  0.060891  0.435547  1
  Tm  Tm4  1  0.649703  0.047518  0.653041  1
  Tm  Tm5  1  0.190896  0.808666  0.188054  1
  Tm  Tm6  1  0.442567  0.060894  0.435539  1
  Tm  Tm7  1  0.190901  0.188055  0.808612  1
  Tm  Tm8  1  0.650854  0.652563  0.652530  1
  Tm  Tm9  1  0.044006  0.652669  0.652638  1
  Tm  Tm10  1  0.438168  0.061820  0.061886  1
  Tm  Tm11  1  0.649679  0.653056  0.047549  1
  Tm  Tm12  1  0.189971  0.810071  0.809931  1
  Tm  Tm13  1  0.812653  0.187816  0.808816  1
  Tm  Tm14  1  0.809643  0.190375  0.190410  1
  Tm  Tm15  1  0.812629  0.808859  0.187825  1
  In  In16  1  0.748481  0.417392  0.417371  1
  In  In17  1  0.416809  0.417337  0.749231  1
  In  In18  1  0.416739  0.749171  0.417433  1
  In  In19  1  0.416542  0.417540  0.417571  1
  Ni  Ni20  1  0.854998  0.859839  0.859833  1
  Ni  Ni21  1  0.424540  0.859725  0.859702  1
  Ir  Ir22  1  0.857364  0.860223  0.425248  1
  Ir  Ir23  1  0.857356  0.425244  0.860210  1
