# generated using pymatgen
data_Dy5Er(NiRh8)2
_symmetry_space_group_name_H-M   'P 1'
_cell_length_a   5.27160300
_cell_length_b   5.27160401
_cell_length_c   17.31128000
_cell_angle_alpha   90.00000000
_cell_angle_beta   90.00000000
_cell_angle_gamma   119.99999991
_symmetry_Int_Tables_number   1
_chemical_formula_structural   Dy5Er(NiRh8)2
_chemical_formula_sum   'Dy5 Er1 Ni2 Rh16'
_cell_volume   416.62496439
_cell_formula_units_Z   1
loop_
 _symmetry_equiv_pos_site_id
 _symmetry_equiv_pos_as_xyz
  1  'x, y, z'
loop_
 _atom_site_type_symbol
 _atom_site_label
 _atom_site_symmetry_multiplicity
 _atom_site_fract_x
 _atom_site_fract_y
 _atom_site_fract_z
 _atom_site_occupancy
  Dy  Dy0  1  0.333333  0.666667  0.957856  1
  Dy  Dy1  1  0.666667  0.333333  0.041911  1
  Dy  Dy2  1  0.666667  0.333333  0.458089  1
  Dy  Dy3  1  0.333333  0.666667  0.542144  1
  Dy  Dy4  1  0.333333  0.666667  0.750000  1
  Er  Er5  1  0.666667  0.333333  0.250000  1
  Ni  Ni6  1  0.333333  0.666667  0.250000  1
  Ni  Ni7  1  0.666667  0.333333  0.750000  1
  Rh  Rh8  1  0.168679  0.831321  0.373022  1
  Rh  Rh9  1  0.168679  0.337356  0.373022  1
  Rh  Rh10  1  0.662644  0.831321  0.373022  1
  Rh  Rh11  1  0.831428  0.168572  0.626947  1
  Rh  Rh12  1  0.831428  0.662857  0.626947  1
  Rh  Rh13  1  0.337143  0.168572  0.626947  1
  Rh  Rh14  1  0.831428  0.168572  0.873053  1
  Rh  Rh15  1  0.831428  0.662857  0.873053  1
  Rh  Rh16  1  0.337143  0.168572  0.873053  1
  Rh  Rh17  1  0.168679  0.831321  0.126978  1
  Rh  Rh18  1  0.168679  0.337356  0.126978  1
  Rh  Rh19  1  0.662644  0.831321  0.126978  1
  Rh  Rh20  1  0.000000  0.000000  0.250000  1
  Rh  Rh21  1  0.000000  0.000000  0.750000  1
  Rh  Rh22  1  0.000000  0.000000  0.500012  1
  Rh  Rh23  1  0.000000  0.000000  0.999988  1
