# generated using pymatgen
data_Tm4Ga3GeRu4
_symmetry_space_group_name_H-M   'P 1'
_cell_length_a   4.45565900
_cell_length_b   7.04289721
_cell_length_c   7.14575632
_cell_angle_alpha   89.49550124
_cell_angle_beta   90.00000000
_cell_angle_gamma   90.00000000
_symmetry_Int_Tables_number   1
_chemical_formula_structural   Tm4Ga3GeRu4
_chemical_formula_sum   'Tm4 Ga3 Ge1 Ru4'
_cell_volume   224.23048812
_cell_formula_units_Z   1
loop_
 _symmetry_equiv_pos_site_id
 _symmetry_equiv_pos_as_xyz
  1  'x, y, z'
loop_
 _atom_site_type_symbol
 _atom_site_label
 _atom_site_symmetry_multiplicity
 _atom_site_fract_x
 _atom_site_fract_y
 _atom_site_fract_z
 _atom_site_occupancy
  Tm  Tm0  1  0.250000  0.984280  0.805877  1
  Tm  Tm1  1  0.750000  0.015807  0.195863  1
  Tm  Tm2  1  0.250000  0.481509  0.696338  1
  Tm  Tm3  1  0.750000  0.515078  0.302715  1
  Ga  Ga4  1  0.250000  0.299490  0.106377  1
  Ga  Ga5  1  0.750000  0.699535  0.893922  1
  Ga  Ga6  1  0.250000  0.797917  0.395323  1
  Ge  Ge7  1  0.750000  0.202401  0.603270  1
  Ru  Ru8  1  0.750000  0.845748  0.563023  1
  Ru  Ru9  1  0.250000  0.160477  0.441670  1
  Ru  Ru10  1  0.750000  0.336526  0.932388  1
  Ru  Ru11  1  0.250000  0.661231  0.063234  1
