# generated using pymatgen
data_Rb3NaNdUTe6
_symmetry_space_group_name_H-M   'P 1'
_cell_length_a   8.03878479
_cell_length_b   8.03878430
_cell_length_c   8.89552087
_cell_angle_alpha   81.36420594
_cell_angle_beta   81.36420399
_cell_angle_gamma   120.00506983
_symmetry_Int_Tables_number   1
_chemical_formula_structural   Rb3NaNdUTe6
_chemical_formula_sum   'Rb3 Na1 Nd1 U1 Te6'
_cell_volume   474.82563015
_cell_formula_units_Z   1
loop_
 _symmetry_equiv_pos_site_id
 _symmetry_equiv_pos_as_xyz
  1  'x, y, z'
loop_
 _atom_site_type_symbol
 _atom_site_label
 _atom_site_symmetry_multiplicity
 _atom_site_fract_x
 _atom_site_fract_y
 _atom_site_fract_z
 _atom_site_occupancy
  Rb  Rb0  1  0.657875  0.342125  0.500000  1
  Rb  Rb1  1  0.343081  0.656919  0.500000  1
  Rb  Rb2  1  0.999295  0.000705  0.500000  1
  Na  Na3  1  0.499999  0.500001  0.000000  1
  Nd  Nd4  1  0.832204  0.167796  0.000000  1
  U  U5  1  0.167620  0.832380  0.000000  1
  Te  Te6  1  0.794804  0.778729  0.197753  1
  Te  Te7  1  0.221271  0.205196  0.802247  1
  Te  Te8  1  0.415129  0.067426  0.203048  1
  Te  Te9  1  0.551842  0.915692  0.796751  1
  Te  Te10  1  0.932574  0.584871  0.796952  1
  Te  Te11  1  0.084308  0.448158  0.203249  1
