# generated using pymatgen
data_Ce3DyF15
_symmetry_space_group_name_H-M   'P 1'
_cell_length_a   8.60623049
_cell_length_b   8.60623053
_cell_length_c   8.58446555
_cell_angle_alpha   79.62207555
_cell_angle_beta   79.62207289
_cell_angle_gamma   100.08267260
_symmetry_Int_Tables_number   1
_chemical_formula_structural   Ce3DyF15
_chemical_formula_sum   'Ce6 Dy2 F30'
_cell_volume   600.87795444
_cell_formula_units_Z   2
loop_
 _symmetry_equiv_pos_site_id
 _symmetry_equiv_pos_as_xyz
  1  'x, y, z'
loop_
 _atom_site_type_symbol
 _atom_site_label
 _atom_site_symmetry_multiplicity
 _atom_site_fract_x
 _atom_site_fract_y
 _atom_site_fract_z
 _atom_site_occupancy
  Ce  Ce0  1  0.750391  0.249609  0.250000  1
  Ce  Ce1  1  0.249609  0.750391  0.750000  1
  Ce  Ce2  1  0.753746  0.678502  0.673351  1
  Ce  Ce3  1  0.321498  0.246254  0.826649  1
  Ce  Ce4  1  0.246254  0.321498  0.326649  1
  Ce  Ce5  1  0.678502  0.753746  0.173351  1
  Dy  Dy6  1  0.178675  0.821325  0.250000  1
  Dy  Dy7  1  0.821325  0.178675  0.750000  1
  F  F8  1  0.465828  0.534172  0.250000  1
  F  F9  1  0.749969  0.962359  0.964181  1
  F  F10  1  0.037641  0.250031  0.535819  1
  F  F11  1  0.250031  0.037641  0.035819  1
  F  F12  1  0.962359  0.749969  0.464181  1
  F  F13  1  0.534172  0.465828  0.750000  1
  F  F14  1  0.222019  0.491133  0.775999  1
  F  F15  1  0.225467  0.723065  0.010301  1
  F  F16  1  0.988567  0.725173  0.782365  1
  F  F17  1  0.725173  0.988567  0.282365  1
  F  F18  1  0.723065  0.225467  0.510301  1
  F  F19  1  0.491133  0.222019  0.275999  1
  F  F20  1  0.777982  0.508867  0.224001  1
  F  F21  1  0.774533  0.276935  0.989699  1
  F  F22  1  0.011433  0.274827  0.217635  1
  F  F23  1  0.274827  0.011433  0.717635  1
  F  F24  1  0.276935  0.774533  0.489699  1
  F  F25  1  0.508867  0.777981  0.724001  1
  F  F26  1  0.548685  0.154750  0.815845  1
  F  F27  1  0.187689  0.054977  0.346364  1
  F  F28  1  0.649031  0.682309  0.447292  1
  F  F29  1  0.682309  0.649031  0.947292  1
  F  F30  1  0.054977  0.187689  0.846364  1
  F  F31  1  0.154750  0.548685  0.315845  1
  F  F32  1  0.451315  0.845250  0.184155  1
  F  F33  1  0.812311  0.945023  0.653636  1
  F  F34  1  0.350969  0.317691  0.552708  1
  F  F35  1  0.317691  0.350969  0.052708  1
  F  F36  1  0.945023  0.812311  0.153636  1
  F  F37  1  0.845250  0.451315  0.684155  1
