# generated using pymatgen
data_Pr2YTm3CoI10
_symmetry_space_group_name_H-M   'P 1'
_cell_length_a   7.76357728
_cell_length_b   9.75702493
_cell_length_c   9.78767855
_cell_angle_alpha   106.76372450
_cell_angle_beta   95.96006955
_cell_angle_gamma   105.27022715
_symmetry_Int_Tables_number   1
_chemical_formula_structural   Pr2YTm3CoI10
_chemical_formula_sum   'Pr2 Y1 Tm3 Co1 I10'
_cell_volume   671.73993911
_cell_formula_units_Z   1
loop_
 _symmetry_equiv_pos_site_id
 _symmetry_equiv_pos_as_xyz
  1  'x, y, z'
loop_
 _atom_site_type_symbol
 _atom_site_label
 _atom_site_symmetry_multiplicity
 _atom_site_fract_x
 _atom_site_fract_y
 _atom_site_fract_z
 _atom_site_occupancy
  Pr  Pr0  1  0.883853  0.956313  0.230545  1
  Pr  Pr1  1  0.113084  0.042283  0.768060  1
  Y  Y2  1  0.342302  0.122060  0.160442  1
  Tm  Tm3  1  0.028015  0.722269  0.916256  1
  Tm  Tm4  1  0.970822  0.277460  0.082866  1
  Tm  Tm5  1  0.663598  0.879327  0.841539  1
  Co  Co6  1  0.999284  0.999636  0.999763  1
  I  I7  1  0.654627  0.555836  0.732899  1
  I  I8  1  0.343579  0.447040  0.267400  1
  I  I9  1  0.731700  0.910917  0.545232  1
  I  I10  1  0.265821  0.088094  0.456400  1
  I  I11  1  0.081674  0.379772  0.826717  1
  I  I12  1  0.918245  0.620295  0.173213  1
  I  I13  1  0.445765  0.814643  0.087004  1
  I  I14  1  0.554401  0.182632  0.909827  1
  I  I15  1  0.230073  0.739139  0.662898  1
  I  I16  1  0.773156  0.262283  0.338939  1
