# generated using pymatgen
data_Yb2SmGa9Ag2
_symmetry_space_group_name_H-M   'P 1'
_cell_length_a   8.32218863
_cell_length_b   8.32218779
_cell_length_c   8.32218781
_cell_angle_alpha   148.84785593
_cell_angle_beta   110.84553780
_cell_angle_gamma   77.78113242
_symmetry_Int_Tables_number   1
_chemical_formula_structural   Yb2SmGa9Ag2
_chemical_formula_sum   'Yb2 Sm1 Ga9 Ag2'
_cell_volume   273.46189570
_cell_formula_units_Z   1
loop_
 _symmetry_equiv_pos_site_id
 _symmetry_equiv_pos_as_xyz
  1  'x, y, z'
loop_
 _atom_site_type_symbol
 _atom_site_label
 _atom_site_symmetry_multiplicity
 _atom_site_fract_x
 _atom_site_fract_y
 _atom_site_fract_z
 _atom_site_occupancy
  Yb  Yb0  1  0.201622  0.201622  0.000000  1
  Yb  Yb1  1  0.798378  0.798378  0.000000  1
  Sm  Sm2  1  0.500000  0.500000  0.000000  1
  Ga  Ga3  1  0.073351  0.354785  0.718564  1
  Ga  Ga4  1  0.926649  0.645215  0.281436  1
  Ga  Ga5  1  0.636222  0.354785  0.281436  1
  Ga  Ga6  1  0.363778  0.645215  0.718564  1
  Ga  Ga7  1  0.794530  0.160608  0.633921  1
  Ga  Ga8  1  0.205470  0.839392  0.366079  1
  Ga  Ga9  1  0.526686  0.160608  0.366079  1
  Ga  Ga10  1  0.473314  0.839392  0.633921  1
  Ga  Ga11  1  0.000000  0.500000  0.500000  1
  Ag  Ag12  1  0.816021  0.000000  0.816021  1
  Ag  Ag13  1  0.183979  0.000000  0.183979  1
