# generated using pymatgen
data_Hf5Zr5Al2Sn5Bi
_symmetry_space_group_name_H-M   'P 1'
_cell_length_a   8.73680823
_cell_length_b   8.73808362
_cell_length_c   5.86336100
_cell_angle_alpha   90.00000000
_cell_angle_beta   90.00000000
_cell_angle_gamma   119.96886569
_symmetry_Int_Tables_number   1
_chemical_formula_structural   Hf5Zr5Al2Sn5Bi
_chemical_formula_sum   'Hf5 Zr5 Al2 Sn5 Bi1'
_cell_volume   387.77734355
_cell_formula_units_Z   1
loop_
 _symmetry_equiv_pos_site_id
 _symmetry_equiv_pos_as_xyz
  1  'x, y, z'
loop_
 _atom_site_type_symbol
 _atom_site_label
 _atom_site_symmetry_multiplicity
 _atom_site_fract_x
 _atom_site_fract_y
 _atom_site_fract_z
 _atom_site_occupancy
  Hf  Hf0  1  0.330616  0.662978  0.998254  1
  Hf  Hf1  1  0.666922  0.336542  0.501746  1
  Hf  Hf2  1  0.666922  0.336542  0.998254  1
  Hf  Hf3  1  0.330616  0.662978  0.501746  1
  Hf  Hf4  1  0.272078  0.272105  0.750000  1
  Zr  Zr5  1  0.267525  0.000468  0.250000  1
  Zr  Zr6  1  0.999697  0.728608  0.750000  1
  Zr  Zr7  1  0.005229  0.272891  0.250000  1
  Zr  Zr8  1  0.731796  0.726997  0.250000  1
  Zr  Zr9  1  0.729649  0.999700  0.750000  1
  Al  Al10  1  0.000251  0.000272  0.998266  1
  Al  Al11  1  0.000251  0.000272  0.501734  1
  Sn  Sn12  1  0.612872  0.613650  0.750000  1
  Sn  Sn13  1  0.999606  0.385548  0.750000  1
  Sn  Sn14  1  0.000623  0.613026  0.250000  1
  Sn  Sn15  1  0.387624  0.386992  0.250000  1
  Sn  Sn16  1  0.385210  0.000473  0.750000  1
  Bi  Bi17  1  0.612512  0.999958  0.250000  1
