# generated using pymatgen
data_Zr3ReSi(GeRu)2
_symmetry_space_group_name_H-M   'P 1'
_cell_length_a   6.90059994
_cell_length_b   6.94781628
_cell_length_c   3.60053900
_cell_angle_alpha   90.00000000
_cell_angle_beta   90.00000000
_cell_angle_gamma   120.22659420
_symmetry_Int_Tables_number   1
_chemical_formula_structural   Zr3ReSi(GeRu)2
_chemical_formula_sum   'Zr3 Re1 Si1 Ge2 Ru2'
_cell_volume   149.15477506
_cell_formula_units_Z   1
loop_
 _symmetry_equiv_pos_site_id
 _symmetry_equiv_pos_as_xyz
  1  'x, y, z'
loop_
 _atom_site_type_symbol
 _atom_site_label
 _atom_site_symmetry_multiplicity
 _atom_site_fract_x
 _atom_site_fract_y
 _atom_site_fract_z
 _atom_site_occupancy
  Zr  Zr0  1  0.401480  0.405782  0.500000  1
  Zr  Zr1  1  0.598520  0.004302  0.500000  1
  Zr  Zr2  1  0.000000  0.591468  0.500000  1
  Re  Re3  1  0.000000  0.243289  0.000000  1
  Si  Si4  1  0.000000  0.990536  0.500000  1
  Ge  Ge5  1  0.664244  0.335189  0.000000  1
  Ge  Ge6  1  0.335756  0.670947  0.000000  1
  Ru  Ru7  1  0.242590  0.000538  0.000000  1
  Ru  Ru8  1  0.757410  0.757948  0.000000  1
