# generated using pymatgen
data_Sr10TiReN10
_symmetry_space_group_name_H-M   'P 1'
_cell_length_a   7.34471552
_cell_length_b   7.34471441
_cell_length_c   9.45622563
_cell_angle_alpha   81.12824351
_cell_angle_beta   81.12824660
_cell_angle_gamma   59.61587316
_symmetry_Int_Tables_number   1
_chemical_formula_structural   Sr10TiReN10
_chemical_formula_sum   'Sr10 Ti1 Re1 N10'
_cell_volume   433.04563393
_cell_formula_units_Z   1
loop_
 _symmetry_equiv_pos_site_id
 _symmetry_equiv_pos_as_xyz
  1  'x, y, z'
loop_
 _atom_site_type_symbol
 _atom_site_label
 _atom_site_symmetry_multiplicity
 _atom_site_fract_x
 _atom_site_fract_y
 _atom_site_fract_z
 _atom_site_occupancy
  Sr  Sr0  1  0.878346  0.353754  0.835381  1
  Sr  Sr1  1  0.874324  0.874324  0.822527  1
  Sr  Sr2  1  0.738148  0.738148  0.534578  1
  Sr  Sr3  1  0.740943  0.250682  0.512219  1
  Sr  Sr4  1  0.629075  0.136090  0.141670  1
  Sr  Sr5  1  0.353754  0.878346  0.835381  1
  Sr  Sr6  1  0.250682  0.740943  0.512219  1
  Sr  Sr7  1  0.240753  0.240753  0.504445  1
  Sr  Sr8  1  0.142316  0.142316  0.157953  1
  Sr  Sr9  1  0.136090  0.629075  0.141670  1
  Ti  Ti10  1  0.367528  0.367528  0.774248  1
  Re  Re11  1  0.635722  0.635722  0.228414  1
  N  N12  1  0.891353  0.482548  0.314979  1
  N  N13  1  0.997642  0.997642  0.016410  1
  N  N14  1  0.684437  0.684437  0.034745  1
  N  N15  1  0.525951  0.525951  0.699582  1
  N  N16  1  0.482548  0.891353  0.314979  1
  N  N17  1  0.528686  0.095572  0.679355  1
  N  N18  1  0.487935  0.487935  0.279211  1
  N  N19  1  0.318697  0.318697  0.981368  1
  N  N20  1  0.061785  0.061785  0.645118  1
  N  N21  1  0.095572  0.528686  0.679355  1
