# generated using pymatgen
data_Ho3Er(Rh2O7)2
_symmetry_space_group_name_H-M   'P 1'
_cell_length_a   7.20368764
_cell_length_b   7.20614019
_cell_length_c   7.20614000
_cell_angle_alpha   60.00000088
_cell_angle_beta   59.98873798
_cell_angle_gamma   59.98874160
_symmetry_Int_Tables_number   1
_chemical_formula_structural   Ho3Er(Rh2O7)2
_chemical_formula_sum   'Ho3 Er1 Rh4 O14'
_cell_volume   264.46691126
_cell_formula_units_Z   1
loop_
 _symmetry_equiv_pos_site_id
 _symmetry_equiv_pos_as_xyz
  1  'x, y, z'
loop_
 _atom_site_type_symbol
 _atom_site_label
 _atom_site_symmetry_multiplicity
 _atom_site_fract_x
 _atom_site_fract_y
 _atom_site_fract_z
 _atom_site_occupancy
  Ho  Ho0  1  0.125000  0.125000  0.125000  1
  Ho  Ho1  1  0.125000  0.625000  0.125000  1
  Ho  Ho2  1  0.125000  0.125000  0.625000  1
  Er  Er3  1  0.625000  0.125000  0.125000  1
  Rh  Rh4  1  0.625000  0.625000  0.625000  1
  Rh  Rh5  1  0.625000  0.625000  0.125000  1
  Rh  Rh6  1  0.125000  0.625000  0.625000  1
  Rh  Rh7  1  0.625000  0.125000  0.625000  1
  O  O8  1  0.251009  0.249663  0.249663  1
  O  O9  1  0.287121  0.713011  0.286857  1
  O  O10  1  0.962879  0.963143  0.536989  1
  O  O11  1  0.538634  0.962818  0.535729  1
  O  O12  1  0.711366  0.714271  0.287182  1
  O  O13  1  0.962879  0.536989  0.536989  1
  O  O14  1  0.711366  0.287182  0.714271  1
  O  O15  1  0.287121  0.286857  0.713011  1
  O  O16  1  0.711366  0.287182  0.287182  1
  O  O17  1  0.287121  0.713011  0.713011  1
  O  O18  1  0.962879  0.536989  0.963143  1
  O  O19  1  0.538634  0.535729  0.962818  1
  O  O20  1  0.998991  0.000337  0.000337  1
  O  O21  1  0.538634  0.962818  0.962818  1
