# generated using pymatgen
data_Gd3Tm(SeO3)6
_symmetry_space_group_name_H-M   'P 1'
_cell_length_a   7.15853386
_cell_length_b   8.19811451
_cell_length_c   9.13912769
_cell_angle_alpha   71.28914669
_cell_angle_beta   70.16486685
_cell_angle_gamma   66.18754830
_symmetry_Int_Tables_number   1
_chemical_formula_structural   Gd3Tm(SeO3)6
_chemical_formula_sum   'Gd3 Tm1 Se6 O18'
_cell_volume   450.92502569
_cell_formula_units_Z   1
loop_
 _symmetry_equiv_pos_site_id
 _symmetry_equiv_pos_as_xyz
  1  'x, y, z'
loop_
 _atom_site_type_symbol
 _atom_site_label
 _atom_site_symmetry_multiplicity
 _atom_site_fract_x
 _atom_site_fract_y
 _atom_site_fract_z
 _atom_site_occupancy
  Gd  Gd0  1  0.258746  0.265715  0.200208  1
  Gd  Gd1  1  0.334582  0.727326  0.590625  1
  Gd  Gd2  1  0.667387  0.270106  0.410093  1
  Tm  Tm3  1  0.741507  0.736264  0.799224  1
  Se  Se4  1  0.113086  0.241206  0.586679  1
  Se  Se5  1  0.429064  0.774256  0.195454  1
  Se  Se6  1  0.148288  0.753388  0.963072  1
  Se  Se7  1  0.850938  0.255116  0.031275  1
  Se  Se8  1  0.573565  0.219628  0.803225  1
  Se  Se9  1  0.885454  0.757247  0.418863  1
  O  O10  1  0.156179  0.015289  0.655740  1
  O  O11  1  0.165559  0.571771  0.119511  1
  O  O12  1  0.028542  0.706643  0.559097  1
  O  O13  1  0.342509  0.251717  0.439329  1
  O  O14  1  0.062681  0.697153  0.833981  1
  O  O15  1  0.594392  0.289546  0.147332  1
  O  O16  1  0.350832  0.205972  0.946498  1
  O  O17  1  0.364735  0.940889  0.300964  1
  O  O18  1  0.519597  0.594211  0.347805  1
  O  O19  1  0.485572  0.400193  0.650463  1
  O  O20  1  0.641567  0.049784  0.700118  1
  O  O21  1  0.647699  0.790701  0.047115  1
  O  O22  1  0.407506  0.712023  0.849299  1
  O  O23  1  0.932872  0.306999  0.164538  1
  O  O24  1  0.656886  0.748970  0.568177  1
  O  O25  1  0.966835  0.294590  0.447807  1
  O  O26  1  0.829163  0.440670  0.878691  1
  O  O27  1  0.844257  0.982629  0.344818  1
