# generated using pymatgen
data_La7Ho4TmIn20
_symmetry_space_group_name_H-M   'P 1'
_cell_length_a   6.66290327
_cell_length_b   10.67691980
_cell_length_c   12.57343300
_cell_angle_alpha   90.05892758
_cell_angle_beta   89.98373027
_cell_angle_gamma   90.00965465
_symmetry_Int_Tables_number   1
_chemical_formula_structural   La7Ho4TmIn20
_chemical_formula_sum   'La7 Ho4 Tm1 In20'
_cell_volume   894.46449700
_cell_formula_units_Z   1
loop_
 _symmetry_equiv_pos_site_id
 _symmetry_equiv_pos_as_xyz
  1  'x, y, z'
loop_
 _atom_site_type_symbol
 _atom_site_label
 _atom_site_symmetry_multiplicity
 _atom_site_fract_x
 _atom_site_fract_y
 _atom_site_fract_z
 _atom_site_occupancy
  La  La0  1  0.610939  0.006961  0.643286  1
  La  La1  1  0.110556  0.991518  0.857863  1
  La  La2  1  0.389540  0.508142  0.356552  1
  La  La3  1  0.111406  0.508533  0.858746  1
  La  La4  1  0.390027  0.991625  0.355236  1
  La  La5  1  0.888046  0.009058  0.143643  1
  La  La6  1  0.611140  0.492352  0.643349  1
  Ho  Ho7  1  0.150674  0.749363  0.558040  1
  Ho  Ho8  1  0.650310  0.250973  0.942937  1
  Ho  Ho9  1  0.848746  0.249056  0.441734  1
  Ho  Ho10  1  0.889418  0.489953  0.141848  1
  Tm  Tm11  1  0.345704  0.752591  0.058072  1
  In  In12  1  0.619566  0.749473  0.498105  1
  In  In13  1  0.881306  0.745812  0.006079  1
  In  In14  1  0.381039  0.249599  0.499750  1
  In  In15  1  0.114874  0.251875  0.001611  1
  In  In16  1  0.652874  0.744484  0.238562  1
  In  In17  1  0.849648  0.749724  0.744242  1
  In  In18  1  0.349727  0.250489  0.757325  1
  In  In19  1  0.150491  0.252592  0.255802  1
  In  In20  1  0.111406  0.748896  0.283130  1
  In  In21  1  0.389150  0.749554  0.785562  1
  In  In22  1  0.888014  0.250043  0.715083  1
  In  In23  1  0.617029  0.255837  0.213635  1
  In  In24  1  0.878843  0.542244  0.399824  1
  In  In25  1  0.622704  0.954877  0.905472  1
  In  In26  1  0.121617  0.044557  0.595683  1
  In  In27  1  0.374116  0.459370  0.097178  1
  In  In28  1  0.122128  0.455385  0.594695  1
  In  In29  1  0.378024  0.046599  0.095314  1
  In  In30  1  0.879184  0.954715  0.404741  1
  In  In31  1  0.621755  0.543751  0.906903  1
