# generated using pymatgen
data_Ho2Tm6Sc12Si15Rh
_symmetry_space_group_name_H-M   'P 1'
_cell_length_a   7.06736940
_cell_length_b   7.33522323
_cell_length_c   13.92590810
_cell_angle_alpha   89.94100182
_cell_angle_beta   89.81523782
_cell_angle_gamma   90.20452480
_symmetry_Int_Tables_number   1
_chemical_formula_structural   Ho2Tm6Sc12Si15Rh
_chemical_formula_sum   'Ho2 Tm6 Sc12 Si15 Rh1'
_cell_volume   721.92052809
_cell_formula_units_Z   1
loop_
 _symmetry_equiv_pos_site_id
 _symmetry_equiv_pos_as_xyz
  1  'x, y, z'
loop_
 _atom_site_type_symbol
 _atom_site_label
 _atom_site_symmetry_multiplicity
 _atom_site_fract_x
 _atom_site_fract_y
 _atom_site_fract_z
 _atom_site_occupancy
  Ho  Ho0  1  0.012383  0.176238  0.096627  1
  Ho  Ho1  1  0.988016  0.823844  0.903282  1
  Tm  Tm2  1  0.486902  0.677408  0.903112  1
  Tm  Tm3  1  0.989293  0.820765  0.596312  1
  Tm  Tm4  1  0.512214  0.323358  0.096048  1
  Tm  Tm5  1  0.011585  0.180699  0.403616  1
  Tm  Tm6  1  0.507905  0.324210  0.403879  1
  Tm  Tm7  1  0.485811  0.671029  0.597515  1
  Sc  Sc8  1  0.163315  0.503809  0.745041  1
  Sc  Sc9  1  0.838067  0.497107  0.252051  1
  Sc  Sc10  1  0.339390  0.000628  0.250494  1
  Sc  Sc11  1  0.662161  0.996042  0.749322  1
  Sc  Sc12  1  0.330588  0.187288  0.621291  1
  Sc  Sc13  1  0.668149  0.823487  0.373863  1
  Sc  Sc14  1  0.171116  0.665242  0.378206  1
  Sc  Sc15  1  0.671281  0.824073  0.126459  1
  Sc  Sc16  1  0.834486  0.326610  0.623477  1
  Sc  Sc17  1  0.328253  0.177246  0.875517  1
  Sc  Sc18  1  0.831291  0.322000  0.875500  1
  Sc  Sc19  1  0.170144  0.676744  0.125128  1
  Si  Si20  1  0.033406  0.112650  0.749624  1
  Si  Si21  1  0.970058  0.885061  0.251588  1
  Si  Si22  1  0.467476  0.612599  0.248395  1
  Si  Si23  1  0.536760  0.386073  0.752902  1
  Si  Si24  1  0.286257  0.874865  0.750284  1
  Si  Si25  1  0.713793  0.130595  0.249787  1
  Si  Si26  1  0.216226  0.368668  0.247946  1
  Si  Si27  1  0.783781  0.628681  0.752590  1
  Si  Si28  1  0.834960  0.536016  0.460788  1
  Si  Si29  1  0.342376  0.963675  0.461047  1
  Si  Si30  1  0.841959  0.535837  0.038737  1
  Si  Si31  1  0.656926  0.033353  0.538825  1
  Si  Si32  1  0.157249  0.465953  0.960936  1
  Si  Si33  1  0.657642  0.034158  0.961831  1
  Si  Si34  1  0.343722  0.964742  0.038803  1
  Rh  Rh35  1  0.155060  0.469248  0.539176  1
