# generated using pymatgen
data_CsCuP2S5
_symmetry_space_group_name_H-M   'P 1'
_cell_length_a   7.70702300
_cell_length_b   10.94408008
_cell_length_c   13.25965161
_cell_angle_alpha   59.35762812
_cell_angle_beta   90.00000000
_cell_angle_gamma   90.00000000
_symmetry_Int_Tables_number   1
_chemical_formula_structural   CsCuP2S5
_chemical_formula_sum   'Cs4 Cu4 P8 S20'
_cell_volume   962.23452986
_cell_formula_units_Z   4
loop_
 _symmetry_equiv_pos_site_id
 _symmetry_equiv_pos_as_xyz
  1  'x, y, z'
loop_
 _atom_site_type_symbol
 _atom_site_label
 _atom_site_symmetry_multiplicity
 _atom_site_fract_x
 _atom_site_fract_y
 _atom_site_fract_z
 _atom_site_occupancy
  Cs  Cs0  1  0.626521  0.624564  0.778790  1
  Cs  Cs1  1  0.373479  0.375436  0.221210  1
  Cs  Cs2  1  0.873479  0.624564  0.278790  1
  Cs  Cs3  1  0.126521  0.375436  0.721210  1
  Cu  Cu4  1  0.312647  0.864458  0.319389  1
  Cu  Cu5  1  0.812647  0.135542  0.180611  1
  Cu  Cu6  1  0.187353  0.864458  0.819389  1
  Cu  Cu7  1  0.687353  0.135542  0.680611  1
  P  P8  1  0.669872  0.176108  0.930535  1
  P  P9  1  0.936240  0.844700  0.456639  1
  P  P10  1  0.063760  0.155300  0.543361  1
  P  P11  1  0.830128  0.176108  0.430535  1
  P  P12  1  0.330128  0.823892  0.069465  1
  P  P13  1  0.169872  0.823892  0.569465  1
  P  P14  1  0.563760  0.844700  0.956639  1
  P  P15  1  0.436240  0.155300  0.043361  1
  S  S16  1  0.672996  0.655024  0.025531  1
  S  S17  1  0.615713  0.281434  0.758530  1
  S  S18  1  0.139973  0.742860  0.016374  1
  S  S19  1  0.483743  0.944664  0.786850  1
  S  S20  1  0.172996  0.344976  0.474469  1
  S  S21  1  0.360027  0.742860  0.516374  1
  S  S22  1  0.327004  0.344976  0.974469  1
  S  S23  1  0.983743  0.055336  0.713150  1
  S  S24  1  0.749519  0.960849  0.994794  1
  S  S25  1  0.249519  0.039151  0.505206  1
  S  S26  1  0.860027  0.257140  0.983626  1
  S  S27  1  0.750481  0.960849  0.494794  1
  S  S28  1  0.115713  0.718566  0.741470  1
  S  S29  1  0.016257  0.944664  0.286850  1
  S  S30  1  0.639973  0.257140  0.483626  1
  S  S31  1  0.384287  0.718566  0.241470  1
  S  S32  1  0.884287  0.281434  0.258530  1
  S  S33  1  0.516257  0.055336  0.213150  1
  S  S34  1  0.250481  0.039151  0.005206  1
  S  S35  1  0.827004  0.655024  0.525531  1
