# generated using pymatgen
data_Hf16FeNi3(Ir2N)2
_symmetry_space_group_name_H-M   'P 1'
_cell_length_a   8.59596073
_cell_length_b   8.59898748
_cell_length_c   8.59596113
_cell_angle_alpha   120.22865060
_cell_angle_beta   119.86902023
_cell_angle_gamma   89.90559402
_symmetry_Int_Tables_number   1
_chemical_formula_structural   Hf16FeNi3(Ir2N)2
_chemical_formula_sum   'Hf16 Fe1 Ni3 Ir4 N2'
_cell_volume   448.98612757
_cell_formula_units_Z   1
loop_
 _symmetry_equiv_pos_site_id
 _symmetry_equiv_pos_as_xyz
  1  'x, y, z'
loop_
 _atom_site_type_symbol
 _atom_site_label
 _atom_site_symmetry_multiplicity
 _atom_site_fract_x
 _atom_site_fract_y
 _atom_site_fract_z
 _atom_site_occupancy
  Hf  Hf0  1  0.937686  0.188241  0.750554  1
  Hf  Hf1  1  0.319649  0.564494  0.744844  1
  Hf  Hf2  1  0.932379  0.568507  0.756612  1
  Hf  Hf3  1  0.310703  0.179160  0.739034  1
  Hf  Hf4  1  0.940126  0.179160  0.368457  1
  Hf  Hf5  1  0.311896  0.568507  0.136128  1
  Hf  Hf6  1  0.058371  0.809271  0.250900  1
  Hf  Hf7  1  0.688688  0.439640  0.250952  1
  Hf  Hf8  1  0.060362  0.437617  0.246531  1
  Hf  Hf9  1  0.692235  0.814540  0.254169  1
  Hf  Hf10  1  0.060371  0.814540  0.622305  1
  Hf  Hf11  1  0.691086  0.437617  0.877255  1
  Hf  Hf12  1  0.485986  0.014762  0.028777  1
  Hf  Hf13  1  0.482960  0.451628  0.468669  1
  Hf  Hf14  1  0.483027  0.016447  0.469146  1
  Hf  Hf15  1  0.047301  0.016447  0.033419  1
  Fe  Fe16  1  0.272576  0.233725  0.461149  1
  Ni  Ni17  1  0.272438  0.813512  0.041074  1
  Ni  Ni18  1  0.273980  0.228668  0.044707  1
  Ni  Ni19  1  0.683960  0.228668  0.454688  1
  Ir  Ir20  1  0.707740  0.785181  0.577442  1
  Ir  Ir21  1  0.708124  0.130560  0.922436  1
  Ir  Ir22  1  0.706207  0.790487  0.915954  1
  Ir  Ir23  1  0.374534  0.790487  0.584280  1
  N  N24  1  0.999547  0.499411  0.999865  1
  N  N25  1  0.998070  0.998720  0.500651  1
