# generated using pymatgen
data_CsTbThSe4
_symmetry_space_group_name_H-M   'P 1'
_cell_length_a   4.30178300
_cell_length_b   7.26825903
_cell_length_c   9.05818600
_cell_angle_alpha   74.78687124
_cell_angle_beta   90.00000000
_cell_angle_gamma   90.00000000
_symmetry_Int_Tables_number   1
_chemical_formula_structural   CsTbThSe4
_chemical_formula_sum   'Cs1 Tb1 Th1 Se4'
_cell_volume   273.29256477
_cell_formula_units_Z   1
loop_
 _symmetry_equiv_pos_site_id
 _symmetry_equiv_pos_as_xyz
  1  'x, y, z'
loop_
 _atom_site_type_symbol
 _atom_site_label
 _atom_site_symmetry_multiplicity
 _atom_site_fract_x
 _atom_site_fract_y
 _atom_site_fract_z
 _atom_site_occupancy
  Cs  Cs0  1  0.000000  0.500000  0.500000  1
  Tb  Tb1  1  0.500000  0.500000  0.000000  1
  Th  Th2  1  0.000000  0.000000  0.000000  1
  Se  Se3  1  0.500000  0.773754  0.183455  1
  Se  Se4  1  0.000000  0.277315  0.176906  1
  Se  Se5  1  0.500000  0.226246  0.816545  1
  Se  Se6  1  0.000000  0.722685  0.823094  1
