# generated using pymatgen
data_Zr2B(IrRh)3
_symmetry_space_group_name_H-M   'P 1'
_cell_length_a   5.73603882
_cell_length_b   5.73603882
_cell_length_c   5.73742008
_cell_angle_alpha   60.00795990
_cell_angle_beta   60.00796247
_cell_angle_gamma   60.00000212
_symmetry_Int_Tables_number   1
_chemical_formula_structural   Zr2B(IrRh)3
_chemical_formula_sum   'Zr2 B1 Ir3 Rh3'
_cell_volume   133.49901833
_cell_formula_units_Z   1
loop_
 _symmetry_equiv_pos_site_id
 _symmetry_equiv_pos_as_xyz
  1  'x, y, z'
loop_
 _atom_site_type_symbol
 _atom_site_label
 _atom_site_symmetry_multiplicity
 _atom_site_fract_x
 _atom_site_fract_y
 _atom_site_fract_z
 _atom_site_occupancy
  Zr  Zr0  1  0.749940  0.749940  0.750180  1
  Zr  Zr1  1  0.249859  0.249859  0.250422  1
  B  B2  1  0.999591  0.999591  0.001228  1
  Ir  Ir3  1  0.258198  0.258198  0.742062  1
  Ir  Ir4  1  0.741542  0.258198  0.742062  1
  Ir  Ir5  1  0.258198  0.741542  0.742062  1
  Rh  Rh6  1  0.742786  0.742786  0.257328  1
  Rh  Rh7  1  0.257100  0.742786  0.257328  1
  Rh  Rh8  1  0.742786  0.257100  0.257328  1
