# generated using pymatgen
data_Dy5Y5Sn6
_symmetry_space_group_name_H-M   'P 1'
_cell_length_a   8.98959400
_cell_length_b   8.98979461
_cell_length_c   6.56135000
_cell_angle_alpha   90.00000000
_cell_angle_beta   90.00000000
_cell_angle_gamma   119.99925444
_symmetry_Int_Tables_number   1
_chemical_formula_structural   Dy5Y5Sn6
_chemical_formula_sum   'Dy5 Y5 Sn6'
_cell_volume   459.21593189
_cell_formula_units_Z   1
loop_
 _symmetry_equiv_pos_site_id
 _symmetry_equiv_pos_as_xyz
  1  'x, y, z'
loop_
 _atom_site_type_symbol
 _atom_site_label
 _atom_site_symmetry_multiplicity
 _atom_site_fract_x
 _atom_site_fract_y
 _atom_site_fract_z
 _atom_site_occupancy
  Dy  Dy0  1  0.239741  0.000000  0.250000  1
  Dy  Dy1  1  0.333315  0.666707  0.499988  1
  Dy  Dy2  1  0.666609  0.333293  0.000012  1
  Dy  Dy3  1  0.666609  0.333293  0.499988  1
  Dy  Dy4  1  0.333315  0.666707  0.000012  1
  Y  Y5  1  0.000160  0.760349  0.750000  1
  Y  Y6  1  0.000063  0.239627  0.250000  1
  Y  Y7  1  0.760436  0.760373  0.250000  1
  Y  Y8  1  0.760190  0.000000  0.750000  1
  Y  Y9  1  0.239811  0.239651  0.750000  1
  Sn  Sn10  1  0.394843  0.000000  0.750000  1
  Sn  Sn11  1  0.394941  0.394807  0.250000  1
  Sn  Sn12  1  0.000134  0.605193  0.250000  1
  Sn  Sn13  1  0.999955  0.394932  0.750000  1
  Sn  Sn14  1  0.605023  0.605068  0.750000  1
  Sn  Sn15  1  0.604855  0.000000  0.250000  1
