# generated using pymatgen
data_YbAgPt2O7
_symmetry_space_group_name_H-M   'P 1'
_cell_length_a   7.21811216
_cell_length_b   7.34801780
_cell_length_c   7.21811205
_cell_angle_alpha   59.40284442
_cell_angle_beta   58.99404285
_cell_angle_gamma   59.40283869
_symmetry_Int_Tables_number   1
_chemical_formula_structural   YbAgPt2O7
_chemical_formula_sum   'Yb2 Ag2 Pt4 O14'
_cell_volume   266.17785553
_cell_formula_units_Z   2
loop_
 _symmetry_equiv_pos_site_id
 _symmetry_equiv_pos_as_xyz
  1  'x, y, z'
loop_
 _atom_site_type_symbol
 _atom_site_label
 _atom_site_symmetry_multiplicity
 _atom_site_fract_x
 _atom_site_fract_y
 _atom_site_fract_z
 _atom_site_occupancy
  Yb  Yb0  1  0.625000  0.125000  0.625000  1
  Yb  Yb1  1  0.625000  0.625000  0.625000  1
  Ag  Ag2  1  0.625000  0.625000  0.125000  1
  Ag  Ag3  1  0.125000  0.625000  0.625000  1
  Pt  Pt4  1  0.125000  0.125000  0.625000  1
  Pt  Pt5  1  0.125000  0.625000  0.125000  1
  Pt  Pt6  1  0.625000  0.125000  0.125000  1
  Pt  Pt7  1  0.125000  0.125000  0.125000  1
  O  O8  1  0.481339  0.518661  0.481339  1
  O  O9  1  0.768661  0.731339  0.768661  1
  O  O10  1  0.464006  0.035994  0.464006  1
  O  O11  1  0.204326  0.795674  0.204326  1
  O  O12  1  0.459244  0.455770  0.040137  1
  O  O13  1  0.040137  0.455770  0.459244  1
  O  O14  1  0.459244  0.044849  0.040137  1
  O  O15  1  0.040137  0.044849  0.459244  1
  O  O16  1  0.045674  0.454326  0.045674  1
  O  O17  1  0.790756  0.205151  0.209863  1
  O  O18  1  0.209863  0.794230  0.790756  1
  O  O19  1  0.785994  0.214006  0.785994  1
  O  O20  1  0.209863  0.205151  0.790756  1
  O  O21  1  0.790756  0.794230  0.209863  1
