# generated using pymatgen
data_Cd2Bi3Sb3O14
_symmetry_space_group_name_H-M   'P 1'
_cell_length_a   7.48577965
_cell_length_b   7.48577823
_cell_length_c   7.48578003
_cell_angle_alpha   61.22638939
_cell_angle_beta   61.22646937
_cell_angle_gamma   61.22644246
_symmetry_Int_Tables_number   1
_chemical_formula_structural   Cd2Bi3Sb3O14
_chemical_formula_sum   'Cd2 Bi3 Sb3 O14'
_cell_volume   304.79848986
_cell_formula_units_Z   1
loop_
 _symmetry_equiv_pos_site_id
 _symmetry_equiv_pos_as_xyz
  1  'x, y, z'
loop_
 _atom_site_type_symbol
 _atom_site_label
 _atom_site_symmetry_multiplicity
 _atom_site_fract_x
 _atom_site_fract_y
 _atom_site_fract_z
 _atom_site_occupancy
  Cd  Cd0  1  0.000000  0.500002  0.999997  1
  Cd  Cd1  1  0.499997  0.999976  0.500027  1
  Bi  Bi2  1  0.999998  0.000006  0.499996  1
  Bi  Bi3  1  0.500013  0.000016  0.999999  1
  Bi  Bi4  1  0.499996  0.499995  0.499990  1
  Sb  Sb5  1  0.500000  0.500004  0.999997  1
  Sb  Sb6  1  0.000001  0.500001  0.500000  1
  Sb  Sb7  1  0.000002  0.999999  0.999999  1
  O  O8  1  0.617923  0.117921  0.617923  1
  O  O9  1  0.382077  0.882078  0.382078  1
  O  O10  1  0.082193  0.186617  0.686615  1
  O  O11  1  0.686613  0.186614  0.082189  1
  O  O12  1  0.686617  0.582196  0.686616  1
  O  O13  1  0.917805  0.813385  0.313383  1
  O  O14  1  0.313381  0.813383  0.917800  1
  O  O15  1  0.313386  0.417808  0.313385  1
  O  O16  1  0.631475  0.597895  0.097896  1
  O  O17  1  0.097896  0.597895  0.631477  1
  O  O18  1  0.097893  0.131476  0.097896  1
  O  O19  1  0.368523  0.402103  0.902107  1
  O  O20  1  0.902107  0.402105  0.368522  1
  O  O21  1  0.902102  0.868524  0.902106  1
