# generated using pymatgen
data_Hf4MnCo3Si4
_symmetry_space_group_name_H-M   'P 1'
_cell_length_a   3.89180000
_cell_length_b   6.36712976
_cell_length_c   7.05975121
_cell_angle_alpha   90.12487823
_cell_angle_beta   90.00000000
_cell_angle_gamma   90.00000000
_symmetry_Int_Tables_number   1
_chemical_formula_structural   Hf4MnCo3Si4
_chemical_formula_sum   'Hf4 Mn1 Co3 Si4'
_cell_volume   174.93736464
_cell_formula_units_Z   1
loop_
 _symmetry_equiv_pos_site_id
 _symmetry_equiv_pos_as_xyz
  1  'x, y, z'
loop_
 _atom_site_type_symbol
 _atom_site_label
 _atom_site_symmetry_multiplicity
 _atom_site_fract_x
 _atom_site_fract_y
 _atom_site_fract_z
 _atom_site_occupancy
  Hf  Hf0  1  0.250000  0.005518  0.306724  1
  Hf  Hf1  1  0.250000  0.499836  0.197487  1
  Hf  Hf2  1  0.750000  0.997590  0.695836  1
  Hf  Hf3  1  0.750000  0.490817  0.803977  1
  Mn  Mn4  1  0.250000  0.155490  0.932124  1
  Co  Co5  1  0.250000  0.652962  0.564808  1
  Co  Co6  1  0.750000  0.846600  0.067134  1
  Co  Co7  1  0.750000  0.350302  0.428900  1
  Si  Si8  1  0.250000  0.286474  0.607581  1
  Si  Si9  1  0.250000  0.784203  0.895437  1
  Si  Si10  1  0.750000  0.717542  0.393212  1
  Si  Si11  1  0.750000  0.212666  0.106781  1
