# generated using pymatgen
data_Tb2YbY(Mo2O7)2
_symmetry_space_group_name_H-M   'P 1'
_cell_length_a   7.43406481
_cell_length_b   7.42825523
_cell_length_c   7.43406341
_cell_angle_alpha   59.00125999
_cell_angle_beta   59.02907711
_cell_angle_gamma   59.00126124
_symmetry_Int_Tables_number   1
_chemical_formula_structural   Tb2YbY(Mo2O7)2
_chemical_formula_sum   'Tb2 Yb1 Y1 Mo4 O14'
_cell_volume   283.73345087
_cell_formula_units_Z   1
loop_
 _symmetry_equiv_pos_site_id
 _symmetry_equiv_pos_as_xyz
  1  'x, y, z'
loop_
 _atom_site_type_symbol
 _atom_site_label
 _atom_site_symmetry_multiplicity
 _atom_site_fract_x
 _atom_site_fract_y
 _atom_site_fract_z
 _atom_site_occupancy
  Tb  Tb0  1  0.625000  0.125000  0.125000  1
  Tb  Tb1  1  0.125000  0.125000  0.625000  1
  Yb  Yb2  1  0.125000  0.125000  0.125000  1
  Y  Y3  1  0.125000  0.625000  0.125000  1
  Mo  Mo4  1  0.625000  0.625000  0.625000  1
  Mo  Mo5  1  0.125000  0.625000  0.625000  1
  Mo  Mo6  1  0.625000  0.125000  0.625000  1
  Mo  Mo7  1  0.625000  0.625000  0.125000  1
  O  O8  1  0.251231  0.252746  0.251231  1
  O  O9  1  0.998769  0.997254  0.998769  1
  O  O10  1  0.541628  0.952954  0.541628  1
  O  O11  1  0.288557  0.699220  0.288557  1
  O  O12  1  0.541852  0.541728  0.952643  1
  O  O13  1  0.952643  0.541728  0.541852  1
  O  O14  1  0.550631  0.961691  0.961339  1
  O  O15  1  0.961339  0.961691  0.550631  1
  O  O16  1  0.961443  0.550780  0.961443  1
  O  O17  1  0.699369  0.288309  0.288661  1
  O  O18  1  0.297357  0.708272  0.708148  1
  O  O19  1  0.708148  0.708272  0.297357  1
  O  O20  1  0.288661  0.288309  0.699369  1
  O  O21  1  0.708372  0.297046  0.708372  1
