# generated using pymatgen
data_Sc4VCo16(TcP4)3
_symmetry_space_group_name_H-M   'P 1'
_cell_length_a   3.63568600
_cell_length_b   10.21380593
_cell_length_c   11.69245466
_cell_angle_alpha   89.84685219
_cell_angle_beta   90.00000000
_cell_angle_gamma   90.00000000
_symmetry_Int_Tables_number   1
_chemical_formula_structural   Sc4VCo16(TcP4)3
_chemical_formula_sum   'Sc4 V1 Co16 Tc3 P12'
_cell_volume   434.18829615
_cell_formula_units_Z   1
loop_
 _symmetry_equiv_pos_site_id
 _symmetry_equiv_pos_as_xyz
  1  'x, y, z'
loop_
 _atom_site_type_symbol
 _atom_site_label
 _atom_site_symmetry_multiplicity
 _atom_site_fract_x
 _atom_site_fract_y
 _atom_site_fract_z
 _atom_site_occupancy
  Sc  Sc0  1  0.250000  0.580445  0.703597  1
  Sc  Sc1  1  0.250000  0.916709  0.204682  1
  Sc  Sc2  1  0.750000  0.416096  0.294414  1
  Sc  Sc3  1  0.750000  0.084213  0.795567  1
  V  V4  1  0.750000  0.209998  0.511608  1
  Co  Co5  1  0.250000  0.406575  0.485900  1
  Co  Co6  1  0.250000  0.092111  0.986095  1
  Co  Co7  1  0.750000  0.592609  0.513046  1
  Co  Co8  1  0.750000  0.908042  0.013009  1
  Co  Co9  1  0.250000  0.220807  0.177467  1
  Co  Co10  1  0.250000  0.278538  0.677229  1
  Co  Co11  1  0.750000  0.778564  0.821891  1
  Co  Co12  1  0.750000  0.722235  0.322964  1
  Co  Co13  1  0.250000  0.888211  0.701729  1
  Co  Co14  1  0.250000  0.613137  0.203853  1
  Co  Co15  1  0.750000  0.114651  0.299276  1
  Co  Co16  1  0.750000  0.386919  0.797475  1
  Co  Co17  1  0.250000  0.463902  0.930538  1
  Co  Co18  1  0.250000  0.034804  0.432151  1
  Co  Co19  1  0.750000  0.536226  0.069639  1
  Co  Co20  1  0.750000  0.965576  0.567808  1
  Tc  Tc21  1  0.250000  0.712983  0.990378  1
  Tc  Tc22  1  0.250000  0.789516  0.489875  1
  Tc  Tc23  1  0.750000  0.287267  0.010560  1
  P  P24  1  0.250000  0.420204  0.116127  1
  P  P25  1  0.250000  0.082079  0.616100  1
  P  P26  1  0.750000  0.579426  0.883919  1
  P  P27  1  0.750000  0.920934  0.382860  1
  P  P28  1  0.250000  0.265245  0.864283  1
  P  P29  1  0.250000  0.235749  0.365651  1
  P  P30  1  0.750000  0.735102  0.135669  1
  P  P31  1  0.750000  0.763940  0.634945  1
  P  P32  1  0.250000  0.593684  0.389844  1
  P  P33  1  0.250000  0.906627  0.888860  1
  P  P34  1  0.750000  0.403755  0.609428  1
  P  P35  1  0.750000  0.093123  0.111562  1
