# generated using pymatgen
data_Lu6HgRh7
_symmetry_space_group_name_H-M   'P 1'
_cell_length_a   7.48428385
_cell_length_b   7.48428301
_cell_length_c   7.48428462
_cell_angle_alpha   113.73429590
_cell_angle_beta   113.73431069
_cell_angle_gamma   113.73431513
_symmetry_Int_Tables_number   1
_chemical_formula_structural   Lu6HgRh7
_chemical_formula_sum   'Lu6 Hg1 Rh7'
_cell_volume   259.64420318
_cell_formula_units_Z   1
loop_
 _symmetry_equiv_pos_site_id
 _symmetry_equiv_pos_as_xyz
  1  'x, y, z'
loop_
 _atom_site_type_symbol
 _atom_site_label
 _atom_site_symmetry_multiplicity
 _atom_site_fract_x
 _atom_site_fract_y
 _atom_site_fract_z
 _atom_site_occupancy
  Lu  Lu0  1  0.958374  0.231183  0.372087  1
  Lu  Lu1  1  0.231183  0.372087  0.958374  1
  Lu  Lu2  1  0.372087  0.958374  0.231183  1
  Lu  Lu3  1  0.041626  0.768817  0.627913  1
  Lu  Lu4  1  0.768817  0.627913  0.041626  1
  Lu  Lu5  1  0.627913  0.041626  0.768817  1
  Hg  Hg6  1  0.500000  0.500000  0.500000  1
  Rh  Rh7  1  0.000000  0.000000  0.000000  1
  Rh  Rh8  1  0.124886  0.568105  0.273723  1
  Rh  Rh9  1  0.568105  0.273723  0.124886  1
  Rh  Rh10  1  0.273723  0.124886  0.568105  1
  Rh  Rh11  1  0.875114  0.431895  0.726277  1
  Rh  Rh12  1  0.431895  0.726277  0.875114  1
  Rh  Rh13  1  0.726277  0.875114  0.431895  1
