# generated using pymatgen
data_YAs3Rh5
_symmetry_space_group_name_H-M   'P 1'
_cell_length_a   4.01535300
_cell_length_b   12.90379500
_cell_length_c   11.37215600
_cell_angle_alpha   90.00000000
_cell_angle_beta   90.00000000
_cell_angle_gamma   90.00000000
_symmetry_Int_Tables_number   1
_chemical_formula_structural   YAs3Rh5
_chemical_formula_sum   'Y4 As12 Rh20'
_cell_volume   589.22883910
_cell_formula_units_Z   4
loop_
 _symmetry_equiv_pos_site_id
 _symmetry_equiv_pos_as_xyz
  1  'x, y, z'
loop_
 _atom_site_type_symbol
 _atom_site_label
 _atom_site_symmetry_multiplicity
 _atom_site_fract_x
 _atom_site_fract_y
 _atom_site_fract_z
 _atom_site_occupancy
  Y  Y0  1  0.750000  0.701510  0.080979  1
  Y  Y1  1  0.250000  0.298490  0.919021  1
  Y  Y2  1  0.250000  0.798490  0.580979  1
  Y  Y3  1  0.750000  0.201510  0.419021  1
  As  As4  1  0.750000  0.614463  0.582927  1
  As  As5  1  0.250000  0.385537  0.417073  1
  As  As6  1  0.250000  0.885537  0.082927  1
  As  As7  1  0.750000  0.114463  0.917073  1
  As  As8  1  0.750000  0.889232  0.400059  1
  As  As9  1  0.250000  0.110768  0.599941  1
  As  As10  1  0.250000  0.610768  0.900059  1
  As  As11  1  0.750000  0.389232  0.099941  1
  As  As12  1  0.750000  0.869843  0.766778  1
  As  As13  1  0.250000  0.130157  0.233222  1
  As  As14  1  0.250000  0.630157  0.266778  1
  As  As15  1  0.750000  0.369843  0.733222  1
  Rh  Rh16  1  0.750000  0.700889  0.384569  1
  Rh  Rh17  1  0.250000  0.299111  0.615431  1
  Rh  Rh18  1  0.250000  0.799111  0.884569  1
  Rh  Rh19  1  0.750000  0.200889  0.115431  1
  Rh  Rh20  1  0.750000  0.994501  0.222365  1
  Rh  Rh21  1  0.250000  0.005499  0.777635  1
  Rh  Rh22  1  0.250000  0.505499  0.722365  1
  Rh  Rh23  1  0.750000  0.494501  0.277635  1
  Rh  Rh24  1  0.750000  0.676580  0.780091  1
  Rh  Rh25  1  0.250000  0.323420  0.219909  1
  Rh  Rh26  1  0.250000  0.823420  0.280091  1
  Rh  Rh27  1  0.750000  0.176580  0.719909  1
  Rh  Rh28  1  0.750000  0.928845  0.968099  1
  Rh  Rh29  1  0.250000  0.071155  0.031901  1
  Rh  Rh30  1  0.250000  0.571155  0.468099  1
  Rh  Rh31  1  0.750000  0.428845  0.531901  1
  Rh  Rh32  1  0.750000  0.979502  0.590282  1
  Rh  Rh33  1  0.250000  0.020498  0.409718  1
  Rh  Rh34  1  0.250000  0.520498  0.090282  1
  Rh  Rh35  1  0.750000  0.479501  0.909718  1
