# generated using pymatgen
data_Na20TaNb(GaAs6)2
_symmetry_space_group_name_H-M   'P 1'
_cell_length_a   7.55247603
_cell_length_b   8.40308279
_cell_length_c   15.91127034
_cell_angle_alpha   59.02684165
_cell_angle_beta   89.99514371
_cell_angle_gamma   90.00588705
_symmetry_Int_Tables_number   1
_chemical_formula_structural   Na20TaNb(GaAs6)2
_chemical_formula_sum   'Na20 Ta1 Nb1 Ga2 As12'
_cell_volume   865.80606565
_cell_formula_units_Z   1
loop_
 _symmetry_equiv_pos_site_id
 _symmetry_equiv_pos_as_xyz
  1  'x, y, z'
loop_
 _atom_site_type_symbol
 _atom_site_label
 _atom_site_symmetry_multiplicity
 _atom_site_fract_x
 _atom_site_fract_y
 _atom_site_fract_z
 _atom_site_occupancy
  Na  Na0  1  0.737961  0.941051  0.246784  1
  Na  Na1  1  0.262009  0.941054  0.746760  1
  Na  Na2  1  0.771737  0.055188  0.759851  1
  Na  Na3  1  0.228216  0.055294  0.259984  1
  Na  Na4  1  0.266070  0.245717  0.419115  1
  Na  Na5  1  0.733867  0.245917  0.919026  1
  Na  Na6  1  0.218678  0.752546  0.579013  1
  Na  Na7  1  0.781671  0.752681  0.079064  1
  Na  Na8  1  0.089091  0.345963  0.583235  1
  Na  Na9  1  0.910803  0.345647  0.083239  1
  Na  Na10  1  0.405219  0.654693  0.418820  1
  Na  Na11  1  0.594796  0.654658  0.918919  1
  Na  Na12  1  0.596773  0.335206  0.243052  1
  Na  Na13  1  0.403090  0.335113  0.743116  1
  Na  Na14  1  0.907599  0.665090  0.759726  1
  Na  Na15  1  0.092451  0.665007  0.259754  1
  Na  Na16  1  0.770901  0.420593  0.408374  1
  Na  Na17  1  0.229098  0.420955  0.908222  1
  Na  Na18  1  0.739641  0.581764  0.588330  1
  Na  Na19  1  0.260202  0.581637  0.088314  1
  Ta  Ta20  1  0.384589  0.988942  0.078408  1
  Nb  Nb21  1  0.615268  0.988944  0.578370  1
  Ga  Ga22  1  0.890288  0.013219  0.415749  1
  Ga  Ga23  1  0.109348  0.013198  0.915564  1
  As  As24  1  0.983201  0.320421  0.270828  1
  As  As25  1  0.016797  0.320383  0.770811  1
  As  As26  1  0.518659  0.690535  0.725947  1
  As  As27  1  0.481313  0.691094  0.225539  1
  As  As28  1  0.948347  0.020800  0.574420  1
  As  As29  1  0.052236  0.020800  0.074551  1
  As  As30  1  0.540988  0.978364  0.427360  1
  As  As31  1  0.459272  0.978390  0.927662  1
  As  As32  1  0.004421  0.723778  0.421915  1
  As  As33  1  0.995479  0.723647  0.921939  1
  As  As34  1  0.490950  0.266171  0.579147  1
  As  As35  1  0.508972  0.265535  0.079094  1
