# generated using pymatgen
data_Sr4TbHoNb2O12
_symmetry_space_group_name_H-M   'P 1'
_cell_length_a   5.84497724
_cell_length_b   5.96552219
_cell_length_c   8.33254619
_cell_angle_alpha   90.02698491
_cell_angle_beta   90.20477795
_cell_angle_gamma   90.01116568
_symmetry_Int_Tables_number   1
_chemical_formula_structural   Sr4TbHoNb2O12
_chemical_formula_sum   'Sr4 Tb1 Ho1 Nb2 O12'
_cell_volume   290.54017235
_cell_formula_units_Z   1
loop_
 _symmetry_equiv_pos_site_id
 _symmetry_equiv_pos_as_xyz
  1  'x, y, z'
loop_
 _atom_site_type_symbol
 _atom_site_label
 _atom_site_symmetry_multiplicity
 _atom_site_fract_x
 _atom_site_fract_y
 _atom_site_fract_z
 _atom_site_occupancy
  Sr  Sr0  1  0.490942  0.458023  0.247641  1
  Sr  Sr1  1  0.009019  0.958829  0.249621  1
  Sr  Sr2  1  0.990980  0.041170  0.750378  1
  Sr  Sr3  1  0.509058  0.541977  0.752360  1
  Tb  Tb4  1  0.000000  0.499999  0.500000  1
  Ho  Ho5  1  0.500000  0.000000  0.000000  1
  Nb  Nb6  1  0.000000  0.499999  0.000000  1
  Nb  Nb7  1  0.500000  0.000000  0.500000  1
  O  O8  1  0.277442  0.697050  0.041378  1
  O  O9  1  0.194615  0.222940  0.045951  1
  O  O10  1  0.916298  0.527650  0.234654  1
  O  O11  1  0.582450  0.027200  0.263577  1
  O  O12  1  0.308826  0.722296  0.453069  1
  O  O13  1  0.221867  0.193822  0.457618  1
  O  O14  1  0.778134  0.806179  0.542383  1
  O  O15  1  0.691174  0.277705  0.546933  1
  O  O16  1  0.417551  0.972799  0.736423  1
  O  O17  1  0.083701  0.472347  0.765345  1
  O  O18  1  0.805384  0.777059  0.954051  1
  O  O19  1  0.722559  0.302951  0.958622  1
