# generated using pymatgen
data_Pa2Al16VPt8
_symmetry_space_group_name_H-M   'P 1'
_cell_length_a   11.17498059
_cell_length_b   11.17498139
_cell_length_c   11.17498115
_cell_angle_alpha   158.76154501
_cell_angle_beta   116.16628142
_cell_angle_gamma   68.09562742
_symmetry_Int_Tables_number   1
_chemical_formula_structural   Pa2Al16VPt8
_chemical_formula_sum   'Pa2 Al16 V1 Pt8'
_cell_volume   450.62002841
_cell_formula_units_Z   1
loop_
 _symmetry_equiv_pos_site_id
 _symmetry_equiv_pos_as_xyz
  1  'x, y, z'
loop_
 _atom_site_type_symbol
 _atom_site_label
 _atom_site_symmetry_multiplicity
 _atom_site_fract_x
 _atom_site_fract_y
 _atom_site_fract_z
 _atom_site_occupancy
  Pa  Pa0  1  0.228706  0.230366  0.998340  1
  Pa  Pa1  1  0.767974  0.769634  0.998340  1
  Al  Al2  1  0.273821  0.391012  0.882809  1
  Al  Al3  1  0.089863  0.926234  0.163629  1
  Al  Al4  1  0.500498  0.198933  0.301566  1
  Al  Al5  1  0.237395  0.073766  0.163629  1
  Al  Al6  1  0.910038  0.416967  0.493071  1
  Al  Al7  1  0.728127  0.601440  0.126687  1
  Al  Al8  1  0.901985  0.209162  0.692824  1
  Al  Al9  1  0.483664  0.790838  0.692824  1
  Al  Al10  1  0.394095  0.000000  0.394095  1
  Al  Al11  1  0.625621  0.000000  0.625621  1
  Al  Al12  1  0.491798  0.608988  0.882809  1
  Al  Al13  1  0.102634  0.801067  0.301566  1
  Al  Al14  1  0.907687  0.087878  0.819809  1
  Al  Al15  1  0.731931  0.912122  0.819809  1
  Al  Al16  1  0.525245  0.398560  0.126687  1
  Al  Al17  1  0.076105  0.583033  0.493071  1
  V  V18  1  0.786580  0.500000  0.286580  1
  Pt  Pt19  1  0.019168  0.343332  0.675836  1
  Pt  Pt20  1  0.635472  0.132898  0.502574  1
  Pt  Pt21  1  0.261534  0.500000  0.761534  1
  Pt  Pt22  1  0.369675  0.867102  0.502574  1
  Pt  Pt23  1  0.979386  0.000000  0.979386  1
  Pt  Pt24  1  0.651982  0.332736  0.319247  1
  Pt  Pt25  1  0.332504  0.656668  0.675836  1
  Pt  Pt26  1  0.986511  0.667264  0.319247  1
