# generated using pymatgen
data_Dy2Y6Ti11Si16Pt
_symmetry_space_group_name_H-M   'P 1'
_cell_length_a   7.05714352
_cell_length_b   7.05685551
_cell_length_c   12.88197056
_cell_angle_alpha   89.82168750
_cell_angle_beta   90.17093077
_cell_angle_gamma   89.70335651
_symmetry_Int_Tables_number   1
_chemical_formula_structural   Dy2Y6Ti11Si16Pt
_chemical_formula_sum   'Dy2 Y6 Ti11 Si16 Pt1'
_cell_volume   641.52354361
_cell_formula_units_Z   1
loop_
 _symmetry_equiv_pos_site_id
 _symmetry_equiv_pos_as_xyz
  1  'x, y, z'
loop_
 _atom_site_type_symbol
 _atom_site_label
 _atom_site_symmetry_multiplicity
 _atom_site_fract_x
 _atom_site_fract_y
 _atom_site_fract_z
 _atom_site_occupancy
  Dy  Dy0  1  0.499028  0.842450  0.714362  1
  Dy  Dy1  1  0.343868  0.001069  0.468457  1
  Y  Y2  1  0.996388  0.659715  0.033060  1
  Y  Y3  1  0.001415  0.343541  0.531476  1
  Y  Y4  1  0.659695  0.996303  0.966967  1
  Y  Y5  1  0.158429  0.503308  0.782082  1
  Y  Y6  1  0.842384  0.498701  0.285523  1
  Y  Y7  1  0.503260  0.158294  0.217898  1
  Ti  Ti8  1  0.345329  0.505946  0.375523  1
  Ti  Ti9  1  0.851153  0.994644  0.377235  1
  Ti  Ti10  1  0.007076  0.150627  0.125223  1
  Ti  Ti11  1  0.994737  0.851198  0.622614  1
  Ti  Ti12  1  0.505844  0.345214  0.624340  1
  Ti  Ti13  1  0.150694  0.007021  0.874855  1
  Ti  Ti14  1  0.824205  0.173671  0.748682  1
  Ti  Ti15  1  0.173838  0.824390  0.251369  1
  Ti  Ti16  1  0.326823  0.326922  0.000048  1
  Ti  Ti17  1  0.492253  0.649983  0.127638  1
  Ti  Ti18  1  0.649906  0.492476  0.872375  1
  Si  Si19  1  0.056149  0.714815  0.435288  1
  Si  Si20  1  0.951861  0.291151  0.934719  1
  Si  Si21  1  0.714343  0.055699  0.564614  1
  Si  Si22  1  0.208667  0.452477  0.184948  1
  Si  Si23  1  0.789821  0.550335  0.684682  1
  Si  Si24  1  0.452480  0.208514  0.815063  1
  Si  Si25  1  0.550037  0.790194  0.315324  1
  Si  Si26  1  0.291044  0.951807  0.065457  1
  Si  Si27  1  0.798844  0.867793  0.186008  1
  Si  Si28  1  0.291286  0.627217  0.567436  1
  Si  Si29  1  0.704918  0.369400  0.066137  1
  Si  Si30  1  0.626780  0.290813  0.432557  1
  Si  Si31  1  0.369502  0.704961  0.933875  1
  Si  Si32  1  0.131568  0.201982  0.316247  1
  Si  Si33  1  0.202648  0.131165  0.683753  1
  Si  Si34  1  0.867579  0.798719  0.813968  1
  Pt  Pt35  1  0.666147  0.667482  0.500195  1
