# generated using pymatgen
data_HoEr(Ni2P)4
_symmetry_space_group_name_H-M   'P 1'
_cell_length_a   7.06372071
_cell_length_b   7.06372071
_cell_length_c   3.60380800
_cell_angle_alpha   90.00000000
_cell_angle_beta   90.00000000
_cell_angle_gamma   89.92015260
_symmetry_Int_Tables_number   1
_chemical_formula_structural   HoEr(Ni2P)4
_chemical_formula_sum   'Ho1 Er1 Ni8 P4'
_cell_volume   179.81597114
_cell_formula_units_Z   1
loop_
 _symmetry_equiv_pos_site_id
 _symmetry_equiv_pos_as_xyz
  1  'x, y, z'
loop_
 _atom_site_type_symbol
 _atom_site_label
 _atom_site_symmetry_multiplicity
 _atom_site_fract_x
 _atom_site_fract_y
 _atom_site_fract_z
 _atom_site_occupancy
  Ho  Ho0  1  0.500000  0.500000  0.000000  1
  Er  Er1  1  0.000000  0.000000  0.500000  1
  Ni  Ni2  1  0.584540  0.163692  0.500000  1
  Ni  Ni3  1  0.415460  0.836308  0.500000  1
  Ni  Ni4  1  0.084400  0.335669  0.000000  1
  Ni  Ni5  1  0.915600  0.664331  0.000000  1
  Ni  Ni6  1  0.163692  0.584540  0.500000  1
  Ni  Ni7  1  0.836308  0.415460  0.500000  1
  Ni  Ni8  1  0.335669  0.084400  0.000000  1
  Ni  Ni9  1  0.664331  0.915600  0.000000  1
  P  P10  1  0.720499  0.720499  0.500000  1
  P  P11  1  0.279501  0.279501  0.500000  1
  P  P12  1  0.219759  0.780241  0.000000  1
  P  P13  1  0.780241  0.219759  0.000000  1
