# generated using pymatgen
data_Y9Sc(AlTe)4
_symmetry_space_group_name_H-M   'P 1'
_cell_length_a   8.73015018
_cell_length_b   8.73015138
_cell_length_c   7.95888500
_cell_angle_alpha   89.98837041
_cell_angle_beta   89.98837697
_cell_angle_gamma   125.88942833
_symmetry_Int_Tables_number   1
_chemical_formula_structural   Y9Sc(AlTe)4
_chemical_formula_sum   'Y9 Sc1 Al4 Te4'
_cell_volume   491.42926394
_cell_formula_units_Z   1
loop_
 _symmetry_equiv_pos_site_id
 _symmetry_equiv_pos_as_xyz
  1  'x, y, z'
loop_
 _atom_site_type_symbol
 _atom_site_label
 _atom_site_symmetry_multiplicity
 _atom_site_fract_x
 _atom_site_fract_y
 _atom_site_fract_z
 _atom_site_occupancy
  Y  Y0  1  0.500000  0.500000  0.500000  1
  Y  Y1  1  0.798697  0.539478  0.166458  1
  Y  Y2  1  0.460522  0.201303  0.833542  1
  Y  Y3  1  0.961330  0.704017  0.669423  1
  Y  Y4  1  0.295983  0.038670  0.330577  1
  Y  Y5  1  0.201303  0.460522  0.833542  1
  Y  Y6  1  0.539478  0.798697  0.166458  1
  Y  Y7  1  0.038670  0.295983  0.330577  1
  Y  Y8  1  0.704017  0.961330  0.669423  1
  Sc  Sc9  1  0.000000  0.000000  0.000000  1
  Al  Al10  1  0.876257  0.876257  0.373560  1
  Al  Al11  1  0.123743  0.123743  0.626440  1
  Al  Al12  1  0.627034  0.627034  0.878102  1
  Al  Al13  1  0.372966  0.372966  0.121898  1
  Te  Te14  1  0.202402  0.797598  0.000000  1
  Te  Te15  1  0.704890  0.295110  0.500000  1
  Te  Te16  1  0.797598  0.202402  0.000000  1
  Te  Te17  1  0.295110  0.704890  0.500000  1
