# generated using pymatgen
data_K3SrB24
_symmetry_space_group_name_H-M   'P 1'
_cell_length_a   4.21858000
_cell_length_b   5.96263300
_cell_length_c   11.92178200
_cell_angle_alpha   90.00000000
_cell_angle_beta   90.00000000
_cell_angle_gamma   90.00000000
_symmetry_Int_Tables_number   1
_chemical_formula_structural   K3SrB24
_chemical_formula_sum   'K3 Sr1 B24'
_cell_volume   299.87864846
_cell_formula_units_Z   1
loop_
 _symmetry_equiv_pos_site_id
 _symmetry_equiv_pos_as_xyz
  1  'x, y, z'
loop_
 _atom_site_type_symbol
 _atom_site_label
 _atom_site_symmetry_multiplicity
 _atom_site_fract_x
 _atom_site_fract_y
 _atom_site_fract_z
 _atom_site_occupancy
  K  K0  1  0.000000  0.500000  0.251498  1
  K  K1  1  0.000000  0.000000  0.500000  1
  K  K2  1  0.000000  0.500000  0.748502  1
  Sr  Sr3  1  0.000000  0.000000  0.000000  1
  B  B4  1  0.199200  0.500000  0.500000  1
  B  B5  1  0.199942  0.000000  0.750513  1
  B  B6  1  0.200702  0.500000  0.000000  1
  B  B7  1  0.199942  0.000000  0.249487  1
  B  B8  1  0.500000  0.650643  0.575029  1
  B  B9  1  0.500000  0.149442  0.825432  1
  B  B10  1  0.500000  0.649697  0.074929  1
  B  B11  1  0.500000  0.150220  0.324887  1
  B  B12  1  0.500000  0.349357  0.575029  1
  B  B13  1  0.500000  0.850558  0.825432  1
  B  B14  1  0.500000  0.350303  0.074929  1
  B  B15  1  0.500000  0.849780  0.324887  1
  B  B16  1  0.500000  0.349357  0.424971  1
  B  B17  1  0.500000  0.849780  0.675113  1
  B  B18  1  0.500000  0.350303  0.925071  1
  B  B19  1  0.500000  0.850558  0.174568  1
  B  B20  1  0.500000  0.650643  0.424971  1
  B  B21  1  0.500000  0.150220  0.675113  1
  B  B22  1  0.500000  0.649697  0.925071  1
  B  B23  1  0.500000  0.149442  0.174568  1
  B  B24  1  0.800800  0.500000  0.500000  1
  B  B25  1  0.800058  0.000000  0.750513  1
  B  B26  1  0.799298  0.500000  0.000000  1
  B  B27  1  0.800058  0.000000  0.249487  1
