# generated using pymatgen
data_EuBRuN
_symmetry_space_group_name_H-M   'P 1'
_cell_length_a   3.71062200
_cell_length_b   3.71062200
_cell_length_c   7.94381600
_cell_angle_alpha   90.00000000
_cell_angle_beta   90.00000000
_cell_angle_gamma   90.00000000
_symmetry_Int_Tables_number   1
_chemical_formula_structural   EuBRuN
_chemical_formula_sum   'Eu2 B2 Ru2 N2'
_cell_volume   109.37614350
_cell_formula_units_Z   2
loop_
 _symmetry_equiv_pos_site_id
 _symmetry_equiv_pos_as_xyz
  1  'x, y, z'
loop_
 _atom_site_type_symbol
 _atom_site_label
 _atom_site_symmetry_multiplicity
 _atom_site_fract_x
 _atom_site_fract_y
 _atom_site_fract_z
 _atom_site_occupancy
  Eu  Eu0  1  0.499999  0.000000  0.161992  1
  Eu  Eu1  1  0.000000  0.499999  0.838007  1
  B  B2  1  0.000000  0.499999  0.329525  1
  B  B3  1  0.499999  0.000000  0.670475  1
  Ru  Ru4  1  0.000000  0.000000  0.500000  1
  Ru  Ru5  1  0.499999  0.499999  0.500000  1
  N  N6  1  0.000000  0.499999  0.149930  1
  N  N7  1  0.499999  0.000000  0.850070  1
