# generated using pymatgen
data_Sc3Co2NiSn3
_symmetry_space_group_name_H-M   'P 1'
_cell_length_a   7.34476800
_cell_length_b   7.34476828
_cell_length_c   3.40073900
_cell_angle_alpha   90.00000000
_cell_angle_beta   90.00000000
_cell_angle_gamma   119.99999872
_symmetry_Int_Tables_number   1
_chemical_formula_structural   Sc3Co2NiSn3
_chemical_formula_sum   'Sc3 Co2 Ni1 Sn3'
_cell_volume   158.87666703
_cell_formula_units_Z   1
loop_
 _symmetry_equiv_pos_site_id
 _symmetry_equiv_pos_as_xyz
  1  'x, y, z'
loop_
 _atom_site_type_symbol
 _atom_site_label
 _atom_site_symmetry_multiplicity
 _atom_site_fract_x
 _atom_site_fract_y
 _atom_site_fract_z
 _atom_site_occupancy
  Sc  Sc0  1  0.601585  0.990796  0.000000  1
  Sc  Sc1  1  0.009204  0.610789  0.000000  1
  Sc  Sc2  1  0.389211  0.398415  0.000000  1
  Co  Co3  1  0.000000  0.000000  0.000000  1
  Co  Co4  1  0.333333  0.666667  0.500000  1
  Ni  Ni5  1  0.666667  0.333333  0.500000  1
  Sn  Sn6  1  0.273957  0.002610  0.500000  1
  Sn  Sn7  1  0.997390  0.271347  0.500000  1
  Sn  Sn8  1  0.728653  0.726043  0.500000  1
