# generated using pymatgen
data_La3Th(Si5Pt3)2
_symmetry_space_group_name_H-M   'P 1'
_cell_length_a   8.32661302
_cell_length_b   8.33534394
_cell_length_c   8.33534347
_cell_angle_alpha   136.40973672
_cell_angle_beta   105.89111038
_cell_angle_gamma   90.12548624
_symmetry_Int_Tables_number   1
_chemical_formula_structural   La3Th(Si5Pt3)2
_chemical_formula_sum   'La3 Th1 Si10 Pt6'
_cell_volume   365.68437017
_cell_formula_units_Z   1
loop_
 _symmetry_equiv_pos_site_id
 _symmetry_equiv_pos_as_xyz
  1  'x, y, z'
loop_
 _atom_site_type_symbol
 _atom_site_label
 _atom_site_symmetry_multiplicity
 _atom_site_fract_x
 _atom_site_fract_y
 _atom_site_fract_z
 _atom_site_occupancy
  La  La0  1  0.637847  0.370748  0.267099  1
  La  La1  1  0.361730  0.628945  0.732786  1
  La  La2  1  0.103482  0.871498  0.231984  1
  Th  Th3  1  0.898344  0.129071  0.769274  1
  Si  Si4  1  0.270570  0.521144  0.250569  1
  Si  Si5  1  0.728683  0.479196  0.749622  1
  Si  Si6  1  0.728683  0.979062  0.249487  1
  Si  Si7  1  0.270570  0.020001  0.749426  1
  Si  Si8  1  0.466671  0.114199  0.352472  1
  Si  Si9  1  0.533279  0.886272  0.647008  1
  Si  Si10  1  0.759764  0.614010  0.145755  1
  Si  Si11  1  0.239495  0.385221  0.854274  1
  Si  Si12  1  0.000213  0.251965  0.252085  1
  Si  Si13  1  0.000213  0.748129  0.748248  1
  Pt  Pt14  1  0.244348  0.135634  0.108712  1
  Pt  Pt15  1  0.755047  0.864898  0.890149  1
  Pt  Pt16  1  0.024133  0.636100  0.388033  1
  Pt  Pt17  1  0.973520  0.362702  0.610818  1
  Pt  Pt18  1  0.501702  0.248981  0.749481  1
  Pt  Pt19  1  0.501702  0.752221  0.252721  1
