# generated using pymatgen
data_Ba3LaHfSe6
_symmetry_space_group_name_H-M   'P 1'
_cell_length_a   8.83120877
_cell_length_b   8.83120849
_cell_length_c   8.83120952
_cell_angle_alpha   92.32362400
_cell_angle_beta   92.32361783
_cell_angle_gamma   92.32362354
_symmetry_Int_Tables_number   1
_chemical_formula_structural   Ba3LaHfSe6
_chemical_formula_sum   'Ba6 La2 Hf2 Se12'
_cell_volume   687.00184507
_cell_formula_units_Z   2
loop_
 _symmetry_equiv_pos_site_id
 _symmetry_equiv_pos_as_xyz
  1  'x, y, z'
loop_
 _atom_site_type_symbol
 _atom_site_label
 _atom_site_symmetry_multiplicity
 _atom_site_fract_x
 _atom_site_fract_y
 _atom_site_fract_z
 _atom_site_occupancy
  Ba  Ba0  1  0.876264  0.623736  0.250000  1
  Ba  Ba1  1  0.250000  0.876264  0.623736  1
  Ba  Ba2  1  0.623736  0.250000  0.876264  1
  Ba  Ba3  1  0.750000  0.123736  0.376264  1
  Ba  Ba4  1  0.376264  0.750000  0.123736  1
  Ba  Ba5  1  0.123736  0.376264  0.750000  1
  La  La6  1  0.250000  0.250000  0.250000  1
  La  La7  1  0.750000  0.750000  0.750000  1
  Hf  Hf8  1  0.500000  0.500000  0.500000  1
  Hf  Hf9  1  0.000000  0.000000  0.000000  1
  Se  Se10  1  0.205828  0.548635  0.417444  1
  Se  Se11  1  0.417444  0.205828  0.548635  1
  Se  Se12  1  0.548635  0.417444  0.205828  1
  Se  Se13  1  0.917444  0.048635  0.705828  1
  Se  Se14  1  0.705828  0.917444  0.048635  1
  Se  Se15  1  0.048635  0.705828  0.917444  1
  Se  Se16  1  0.794172  0.451365  0.582556  1
  Se  Se17  1  0.582556  0.794172  0.451365  1
  Se  Se18  1  0.451365  0.582556  0.794172  1
  Se  Se19  1  0.082556  0.951365  0.294172  1
  Se  Se20  1  0.294172  0.082556  0.951365  1
  Se  Se21  1  0.951365  0.294172  0.082556  1
