# generated using pymatgen
data_Eu4F9
_symmetry_space_group_name_H-M   'P 1'
_cell_length_a   7.08597027
_cell_length_b   7.08596950
_cell_length_c   7.08596973
_cell_angle_alpha   131.19621743
_cell_angle_beta   131.19621374
_cell_angle_gamma   71.50151640
_symmetry_Int_Tables_number   1
_chemical_formula_structural   Eu4F9
_chemical_formula_sum   'Eu4 F9'
_cell_volume   197.13548486
_cell_formula_units_Z   1
loop_
 _symmetry_equiv_pos_site_id
 _symmetry_equiv_pos_as_xyz
  1  'x, y, z'
loop_
 _atom_site_type_symbol
 _atom_site_label
 _atom_site_symmetry_multiplicity
 _atom_site_fract_x
 _atom_site_fract_y
 _atom_site_fract_z
 _atom_site_occupancy
  Eu  Eu0  1  0.500000  0.000000  0.500000  1
  Eu  Eu1  1  0.000000  0.500000  0.500000  1
  Eu  Eu2  1  0.727505  0.727505  0.000000  1
  Eu  Eu3  1  0.272495  0.272495  0.000000  1
  F  F4  1  0.898286  0.364008  0.000000  1
  F  F5  1  0.364008  0.898286  0.000000  1
  F  F6  1  0.635992  0.101714  0.000000  1
  F  F7  1  0.101714  0.101714  0.465720  1
  F  F8  1  0.364008  0.364008  0.465720  1
  F  F9  1  0.500000  0.500000  0.000000  1
  F  F10  1  0.101714  0.635992  0.000000  1
  F  F11  1  0.635992  0.635992  0.534280  1
  F  F12  1  0.898286  0.898286  0.534280  1
