# generated using pymatgen
data_SmEu2BeO5
_symmetry_space_group_name_H-M   'P 1'
_cell_length_a   6.55437300
_cell_length_b   7.20356700
_cell_length_c   9.54916800
_cell_angle_alpha   90.00000000
_cell_angle_beta   90.00000000
_cell_angle_gamma   90.00000000
_symmetry_Int_Tables_number   1
_chemical_formula_structural   SmEu2BeO5
_chemical_formula_sum   'Sm4 Eu8 Be4 O20'
_cell_volume   450.86267845
_cell_formula_units_Z   4
loop_
 _symmetry_equiv_pos_site_id
 _symmetry_equiv_pos_as_xyz
  1  'x, y, z'
loop_
 _atom_site_type_symbol
 _atom_site_label
 _atom_site_symmetry_multiplicity
 _atom_site_fract_x
 _atom_site_fract_y
 _atom_site_fract_z
 _atom_site_occupancy
  Sm  Sm0  1  0.405586  0.750000  0.977645  1
  Sm  Sm1  1  0.094414  0.750000  0.477645  1
  Sm  Sm2  1  0.594414  0.250000  0.022355  1
  Sm  Sm3  1  0.905586  0.250000  0.522355  1
  Eu  Eu4  1  0.919628  0.521625  0.826240  1
  Eu  Eu5  1  0.419628  0.021625  0.673760  1
  Eu  Eu6  1  0.580372  0.978375  0.326240  1
  Eu  Eu7  1  0.080372  0.478375  0.173760  1
  Eu  Eu8  1  0.419628  0.478375  0.673760  1
  Eu  Eu9  1  0.919628  0.978375  0.826240  1
  Eu  Eu10  1  0.580372  0.521625  0.326240  1
  Eu  Eu11  1  0.080372  0.021625  0.173760  1
  Be  Be12  1  0.192766  0.250000  0.899428  1
  Be  Be13  1  0.807234  0.750000  0.100572  1
  Be  Be14  1  0.307234  0.250000  0.399428  1
  Be  Be15  1  0.692766  0.750000  0.600572  1
  O  O16  1  0.133605  0.250000  0.725599  1
  O  O17  1  0.311308  0.442397  0.931914  1
  O  O18  1  0.836402  0.250000  0.279224  1
  O  O19  1  0.663598  0.250000  0.779224  1
  O  O20  1  0.688692  0.942397  0.068086  1
  O  O21  1  0.311308  0.057603  0.931914  1
  O  O22  1  0.366395  0.250000  0.225599  1
  O  O23  1  0.478666  0.750000  0.509777  1
  O  O24  1  0.866395  0.750000  0.274401  1
  O  O25  1  0.336402  0.750000  0.220776  1
  O  O26  1  0.021334  0.750000  0.009777  1
  O  O27  1  0.811308  0.557603  0.568086  1
  O  O28  1  0.521334  0.250000  0.490223  1
  O  O29  1  0.163598  0.750000  0.720776  1
  O  O30  1  0.688692  0.557603  0.068086  1
  O  O31  1  0.188692  0.442397  0.431914  1
  O  O32  1  0.811308  0.942397  0.568086  1
  O  O33  1  0.633605  0.750000  0.774401  1
  O  O34  1  0.978666  0.250000  0.990223  1
  O  O35  1  0.188692  0.057603  0.431914  1
