# generated using pymatgen
data_La2Y3Tm15(Si3Pt)4
_symmetry_space_group_name_H-M   'P 1'
_cell_length_a   7.25002557
_cell_length_b   7.87354593
_cell_length_c   14.50557276
_cell_angle_alpha   89.90680286
_cell_angle_beta   89.96344126
_cell_angle_gamma   90.02659902
_symmetry_Int_Tables_number   1
_chemical_formula_structural   La2Y3Tm15(Si3Pt)4
_chemical_formula_sum   'La2 Y3 Tm15 Si12 Pt4'
_cell_volume   828.02619276
_cell_formula_units_Z   1
loop_
 _symmetry_equiv_pos_site_id
 _symmetry_equiv_pos_as_xyz
  1  'x, y, z'
loop_
 _atom_site_type_symbol
 _atom_site_label
 _atom_site_symmetry_multiplicity
 _atom_site_fract_x
 _atom_site_fract_y
 _atom_site_fract_z
 _atom_site_occupancy
  La  La0  1  0.509928  0.574534  0.336610  1
  La  La1  1  0.009862  0.425651  0.662443  1
  Y  Y2  1  0.985076  0.063984  0.845068  1
  Y  Y3  1  0.512399  0.568820  0.659606  1
  Y  Y4  1  0.012917  0.431089  0.340139  1
  Tm  Tm5  1  0.815035  0.578109  0.878483  1
  Tm  Tm6  1  0.315356  0.422297  0.122074  1
  Tm  Tm7  1  0.182079  0.926522  0.376059  1
  Tm  Tm8  1  0.681421  0.073552  0.623749  1
  Tm  Tm9  1  0.183173  0.923806  0.624541  1
  Tm  Tm10  1  0.682790  0.075326  0.375019  1
  Tm  Tm11  1  0.817767  0.576387  0.122320  1
  Tm  Tm12  1  0.318639  0.424587  0.878455  1
  Tm  Tm13  1  0.665765  0.234460  0.000069  1
  Tm  Tm14  1  0.165517  0.765783  0.000493  1
  Tm  Tm15  1  0.336145  0.265070  0.499369  1
  Tm  Tm16  1  0.836199  0.734804  0.500334  1
  Tm  Tm17  1  0.487332  0.932821  0.844663  1
  Tm  Tm18  1  0.986927  0.066710  0.155288  1
  Tm  Tm19  1  0.483897  0.936671  0.153551  1
  Si  Si20  1  0.651317  0.274835  0.791785  1
  Si  Si21  1  0.152915  0.726563  0.208146  1
  Si  Si22  1  0.345946  0.215148  0.285608  1
  Si  Si23  1  0.845268  0.783592  0.714016  1
  Si  Si24  1  0.353599  0.217198  0.713725  1
  Si  Si25  1  0.854871  0.782517  0.286612  1
  Si  Si26  1  0.654452  0.272428  0.207799  1
  Si  Si27  1  0.155345  0.725803  0.791780  1
  Si  Si28  1  0.772353  0.882823  0.000657  1
  Si  Si29  1  0.273313  0.117493  0.000552  1
  Si  Si30  1  0.226414  0.620491  0.502032  1
  Si  Si31  1  0.726280  0.379101  0.497512  1
  Pt  Pt32  1  0.521268  0.653186  0.001549  1
  Pt  Pt33  1  0.021795  0.348296  0.000199  1
  Pt  Pt34  1  0.478433  0.851530  0.501495  1
  Pt  Pt35  1  0.978208  0.148010  0.498201  1
