# generated using pymatgen
data_Hf9TaCoReW2
_symmetry_space_group_name_H-M   'P 1'
_cell_length_a   8.70698081
_cell_length_b   8.70697927
_cell_length_c   8.49354900
_cell_angle_alpha   90.00000000
_cell_angle_beta   90.00000000
_cell_angle_gamma   120.10723410
_symmetry_Int_Tables_number   1
_chemical_formula_structural   Hf9TaCoReW2
_chemical_formula_sum   'Hf18 Ta2 Co2 Re2 W4'
_cell_volume   557.03775179
_cell_formula_units_Z   2
loop_
 _symmetry_equiv_pos_site_id
 _symmetry_equiv_pos_as_xyz
  1  'x, y, z'
loop_
 _atom_site_type_symbol
 _atom_site_label
 _atom_site_symmetry_multiplicity
 _atom_site_fract_x
 _atom_site_fract_y
 _atom_site_fract_z
 _atom_site_occupancy
  Hf  Hf0  1  0.201774  0.798226  0.440690  1
  Hf  Hf1  1  0.201656  0.402938  0.440969  1
  Hf  Hf2  1  0.597062  0.798344  0.440969  1
  Hf  Hf3  1  0.798500  0.201500  0.560652  1
  Hf  Hf4  1  0.798257  0.596417  0.559999  1
  Hf  Hf5  1  0.403583  0.201743  0.559999  1
  Hf  Hf6  1  0.798500  0.201500  0.939348  1
  Hf  Hf7  1  0.798257  0.596417  0.940001  1
  Hf  Hf8  1  0.403583  0.201743  0.940001  1
  Hf  Hf9  1  0.201774  0.798226  0.059310  1
  Hf  Hf10  1  0.201656  0.402938  0.059031  1
  Hf  Hf11  1  0.597062  0.798344  0.059031  1
  Hf  Hf12  1  0.542274  0.457726  0.250000  1
  Hf  Hf13  1  0.542411  0.084748  0.250000  1
  Hf  Hf14  1  0.915252  0.457589  0.250000  1
  Hf  Hf15  1  0.457363  0.542637  0.750000  1
  Hf  Hf16  1  0.457915  0.914792  0.750000  1
  Hf  Hf17  1  0.085208  0.542085  0.750000  1
  Ta  Ta18  1  0.999283  0.000717  0.502490  1
  Ta  Ta19  1  0.999283  0.000717  0.997510  1
  Co  Co20  1  0.333574  0.666426  0.250000  1
  Co  Co21  1  0.666689  0.333311  0.750000  1
  Re  Re22  1  0.114288  0.229001  0.750000  1
  Re  Re23  1  0.770999  0.885712  0.750000  1
  W  W24  1  0.885660  0.114340  0.250000  1
  W  W25  1  0.885277  0.771663  0.250000  1
  W  W26  1  0.228337  0.114723  0.250000  1
  W  W27  1  0.114527  0.885473  0.750000  1
