# generated using pymatgen
data_ErLu11Co5Sb
_symmetry_space_group_name_H-M   'P 1'
_cell_length_a   8.10560541
_cell_length_b   8.10263428
_cell_length_c   8.10560585
_cell_angle_alpha   110.95821149
_cell_angle_beta   111.07834885
_cell_angle_gamma   106.43357950
_symmetry_Int_Tables_number   1
_chemical_formula_structural   ErLu11Co5Sb
_chemical_formula_sum   'Er1 Lu11 Co5 Sb1'
_cell_volume   408.86972012
_cell_formula_units_Z   1
loop_
 _symmetry_equiv_pos_site_id
 _symmetry_equiv_pos_as_xyz
  1  'x, y, z'
loop_
 _atom_site_type_symbol
 _atom_site_label
 _atom_site_symmetry_multiplicity
 _atom_site_fract_x
 _atom_site_fract_y
 _atom_site_fract_z
 _atom_site_occupancy
  Er  Er0  1  0.786292  0.980679  0.194387  1
  Lu  Lu1  1  0.286383  0.184346  0.469945  1
  Lu  Lu2  1  0.715575  0.816716  0.532921  1
  Lu  Lu3  1  0.283795  0.816716  0.101142  1
  Lu  Lu4  1  0.714401  0.184346  0.897963  1
  Lu  Lu5  1  0.621385  0.314238  0.308342  1
  Lu  Lu6  1  0.377417  0.685507  0.690728  1
  Lu  Lu7  1  0.005897  0.314238  0.692852  1
  Lu  Lu8  1  0.994778  0.685507  0.308090  1
  Lu  Lu9  1  0.213531  0.407885  0.194355  1
  Lu  Lu10  1  0.786078  0.590544  0.804465  1
  Lu  Lu11  1  0.213873  0.018581  0.804708  1
  Co  Co12  1  0.000373  0.372157  0.371783  1
  Co  Co13  1  0.999482  0.628811  0.629329  1
  Co  Co14  1  0.387001  0.887012  0.500011  1
  Co  Co15  1  0.613014  0.114492  0.501478  1
  Co  Co16  1  0.001205  0.999247  0.998043  1
  Sb  Sb17  1  0.499519  0.498976  0.999457  1
