# generated using pymatgen
data_Hf13Ta3(Ir2N)4
_symmetry_space_group_name_H-M   'P 1'
_cell_length_a   8.63290438
_cell_length_b   8.70288888
_cell_length_c   8.70289800
_cell_angle_alpha   59.99989835
_cell_angle_beta   59.73098388
_cell_angle_gamma   59.73109906
_symmetry_Int_Tables_number   1
_chemical_formula_structural   Hf13Ta3(Ir2N)4
_chemical_formula_sum   'Hf13 Ta3 Ir8 N4'
_cell_volume   460.45943750
_cell_formula_units_Z   1
loop_
 _symmetry_equiv_pos_site_id
 _symmetry_equiv_pos_as_xyz
  1  'x, y, z'
loop_
 _atom_site_type_symbol
 _atom_site_label
 _atom_site_symmetry_multiplicity
 _atom_site_fract_x
 _atom_site_fract_y
 _atom_site_fract_z
 _atom_site_occupancy
  Hf  Hf0  1  0.124821  0.625060  0.625054  1
  Hf  Hf1  1  0.814270  0.814518  0.185611  1
  Hf  Hf2  1  0.184738  0.183812  0.815723  1
  Hf  Hf3  1  0.814269  0.185610  0.814519  1
  Hf  Hf4  1  0.184737  0.815722  0.183813  1
  Hf  Hf5  1  0.184735  0.815725  0.815726  1
  Hf  Hf6  1  0.814270  0.185611  0.185613  1
  Hf  Hf7  1  0.435683  0.435450  0.064434  1
  Hf  Hf8  1  0.065285  0.066217  0.434249  1
  Hf  Hf9  1  0.435685  0.064430  0.435451  1
  Hf  Hf10  1  0.065287  0.434248  0.066217  1
  Hf  Hf11  1  0.065278  0.434251  0.434251  1
  Hf  Hf12  1  0.435687  0.064431  0.064434  1
  Ta  Ta13  1  0.625053  0.124850  0.625047  1
  Ta  Ta14  1  0.625058  0.625047  0.124842  1
  Ta  Ta15  1  0.625056  0.625043  0.625045  1
  Ir  Ir16  1  0.759694  0.413440  0.413435  1
  Ir  Ir17  1  0.418220  0.767534  0.407120  1
  Ir  Ir18  1  0.418217  0.407122  0.767537  1
  Ir  Ir19  1  0.418223  0.407127  0.407122  1
  Ir  Ir20  1  0.489850  0.836718  0.836713  1
  Ir  Ir21  1  0.831958  0.482032  0.843003  1
  Ir  Ir22  1  0.831953  0.843003  0.482042  1
  Ir  Ir23  1  0.831955  0.843005  0.842998  1
  N  N24  1  0.624957  0.125012  0.125019  1
  N  N25  1  0.125021  0.624948  0.125017  1
  N  N26  1  0.125023  0.125017  0.624943  1
  N  N27  1  0.125022  0.125014  0.125020  1
