# generated using pymatgen
data_Ho4Os5Ru3
_symmetry_space_group_name_H-M   'P 1'
_cell_length_a   5.33193219
_cell_length_b   5.18688889
_cell_length_c   8.96904700
_cell_angle_alpha   90.00000000
_cell_angle_beta   90.00000000
_cell_angle_gamma   119.59332262
_symmetry_Int_Tables_number   1
_chemical_formula_structural   Ho4Os5Ru3
_chemical_formula_sum   'Ho4 Os5 Ru3'
_cell_volume   215.69181516
_cell_formula_units_Z   1
loop_
 _symmetry_equiv_pos_site_id
 _symmetry_equiv_pos_as_xyz
  1  'x, y, z'
loop_
 _atom_site_type_symbol
 _atom_site_label
 _atom_site_symmetry_multiplicity
 _atom_site_fract_x
 _atom_site_fract_y
 _atom_site_fract_z
 _atom_site_occupancy
  Ho  Ho0  1  0.668151  0.334316  0.565731  1
  Ho  Ho1  1  0.331325  0.665453  0.433351  1
  Ho  Ho2  1  0.331325  0.665453  0.066649  1
  Ho  Ho3  1  0.668151  0.334316  0.934269  1
  Os  Os4  1  0.169802  0.338464  0.750000  1
  Os  Os5  1  0.173143  0.830562  0.750000  1
  Os  Os6  1  0.656681  0.828371  0.750000  1
  Os  Os7  1  0.836802  0.663660  0.250000  1
  Os  Os8  1  0.833227  0.172385  0.250000  1
  Ru  Ru9  1  0.991615  0.996438  0.499586  1
  Ru  Ru10  1  0.991615  0.996438  0.000414  1
  Ru  Ru11  1  0.348163  0.174144  0.250000  1
