# generated using pymatgen
data_Y7ThGaPd24
_symmetry_space_group_name_H-M   'P 1'
_cell_length_a   8.38575825
_cell_length_b   8.38575825
_cell_length_c   8.38575825
_cell_angle_alpha   90.01963832
_cell_angle_beta   90.01963832
_cell_angle_gamma   89.98036168
_symmetry_Int_Tables_number   1
_chemical_formula_structural   Y7ThGaPd24
_chemical_formula_sum   'Y7 Th1 Ga1 Pd24'
_cell_volume   589.69431004
_cell_formula_units_Z   1
loop_
 _symmetry_equiv_pos_site_id
 _symmetry_equiv_pos_as_xyz
  1  'x, y, z'
loop_
 _atom_site_type_symbol
 _atom_site_label
 _atom_site_symmetry_multiplicity
 _atom_site_fract_x
 _atom_site_fract_y
 _atom_site_fract_z
 _atom_site_occupancy
  Y  Y0  1  0.252007  0.747981  0.252019  1
  Y  Y1  1  0.747981  0.252007  0.252019  1
  Y  Y2  1  0.747981  0.747981  0.747993  1
  Y  Y3  1  0.747979  0.747979  0.252021  1
  Y  Y4  1  0.748178  0.251975  0.748025  1
  Y  Y5  1  0.251975  0.748178  0.748025  1
  Y  Y6  1  0.251975  0.251975  0.251822  1
  Th  Th7  1  0.252972  0.252972  0.747028  1
  Ga  Ga8  1  0.999283  0.999283  0.000717  1
  Pd  Pd9  1  0.500238  0.500238  0.746699  1
  Pd  Pd10  1  0.500238  0.253301  0.499762  1
  Pd  Pd11  1  0.253301  0.500238  0.499762  1
  Pd  Pd12  1  0.500059  0.500059  0.253181  1
  Pd  Pd13  1  0.500059  0.746819  0.499941  1
  Pd  Pd14  1  0.746819  0.500059  0.499941  1
  Pd  Pd15  1  0.999454  0.999454  0.708180  1
  Pd  Pd16  1  0.999454  0.291820  0.000546  1
  Pd  Pd17  1  0.291820  0.999454  0.000546  1
  Pd  Pd18  1  0.999905  0.999905  0.291613  1
  Pd  Pd19  1  0.999905  0.708387  0.000095  1
  Pd  Pd20  1  0.708387  0.999905  0.000095  1
  Pd  Pd21  1  0.999888  0.500080  0.739723  1
  Pd  Pd22  1  0.500080  0.260277  0.000112  1
  Pd  Pd23  1  0.260277  0.999888  0.499920  1
  Pd  Pd24  1  0.999888  0.260277  0.499920  1
  Pd  Pd25  1  0.500080  0.999888  0.739723  1
  Pd  Pd26  1  0.260277  0.500080  0.000112  1
  Pd  Pd27  1  0.999933  0.500099  0.260261  1
  Pd  Pd28  1  0.500099  0.739739  0.000067  1
  Pd  Pd29  1  0.999933  0.739739  0.499901  1
  Pd  Pd30  1  0.500099  0.999933  0.260261  1
  Pd  Pd31  1  0.739739  0.999933  0.499901  1
  Pd  Pd32  1  0.739739  0.500099  0.000067  1
