# generated using pymatgen
data_Sr4AlSnPt4
_symmetry_space_group_name_H-M   'P 1'
_cell_length_a   5.89886008
_cell_length_b   5.89886010
_cell_length_c   8.31144670
_cell_angle_alpha   79.54349130
_cell_angle_beta   79.54348834
_cell_angle_gamma   61.80608831
_symmetry_Int_Tables_number   1
_chemical_formula_structural   Sr4AlSnPt4
_chemical_formula_sum   'Sr4 Al1 Sn1 Pt4'
_cell_volume   249.12883452
_cell_formula_units_Z   1
loop_
 _symmetry_equiv_pos_site_id
 _symmetry_equiv_pos_as_xyz
  1  'x, y, z'
loop_
 _atom_site_type_symbol
 _atom_site_label
 _atom_site_symmetry_multiplicity
 _atom_site_fract_x
 _atom_site_fract_y
 _atom_site_fract_z
 _atom_site_occupancy
  Sr  Sr0  1  0.783018  0.515430  0.850450  1
  Sr  Sr1  1  0.484570  0.216982  0.649550  1
  Sr  Sr2  1  0.213250  0.488410  0.147058  1
  Sr  Sr3  1  0.511590  0.786750  0.352942  1
  Al  Al4  1  0.898807  0.101193  0.250000  1
  Sn  Sn5  1  0.130998  0.869002  0.750000  1
  Pt  Pt6  1  0.992366  0.736443  0.488088  1
  Pt  Pt7  1  0.263557  0.007634  0.011912  1
  Pt  Pt8  1  0.987464  0.265620  0.484791  1
  Pt  Pt9  1  0.734380  0.012536  0.015209  1
