# generated using pymatgen
data_ScNi6Mo
_symmetry_space_group_name_H-M   'P 1'
_cell_length_a   5.14125100
_cell_length_b   5.14125164
_cell_length_c   4.25636100
_cell_angle_alpha   90.00000000
_cell_angle_beta   90.00000000
_cell_angle_gamma   119.99998945
_symmetry_Int_Tables_number   1
_chemical_formula_structural   ScNi6Mo
_chemical_formula_sum   'Sc1 Ni6 Mo1'
_cell_volume   97.43316292
_cell_formula_units_Z   1
loop_
 _symmetry_equiv_pos_site_id
 _symmetry_equiv_pos_as_xyz
  1  'x, y, z'
loop_
 _atom_site_type_symbol
 _atom_site_label
 _atom_site_symmetry_multiplicity
 _atom_site_fract_x
 _atom_site_fract_y
 _atom_site_fract_z
 _atom_site_occupancy
  Sc  Sc0  1  0.666667  0.333333  0.250000  1
  Ni  Ni1  1  0.165645  0.331289  0.250000  1
  Ni  Ni2  1  0.668711  0.834355  0.250000  1
  Ni  Ni3  1  0.165645  0.834355  0.250000  1
  Ni  Ni4  1  0.842202  0.684403  0.750000  1
  Ni  Ni5  1  0.315597  0.157798  0.750000  1
  Ni  Ni6  1  0.842202  0.157798  0.750000  1
  Mo  Mo7  1  0.333333  0.666667  0.750000  1
