# generated using pymatgen
data_YbAl2SiO6
_symmetry_space_group_name_H-M   'P 1'
_cell_length_a   6.48305017
_cell_length_b   6.48304918
_cell_length_c   5.30155399
_cell_angle_alpha   78.26330979
_cell_angle_beta   78.26331293
_cell_angle_gamma   83.60087258
_symmetry_Int_Tables_number   1
_chemical_formula_structural   YbAl2SiO6
_chemical_formula_sum   'Yb2 Al4 Si2 O12'
_cell_volume   213.03259845
_cell_formula_units_Z   2
loop_
 _symmetry_equiv_pos_site_id
 _symmetry_equiv_pos_as_xyz
  1  'x, y, z'
loop_
 _atom_site_type_symbol
 _atom_site_label
 _atom_site_symmetry_multiplicity
 _atom_site_fract_x
 _atom_site_fract_y
 _atom_site_fract_z
 _atom_site_occupancy
  Yb  Yb0  1  0.687146  0.312854  0.000000  1
  Yb  Yb1  1  0.313264  0.686736  0.500000  1
  Al  Al2  1  0.614734  0.814012  0.963320  1
  Al  Al3  1  0.185988  0.385266  0.036680  1
  Al  Al4  1  0.089758  0.910242  0.000000  1
  Al  Al5  1  0.909346  0.090654  0.500000  1
  Si  Si6  1  0.387580  0.195266  0.531582  1
  Si  Si7  1  0.804734  0.612420  0.468418  1
  O  O8  1  0.819136  0.989588  0.863718  1
  O  O9  1  0.356065  0.898300  0.077811  1
  O  O10  1  0.625173  0.656748  0.724367  1
  O  O11  1  0.010412  0.180864  0.136282  1
  O  O12  1  0.101700  0.643935  0.922189  1
  O  O13  1  0.343252  0.374827  0.275633  1
  O  O14  1  0.197786  0.028996  0.615753  1
  O  O15  1  0.627178  0.097251  0.439695  1
  O  O16  1  0.382354  0.329358  0.763194  1
  O  O17  1  0.971004  0.802214  0.384247  1
  O  O18  1  0.902749  0.372822  0.560305  1
  O  O19  1  0.670642  0.617646  0.236806  1
