# generated using pymatgen
data_Ce2Co11NiP7
_symmetry_space_group_name_H-M   'P 1'
_cell_length_a   9.06794835
_cell_length_b   9.05853690
_cell_length_c   3.63211100
_cell_angle_alpha   90.00000000
_cell_angle_beta   90.00000000
_cell_angle_gamma   119.94987223
_symmetry_Int_Tables_number   1
_chemical_formula_structural   Ce2Co11NiP7
_chemical_formula_sum   'Ce2 Co11 Ni1 P7'
_cell_volume   258.50919132
_cell_formula_units_Z   1
loop_
 _symmetry_equiv_pos_site_id
 _symmetry_equiv_pos_as_xyz
  1  'x, y, z'
loop_
 _atom_site_type_symbol
 _atom_site_label
 _atom_site_symmetry_multiplicity
 _atom_site_fract_x
 _atom_site_fract_y
 _atom_site_fract_z
 _atom_site_occupancy
  Ce  Ce0  1  0.332822  0.667973  0.000000  1
  Ce  Ce1  1  0.666958  0.333120  0.500000  1
  Co  Co2  1  0.438944  0.063274  0.000000  1
  Co  Co3  1  0.151573  0.271553  0.000000  1
  Co  Co4  1  0.938701  0.374537  0.000000  1
  Co  Co5  1  0.626677  0.566355  0.000000  1
  Co  Co6  1  0.119123  0.847714  0.000000  1
  Co  Co7  1  0.729269  0.879485  0.000000  1
  Co  Co8  1  0.895447  0.128545  0.500000  1
  Co  Co9  1  0.381407  0.434399  0.500000  1
  Co  Co10  1  0.055379  0.620164  0.500000  1
  Co  Co11  1  0.868951  0.763800  0.500000  1
  Co  Co12  1  0.566094  0.944670  0.500000  1
  Ni  Ni13  1  0.223758  0.099320  0.500000  1
  P  P14  1  0.999868  0.000503  0.000000  1
  P  P15  1  0.707300  0.108259  0.000000  1
  P  P16  1  0.403797  0.296037  0.000000  1
  P  P17  1  0.892176  0.598689  0.000000  1
  P  P18  1  0.106422  0.397636  0.500000  1
  P  P19  1  0.601835  0.707863  0.500000  1
  P  P20  1  0.293514  0.896095  0.500000  1
