# generated using pymatgen
data_Zr4Ga20Ni11
_symmetry_space_group_name_H-M   'P 1'
_cell_length_a   3.99935680
_cell_length_b   10.35829837
_cell_length_c   12.84044172
_cell_angle_alpha   80.90812476
_cell_angle_beta   80.93591645
_cell_angle_gamma   78.81065132
_symmetry_Int_Tables_number   1
_chemical_formula_structural   Zr4Ga20Ni11
_chemical_formula_sum   'Zr4 Ga20 Ni11'
_cell_volume   510.82847919
_cell_formula_units_Z   1
loop_
 _symmetry_equiv_pos_site_id
 _symmetry_equiv_pos_as_xyz
  1  'x, y, z'
loop_
 _atom_site_type_symbol
 _atom_site_label
 _atom_site_symmetry_multiplicity
 _atom_site_fract_x
 _atom_site_fract_y
 _atom_site_fract_z
 _atom_site_occupancy
  Zr  Zr0  1  0.119886  0.096539  0.665041  1
  Zr  Zr1  1  0.232148  0.365353  0.176671  1
  Zr  Zr2  1  0.772894  0.634682  0.822498  1
  Zr  Zr3  1  0.885005  0.903496  0.334326  1
  Ga  Ga4  1  0.066230  0.668886  0.201342  1
  Ga  Ga5  1  0.301523  0.903353  0.499831  1
  Ga  Ga6  1  0.607711  0.794504  0.000585  1
  Ga  Ga7  1  0.250961  0.795396  0.705821  1
  Ga  Ga8  1  0.893401  0.668779  0.548008  1
  Ga  Ga9  1  0.753800  0.204607  0.293604  1
  Ga  Ga10  1  0.634655  0.941801  0.797983  1
  Ga  Ga11  1  0.703205  0.096388  0.499724  1
  Ga  Ga12  1  0.397993  0.205920  0.998543  1
  Ga  Ga13  1  0.938993  0.331342  0.797674  1
  Ga  Ga14  1  0.463009  0.707831  0.373826  1
  Ga  Ga15  1  0.994670  0.923702  0.091590  1
  Ga  Ga16  1  0.800857  0.399272  0.006088  1
  Ga  Ga17  1  0.541838  0.291962  0.625389  1
  Ga  Ga18  1  0.010758  0.076760  0.907662  1
  Ga  Ga19  1  0.204358  0.601027  0.993020  1
  Ga  Ga20  1  0.110909  0.331280  0.450956  1
  Ga  Ga21  1  0.370650  0.058568  0.201288  1
  Ga  Ga22  1  0.616360  0.470901  0.303718  1
  Ga  Ga23  1  0.388482  0.529130  0.695150  1
  Ni  Ni24  1  0.142545  0.835632  0.891347  1
  Ni  Ni25  1  0.506701  0.180296  0.812199  1
  Ni  Ni26  1  0.863235  0.164988  0.107868  1
  Ni  Ni27  1  0.975900  0.434933  0.615068  1
  Ni  Ni28  1  0.503067  0.499197  0.499281  1
  Ni  Ni29  1  0.655166  0.578517  0.114292  1
  Ni  Ni30  1  0.028835  0.565219  0.383952  1
  Ni  Ni31  1  0.349670  0.421862  0.884751  1
  Ni  Ni32  1  0.247949  0.120100  0.387437  1
  Ni  Ni33  1  0.498700  0.820032  0.186998  1
  Ni  Ni34  1  0.756741  0.879668  0.612112  1
