# generated using pymatgen
data_YbPr5DyCoI12
_symmetry_space_group_name_H-M   'P 1'
_cell_length_a   9.92907521
_cell_length_b   10.05606821
_cell_length_c   10.03249283
_cell_angle_alpha   106.80867738
_cell_angle_beta   107.06271907
_cell_angle_gamma   107.03824623
_symmetry_Int_Tables_number   1
_chemical_formula_structural   YbPr5DyCoI12
_chemical_formula_sum   'Yb1 Pr5 Dy1 Co1 I12'
_cell_volume   834.92170286
_cell_formula_units_Z   1
loop_
 _symmetry_equiv_pos_site_id
 _symmetry_equiv_pos_as_xyz
  1  'x, y, z'
loop_
 _atom_site_type_symbol
 _atom_site_label
 _atom_site_symmetry_multiplicity
 _atom_site_fract_x
 _atom_site_fract_y
 _atom_site_fract_z
 _atom_site_occupancy
  Yb  Yb0  1  0.500600  0.500120  0.499637  1
  Pr  Pr1  1  0.025211  0.100009  0.305285  1
  Pr  Pr2  1  0.101066  0.303995  0.024771  1
  Pr  Pr3  1  0.289298  0.024456  0.093554  1
  Pr  Pr4  1  0.899019  0.695663  0.974892  1
  Pr  Pr5  1  0.709705  0.974474  0.902033  1
  Dy  Dy6  1  0.974313  0.902318  0.706521  1
  Co  Co7  1  0.999154  0.999599  0.999480  1
  I  I8  1  0.533876  0.615560  0.837624  1
  I  I9  1  0.465954  0.384553  0.161625  1
  I  I10  1  0.308608  0.925417  0.768851  1
  I  I11  1  0.386072  0.160324  0.462015  1
  I  I12  1  0.928514  0.775991  0.325460  1
  I  I13  1  0.677449  0.071367  0.222085  1
  I  I14  1  0.068597  0.212732  0.677972  1
  I  I15  1  0.771787  0.319339  0.926272  1
  I  I16  1  0.228206  0.680673  0.073441  1
  I  I17  1  0.847618  0.548977  0.617271  1
  I  I18  1  0.158714  0.463049  0.382745  1
  I  I19  1  0.626238  0.841382  0.538468  1
