# generated using pymatgen
data_LiHo3Co2(PIr)6
_symmetry_space_group_name_H-M   'P 1'
_cell_length_a   3.84155300
_cell_length_b   11.09280800
_cell_length_c   12.76920100
_cell_angle_alpha   90.00000000
_cell_angle_beta   90.00000000
_cell_angle_gamma   90.00000000
_symmetry_Int_Tables_number   1
_chemical_formula_structural   LiHo3Co2(PIr)6
_chemical_formula_sum   'Li2 Ho6 Co4 P12 Ir12'
_cell_volume   544.14174952
_cell_formula_units_Z   2
loop_
 _symmetry_equiv_pos_site_id
 _symmetry_equiv_pos_as_xyz
  1  'x, y, z'
loop_
 _atom_site_type_symbol
 _atom_site_label
 _atom_site_symmetry_multiplicity
 _atom_site_fract_x
 _atom_site_fract_y
 _atom_site_fract_z
 _atom_site_occupancy
  Li  Li0  1  0.500000  0.500000  0.152707  1
  Li  Li1  1  0.000000  0.000000  0.849575  1
  Ho  Ho2  1  0.000000  0.500000  0.516062  1
  Ho  Ho3  1  0.500000  0.000000  0.484536  1
  Ho  Ho4  1  0.500000  0.823026  0.197371  1
  Ho  Ho5  1  0.500000  0.176974  0.197371  1
  Ho  Ho6  1  0.000000  0.683334  0.802036  1
  Ho  Ho7  1  0.000000  0.316666  0.802036  1
  Co  Co8  1  0.000000  0.500000  0.985746  1
  Co  Co9  1  0.500000  0.000000  0.014003  1
  Co  Co10  1  0.000000  0.162380  0.004109  1
  Co  Co11  1  0.000000  0.837620  0.004109  1
  P  P12  1  0.500000  0.314658  0.621373  1
  P  P13  1  0.500000  0.685342  0.621373  1
  P  P14  1  0.000000  0.184471  0.378539  1
  P  P15  1  0.000000  0.815529  0.378539  1
  P  P16  1  0.500000  0.500000  0.885796  1
  P  P17  1  0.000000  0.000000  0.109164  1
  P  P18  1  0.500000  0.850464  0.899333  1
  P  P19  1  0.500000  0.149536  0.899333  1
  P  P20  1  0.000000  0.658689  0.103324  1
  P  P21  1  0.000000  0.341311  0.103324  1
  P  P22  1  0.500000  0.500000  0.341759  1
  P  P23  1  0.000000  0.000000  0.658117  1
  Ir  Ir24  1  0.500000  0.288338  0.427759  1
  Ir  Ir25  1  0.500000  0.711662  0.427759  1
  Ir  Ir26  1  0.000000  0.210545  0.571402  1
  Ir  Ir27  1  0.000000  0.789455  0.571402  1
  Ir  Ir28  1  0.500000  0.874234  0.715202  1
  Ir  Ir29  1  0.500000  0.125766  0.715202  1
  Ir  Ir30  1  0.000000  0.626221  0.285285  1
  Ir  Ir31  1  0.000000  0.373779  0.285285  1
  Ir  Ir32  1  0.500000  0.330736  0.995825  1
  Ir  Ir33  1  0.500000  0.669264  0.995825  1
  Ir  Ir34  1  0.500000  0.500000  0.704139  1
  Ir  Ir35  1  0.000000  0.000000  0.295282  1
