# generated using pymatgen
data_Er12Th4Mg3InRuRh3
_symmetry_space_group_name_H-M   'P 1'
_cell_length_a   9.76646508
_cell_length_b   9.76646499
_cell_length_c   9.76646500
_cell_angle_alpha   59.52193283
_cell_angle_beta   59.52193313
_cell_angle_gamma   59.52193333
_symmetry_Int_Tables_number   1
_chemical_formula_structural   Er12Th4Mg3InRuRh3
_chemical_formula_sum   'Er12 Th4 Mg3 In1 Ru1 Rh3'
_cell_volume   651.55352831
_cell_formula_units_Z   1
loop_
 _symmetry_equiv_pos_site_id
 _symmetry_equiv_pos_as_xyz
  1  'x, y, z'
loop_
 _atom_site_type_symbol
 _atom_site_label
 _atom_site_symmetry_multiplicity
 _atom_site_fract_x
 _atom_site_fract_y
 _atom_site_fract_z
 _atom_site_occupancy
  Er  Er0  1  0.814996  0.186462  0.186462  1
  Er  Er1  1  0.185810  0.813131  0.813131  1
  Er  Er2  1  0.186462  0.814996  0.186462  1
  Er  Er3  1  0.813131  0.185810  0.813131  1
  Er  Er4  1  0.186462  0.186462  0.814996  1
  Er  Er5  1  0.813131  0.813131  0.185810  1
  Er  Er6  1  0.933694  0.566433  0.566433  1
  Er  Er7  1  0.564754  0.934329  0.934329  1
  Er  Er8  1  0.566433  0.933694  0.566433  1
  Er  Er9  1  0.934329  0.564754  0.934329  1
  Er  Er10  1  0.566433  0.566433  0.933694  1
  Er  Er11  1  0.934329  0.934329  0.564754  1
  Th  Th12  1  0.348521  0.348521  0.348521  1
  Th  Th13  1  0.348764  0.348764  0.954026  1
  Th  Th14  1  0.348764  0.954026  0.348764  1
  Th  Th15  1  0.954026  0.348764  0.348764  1
  Mg  Mg16  1  0.578841  0.578841  0.258213  1
  Mg  Mg17  1  0.578841  0.258213  0.578841  1
  Mg  Mg18  1  0.258213  0.578841  0.578841  1
  In  In19  1  0.581719  0.581719  0.581719  1
  Ru  Ru20  1  0.145044  0.145044  0.145044  1
  Rh  Rh21  1  0.143511  0.143511  0.570279  1
  Rh  Rh22  1  0.143511  0.570279  0.143511  1
  Rh  Rh23  1  0.570279  0.143511  0.143511  1
