# generated using pymatgen
data_Er3Ag(Pt2O7)2
_symmetry_space_group_name_H-M   'P 1'
_cell_length_a   7.29908472
_cell_length_b   7.29908388
_cell_length_c   7.16517758
_cell_angle_alpha   59.37983710
_cell_angle_beta   59.37983920
_cell_angle_gamma   60.00000097
_symmetry_Int_Tables_number   1
_chemical_formula_structural   Er3Ag(Pt2O7)2
_chemical_formula_sum   'Er3 Ag1 Pt4 O14'
_cell_volume   267.37051396
_cell_formula_units_Z   1
loop_
 _symmetry_equiv_pos_site_id
 _symmetry_equiv_pos_as_xyz
  1  'x, y, z'
loop_
 _atom_site_type_symbol
 _atom_site_label
 _atom_site_symmetry_multiplicity
 _atom_site_fract_x
 _atom_site_fract_y
 _atom_site_fract_z
 _atom_site_occupancy
  Er  Er0  1  0.625000  0.625000  0.625000  1
  Er  Er1  1  0.625000  0.125000  0.625000  1
  Er  Er2  1  0.125000  0.625000  0.625000  1
  Ag  Ag3  1  0.625000  0.625000  0.125000  1
  Pt  Pt4  1  0.625000  0.125000  0.125000  1
  Pt  Pt5  1  0.125000  0.125000  0.125000  1
  Pt  Pt6  1  0.125000  0.625000  0.125000  1
  Pt  Pt7  1  0.125000  0.125000  0.625000  1
  O  O8  1  0.030773  0.466317  0.472137  1
  O  O9  1  0.791641  0.791641  0.220069  1
  O  O10  1  0.791641  0.196650  0.220069  1
  O  O11  1  0.746037  0.746037  0.761888  1
  O  O12  1  0.053350  0.458359  0.029931  1
  O  O13  1  0.466317  0.030773  0.472137  1
  O  O14  1  0.030773  0.030773  0.472137  1
  O  O15  1  0.503963  0.503963  0.488112  1
  O  O16  1  0.219227  0.219227  0.777863  1
  O  O17  1  0.196650  0.791641  0.220069  1
  O  O18  1  0.783683  0.219227  0.777863  1
  O  O19  1  0.458359  0.053350  0.029931  1
  O  O20  1  0.458359  0.458359  0.029931  1
  O  O21  1  0.219227  0.783683  0.777863  1
