# generated using pymatgen
data_MgAs4F18
_symmetry_space_group_name_H-M   'P 1'
_cell_length_a   12.84458900
_cell_length_b   7.31026842
_cell_length_c   10.17086600
_cell_angle_alpha   46.08122801
_cell_angle_beta   90.00000000
_cell_angle_gamma   90.00000000
_symmetry_Int_Tables_number   1
_chemical_formula_structural   MgAs4F18
_chemical_formula_sum   'Mg2 As8 F36'
_cell_volume   687.92214250
_cell_formula_units_Z   2
loop_
 _symmetry_equiv_pos_site_id
 _symmetry_equiv_pos_as_xyz
  1  'x, y, z'
loop_
 _atom_site_type_symbol
 _atom_site_label
 _atom_site_symmetry_multiplicity
 _atom_site_fract_x
 _atom_site_fract_y
 _atom_site_fract_z
 _atom_site_occupancy
  Mg  Mg0  1  0.000000  0.000000  0.000000  1
  Mg  Mg1  1  0.500000  0.000000  0.500000  1
  As  As2  1  0.217097  0.083102  0.483215  1
  As  As3  1  0.717097  0.916898  0.016785  1
  As  As4  1  0.500000  0.500000  0.000000  1
  As  As5  1  0.000000  0.500000  0.500000  1
  As  As6  1  0.500000  0.500000  0.500000  1
  As  As7  1  0.000000  0.500000  0.000000  1
  As  As8  1  0.282903  0.083102  0.983215  1
  As  As9  1  0.782903  0.916898  0.516785  1
  F  F10  1  0.743945  0.016078  0.310533  1
  F  F11  1  0.243945  0.983922  0.189467  1
  F  F12  1  0.256055  0.983922  0.689467  1
  F  F13  1  0.756055  0.016078  0.810533  1
  F  F14  1  0.970215  0.792659  0.943146  1
  F  F15  1  0.470215  0.207341  0.556854  1
  F  F16  1  0.029785  0.207341  0.056854  1
  F  F17  1  0.529785  0.792659  0.443146  1
  F  F18  1  0.875771  0.506468  0.926690  1
  F  F19  1  0.375771  0.493532  0.573310  1
  F  F20  1  0.124229  0.493532  0.073310  1
  F  F21  1  0.624229  0.506468  0.426690  1
  F  F22  1  0.047053  0.680037  0.777969  1
  F  F23  1  0.547053  0.319963  0.722031  1
  F  F24  1  0.952947  0.319963  0.222031  1
  F  F25  1  0.452947  0.680037  0.277969  1
  F  F26  1  0.751918  0.596597  0.652831  1
  F  F27  1  0.251918  0.403403  0.847169  1
  F  F28  1  0.968779  0.315492  0.738374  1
  F  F29  1  0.468779  0.684508  0.761626  1
  F  F30  1  0.031221  0.684508  0.261626  1
  F  F31  1  0.531221  0.315492  0.238374  1
  F  F32  1  0.052158  0.226369  0.560602  1
  F  F33  1  0.552158  0.773631  0.939398  1
  F  F34  1  0.947842  0.773631  0.439398  1
  F  F35  1  0.447842  0.226369  0.060602  1
  F  F36  1  0.878418  0.428010  0.470135  1
  F  F37  1  0.378418  0.571990  0.029865  1
  F  F38  1  0.121582  0.571990  0.529865  1
  F  F39  1  0.621582  0.428010  0.970135  1
  F  F40  1  0.248082  0.403403  0.347169  1
  F  F41  1  0.748082  0.596597  0.152831  1
  F  F42  1  0.652986  0.986407  0.553456  1
  F  F43  1  0.152986  0.013593  0.946544  1
  F  F44  1  0.847014  0.986407  0.053456  1
  F  F45  1  0.347014  0.013593  0.446544  1
