# generated using pymatgen
data_Tb5BTe4
_symmetry_space_group_name_H-M   'P 1'
_cell_length_a   7.50989867
_cell_length_b   7.50990025
_cell_length_c   10.65660233
_cell_angle_alpha   61.21706932
_cell_angle_beta   61.21706398
_cell_angle_gamma   32.24726844
_symmetry_Int_Tables_number   1
_chemical_formula_structural   Tb5BTe4
_chemical_formula_sum   'Tb5 B1 Te4'
_cell_volume   277.49940574
_cell_formula_units_Z   1
loop_
 _symmetry_equiv_pos_site_id
 _symmetry_equiv_pos_as_xyz
  1  'x, y, z'
loop_
 _atom_site_type_symbol
 _atom_site_label
 _atom_site_symmetry_multiplicity
 _atom_site_fract_x
 _atom_site_fract_y
 _atom_site_fract_z
 _atom_site_occupancy
  Tb  Tb0  1  0.000000  0.000000  0.500000  1
  Tb  Tb1  1  0.577253  0.577253  0.082555  1
  Tb  Tb2  1  0.172568  0.172568  0.749301  1
  Tb  Tb3  1  0.827432  0.827432  0.250699  1
  Tb  Tb4  1  0.422747  0.422747  0.917445  1
  B  B5  1  0.000000  0.000000  0.000000  1
  Te  Te6  1  0.612282  0.612282  0.586935  1
  Te  Te7  1  0.193427  0.193427  0.191904  1
  Te  Te8  1  0.806573  0.806573  0.808096  1
  Te  Te9  1  0.387718  0.387718  0.413065  1
