# generated using pymatgen
data_K7(CoSe2)4
_symmetry_space_group_name_H-M   'P 1'
_cell_length_a   11.57340300
_cell_length_b   11.57340300
_cell_length_c   8.26972500
_cell_angle_alpha   90.00000000
_cell_angle_beta   90.00000000
_cell_angle_gamma   90.00000000
_symmetry_Int_Tables_number   1
_chemical_formula_structural   K7(CoSe2)4
_chemical_formula_sum   'K14 Co8 Se16'
_cell_volume   1107.67720889
_cell_formula_units_Z   2
loop_
 _symmetry_equiv_pos_site_id
 _symmetry_equiv_pos_as_xyz
  1  'x, y, z'
loop_
 _atom_site_type_symbol
 _atom_site_label
 _atom_site_symmetry_multiplicity
 _atom_site_fract_x
 _atom_site_fract_y
 _atom_site_fract_z
 _atom_site_occupancy
  K  K0  1  0.000000  0.000000  0.000000  1
  K  K1  1  0.500000  0.500000  0.500000  1
  K  K2  1  0.500000  0.000000  0.960634  1
  K  K3  1  0.500000  0.000000  0.460634  1
  K  K4  1  0.000000  0.500000  0.539366  1
  K  K5  1  0.000000  0.500000  0.039366  1
  K  K6  1  0.759157  0.240843  0.000000  1
  K  K7  1  0.759157  0.759157  0.000000  1
  K  K8  1  0.240843  0.240843  0.000000  1
  K  K9  1  0.240843  0.759157  0.000000  1
  K  K10  1  0.740843  0.259157  0.500000  1
  K  K11  1  0.740843  0.740843  0.500000  1
  K  K12  1  0.259157  0.259157  0.500000  1
  K  K13  1  0.259157  0.740843  0.500000  1
  Co  Co14  1  0.500000  0.387757  0.887770  1
  Co  Co15  1  0.500000  0.612243  0.887770  1
  Co  Co16  1  0.887757  0.000000  0.387770  1
  Co  Co17  1  0.112243  0.000000  0.387770  1
  Co  Co18  1  0.000000  0.112243  0.612230  1
  Co  Co19  1  0.000000  0.887757  0.612230  1
  Co  Co20  1  0.612243  0.500000  0.112230  1
  Co  Co21  1  0.387757  0.500000  0.112230  1
  Se  Se22  1  0.500000  0.328273  0.166654  1
  Se  Se23  1  0.500000  0.671727  0.166654  1
  Se  Se24  1  0.828273  0.000000  0.666654  1
  Se  Se25  1  0.171727  0.000000  0.666654  1
  Se  Se26  1  0.000000  0.171727  0.333346  1
  Se  Se27  1  0.000000  0.828273  0.333346  1
  Se  Se28  1  0.671727  0.500000  0.833346  1
  Se  Se29  1  0.328273  0.500000  0.833346  1
  Se  Se30  1  0.500000  0.774192  0.715648  1
  Se  Se31  1  0.500000  0.225808  0.715648  1
  Se  Se32  1  0.274192  0.000000  0.215648  1
  Se  Se33  1  0.725808  0.000000  0.215648  1
  Se  Se34  1  0.000000  0.725808  0.784352  1
  Se  Se35  1  0.000000  0.274192  0.784352  1
  Se  Se36  1  0.225808  0.500000  0.284352  1
  Se  Se37  1  0.774192  0.500000  0.284352  1
