# generated using pymatgen
data_Gd4Sc4Ir3Au
_symmetry_space_group_name_H-M   'P 1'
_cell_length_a   4.43757600
_cell_length_b   7.09189610
_cell_length_c   8.66362900
_cell_angle_alpha   91.31758288
_cell_angle_beta   90.00000000
_cell_angle_gamma   90.00000000
_symmetry_Int_Tables_number   1
_chemical_formula_structural   Gd4Sc4Ir3Au
_chemical_formula_sum   'Gd4 Sc4 Ir3 Au1'
_cell_volume   272.57948831
_cell_formula_units_Z   1
loop_
 _symmetry_equiv_pos_site_id
 _symmetry_equiv_pos_as_xyz
  1  'x, y, z'
loop_
 _atom_site_type_symbol
 _atom_site_label
 _atom_site_symmetry_multiplicity
 _atom_site_fract_x
 _atom_site_fract_y
 _atom_site_fract_z
 _atom_site_occupancy
  Gd  Gd0  1  0.250000  0.012309  0.328734  1
  Gd  Gd1  1  0.250000  0.534381  0.185192  1
  Gd  Gd2  1  0.750000  0.984118  0.670817  1
  Gd  Gd3  1  0.750000  0.483779  0.816815  1
  Sc  Sc4  1  0.250000  0.133423  0.921228  1
  Sc  Sc5  1  0.250000  0.641105  0.570849  1
  Sc  Sc6  1  0.750000  0.855391  0.063249  1
  Sc  Sc7  1  0.750000  0.359878  0.434419  1
  Ir  Ir8  1  0.250000  0.260646  0.602281  1
  Ir  Ir9  1  0.250000  0.754663  0.903724  1
  Ir  Ir10  1  0.750000  0.737539  0.396684  1
  Au  Au11  1  0.750000  0.242771  0.106004  1
