# generated using pymatgen
data_NdErTm2Ni13C4
_symmetry_space_group_name_H-M   'P 1'
_cell_length_a   8.37916914
_cell_length_b   8.37916894
_cell_length_c   3.86566900
_cell_angle_alpha   90.00000000
_cell_angle_beta   90.00000000
_cell_angle_gamma   91.07162535
_symmetry_Int_Tables_number   1
_chemical_formula_structural   NdErTm2Ni13C4
_chemical_formula_sum   'Nd1 Er1 Tm2 Ni13 C4'
_cell_volume   271.36298149
_cell_formula_units_Z   1
loop_
 _symmetry_equiv_pos_site_id
 _symmetry_equiv_pos_as_xyz
  1  'x, y, z'
loop_
 _atom_site_type_symbol
 _atom_site_label
 _atom_site_symmetry_multiplicity
 _atom_site_fract_x
 _atom_site_fract_y
 _atom_site_fract_z
 _atom_site_occupancy
  Nd  Nd0  1  0.346913  0.346913  0.500000  1
  Er  Er1  1  0.652927  0.652927  0.500000  1
  Tm  Tm2  1  0.187154  0.812080  0.500000  1
  Tm  Tm3  1  0.812080  0.187154  0.500000  1
  Ni  Ni4  1  0.504507  0.992843  0.500000  1
  Ni  Ni5  1  0.992843  0.504507  0.500000  1
  Ni  Ni6  1  0.998240  0.998240  0.000000  1
  Ni  Ni7  1  0.431053  0.786482  0.000000  1
  Ni  Ni8  1  0.573577  0.216873  0.000000  1
  Ni  Ni9  1  0.786482  0.431053  0.000000  1
  Ni  Ni10  1  0.216873  0.573577  0.000000  1
  Ni  Ni11  1  0.708658  0.926186  0.000000  1
  Ni  Ni12  1  0.288290  0.067888  0.000000  1
  Ni  Ni13  1  0.926186  0.708658  0.000000  1
  Ni  Ni14  1  0.067888  0.288290  0.000000  1
  Ni  Ni15  1  0.876094  0.876094  0.500000  1
  Ni  Ni16  1  0.118180  0.118180  0.500000  1
  C  C17  1  0.003131  0.500154  0.000000  1
  C  C18  1  0.500154  0.003131  0.000000  1
  C  C19  1  0.561243  0.447526  0.000000  1
  C  C20  1  0.447526  0.561243  0.000000  1
