# generated using pymatgen
data_Ca2PrDy(Ru2O7)2
_symmetry_space_group_name_H-M   'P 1'
_cell_length_a   7.30857110
_cell_length_b   7.34516143
_cell_length_c   7.30857023
_cell_angle_alpha   59.86209254
_cell_angle_beta   59.68335602
_cell_angle_gamma   59.86209564
_symmetry_Int_Tables_number   1
_chemical_formula_structural   Ca2PrDy(Ru2O7)2
_chemical_formula_sum   'Ca2 Pr1 Dy1 Ru4 O14'
_cell_volume   276.18309436
_cell_formula_units_Z   1
loop_
 _symmetry_equiv_pos_site_id
 _symmetry_equiv_pos_as_xyz
  1  'x, y, z'
loop_
 _atom_site_type_symbol
 _atom_site_label
 _atom_site_symmetry_multiplicity
 _atom_site_fract_x
 _atom_site_fract_y
 _atom_site_fract_z
 _atom_site_occupancy
  Ca  Ca0  1  0.125000  0.125000  0.625000  1
  Ca  Ca1  1  0.625000  0.125000  0.125000  1
  Pr  Pr2  1  0.125000  0.625000  0.125000  1
  Dy  Dy3  1  0.125000  0.125000  0.125000  1
  Ru  Ru4  1  0.625000  0.625000  0.125000  1
  Ru  Ru5  1  0.625000  0.125000  0.625000  1
  Ru  Ru6  1  0.125000  0.625000  0.625000  1
  Ru  Ru7  1  0.625000  0.625000  0.625000  1
  O  O8  1  0.248994  0.240323  0.248994  1
  O  O9  1  0.001006  0.009677  0.001006  1
  O  O10  1  0.295999  0.708866  0.295999  1
  O  O11  1  0.557224  0.941747  0.557224  1
  O  O12  1  0.299875  0.301884  0.703974  1
  O  O13  1  0.703974  0.301884  0.299875  1
  O  O14  1  0.299044  0.700986  0.698780  1
  O  O15  1  0.698780  0.700986  0.299044  1
  O  O16  1  0.692776  0.308253  0.692776  1
  O  O17  1  0.950956  0.549014  0.551220  1
  O  O18  1  0.546026  0.948116  0.950125  1
  O  O19  1  0.954001  0.541134  0.954001  1
  O  O20  1  0.551220  0.549014  0.950956  1
  O  O21  1  0.950125  0.948116  0.546026  1
