# generated using pymatgen
data_Nd4SmPb3Br
_symmetry_space_group_name_H-M   'P 1'
_cell_length_a   9.57685000
_cell_length_b   9.57684953
_cell_length_c   6.86935100
_cell_angle_alpha   90.00000000
_cell_angle_beta   90.00000000
_cell_angle_gamma   119.99998781
_symmetry_Int_Tables_number   1
_chemical_formula_structural   Nd4SmPb3Br
_chemical_formula_sum   'Nd8 Sm2 Pb6 Br2'
_cell_volume   545.62183527
_cell_formula_units_Z   2
loop_
 _symmetry_equiv_pos_site_id
 _symmetry_equiv_pos_as_xyz
  1  'x, y, z'
loop_
 _atom_site_type_symbol
 _atom_site_label
 _atom_site_symmetry_multiplicity
 _atom_site_fract_x
 _atom_site_fract_y
 _atom_site_fract_z
 _atom_site_occupancy
  Nd  Nd0  1  0.265007  0.000000  0.250266  1
  Nd  Nd1  1  0.734993  0.000000  0.749734  1
  Nd  Nd2  1  0.000000  0.265007  0.250266  1
  Nd  Nd3  1  0.000000  0.734993  0.749734  1
  Nd  Nd4  1  0.734993  0.734993  0.250266  1
  Nd  Nd5  1  0.265007  0.265007  0.749734  1
  Nd  Nd6  1  0.333333  0.666667  0.000000  1
  Nd  Nd7  1  0.666667  0.333333  0.000000  1
  Sm  Sm8  1  0.666667  0.333333  0.500000  1
  Sm  Sm9  1  0.333333  0.666667  0.500000  1
  Pb  Pb10  1  0.611117  0.000000  0.252751  1
  Pb  Pb11  1  0.388883  0.000000  0.747249  1
  Pb  Pb12  1  0.000000  0.611117  0.252751  1
  Pb  Pb13  1  0.000000  0.388883  0.747249  1
  Pb  Pb14  1  0.388883  0.388883  0.252751  1
  Pb  Pb15  1  0.611117  0.611117  0.747249  1
  Br  Br16  1  0.000000  0.000000  0.000000  1
  Br  Br17  1  0.000000  0.000000  0.500000  1
