# generated using pymatgen
data_TbDyTcOs3
_symmetry_space_group_name_H-M   'P 1'
_cell_length_a   5.31659702
_cell_length_b   5.24206356
_cell_length_c   9.04397600
_cell_angle_alpha   90.00011826
_cell_angle_beta   90.00132262
_cell_angle_gamma   119.51053116
_symmetry_Int_Tables_number   1
_chemical_formula_structural   TbDyTcOs3
_chemical_formula_sum   'Tb2 Dy2 Tc2 Os6'
_cell_volume   219.35474347
_cell_formula_units_Z   2
loop_
 _symmetry_equiv_pos_site_id
 _symmetry_equiv_pos_as_xyz
  1  'x, y, z'
loop_
 _atom_site_type_symbol
 _atom_site_label
 _atom_site_symmetry_multiplicity
 _atom_site_fract_x
 _atom_site_fract_y
 _atom_site_fract_z
 _atom_site_occupancy
  Tb  Tb0  1  0.330164  0.665096  0.438494  1
  Tb  Tb1  1  0.662555  0.331264  0.565852  1
  Dy  Dy2  1  0.662628  0.331305  0.934124  1
  Dy  Dy3  1  0.330206  0.665120  0.061401  1
  Tc  Tc4  1  0.837310  0.171204  0.249433  1
  Tc  Tc5  1  0.837309  0.666106  0.249435  1
  Os  Os6  1  0.983651  0.991813  0.501361  1
  Os  Os7  1  0.983728  0.991858  0.998702  1
  Os  Os8  1  0.351360  0.175684  0.249265  1
  Os  Os9  1  0.174674  0.828949  0.750685  1
  Os  Os10  1  0.174671  0.345722  0.750686  1
  Os  Os11  1  0.671742  0.835880  0.750561  1
