# generated using pymatgen
data_TbYLu2(B6Os)2
_symmetry_space_group_name_H-M   'P 1'
_cell_length_a   3.62428800
_cell_length_b   9.08472102
_cell_length_c   11.47855403
_cell_angle_alpha   90.00816361
_cell_angle_beta   90.00000000
_cell_angle_gamma   90.00000000
_symmetry_Int_Tables_number   1
_chemical_formula_structural   TbYLu2(B6Os)2
_chemical_formula_sum   'Tb2 Y2 Lu4 B24 Os4'
_cell_volume   377.93879568
_cell_formula_units_Z   2
loop_
 _symmetry_equiv_pos_site_id
 _symmetry_equiv_pos_as_xyz
  1  'x, y, z'
loop_
 _atom_site_type_symbol
 _atom_site_label
 _atom_site_symmetry_multiplicity
 _atom_site_fract_x
 _atom_site_fract_y
 _atom_site_fract_z
 _atom_site_occupancy
  Tb  Tb0  1  0.000000  0.321357  0.413989  1
  Tb  Tb1  1  0.000000  0.678643  0.586011  1
  Y  Y2  1  0.000000  0.821090  0.085927  1
  Y  Y3  1  0.000000  0.178910  0.914073  1
  Lu  Lu4  1  0.000000  0.944406  0.373097  1
  Lu  Lu5  1  0.000000  0.055594  0.626903  1
  Lu  Lu6  1  0.000000  0.444398  0.126875  1
  Lu  Lu7  1  0.000000  0.555602  0.873125  1
  B  B8  1  0.500000  0.554649  0.432588  1
  B  B9  1  0.500000  0.445351  0.567412  1
  B  B10  1  0.500000  0.054559  0.067278  1
  B  B11  1  0.500000  0.945441  0.932722  1
  B  B12  1  0.500000  0.750030  0.419303  1
  B  B13  1  0.500000  0.249970  0.580697  1
  B  B14  1  0.500000  0.250005  0.080634  1
  B  B15  1  0.500000  0.749995  0.919366  1
  B  B16  1  0.500000  0.792156  0.266273  1
  B  B17  1  0.500000  0.207844  0.733726  1
  B  B18  1  0.500000  0.292082  0.233666  1
  B  B19  1  0.500000  0.707918  0.766335  1
  B  B20  1  0.500000  0.630779  0.184502  1
  B  B21  1  0.500000  0.369221  0.815498  1
  B  B22  1  0.500000  0.130760  0.315448  1
  B  B23  1  0.500000  0.869240  0.684552  1
  B  B24  1  0.500000  0.982880  0.213823  1
  B  B25  1  0.500000  0.017120  0.786177  1
  B  B26  1  0.500000  0.482989  0.286136  1
  B  B27  1  0.500000  0.517011  0.713864  1
  B  B28  1  0.500000  0.603965  0.028594  1
  B  B29  1  0.500000  0.396035  0.971406  1
  B  B30  1  0.500000  0.103768  0.471472  1
  B  B31  1  0.500000  0.896232  0.528528  1
  Os  Os32  1  0.000000  0.638561  0.320154  1
  Os  Os33  1  0.000000  0.361439  0.679846  1
  Os  Os34  1  0.000000  0.138433  0.179758  1
  Os  Os35  1  0.000000  0.861567  0.820242  1
