# generated using pymatgen
data_Ce2Co9P7W3
_symmetry_space_group_name_H-M   'P 1'
_cell_length_a   9.12407500
_cell_length_b   9.12407548
_cell_length_c   3.75219300
_cell_angle_alpha   90.00000000
_cell_angle_beta   90.00000000
_cell_angle_gamma   120.00000189
_symmetry_Int_Tables_number   1
_chemical_formula_structural   Ce2Co9P7W3
_chemical_formula_sum   'Ce2 Co9 P7 W3'
_cell_volume   270.51634326
_cell_formula_units_Z   1
loop_
 _symmetry_equiv_pos_site_id
 _symmetry_equiv_pos_as_xyz
  1  'x, y, z'
loop_
 _atom_site_type_symbol
 _atom_site_label
 _atom_site_symmetry_multiplicity
 _atom_site_fract_x
 _atom_site_fract_y
 _atom_site_fract_z
 _atom_site_occupancy
  Ce  Ce0  1  0.000000  0.000000  0.000000  1
  Ce  Ce1  1  0.333333  0.666667  0.500000  1
  Co  Co2  1  0.099032  0.397128  0.000000  1
  Co  Co3  1  0.298095  0.900968  0.000000  1
  Co  Co4  1  0.602872  0.701905  0.000000  1
  Co  Co5  1  0.821143  0.611741  0.000000  1
  Co  Co6  1  0.790598  0.178857  0.000000  1
  Co  Co7  1  0.388259  0.209402  0.000000  1
  Co  Co8  1  0.047738  0.769383  0.500000  1
  Co  Co9  1  0.721645  0.952262  0.500000  1
  Co  Co10  1  0.230617  0.278355  0.500000  1
  P  P11  1  0.075555  0.636490  0.000000  1
  P  P12  1  0.560935  0.924445  0.000000  1
  P  P13  1  0.363510  0.439065  0.000000  1
  P  P14  1  0.779606  0.740398  0.500000  1
  P  P15  1  0.960793  0.220394  0.500000  1
  P  P16  1  0.259602  0.039207  0.500000  1
  P  P17  1  0.666667  0.333333  0.000000  1
  W  W18  1  0.886561  0.433313  0.500000  1
  W  W19  1  0.546753  0.113439  0.500000  1
  W  W20  1  0.566687  0.453247  0.500000  1
