# generated using pymatgen
data_Ca20Cd3Ag7Ir2
_symmetry_space_group_name_H-M   'P 1'
_cell_length_a   8.01670422
_cell_length_b   8.01670422
_cell_length_c   14.85606410
_cell_angle_alpha   89.93993010
_cell_angle_beta   90.06006990
_cell_angle_gamma   90.47591025
_symmetry_Int_Tables_number   1
_chemical_formula_structural   Ca20Cd3Ag7Ir2
_chemical_formula_sum   'Ca20 Cd3 Ag7 Ir2'
_cell_volume   954.72881458
_cell_formula_units_Z   1
loop_
 _symmetry_equiv_pos_site_id
 _symmetry_equiv_pos_as_xyz
  1  'x, y, z'
loop_
 _atom_site_type_symbol
 _atom_site_label
 _atom_site_symmetry_multiplicity
 _atom_site_fract_x
 _atom_site_fract_y
 _atom_site_fract_z
 _atom_site_occupancy
  Ca  Ca0  1  0.671816  0.163961  0.106814  1
  Ca  Ca1  1  0.168452  0.667335  0.608923  1
  Ca  Ca2  1  0.316578  0.824211  0.112616  1
  Ca  Ca3  1  0.819216  0.320896  0.615250  1
  Ca  Ca4  1  0.850238  0.670849  0.110134  1
  Ca  Ca5  1  0.347010  0.168065  0.612699  1
  Ca  Ca6  1  0.163019  0.342786  0.110003  1
  Ca  Ca7  1  0.666397  0.845522  0.612417  1
  Ca  Ca8  1  0.824211  0.316578  0.887384  1
  Ca  Ca9  1  0.320896  0.819216  0.384750  1
  Ca  Ca10  1  0.163961  0.671816  0.893186  1
  Ca  Ca11  1  0.667335  0.168452  0.391077  1
  Ca  Ca12  1  0.670849  0.850238  0.889866  1
  Ca  Ca13  1  0.168065  0.347010  0.387301  1
  Ca  Ca14  1  0.342786  0.163019  0.889997  1
  Ca  Ca15  1  0.845522  0.666397  0.387583  1
  Ca  Ca16  1  0.505064  0.485671  0.753847  1
  Ca  Ca17  1  0.004841  0.985893  0.250463  1
  Ca  Ca18  1  0.985893  0.004841  0.749537  1
  Ca  Ca19  1  0.485671  0.505064  0.246153  1
  Cd  Cd20  1  0.501831  0.501831  0.500000  1
  Cd  Cd21  1  0.501546  0.501546  0.000000  1
  Cd  Cd22  1  0.001712  0.001712  0.500000  1
  Ag  Ag23  1  0.874312  0.375338  0.248778  1
  Ag  Ag24  1  0.375338  0.874312  0.751222  1
  Ag  Ag25  1  0.873773  0.625868  0.751229  1
  Ag  Ag26  1  0.374580  0.126954  0.248749  1
  Ag  Ag27  1  0.126954  0.374580  0.751251  1
  Ag  Ag28  1  0.625868  0.873773  0.248771  1
  Ag  Ag29  1  0.000657  0.000657  0.000000  1
  Ir  Ir30  1  0.628131  0.127482  0.751374  1
  Ir  Ir31  1  0.127482  0.628131  0.248626  1
