# generated using pymatgen
data_Dy4HoEr3(ReC2)4
_symmetry_space_group_name_H-M   'P 1'
_cell_length_a   5.09676700
_cell_length_b   6.57491423
_cell_length_c   9.83163534
_cell_angle_alpha   89.96969960
_cell_angle_beta   90.00000000
_cell_angle_gamma   90.00000000
_symmetry_Int_Tables_number   1
_chemical_formula_structural   Dy4HoEr3(ReC2)4
_chemical_formula_sum   'Dy4 Ho1 Er3 Re4 C8'
_cell_volume   329.46597736
_cell_formula_units_Z   1
loop_
 _symmetry_equiv_pos_site_id
 _symmetry_equiv_pos_as_xyz
  1  'x, y, z'
loop_
 _atom_site_type_symbol
 _atom_site_label
 _atom_site_symmetry_multiplicity
 _atom_site_fract_x
 _atom_site_fract_y
 _atom_site_fract_z
 _atom_site_occupancy
  Dy  Dy0  1  0.250000  0.466467  0.215661  1
  Dy  Dy1  1  0.250000  0.966560  0.284840  1
  Dy  Dy2  1  0.750000  0.533435  0.784351  1
  Dy  Dy3  1  0.750000  0.033741  0.715302  1
  Ho  Ho4  1  0.250000  0.821999  0.943153  1
  Er  Er5  1  0.250000  0.322672  0.556990  1
  Er  Er6  1  0.750000  0.177413  0.057306  1
  Er  Er7  1  0.750000  0.677173  0.442899  1
  Re  Re8  1  0.250000  0.279446  0.866273  1
  Re  Re9  1  0.250000  0.779421  0.633163  1
  Re  Re10  1  0.750000  0.720638  0.133787  1
  Re  Re11  1  0.750000  0.220584  0.366645  1
  C  C12  1  0.250000  0.047188  0.740179  1
  C  C13  1  0.250000  0.546625  0.758922  1
  C  C14  1  0.750000  0.953069  0.259664  1
  C  C15  1  0.750000  0.452999  0.240604  1
  C  C16  1  0.250000  0.674438  0.450168  1
  C  C17  1  0.250000  0.175252  0.049727  1
  C  C18  1  0.750000  0.325574  0.549750  1
  C  C19  1  0.750000  0.825307  0.950616  1
