# generated using pymatgen
data_Tm6Al24IrRu4Pt3
_symmetry_space_group_name_H-M   'P 1'
_cell_length_a   8.79539608
_cell_length_b   8.84349166
_cell_length_c   9.47775877
_cell_angle_alpha   89.67715192
_cell_angle_beta   90.21722147
_cell_angle_gamma   120.05896111
_symmetry_Int_Tables_number   1
_chemical_formula_structural   Tm6Al24IrRu4Pt3
_chemical_formula_sum   'Tm6 Al24 Ir1 Ru4 Pt3'
_cell_volume   638.04300769
_cell_formula_units_Z   1
loop_
 _symmetry_equiv_pos_site_id
 _symmetry_equiv_pos_as_xyz
  1  'x, y, z'
loop_
 _atom_site_type_symbol
 _atom_site_label
 _atom_site_symmetry_multiplicity
 _atom_site_fract_x
 _atom_site_fract_y
 _atom_site_fract_z
 _atom_site_occupancy
  Tm  Tm0  1  0.803214  0.190066  0.748556  1
  Tm  Tm1  1  0.196786  0.809934  0.251444  1
  Tm  Tm2  1  0.388078  0.193142  0.749633  1
  Tm  Tm3  1  0.611922  0.806858  0.250367  1
  Tm  Tm4  1  0.804935  0.613913  0.749959  1
  Tm  Tm5  1  0.195065  0.386087  0.250041  1
  Al  Al6  1  0.663850  0.327587  0.970065  1
  Al  Al7  1  0.336150  0.672413  0.029935  1
  Al  Al8  1  0.337590  0.666606  0.471460  1
  Al  Al9  1  0.662410  0.333394  0.528540  1
  Al  Al10  1  0.835053  0.159740  0.421647  1
  Al  Al11  1  0.164947  0.840260  0.578353  1
  Al  Al12  1  0.326405  0.165348  0.421491  1
  Al  Al13  1  0.166649  0.842244  0.920929  1
  Al  Al14  1  0.673595  0.834652  0.578509  1
  Al  Al15  1  0.833351  0.157756  0.079071  1
  Al  Al16  1  0.833153  0.676057  0.421788  1
  Al  Al17  1  0.674339  0.841880  0.920377  1
  Al  Al18  1  0.166847  0.323943  0.578212  1
  Al  Al19  1  0.325661  0.158120  0.079623  1
  Al  Al20  1  0.160734  0.322696  0.920039  1
  Al  Al21  1  0.839266  0.677304  0.079961  1
  Al  Al22  1  0.437381  0.561695  0.746188  1
  Al  Al23  1  0.562619  0.438305  0.253812  1
  Al  Al24  1  0.126364  0.563239  0.750058  1
  Al  Al25  1  0.873636  0.436761  0.249942  1
  Al  Al26  1  0.438071  0.877144  0.752055  1
  Al  Al27  1  0.561929  0.122856  0.247945  1
  Al  Al28  1  0.997463  0.998019  0.749833  1
  Al  Al29  1  0.002537  0.001981  0.250167  1
  Ir  Ir30  1  0.500000  0.000000  0.500000  1
  Ru  Ru31  1  0.500000  0.500000  0.500000  1
  Ru  Ru32  1  0.500000  0.000000  0.000000  1
  Ru  Ru33  1  0.000000  0.000000  0.000000  1
  Ru  Ru34  1  0.000000  0.000000  0.500000  1
  Pt  Pt35  1  0.500000  0.500000  0.000000  1
  Pt  Pt36  1  0.000000  0.500000  0.000000  1
  Pt  Pt37  1  0.000000  0.500000  0.500000  1
