# generated using pymatgen
data_Li8YHo7Sn5Bi3
_symmetry_space_group_name_H-M   'P 1'
_cell_length_a   9.47075414
_cell_length_b   9.47011385
_cell_length_c   7.20901502
_cell_angle_alpha   90.00967976
_cell_angle_beta   89.99353296
_cell_angle_gamma   119.99670927
_symmetry_Int_Tables_number   1
_chemical_formula_structural   Li8YHo7Sn5Bi3
_chemical_formula_sum   'Li8 Y1 Ho7 Sn5 Bi3'
_cell_volume   559.96478817
_cell_formula_units_Z   1
loop_
 _symmetry_equiv_pos_site_id
 _symmetry_equiv_pos_as_xyz
  1  'x, y, z'
loop_
 _atom_site_type_symbol
 _atom_site_label
 _atom_site_symmetry_multiplicity
 _atom_site_fract_x
 _atom_site_fract_y
 _atom_site_fract_z
 _atom_site_occupancy
  Li  Li0  1  0.167074  0.334028  0.279333  1
  Li  Li1  1  0.167077  0.832912  0.279688  1
  Li  Li2  1  0.665909  0.832893  0.279435  1
  Li  Li3  1  0.831658  0.663270  0.787124  1
  Li  Li4  1  0.831657  0.168378  0.787779  1
  Li  Li5  1  0.336795  0.168481  0.787340  1
  Li  Li6  1  0.333314  0.666552  0.672897  1
  Li  Li7  1  0.666446  0.333425  0.179898  1
  Y  Y8  1  0.514405  0.028462  0.489011  1
  Ho  Ho9  1  0.514029  0.485873  0.488682  1
  Ho  Ho10  1  0.971617  0.485630  0.488848  1
  Ho  Ho11  1  0.491300  0.982592  0.999826  1
  Ho  Ho12  1  0.491175  0.508840  0.999795  1
  Ho  Ho13  1  0.017421  0.508710  0.999874  1
  Ho  Ho14  1  0.999955  0.999984  0.492927  1
  Ho  Ho15  1  0.000052  0.999981  0.008787  1
  Sn  Sn16  1  0.833442  0.666744  0.233190  1
  Sn  Sn17  1  0.833549  0.166631  0.233051  1
  Sn  Sn18  1  0.333205  0.166600  0.233075  1
  Sn  Sn19  1  0.333231  0.666573  0.258568  1
  Sn  Sn20  1  0.666794  0.333537  0.760229  1
  Bi  Bi21  1  0.166514  0.333281  0.734134  1
  Bi  Bi22  1  0.166758  0.833249  0.734262  1
  Bi  Bi23  1  0.666623  0.833374  0.734216  1
