# generated using pymatgen
data_TmLu6CoI12
_symmetry_space_group_name_H-M   'P 1'
_cell_length_a   9.62871214
_cell_length_b   9.62871279
_cell_length_c   9.62871220
_cell_angle_alpha   106.82419665
_cell_angle_beta   106.82420191
_cell_angle_gamma   106.82420924
_symmetry_Int_Tables_number   1
_chemical_formula_structural   TmLu6CoI12
_chemical_formula_sum   'Tm1 Lu6 Co1 I12'
_cell_volume   746.98414211
_cell_formula_units_Z   1
loop_
 _symmetry_equiv_pos_site_id
 _symmetry_equiv_pos_as_xyz
  1  'x, y, z'
loop_
 _atom_site_type_symbol
 _atom_site_label
 _atom_site_symmetry_multiplicity
 _atom_site_fract_x
 _atom_site_fract_y
 _atom_site_fract_z
 _atom_site_occupancy
  Tm  Tm0  1  0.500000  0.500000  0.500000  1
  Lu  Lu1  1  0.281360  0.089577  0.020763  1
  Lu  Lu2  1  0.089577  0.020763  0.281360  1
  Lu  Lu3  1  0.020763  0.281360  0.089577  1
  Lu  Lu4  1  0.718640  0.910423  0.979237  1
  Lu  Lu5  1  0.910423  0.979237  0.718640  1
  Lu  Lu6  1  0.979237  0.718640  0.910423  1
  Co  Co7  1  0.000000  0.000000  0.000000  1
  I  I8  1  0.222185  0.070561  0.676578  1
  I  I9  1  0.070561  0.676578  0.222185  1
  I  I10  1  0.676578  0.222185  0.070561  1
  I  I11  1  0.777815  0.929439  0.323422  1
  I  I12  1  0.929439  0.323422  0.777815  1
  I  I13  1  0.323422  0.777815  0.929439  1
  I  I14  1  0.385867  0.461258  0.159742  1
  I  I15  1  0.461258  0.159742  0.385867  1
  I  I16  1  0.159742  0.385867  0.461258  1
  I  I17  1  0.614133  0.538742  0.840258  1
  I  I18  1  0.538742  0.840258  0.614133  1
  I  I19  1  0.840258  0.614133  0.538742  1
