# generated using pymatgen
data_Pr5SnMoO12
_symmetry_space_group_name_H-M   'P 1'
_cell_length_a   7.17396316
_cell_length_b   7.17396385
_cell_length_c   7.72901000
_cell_angle_alpha   74.46629343
_cell_angle_beta   74.46628361
_cell_angle_gamma   51.15105728
_symmetry_Int_Tables_number   1
_chemical_formula_structural   Pr5SnMoO12
_chemical_formula_sum   'Pr5 Sn1 Mo1 O12'
_cell_volume   295.82293453
_cell_formula_units_Z   1
loop_
 _symmetry_equiv_pos_site_id
 _symmetry_equiv_pos_as_xyz
  1  'x, y, z'
loop_
 _atom_site_type_symbol
 _atom_site_label
 _atom_site_symmetry_multiplicity
 _atom_site_fract_x
 _atom_site_fract_y
 _atom_site_fract_z
 _atom_site_occupancy
  Pr  Pr0  1  0.307456  0.299934  0.361085  1
  Pr  Pr1  1  0.700066  0.692544  0.638915  1
  Pr  Pr2  1  0.693100  0.694804  0.169240  1
  Pr  Pr3  1  0.305196  0.306900  0.830760  1
  Pr  Pr4  1  0.004789  0.995211  0.500000  1
  Sn  Sn5  1  0.755413  0.244587  0.000000  1
  Mo  Mo6  1  0.242570  0.757430  0.000000  1
  O  O7  1  0.096594  0.596398  0.575199  1
  O  O8  1  0.006611  0.992008  0.181434  1
  O  O9  1  0.403602  0.903406  0.424801  1
  O  O10  1  0.494462  0.507727  0.180580  1
  O  O11  1  0.105723  0.583109  0.078644  1
  O  O12  1  0.907296  0.405329  0.420882  1
  O  O13  1  0.007992  0.993389  0.818566  1
  O  O14  1  0.594671  0.092703  0.579118  1
  O  O15  1  0.492273  0.505538  0.819420  1
  O  O16  1  0.566531  0.101234  0.081713  1
  O  O17  1  0.416891  0.894277  0.921356  1
  O  O18  1  0.898766  0.433469  0.918287  1
