# generated using pymatgen
data_Gd15Dy(ErSn4)4
_symmetry_space_group_name_H-M   'P 1'
_cell_length_a   8.04070218
_cell_length_b   8.19779447
_cell_length_c   15.51555500
_cell_angle_alpha   90.01311168
_cell_angle_beta   89.94158335
_cell_angle_gamma   89.94897148
_symmetry_Int_Tables_number   1
_chemical_formula_structural   Gd15Dy(ErSn4)4
_chemical_formula_sum   'Gd15 Dy1 Er4 Sn16'
_cell_volume   1022.72272911
_cell_formula_units_Z   1
loop_
 _symmetry_equiv_pos_site_id
 _symmetry_equiv_pos_as_xyz
  1  'x, y, z'
loop_
 _atom_site_type_symbol
 _atom_site_label
 _atom_site_symmetry_multiplicity
 _atom_site_fract_x
 _atom_site_fract_y
 _atom_site_fract_z
 _atom_site_occupancy
  Gd  Gd0  1  0.866480  0.662735  0.622244  1
  Gd  Gd1  1  0.633389  0.162589  0.378219  1
  Gd  Gd2  1  0.133165  0.337438  0.121617  1
  Gd  Gd3  1  0.632980  0.162529  0.121737  1
  Gd  Gd4  1  0.133497  0.337328  0.377942  1
  Gd  Gd5  1  0.366436  0.837489  0.622047  1
  Gd  Gd6  1  0.867090  0.662163  0.878082  1
  Gd  Gd7  1  0.519705  0.320278  0.902733  1
  Gd  Gd8  1  0.019524  0.179455  0.597285  1
  Gd  Gd9  1  0.480821  0.679683  0.403031  1
  Gd  Gd10  1  0.980121  0.820196  0.097163  1
  Gd  Gd11  1  0.480479  0.679705  0.096843  1
  Gd  Gd12  1  0.980712  0.820365  0.402931  1
  Gd  Gd13  1  0.519365  0.320593  0.597226  1
  Gd  Gd14  1  0.019663  0.179342  0.902562  1
  Dy  Dy15  1  0.366639  0.837578  0.877848  1
  Er  Er16  1  0.198270  0.502749  0.750203  1
  Er  Er17  1  0.698106  0.997274  0.750117  1
  Er  Er18  1  0.801838  0.497426  0.250001  1
  Er  Er19  1  0.301841  0.002593  0.249814  1
  Sn  Sn20  1  0.293616  0.035514  0.041697  1
  Sn  Sn21  1  0.794462  0.464078  0.457457  1
  Sn  Sn22  1  0.705928  0.964055  0.542728  1
  Sn  Sn23  1  0.207291  0.537124  0.957278  1
  Sn  Sn24  1  0.704898  0.963081  0.957323  1
  Sn  Sn25  1  0.205887  0.536057  0.542676  1
  Sn  Sn26  1  0.293779  0.036113  0.457524  1
  Sn  Sn27  1  0.793742  0.464032  0.042715  1
  Sn  Sn28  1  0.562832  0.618145  0.750418  1
  Sn  Sn29  1  0.063782  0.882778  0.750532  1
  Sn  Sn30  1  0.436850  0.382776  0.249914  1
  Sn  Sn31  1  0.936218  0.117300  0.249941  1
  Sn  Sn32  1  0.328312  0.147647  0.750250  1
  Sn  Sn33  1  0.828018  0.351837  0.750019  1
  Sn  Sn34  1  0.671930  0.852020  0.249984  1
  Sn  Sn35  1  0.172331  0.647935  0.249901  1
