# generated using pymatgen
data_Li3DyAs6Rh7
_symmetry_space_group_name_H-M   'P 1'
_cell_length_a   6.93786406
_cell_length_b   7.09255822
_cell_length_c   7.09255849
_cell_angle_alpha   109.90881642
_cell_angle_beta   109.02999615
_cell_angle_gamma   109.02999337
_symmetry_Int_Tables_number   1
_chemical_formula_structural   Li3DyAs6Rh7
_chemical_formula_sum   'Li3 Dy1 As6 Rh7'
_cell_volume   270.11313147
_cell_formula_units_Z   1
loop_
 _symmetry_equiv_pos_site_id
 _symmetry_equiv_pos_as_xyz
  1  'x, y, z'
loop_
 _atom_site_type_symbol
 _atom_site_label
 _atom_site_symmetry_multiplicity
 _atom_site_fract_x
 _atom_site_fract_y
 _atom_site_fract_z
 _atom_site_occupancy
  Li  Li0  1  0.500000  0.500000  0.500000  1
  Li  Li1  1  0.000000  0.500000  0.000000  1
  Li  Li2  1  0.000000  0.000000  0.500000  1
  Dy  Dy3  1  0.500000  0.000000  0.000000  1
  As  As4  1  0.694140  0.000000  0.679173  1
  As  As5  1  0.694140  0.679173  0.000000  1
  As  As6  1  0.305860  0.320827  0.000000  1
  As  As7  1  0.985033  0.679173  0.679173  1
  As  As8  1  0.014967  0.320827  0.320827  1
  As  As9  1  0.305860  0.000000  0.320827  1
  Rh  Rh10  1  0.500000  0.748115  0.251885  1
  Rh  Rh11  1  0.751885  0.251885  0.503770  1
  Rh  Rh12  1  0.248115  0.748115  0.496230  1
  Rh  Rh13  1  0.248115  0.496230  0.748115  1
  Rh  Rh14  1  0.000000  0.000000  0.000000  1
  Rh  Rh15  1  0.500000  0.251885  0.748115  1
  Rh  Rh16  1  0.751885  0.503770  0.251885  1
