# generated using pymatgen
data_CaCd3Os2(RuO7)2
_symmetry_space_group_name_H-M   'P 1'
_cell_length_a   7.31891962
_cell_length_b   7.19927217
_cell_length_c   7.25293791
_cell_angle_alpha   60.24444677
_cell_angle_beta   60.58589351
_cell_angle_gamma   60.53930860
_symmetry_Int_Tables_number   1
_chemical_formula_structural   CaCd3Os2(RuO7)2
_chemical_formula_sum   'Ca1 Cd3 Os2 Ru2 O14'
_cell_volume   273.01401230
_cell_formula_units_Z   1
loop_
 _symmetry_equiv_pos_site_id
 _symmetry_equiv_pos_as_xyz
  1  'x, y, z'
loop_
 _atom_site_type_symbol
 _atom_site_label
 _atom_site_symmetry_multiplicity
 _atom_site_fract_x
 _atom_site_fract_y
 _atom_site_fract_z
 _atom_site_occupancy
  Ca  Ca0  1  0.625000  0.125000  0.125000  1
  Cd  Cd1  1  0.125000  0.125000  0.125000  1
  Cd  Cd2  1  0.125000  0.625000  0.125000  1
  Cd  Cd3  1  0.125000  0.125000  0.625000  1
  Os  Os4  1  0.125000  0.625000  0.625000  1
  Os  Os5  1  0.625000  0.625000  0.125000  1
  Ru  Ru6  1  0.625000  0.625000  0.625000  1
  Ru  Ru7  1  0.625000  0.125000  0.625000  1
  O  O8  1  0.236794  0.254287  0.254631  1
  O  O9  1  0.013206  0.995713  0.995369  1
  O  O10  1  0.557962  0.944537  0.552963  1
  O  O11  1  0.310298  0.690540  0.308621  1
  O  O12  1  0.557317  0.553989  0.948478  1
  O  O13  1  0.945648  0.558243  0.557819  1
  O  O14  1  0.557317  0.940215  0.948478  1
  O  O15  1  0.945648  0.938290  0.557819  1
  O  O16  1  0.939702  0.559460  0.941379  1
  O  O17  1  0.692683  0.309785  0.301522  1
  O  O18  1  0.304352  0.691757  0.692181  1
  O  O19  1  0.692038  0.305463  0.697037  1
  O  O20  1  0.304352  0.311710  0.692181  1
  O  O21  1  0.692683  0.696011  0.301522  1
