# generated using pymatgen
data_Pr3Sm(Ga5Pt3)2
_symmetry_space_group_name_H-M   'P 1'
_cell_length_a   8.65500946
_cell_length_b   8.64023967
_cell_length_c   8.64024005
_cell_angle_alpha   138.96269072
_cell_angle_beta   106.70391864
_cell_angle_gamma   87.58555106
_symmetry_Int_Tables_number   1
_chemical_formula_structural   Pr3Sm(Ga5Pt3)2
_chemical_formula_sum   'Pr3 Sm1 Ga10 Pt6'
_cell_volume   390.32625416
_cell_formula_units_Z   1
loop_
 _symmetry_equiv_pos_site_id
 _symmetry_equiv_pos_as_xyz
  1  'x, y, z'
loop_
 _atom_site_type_symbol
 _atom_site_label
 _atom_site_symmetry_multiplicity
 _atom_site_fract_x
 _atom_site_fract_y
 _atom_site_fract_z
 _atom_site_occupancy
  Pr  Pr0  1  0.637427  0.367044  0.270383  1
  Pr  Pr1  1  0.362386  0.632943  0.729443  1
  Pr  Pr2  1  0.096311  0.866788  0.229523  1
  Sm  Sm3  1  0.904549  0.133587  0.770962  1
  Ga  Ga4  1  0.278972  0.529578  0.249901  1
  Ga  Ga5  1  0.720368  0.469356  0.749862  1
  Ga  Ga6  1  0.720368  0.970506  0.251012  1
  Ga  Ga7  1  0.278972  0.029071  0.749394  1
  Ga  Ga8  1  0.446596  0.102420  0.344176  1
  Ga  Ga9  1  0.554472  0.898470  0.656002  1
  Ga  Ga10  1  0.758248  0.602369  0.155880  1
  Ga  Ga11  1  0.242159  0.397340  0.844818  1
  Ga  Ga12  1  0.999694  0.250196  0.249175  1
  Ga  Ga13  1  0.999694  0.750519  0.749498  1
  Pt  Pt14  1  0.248406  0.140483  0.107924  1
  Pt  Pt15  1  0.751382  0.859367  0.892014  1
  Pt  Pt16  1  0.031448  0.640662  0.390787  1
  Pt  Pt17  1  0.967489  0.358856  0.608633  1
  Pt  Pt18  1  0.500530  0.250142  0.750227  1
  Pt  Pt19  1  0.500530  0.750303  0.250388  1
