# generated using pymatgen
data_Hf6FeBr15
_symmetry_space_group_name_H-M   'P 1'
_cell_length_a   9.39025154
_cell_length_b   9.39025135
_cell_length_c   9.39025100
_cell_angle_alpha   109.47122203
_cell_angle_beta   109.47122163
_cell_angle_gamma   109.47122004
_symmetry_Int_Tables_number   1
_chemical_formula_structural   Hf6FeBr15
_chemical_formula_sum   'Hf6 Fe1 Br15'
_cell_volume   637.39660216
_cell_formula_units_Z   1
loop_
 _symmetry_equiv_pos_site_id
 _symmetry_equiv_pos_as_xyz
  1  'x, y, z'
loop_
 _atom_site_type_symbol
 _atom_site_label
 _atom_site_symmetry_multiplicity
 _atom_site_fract_x
 _atom_site_fract_y
 _atom_site_fract_z
 _atom_site_occupancy
  Hf  Hf0  1  0.226793  0.000000  0.226793  1
  Hf  Hf1  1  0.226793  0.226793  0.000000  1
  Hf  Hf2  1  0.773207  0.000000  0.773207  1
  Hf  Hf3  1  0.000000  0.226793  0.226793  1
  Hf  Hf4  1  0.000000  0.773207  0.773207  1
  Hf  Hf5  1  0.773207  0.773207  0.000000  1
  Fe  Fe6  1  0.000000  0.000000  0.000000  1
  Br  Br7  1  0.000000  0.753796  0.246204  1
  Br  Br8  1  0.246204  0.753796  0.000000  1
  Br  Br9  1  0.507592  0.753796  0.753796  1
  Br  Br10  1  0.000000  0.246204  0.753796  1
  Br  Br11  1  0.753796  0.000000  0.246204  1
  Br  Br12  1  0.246204  0.492408  0.246204  1
  Br  Br13  1  0.753796  0.246204  0.000000  1
  Br  Br14  1  0.500000  0.500000  0.000000  1
  Br  Br15  1  0.246204  0.246204  0.492408  1
  Br  Br16  1  0.753796  0.507592  0.753796  1
  Br  Br17  1  0.753796  0.753796  0.507592  1
  Br  Br18  1  0.492408  0.246204  0.246204  1
  Br  Br19  1  0.246204  0.000000  0.753796  1
  Br  Br20  1  0.000000  0.500000  0.500000  1
  Br  Br21  1  0.500000  0.000000  0.500000  1
