# generated using pymatgen
data_Nd4Al2SiGe
_symmetry_space_group_name_H-M   'P 1'
_cell_length_a   4.10260500
_cell_length_b   4.51546700
_cell_length_c   11.33807000
_cell_angle_alpha   90.00000000
_cell_angle_beta   90.00000000
_cell_angle_gamma   90.00000000
_symmetry_Int_Tables_number   1
_chemical_formula_structural   Nd4Al2SiGe
_chemical_formula_sum   'Nd4 Al2 Si1 Ge1'
_cell_volume   210.03975916
_cell_formula_units_Z   1
loop_
 _symmetry_equiv_pos_site_id
 _symmetry_equiv_pos_as_xyz
  1  'x, y, z'
loop_
 _atom_site_type_symbol
 _atom_site_label
 _atom_site_symmetry_multiplicity
 _atom_site_fract_x
 _atom_site_fract_y
 _atom_site_fract_z
 _atom_site_occupancy
  Nd  Nd0  1  0.000000  0.000000  0.140385  1
  Nd  Nd1  1  0.000000  0.500000  0.644573  1
  Nd  Nd2  1  0.500000  0.500000  0.360279  1
  Nd  Nd3  1  0.500000  0.000000  0.860258  1
  Al  Al4  1  0.500000  0.500000  0.067911  1
  Al  Al5  1  0.500000  0.000000  0.570554  1
  Si  Si6  1  0.000000  0.500000  0.929787  1
  Ge  Ge7  1  0.000000  0.000000  0.426254  1
