# generated using pymatgen
data_Pr2Th3Sn3Br
_symmetry_space_group_name_H-M   'P 1'
_cell_length_a   9.56901300
_cell_length_b   9.56901140
_cell_length_c   6.70771100
_cell_angle_alpha   90.00000000
_cell_angle_beta   90.00000000
_cell_angle_gamma   119.99951458
_symmetry_Int_Tables_number   1
_chemical_formula_structural   Pr2Th3Sn3Br
_chemical_formula_sum   'Pr4 Th6 Sn6 Br2'
_cell_volume   531.91387078
_cell_formula_units_Z   2
loop_
 _symmetry_equiv_pos_site_id
 _symmetry_equiv_pos_as_xyz
  1  'x, y, z'
loop_
 _atom_site_type_symbol
 _atom_site_label
 _atom_site_symmetry_multiplicity
 _atom_site_fract_x
 _atom_site_fract_y
 _atom_site_fract_z
 _atom_site_occupancy
  Pr  Pr0  1  0.999831  0.724764  0.750000  1
  Pr  Pr1  1  0.274844  0.274844  0.750000  1
  Pr  Pr2  1  0.727364  0.727364  0.250000  1
  Pr  Pr3  1  0.724764  0.999831  0.750000  1
  Th  Th4  1  0.331401  0.666244  0.497503  1
  Th  Th5  1  0.666244  0.331401  0.497503  1
  Th  Th6  1  0.000063  0.275571  0.250000  1
  Th  Th7  1  0.275571  0.000063  0.250000  1
  Th  Th8  1  0.331401  0.666244  0.002497  1
  Th  Th9  1  0.666244  0.331401  0.002497  1
  Sn  Sn10  1  0.616620  0.616620  0.750000  1
  Sn  Sn11  1  0.999572  0.382063  0.750000  1
  Sn  Sn12  1  0.382063  0.999572  0.750000  1
  Sn  Sn13  1  0.616890  0.000419  0.250000  1
  Sn  Sn14  1  0.382616  0.382616  0.250000  1
  Sn  Sn15  1  0.000419  0.616890  0.250000  1
  Br  Br16  1  0.002047  0.002047  0.001746  1
  Br  Br17  1  0.002047  0.002047  0.498254  1
