# generated using pymatgen
data_YTmNiOs3
_symmetry_space_group_name_H-M   'P 1'
_cell_length_a   5.25039796
_cell_length_b   5.25039707
_cell_length_c   5.31331416
_cell_angle_alpha   60.39093446
_cell_angle_beta   60.39093999
_cell_angle_gamma   59.99999787
_symmetry_Int_Tables_number   1
_chemical_formula_structural   YTmNiOs3
_chemical_formula_sum   'Y1 Tm1 Ni1 Os3'
_cell_volume   104.17799583
_cell_formula_units_Z   1
loop_
 _symmetry_equiv_pos_site_id
 _symmetry_equiv_pos_as_xyz
  1  'x, y, z'
loop_
 _atom_site_type_symbol
 _atom_site_label
 _atom_site_symmetry_multiplicity
 _atom_site_fract_x
 _atom_site_fract_y
 _atom_site_fract_z
 _atom_site_occupancy
  Y  Y0  1  0.998470  0.998470  0.004589  1
  Tm  Tm1  1  0.752268  0.752268  0.743195  1
  Ni  Ni2  1  0.374963  0.374963  0.875110  1
  Os  Os3  1  0.374981  0.374981  0.375702  1
  Os  Os4  1  0.874336  0.374981  0.375702  1
  Os  Os5  1  0.374981  0.874336  0.375702  1
