# generated using pymatgen
data_PrTh7TiS17
_symmetry_space_group_name_H-M   'P 1'
_cell_length_a   8.09094508
_cell_length_b   8.08342888
_cell_length_c   10.73452915
_cell_angle_alpha   80.80634552
_cell_angle_beta   80.82583967
_cell_angle_gamma   65.24408976
_symmetry_Int_Tables_number   1
_chemical_formula_structural   PrTh7TiS17
_chemical_formula_sum   'Pr1 Th7 Ti1 S17'
_cell_volume   625.99433964
_cell_formula_units_Z   1
loop_
 _symmetry_equiv_pos_site_id
 _symmetry_equiv_pos_as_xyz
  1  'x, y, z'
loop_
 _atom_site_type_symbol
 _atom_site_label
 _atom_site_symmetry_multiplicity
 _atom_site_fract_x
 _atom_site_fract_y
 _atom_site_fract_z
 _atom_site_occupancy
  Pr  Pr0  1  0.810616  0.301548  0.296869  1
  Th  Th1  1  0.299743  0.812355  0.293745  1
  Th  Th2  1  0.187814  0.700181  0.703880  1
  Th  Th3  1  0.700282  0.188474  0.703680  1
  Th  Th4  1  0.204886  0.205586  0.542786  1
  Th  Th5  1  0.793911  0.795242  0.454761  1
  Th  Th6  1  0.683858  0.682325  0.979938  1
  Th  Th7  1  0.316342  0.315741  0.023407  1
  Ti  Ti8  1  0.000512  0.001949  0.001298  1
  S  S9  1  0.825419  0.430957  0.533955  1
  S  S10  1  0.429873  0.822884  0.529943  1
  S  S11  1  0.176008  0.569957  0.470506  1
  S  S12  1  0.569098  0.172344  0.474203  1
  S  S13  1  0.943409  0.321822  0.024554  1
  S  S14  1  0.323073  0.941543  0.027433  1
  S  S15  1  0.058331  0.678469  0.970372  1
  S  S16  1  0.677282  0.059312  0.971008  1
  S  S17  1  0.212947  0.202911  0.277785  1
  S  S18  1  0.793745  0.793197  0.722964  1
  S  S19  1  0.060966  0.059626  0.773336  1
  S  S20  1  0.941957  0.934119  0.226042  1
  S  S21  1  0.304719  0.306140  0.755133  1
  S  S22  1  0.690522  0.701544  0.243426  1
  S  S23  1  0.519803  0.521020  0.833514  1
  S  S24  1  0.473300  0.484608  0.162698  1
  S  S25  1  0.001585  0.996147  0.502768  1
