# generated using pymatgen
data_CaNd2(B3Rh4)2
_symmetry_space_group_name_H-M   'P 1'
_cell_length_a   9.99317867
_cell_length_b   9.13991005
_cell_length_c   5.63137813
_cell_angle_alpha   81.40366153
_cell_angle_beta   64.73455434
_cell_angle_gamma   33.86179822
_symmetry_Int_Tables_number   1
_chemical_formula_structural   CaNd2(B3Rh4)2
_chemical_formula_sum   'Ca1 Nd2 B6 Rh8'
_cell_volume   236.77111947
_cell_formula_units_Z   1
loop_
 _symmetry_equiv_pos_site_id
 _symmetry_equiv_pos_as_xyz
  1  'x, y, z'
loop_
 _atom_site_type_symbol
 _atom_site_label
 _atom_site_symmetry_multiplicity
 _atom_site_fract_x
 _atom_site_fract_y
 _atom_site_fract_z
 _atom_site_occupancy
  Ca  Ca0  1  0.685024  0.685024  0.314976  1
  Nd  Nd1  1  0.317438  0.317438  0.682562  1
  Nd  Nd2  1  0.503010  0.503010  0.496990  1
  B  B3  1  0.667445  0.987823  0.012177  1
  B  B4  1  0.987823  0.667445  0.332555  1
  B  B5  1  0.329965  0.012184  0.987816  1
  B  B6  1  0.012184  0.329965  0.670035  1
  B  B7  1  0.166240  0.833409  0.166591  1
  B  B8  1  0.833409  0.166240  0.833760  1
  Rh  Rh9  1  0.585628  0.585628  0.914372  1
  Rh  Rh10  1  0.913064  0.913064  0.086936  1
  Rh  Rh11  1  0.414359  0.414359  0.085641  1
  Rh  Rh12  1  0.085628  0.085628  0.414372  1
  Rh  Rh13  1  0.914359  0.914359  0.585641  1
  Rh  Rh14  1  0.248625  0.248625  0.251375  1
  Rh  Rh15  1  0.087173  0.087173  0.912827  1
  Rh  Rh16  1  0.748625  0.748625  0.751375  1
