# generated using pymatgen
data_NdTh7H30
_symmetry_space_group_name_H-M   'P 1'
_cell_length_a   7.89610629
_cell_length_b   7.89610598
_cell_length_c   7.89610539
_cell_angle_alpha   109.48932995
_cell_angle_beta   109.48932665
_cell_angle_gamma   109.48932875
_symmetry_Int_Tables_number   1
_chemical_formula_structural   NdTh7H30
_chemical_formula_sum   'Nd1 Th7 H30'
_cell_volume   378.72632755
_cell_formula_units_Z   1
loop_
 _symmetry_equiv_pos_site_id
 _symmetry_equiv_pos_as_xyz
  1  'x, y, z'
loop_
 _atom_site_type_symbol
 _atom_site_label
 _atom_site_symmetry_multiplicity
 _atom_site_fract_x
 _atom_site_fract_y
 _atom_site_fract_z
 _atom_site_occupancy
  Nd  Nd0  1  0.915970  0.915970  0.915970  1
  Th  Th1  1  0.499471  0.999456  0.083226  1
  Th  Th2  1  0.999456  0.083226  0.499471  1
  Th  Th3  1  0.083226  0.499471  0.999456  1
  Th  Th4  1  0.999433  0.584789  0.501392  1
  Th  Th5  1  0.584789  0.501392  0.999433  1
  Th  Th6  1  0.501392  0.999433  0.584789  1
  Th  Th7  1  0.415693  0.415693  0.415693  1
  H  H8  1  0.652744  0.969427  0.372987  1
  H  H9  1  0.220147  0.316705  0.846298  1
  H  H10  1  0.183810  0.404284  0.531350  1
  H  H11  1  0.099070  0.285325  0.129543  1
  H  H12  1  0.285325  0.129543  0.099070  1
  H  H13  1  0.129543  0.099070  0.285325  1
  H  H14  1  0.468788  0.153961  0.872845  1
  H  H15  1  0.719652  0.346800  0.815890  1
  H  H16  1  0.625991  0.375142  0.250035  1
  H  H17  1  0.250035  0.625991  0.375142  1
  H  H18  1  0.746576  0.874111  0.129102  1
  H  H19  1  0.129102  0.746576  0.874111  1
  H  H20  1  0.375142  0.250035  0.625991  1
  H  H21  1  0.874111  0.129102  0.746576  1
  H  H22  1  0.778250  0.590808  0.622449  1
  H  H23  1  0.316705  0.846298  0.220147  1
  H  H24  1  0.372987  0.652744  0.969427  1
  H  H25  1  0.969427  0.372987  0.652744  1
  H  H26  1  0.531350  0.183810  0.404284  1
  H  H27  1  0.404284  0.531350  0.183810  1
  H  H28  1  0.846298  0.220147  0.316705  1
  H  H29  1  0.904067  0.681897  0.032517  1
  H  H30  1  0.815890  0.719652  0.346800  1
  H  H31  1  0.153961  0.872845  0.468788  1
  H  H32  1  0.681897  0.032517  0.904067  1
  H  H33  1  0.346800  0.815890  0.719652  1
  H  H34  1  0.872845  0.468788  0.153961  1
  H  H35  1  0.622449  0.778250  0.590808  1
  H  H36  1  0.590808  0.622449  0.778250  1
  H  H37  1  0.032517  0.904067  0.681897  1
