# generated using pymatgen
data_Ho8Re2B24IrRh
_symmetry_space_group_name_H-M   'P 1'
_cell_length_a   3.66788500
_cell_length_b   9.14069753
_cell_length_c   11.53014257
_cell_angle_alpha   90.39588946
_cell_angle_beta   90.00000000
_cell_angle_gamma   90.00000000
_symmetry_Int_Tables_number   1
_chemical_formula_structural   Ho8Re2B24IrRh
_chemical_formula_sum   'Ho8 Re2 B24 Ir1 Rh1'
_cell_volume   386.56217736
_cell_formula_units_Z   1
loop_
 _symmetry_equiv_pos_site_id
 _symmetry_equiv_pos_as_xyz
  1  'x, y, z'
loop_
 _atom_site_type_symbol
 _atom_site_label
 _atom_site_symmetry_multiplicity
 _atom_site_fract_x
 _atom_site_fract_y
 _atom_site_fract_z
 _atom_site_occupancy
  Ho  Ho0  1  0.000000  0.317792  0.410134  1
  Ho  Ho1  1  0.000000  0.682066  0.589195  1
  Ho  Ho2  1  0.000000  0.826469  0.082846  1
  Ho  Ho3  1  0.000000  0.173878  0.917356  1
  Ho  Ho4  1  0.000000  0.944780  0.371695  1
  Ho  Ho5  1  0.000000  0.053951  0.627563  1
  Ho  Ho6  1  0.000000  0.442342  0.126670  1
  Ho  Ho7  1  0.000000  0.558326  0.874097  1
  Re  Re8  1  0.000000  0.138358  0.179491  1
  Re  Re9  1  0.000000  0.861779  0.820139  1
  B  B10  1  0.500000  0.553837  0.434471  1
  B  B11  1  0.500000  0.445720  0.566090  1
  B  B12  1  0.500000  0.052993  0.067285  1
  B  B13  1  0.500000  0.947367  0.932600  1
  B  B14  1  0.500000  0.748334  0.421511  1
  B  B15  1  0.500000  0.250794  0.578625  1
  B  B16  1  0.500000  0.248137  0.081104  1
  B  B17  1  0.500000  0.752311  0.918963  1
  B  B18  1  0.500000  0.790729  0.265326  1
  B  B19  1  0.500000  0.208853  0.734043  1
  B  B20  1  0.500000  0.292535  0.234572  1
  B  B21  1  0.500000  0.707650  0.765512  1
  B  B22  1  0.500000  0.632573  0.183593  1
  B  B23  1  0.500000  0.368097  0.816092  1
  B  B24  1  0.500000  0.131868  0.314633  1
  B  B25  1  0.500000  0.868096  0.685166  1
  B  B26  1  0.500000  0.982906  0.213061  1
  B  B27  1  0.500000  0.017315  0.786843  1
  B  B28  1  0.500000  0.483229  0.287930  1
  B  B29  1  0.500000  0.517329  0.712739  1
  B  B30  1  0.500000  0.606962  0.029872  1
  B  B31  1  0.500000  0.393481  0.970278  1
  B  B32  1  0.500000  0.108013  0.470498  1
  B  B33  1  0.500000  0.891460  0.529141  1
  Ir  Ir34  1  0.000000  0.362711  0.678497  1
  Rh  Rh35  1  0.000000  0.636957  0.322370  1
