# generated using pymatgen
data_YbTmRu2O7
_symmetry_space_group_name_H-M   'P 1'
_cell_length_a   7.18875213
_cell_length_b   7.19492060
_cell_length_c   7.19492008
_cell_angle_alpha   59.99343349
_cell_angle_beta   60.02835905
_cell_angle_gamma   60.02836412
_symmetry_Int_Tables_number   1
_chemical_formula_structural   YbTmRu2O7
_chemical_formula_sum   'Yb2 Tm2 Ru4 O14'
_cell_volume   263.24186462
_cell_formula_units_Z   2
loop_
 _symmetry_equiv_pos_site_id
 _symmetry_equiv_pos_as_xyz
  1  'x, y, z'
loop_
 _atom_site_type_symbol
 _atom_site_label
 _atom_site_symmetry_multiplicity
 _atom_site_fract_x
 _atom_site_fract_y
 _atom_site_fract_z
 _atom_site_occupancy
  Yb  Yb0  1  0.125000  0.125000  0.625000  1
  Yb  Yb1  1  0.125000  0.625000  0.125000  1
  Tm  Tm2  1  0.125000  0.125000  0.125000  1
  Tm  Tm3  1  0.625000  0.125000  0.125000  1
  Ru  Ru4  1  0.625000  0.625000  0.625000  1
  Ru  Ru5  1  0.125000  0.625000  0.625000  1
  Ru  Ru6  1  0.625000  0.125000  0.625000  1
  Ru  Ru7  1  0.625000  0.625000  0.125000  1
  O  O8  1  0.549166  0.541484  0.955395  1
  O  O9  1  0.953954  0.541484  0.955395  1
  O  O10  1  0.296046  0.294605  0.708516  1
  O  O11  1  0.992179  0.007821  0.007821  1
  O  O12  1  0.300153  0.699847  0.699847  1
  O  O13  1  0.700834  0.708516  0.294605  1
  O  O14  1  0.709060  0.290940  0.290940  1
  O  O15  1  0.549166  0.955395  0.541484  1
  O  O16  1  0.700834  0.294605  0.708516  1
  O  O17  1  0.540940  0.959060  0.959060  1
  O  O18  1  0.953954  0.955395  0.541484  1
  O  O19  1  0.257821  0.242179  0.242179  1
  O  O20  1  0.296046  0.708516  0.294605  1
  O  O21  1  0.949847  0.550153  0.550153  1
