# generated using pymatgen
data_PrY(Tm4Bi3)2
_symmetry_space_group_name_H-M   'P 1'
_cell_length_a   8.23408300
_cell_length_b   9.45568300
_cell_length_c   11.98227100
_cell_angle_alpha   90.00000000
_cell_angle_beta   90.00000000
_cell_angle_gamma   90.00000000
_symmetry_Int_Tables_number   1
_chemical_formula_structural   PrY(Tm4Bi3)2
_chemical_formula_sum   'Pr2 Y2 Tm16 Bi12'
_cell_volume   932.92618366
_cell_formula_units_Z   2
loop_
 _symmetry_equiv_pos_site_id
 _symmetry_equiv_pos_as_xyz
  1  'x, y, z'
loop_
 _atom_site_type_symbol
 _atom_site_label
 _atom_site_symmetry_multiplicity
 _atom_site_fract_x
 _atom_site_fract_y
 _atom_site_fract_z
 _atom_site_occupancy
  Pr  Pr0  1  0.315977  0.250000  0.219676  1
  Pr  Pr1  1  0.815977  0.250000  0.280324  1
  Y  Y2  1  0.686966  0.750000  0.783459  1
  Y  Y3  1  0.186966  0.750000  0.716541  1
  Tm  Tm4  1  0.351479  0.750000  0.216849  1
  Tm  Tm5  1  0.851479  0.750000  0.283151  1
  Tm  Tm6  1  0.647324  0.250000  0.780569  1
  Tm  Tm7  1  0.147324  0.250000  0.719431  1
  Tm  Tm8  1  0.690731  0.566443  0.059692  1
  Tm  Tm9  1  0.190731  0.933557  0.440308  1
  Tm  Tm10  1  0.308521  0.065795  0.938937  1
  Tm  Tm11  1  0.808521  0.434205  0.561063  1
  Tm  Tm12  1  0.308521  0.434205  0.938937  1
  Tm  Tm13  1  0.808521  0.065795  0.561063  1
  Tm  Tm14  1  0.690731  0.933557  0.059692  1
  Tm  Tm15  1  0.190731  0.566443  0.440308  1
  Tm  Tm16  1  0.477436  0.250000  0.490405  1
  Tm  Tm17  1  0.977436  0.250000  0.009595  1
  Tm  Tm18  1  0.522369  0.750000  0.512851  1
  Tm  Tm19  1  0.022369  0.750000  0.987149  1
  Bi  Bi20  1  0.403179  0.750000  0.958267  1
  Bi  Bi21  1  0.903179  0.750000  0.541733  1
  Bi  Bi22  1  0.598148  0.250000  0.035654  1
  Bi  Bi23  1  0.098148  0.250000  0.464346  1
  Bi  Bi24  1  0.564772  0.989569  0.328702  1
  Bi  Bi25  1  0.064772  0.510431  0.171298  1
  Bi  Bi26  1  0.434536  0.495127  0.674443  1
  Bi  Bi27  1  0.934536  0.004873  0.825557  1
  Bi  Bi28  1  0.434536  0.004873  0.674443  1
  Bi  Bi29  1  0.934536  0.495127  0.825557  1
  Bi  Bi30  1  0.564772  0.510431  0.328702  1
  Bi  Bi31  1  0.064772  0.989569  0.171298  1
