# generated using pymatgen
data_Hf18FeRe8Ni
_symmetry_space_group_name_H-M   'P 1'
_cell_length_a   8.57825500
_cell_length_b   8.57825360
_cell_length_c   8.51018600
_cell_angle_alpha   90.00000000
_cell_angle_beta   90.00000000
_cell_angle_gamma   119.99999383
_symmetry_Int_Tables_number   1
_chemical_formula_structural   Hf18FeRe8Ni
_chemical_formula_sum   'Hf18 Fe1 Re8 Ni1'
_cell_volume   542.33488927
_cell_formula_units_Z   1
loop_
 _symmetry_equiv_pos_site_id
 _symmetry_equiv_pos_as_xyz
  1  'x, y, z'
loop_
 _atom_site_type_symbol
 _atom_site_label
 _atom_site_symmetry_multiplicity
 _atom_site_fract_x
 _atom_site_fract_y
 _atom_site_fract_z
 _atom_site_occupancy
  Hf  Hf0  1  0.197812  0.802188  0.442840  1
  Hf  Hf1  1  0.197812  0.395626  0.442840  1
  Hf  Hf2  1  0.604374  0.802188  0.442840  1
  Hf  Hf3  1  0.799770  0.200230  0.558752  1
  Hf  Hf4  1  0.799770  0.599539  0.558752  1
  Hf  Hf5  1  0.400461  0.200230  0.558752  1
  Hf  Hf6  1  0.799770  0.200230  0.941248  1
  Hf  Hf7  1  0.799770  0.599539  0.941248  1
  Hf  Hf8  1  0.400461  0.200230  0.941248  1
  Hf  Hf9  1  0.197812  0.802188  0.057160  1
  Hf  Hf10  1  0.197812  0.395626  0.057160  1
  Hf  Hf11  1  0.604374  0.802188  0.057160  1
  Hf  Hf12  1  0.541550  0.458450  0.250000  1
  Hf  Hf13  1  0.541550  0.083100  0.250000  1
  Hf  Hf14  1  0.916900  0.458450  0.250000  1
  Hf  Hf15  1  0.458858  0.541142  0.750000  1
  Hf  Hf16  1  0.458858  0.917715  0.750000  1
  Hf  Hf17  1  0.082285  0.541142  0.750000  1
  Fe  Fe18  1  0.666667  0.333333  0.750000  1
  Re  Re19  1  0.889209  0.110791  0.250000  1
  Re  Re20  1  0.889209  0.778419  0.250000  1
  Re  Re21  1  0.221581  0.110791  0.250000  1
  Re  Re22  1  0.110413  0.889587  0.750000  1
  Re  Re23  1  0.110413  0.220826  0.750000  1
  Re  Re24  1  0.779174  0.889587  0.750000  1
  Re  Re25  1  0.000000  0.000000  0.499679  1
  Re  Re26  1  0.000000  0.000000  0.000321  1
  Ni  Ni27  1  0.333333  0.666667  0.250000  1
