# generated using pymatgen
data_Ho5Co16Mo3As11P
_symmetry_space_group_name_H-M   'P 1'
_cell_length_a   12.48473090
_cell_length_b   12.48910723
_cell_length_c   3.82168300
_cell_angle_alpha   90.00000000
_cell_angle_beta   90.00000000
_cell_angle_gamma   119.94493403
_symmetry_Int_Tables_number   1
_chemical_formula_structural   Ho5Co16Mo3As11P
_chemical_formula_sum   'Ho5 Co16 Mo3 As11 P1'
_cell_volume   516.34097062
_cell_formula_units_Z   1
loop_
 _symmetry_equiv_pos_site_id
 _symmetry_equiv_pos_as_xyz
  1  'x, y, z'
loop_
 _atom_site_type_symbol
 _atom_site_label
 _atom_site_symmetry_multiplicity
 _atom_site_fract_x
 _atom_site_fract_y
 _atom_site_fract_z
 _atom_site_occupancy
  Ho  Ho0  1  0.666555  0.333324  0.000000  1
  Ho  Ho1  1  0.332669  0.660184  0.000000  1
  Ho  Ho2  1  0.815030  0.815084  0.500000  1
  Ho  Ho3  1  0.184521  0.000459  0.500000  1
  Ho  Ho4  1  0.000553  0.185184  0.500000  1
  Co  Co5  1  0.875627  0.355253  0.500000  1
  Co  Co6  1  0.643959  0.520066  0.500000  1
  Co  Co7  1  0.480401  0.125437  0.500000  1
  Co  Co8  1  0.355240  0.874530  0.500000  1
  Co  Co9  1  0.508897  0.637372  0.500000  1
  Co  Co10  1  0.132800  0.480781  0.500000  1
  Co  Co11  1  0.801630  0.176828  0.000000  1
  Co  Co12  1  0.823393  0.624493  0.000000  1
  Co  Co13  1  0.375465  0.200460  0.000000  1
  Co  Co14  1  0.176561  0.801065  0.000000  1
  Co  Co15  1  0.623539  0.822064  0.000000  1
  Co  Co16  1  0.204840  0.381504  0.000000  1
  Co  Co17  1  0.282275  0.288170  0.500000  1
  Co  Co18  1  0.717850  0.999623  0.500000  1
  Co  Co19  1  0.000248  0.717831  0.500000  1
  Co  Co20  1  0.000803  0.000975  0.000000  1
  Mo  Mo21  1  0.440741  0.445945  0.000000  1
  Mo  Mo22  1  0.556032  0.999718  0.000000  1
  Mo  Mo23  1  0.001020  0.556098  0.000000  1
  As  As24  1  0.684745  0.166947  0.500000  1
  As  As25  1  0.833051  0.517559  0.500000  1
  As  As26  1  0.481863  0.316234  0.500000  1
  As  As27  1  0.167886  0.683886  0.500000  1
  As  As28  1  0.516704  0.831503  0.500000  1
  As  As29  1  0.178180  0.179441  0.000000  1
  As  As30  1  0.822298  0.999766  0.000000  1
  As  As31  1  0.000036  0.822635  0.000000  1
  As  As32  1  0.639623  0.640068  0.000000  1
  As  As33  1  0.359408  0.000189  0.000000  1
  As  As34  1  0.001879  0.360266  0.000000  1
  P  P35  1  0.313675  0.479061  0.500000  1
