# generated using pymatgen
data_Y2MoOs3
_symmetry_space_group_name_H-M   'P 1'
_cell_length_a   5.48183100
_cell_length_b   5.48182997
_cell_length_c   8.57966800
_cell_angle_alpha   90.00000000
_cell_angle_beta   90.00000000
_cell_angle_gamma   120.00000021
_symmetry_Int_Tables_number   1
_chemical_formula_structural   Y2MoOs3
_chemical_formula_sum   'Y4 Mo2 Os6'
_cell_volume   223.28128173
_cell_formula_units_Z   2
loop_
 _symmetry_equiv_pos_site_id
 _symmetry_equiv_pos_as_xyz
  1  'x, y, z'
loop_
 _atom_site_type_symbol
 _atom_site_label
 _atom_site_symmetry_multiplicity
 _atom_site_fract_x
 _atom_site_fract_y
 _atom_site_fract_z
 _atom_site_occupancy
  Y  Y0  1  0.333333  0.666667  0.434741  1
  Y  Y1  1  0.666667  0.333333  0.565259  1
  Y  Y2  1  0.666667  0.333333  0.934741  1
  Y  Y3  1  0.333333  0.666667  0.065259  1
  Mo  Mo4  1  0.000000  0.000000  0.500000  1
  Mo  Mo5  1  0.000000  0.000000  0.000000  1
  Os  Os6  1  0.827393  0.172607  0.250000  1
  Os  Os7  1  0.827393  0.654786  0.250000  1
  Os  Os8  1  0.345214  0.172607  0.250000  1
  Os  Os9  1  0.172607  0.827393  0.750000  1
  Os  Os10  1  0.172607  0.345214  0.750000  1
  Os  Os11  1  0.654786  0.827393  0.750000  1
