# generated using pymatgen
data_Dy19YCd3Ru2Au3
_symmetry_space_group_name_H-M   'P 1'
_cell_length_a   9.59984101
_cell_length_b   9.60039392
_cell_length_c   9.60608100
_cell_angle_alpha   90.00000000
_cell_angle_beta   90.00000000
_cell_angle_gamma   120.00191016
_symmetry_Int_Tables_number   1
_chemical_formula_structural   Dy19YCd3Ru2Au3
_chemical_formula_sum   'Dy19 Y1 Cd3 Ru2 Au3'
_cell_volume   766.69319741
_cell_formula_units_Z   1
loop_
 _symmetry_equiv_pos_site_id
 _symmetry_equiv_pos_as_xyz
  1  'x, y, z'
loop_
 _atom_site_type_symbol
 _atom_site_label
 _atom_site_symmetry_multiplicity
 _atom_site_fract_x
 _atom_site_fract_y
 _atom_site_fract_z
 _atom_site_occupancy
  Dy  Dy0  1  0.999986  0.999993  0.461324  1
  Dy  Dy1  1  0.999986  0.999993  0.038676  1
  Dy  Dy2  1  0.209461  0.790676  0.439824  1
  Dy  Dy3  1  0.209461  0.418786  0.439824  1
  Dy  Dy4  1  0.581160  0.790580  0.439912  1
  Dy  Dy5  1  0.791426  0.208419  0.558539  1
  Dy  Dy6  1  0.791426  0.583005  0.558539  1
  Dy  Dy7  1  0.416999  0.208498  0.558580  1
  Dy  Dy8  1  0.791426  0.208419  0.941461  1
  Dy  Dy9  1  0.791426  0.583005  0.941461  1
  Dy  Dy10  1  0.416999  0.208498  0.941420  1
  Dy  Dy11  1  0.209461  0.790676  0.060176  1
  Dy  Dy12  1  0.209461  0.418786  0.060176  1
  Dy  Dy13  1  0.581160  0.790580  0.060088  1
  Dy  Dy14  1  0.540740  0.459308  0.250000  1
  Dy  Dy15  1  0.540740  0.081431  0.250000  1
  Dy  Dy16  1  0.918622  0.459311  0.250000  1
  Dy  Dy17  1  0.458949  0.541092  0.750000  1
  Dy  Dy18  1  0.458949  0.917859  0.750000  1
  Y  Y19  1  0.082345  0.541173  0.750000  1
  Cd  Cd20  1  0.109998  0.890051  0.750000  1
  Cd  Cd21  1  0.109998  0.219946  0.750000  1
  Cd  Cd22  1  0.779996  0.889998  0.750000  1
  Ru  Ru23  1  0.333342  0.666671  0.250000  1
  Ru  Ru24  1  0.666547  0.333273  0.750000  1
  Au  Au25  1  0.869689  0.130246  0.250000  1
  Au  Au26  1  0.869689  0.739444  0.250000  1
  Au  Au27  1  0.260557  0.130279  0.250000  1
