# generated using pymatgen
data_Dy6CrB14W
_symmetry_space_group_name_H-M   'P 1'
_cell_length_a   8.14123901
_cell_length_b   8.14123870
_cell_length_c   9.43182400
_cell_angle_alpha   90.00000000
_cell_angle_beta   90.00000000
_cell_angle_gamma   155.53063748
_symmetry_Int_Tables_number   1
_chemical_formula_structural   Dy6CrB14W
_chemical_formula_sum   'Dy6 Cr1 B14 W1'
_cell_volume   258.93675487
_cell_formula_units_Z   1
loop_
 _symmetry_equiv_pos_site_id
 _symmetry_equiv_pos_as_xyz
  1  'x, y, z'
loop_
 _atom_site_type_symbol
 _atom_site_label
 _atom_site_symmetry_multiplicity
 _atom_site_fract_x
 _atom_site_fract_y
 _atom_site_fract_z
 _atom_site_occupancy
  Dy  Dy0  1  0.894495  0.105505  0.435939  1
  Dy  Dy1  1  0.106677  0.893323  0.556352  1
  Dy  Dy2  1  0.894495  0.105505  0.064061  1
  Dy  Dy3  1  0.106677  0.893323  0.943648  1
  Dy  Dy4  1  0.241232  0.758768  0.250000  1
  Dy  Dy5  1  0.754719  0.245281  0.750000  1
  Cr  Cr6  1  0.053104  0.946896  0.250000  1
  B  B7  1  0.727062  0.272938  0.466523  1
  B  B8  1  0.272362  0.727638  0.531337  1
  B  B9  1  0.727062  0.272938  0.033477  1
  B  B10  1  0.272362  0.727638  0.968663  1
  B  B11  1  0.631097  0.368903  0.152097  1
  B  B12  1  0.365085  0.634915  0.853895  1
  B  B13  1  0.631097  0.368903  0.347903  1
  B  B14  1  0.365085  0.634915  0.646105  1
  B  B15  1  0.521968  0.478032  0.097488  1
  B  B16  1  0.480510  0.519490  0.909431  1
  B  B17  1  0.521968  0.478032  0.402512  1
  B  B18  1  0.480510  0.519490  0.590569  1
  B  B19  1  0.460603  0.539397  0.250000  1
  B  B20  1  0.544803  0.455197  0.750000  1
  W  W21  1  0.947025  0.052975  0.750000  1
