# generated using pymatgen
data_Tb4Co8P12Ir7Ru5
_symmetry_space_group_name_H-M   'P 1'
_cell_length_a   3.84821600
_cell_length_b   10.62825647
_cell_length_c   12.15004820
_cell_angle_alpha   89.89444529
_cell_angle_beta   90.00000000
_cell_angle_gamma   90.00000000
_symmetry_Int_Tables_number   1
_chemical_formula_structural   Tb4Co8P12Ir7Ru5
_chemical_formula_sum   'Tb4 Co8 P12 Ir7 Ru5'
_cell_volume   496.93402124
_cell_formula_units_Z   1
loop_
 _symmetry_equiv_pos_site_id
 _symmetry_equiv_pos_as_xyz
  1  'x, y, z'
loop_
 _atom_site_type_symbol
 _atom_site_label
 _atom_site_symmetry_multiplicity
 _atom_site_fract_x
 _atom_site_fract_y
 _atom_site_fract_z
 _atom_site_occupancy
  Tb  Tb0  1  0.250000  0.583736  0.708403  1
  Tb  Tb1  1  0.250000  0.915590  0.209569  1
  Tb  Tb2  1  0.750000  0.415815  0.292814  1
  Tb  Tb3  1  0.750000  0.084260  0.790316  1
  Co  Co4  1  0.250000  0.885104  0.697985  1
  Co  Co5  1  0.250000  0.614260  0.198928  1
  Co  Co6  1  0.750000  0.114268  0.301556  1
  Co  Co7  1  0.750000  0.385844  0.799926  1
  Co  Co8  1  0.250000  0.462595  0.932992  1
  Co  Co9  1  0.250000  0.038197  0.432417  1
  Co  Co10  1  0.750000  0.536777  0.067068  1
  Co  Co11  1  0.750000  0.962497  0.566316  1
  P  P12  1  0.250000  0.430978  0.110832  1
  P  P13  1  0.250000  0.068595  0.609827  1
  P  P14  1  0.750000  0.567967  0.889517  1
  P  P15  1  0.750000  0.931312  0.389515  1
  P  P16  1  0.250000  0.273948  0.871642  1
  P  P17  1  0.250000  0.229676  0.374546  1
  P  P18  1  0.750000  0.725778  0.127911  1
  P  P19  1  0.750000  0.774008  0.628187  1
  P  P20  1  0.250000  0.598636  0.384511  1
  P  P21  1  0.250000  0.898918  0.881898  1
  P  P22  1  0.750000  0.399389  0.612864  1
  P  P23  1  0.750000  0.101393  0.118424  1
  Ir  Ir24  1  0.250000  0.091690  0.980884  1
  Ir  Ir25  1  0.750000  0.594607  0.517825  1
  Ir  Ir26  1  0.750000  0.908468  0.019260  1
  Ir  Ir27  1  0.250000  0.227331  0.181002  1
  Ir  Ir28  1  0.250000  0.271146  0.680498  1
  Ir  Ir29  1  0.750000  0.772000  0.820203  1
  Ir  Ir30  1  0.750000  0.728087  0.318940  1
  Ru  Ru31  1  0.250000  0.717374  0.991105  1
  Ru  Ru32  1  0.250000  0.785457  0.488752  1
  Ru  Ru33  1  0.750000  0.282424  0.008882  1
  Ru  Ru34  1  0.750000  0.213827  0.509340  1
  Ru  Ru35  1  0.250000  0.408049  0.485344  1
