# generated using pymatgen
data_Ho3ZnGa4Pd
_symmetry_space_group_name_H-M   'P 1'
_cell_length_a   6.91933400
_cell_length_b   6.90609322
_cell_length_c   4.34208500
_cell_angle_alpha   90.00000000
_cell_angle_beta   90.00000000
_cell_angle_gamma   120.06344275
_symmetry_Int_Tables_number   1
_chemical_formula_structural   Ho3ZnGa4Pd
_chemical_formula_sum   'Ho3 Zn1 Ga4 Pd1'
_cell_volume   179.57574960
_cell_formula_units_Z   1
loop_
 _symmetry_equiv_pos_site_id
 _symmetry_equiv_pos_as_xyz
  1  'x, y, z'
loop_
 _atom_site_type_symbol
 _atom_site_label
 _atom_site_symmetry_multiplicity
 _atom_site_fract_x
 _atom_site_fract_y
 _atom_site_fract_z
 _atom_site_occupancy
  Ho  Ho0  1  0.584473  0.000000  0.000000  1
  Ho  Ho1  1  0.414590  0.413555  0.000000  1
  Ho  Ho2  1  0.001035  0.586445  0.000000  1
  Zn  Zn3  1  0.241882  0.000000  0.500000  1
  Ga  Ga4  1  0.002141  0.240693  0.500000  1
  Ga  Ga5  1  0.665737  0.332485  0.500000  1
  Ga  Ga6  1  0.333253  0.667515  0.500000  1
  Ga  Ga7  1  0.761448  0.759308  0.500000  1
  Pd  Pd8  1  0.995440  0.000000  0.000000  1
