# generated using pymatgen
data_Yb2PrCd2HgPd3
_symmetry_space_group_name_H-M   'P 1'
_cell_length_a   7.65719866
_cell_length_b   7.68491633
_cell_length_c   4.04413700
_cell_angle_alpha   90.00000000
_cell_angle_beta   90.00000000
_cell_angle_gamma   120.11980656
_symmetry_Int_Tables_number   1
_chemical_formula_structural   Yb2PrCd2HgPd3
_chemical_formula_sum   'Yb2 Pr1 Cd2 Hg1 Pd3'
_cell_volume   205.84483781
_cell_formula_units_Z   1
loop_
 _symmetry_equiv_pos_site_id
 _symmetry_equiv_pos_as_xyz
  1  'x, y, z'
loop_
 _atom_site_type_symbol
 _atom_site_label
 _atom_site_symmetry_multiplicity
 _atom_site_fract_x
 _atom_site_fract_y
 _atom_site_fract_z
 _atom_site_occupancy
  Yb  Yb0  1  0.395487  0.398036  0.500000  1
  Yb  Yb1  1  0.604513  0.002549  0.500000  1
  Pr  Pr2  1  0.000000  0.594005  0.500000  1
  Cd  Cd3  1  0.735609  0.741314  0.000000  1
  Cd  Cd4  1  0.264391  0.005705  0.000000  1
  Hg  Hg5  1  0.000000  0.255287  0.000000  1
  Pd  Pd6  1  0.662332  0.335682  0.000000  1
  Pd  Pd7  1  0.337668  0.673351  0.000000  1
  Pd  Pd8  1  0.000000  0.994071  0.500000  1
