# generated using pymatgen
data_Nd3GdTc4F28
_symmetry_space_group_name_H-M   'P 1'
_cell_length_a   5.73181009
_cell_length_b   9.20189274
_cell_length_c   12.37817500
_cell_angle_alpha   62.11127890
_cell_angle_beta   90.01013605
_cell_angle_gamma   90.00527045
_symmetry_Int_Tables_number   1
_chemical_formula_structural   Nd3GdTc4F28
_chemical_formula_sum   'Nd3 Gd1 Tc4 F28'
_cell_volume   577.04267685
_cell_formula_units_Z   1
loop_
 _symmetry_equiv_pos_site_id
 _symmetry_equiv_pos_as_xyz
  1  'x, y, z'
loop_
 _atom_site_type_symbol
 _atom_site_label
 _atom_site_symmetry_multiplicity
 _atom_site_fract_x
 _atom_site_fract_y
 _atom_site_fract_z
 _atom_site_occupancy
  Nd  Nd0  1  0.758773  0.810558  0.764589  1
  Nd  Nd1  1  0.258677  0.188528  0.735079  1
  Nd  Nd2  1  0.241550  0.186244  0.235596  1
  Gd  Gd3  1  0.740780  0.811054  0.264536  1
  Tc  Tc4  1  0.755842  0.271969  0.958343  1
  Tc  Tc5  1  0.256832  0.726598  0.540541  1
  Tc  Tc6  1  0.242590  0.726511  0.044987  1
  Tc  Tc7  1  0.743444  0.276323  0.455940  1
  F  F8  1  0.445162  0.709484  0.923428  1
  F  F9  1  0.945290  0.292168  0.578157  1
  F  F10  1  0.553277  0.290063  0.079352  1
  F  F11  1  0.053218  0.709901  0.419336  1
  F  F12  1  0.461179  0.284495  0.544145  1
  F  F13  1  0.961880  0.717317  0.955989  1
  F  F14  1  0.540140  0.718986  0.452099  1
  F  F15  1  0.038132  0.281853  0.046004  1
  F  F16  1  0.765302  0.513297  0.861710  1
  F  F17  1  0.267177  0.485783  0.637444  1
  F  F18  1  0.233874  0.485298  0.140486  1
  F  F19  1  0.734751  0.518148  0.360004  1
  F  F20  1  0.759095  0.031774  0.053935  1
  F  F21  1  0.258459  0.967181  0.447174  1
  F  F22  1  0.240134  0.966615  0.948882  1
  F  F23  1  0.740442  0.035996  0.551115  1
  F  F24  1  0.983098  0.731307  0.634728  1
  F  F25  1  0.481793  0.267639  0.864538  1
  F  F26  1  0.016878  0.269090  0.362670  1
  F  F27  1  0.516240  0.732908  0.139072  1
  F  F28  1  0.041553  0.745374  0.167904  1
  F  F29  1  0.545307  0.258175  0.332309  1
  F  F30  1  0.953859  0.255448  0.834114  1
  F  F31  1  0.454390  0.743551  0.665186  1
  F  F32  1  0.422549  0.966991  0.232536  1
  F  F33  1  0.913941  0.024119  0.268485  1
  F  F34  1  0.587381  0.030540  0.768988  1
  F  F35  1  0.087014  0.968714  0.730604  1
