# generated using pymatgen
data_Y5Tm15(Hg3Pt)2
_symmetry_space_group_name_H-M   'P 1'
_cell_length_a   9.64968900
_cell_length_b   9.64968710
_cell_length_c   9.60329600
_cell_angle_alpha   90.00000000
_cell_angle_beta   90.00000000
_cell_angle_gamma   120.01154262
_symmetry_Int_Tables_number   1
_chemical_formula_structural   Y5Tm15(Hg3Pt)2
_chemical_formula_sum   'Y5 Tm15 Hg6 Pt2'
_cell_volume   774.33157650
_cell_formula_units_Z   1
loop_
 _symmetry_equiv_pos_site_id
 _symmetry_equiv_pos_as_xyz
  1  'x, y, z'
loop_
 _atom_site_type_symbol
 _atom_site_label
 _atom_site_symmetry_multiplicity
 _atom_site_fract_x
 _atom_site_fract_y
 _atom_site_fract_z
 _atom_site_occupancy
  Y  Y0  1  0.541219  0.083189  0.750000  1
  Y  Y1  1  0.916811  0.458781  0.750000  1
  Y  Y2  1  0.458676  0.541324  0.250000  1
  Y  Y3  1  0.458601  0.917830  0.250000  1
  Y  Y4  1  0.082170  0.541399  0.250000  1
  Tm  Tm5  1  0.207037  0.792963  0.939109  1
  Tm  Tm6  1  0.207910  0.413804  0.938863  1
  Tm  Tm7  1  0.586196  0.792090  0.938863  1
  Tm  Tm8  1  0.792928  0.207072  0.059663  1
  Tm  Tm9  1  0.791945  0.585344  0.059018  1
  Tm  Tm10  1  0.414656  0.208055  0.059018  1
  Tm  Tm11  1  0.792928  0.207072  0.440337  1
  Tm  Tm12  1  0.791945  0.585344  0.440982  1
  Tm  Tm13  1  0.414656  0.208055  0.440982  1
  Tm  Tm14  1  0.207037  0.792963  0.560891  1
  Tm  Tm15  1  0.207910  0.413804  0.561137  1
  Tm  Tm16  1  0.586196  0.792090  0.561137  1
  Tm  Tm17  1  0.540991  0.459009  0.750000  1
  Tm  Tm18  1  0.000111  0.999889  0.999968  1
  Tm  Tm19  1  0.000111  0.999889  0.500032  1
  Hg  Hg20  1  0.881103  0.118897  0.750000  1
  Hg  Hg21  1  0.879044  0.760686  0.750000  1
  Hg  Hg22  1  0.239314  0.120956  0.750000  1
  Hg  Hg23  1  0.118389  0.881611  0.250000  1
  Hg  Hg24  1  0.118636  0.236923  0.250000  1
  Hg  Hg25  1  0.763077  0.881364  0.250000  1
  Pt  Pt26  1  0.333576  0.666424  0.750000  1
  Pt  Pt27  1  0.666827  0.333173  0.250000  1
