# generated using pymatgen
data_HoTm9(InPb2)2
_symmetry_space_group_name_H-M   'P 1'
_cell_length_a   6.58476000
_cell_length_b   8.93096611
_cell_length_c   8.91614203
_cell_angle_alpha   120.05501742
_cell_angle_beta   89.99998807
_cell_angle_gamma   90.00003355
_symmetry_Int_Tables_number   1
_chemical_formula_structural   HoTm9(InPb2)2
_chemical_formula_sum   'Ho1 Tm9 In2 Pb4'
_cell_volume   453.84229354
_cell_formula_units_Z   1
loop_
 _symmetry_equiv_pos_site_id
 _symmetry_equiv_pos_as_xyz
  1  'x, y, z'
loop_
 _atom_site_type_symbol
 _atom_site_label
 _atom_site_symmetry_multiplicity
 _atom_site_fract_x
 _atom_site_fract_y
 _atom_site_fract_z
 _atom_site_occupancy
  Ho  Ho0  1  0.750003  0.236063  0.000000  1
  Tm  Tm1  1  0.496146  0.333189  0.663117  1
  Tm  Tm2  1  0.496146  0.670073  0.336883  1
  Tm  Tm3  1  0.003851  0.670071  0.336882  1
  Tm  Tm4  1  0.003851  0.333188  0.663118  1
  Tm  Tm5  1  0.750001  0.764080  0.763960  1
  Tm  Tm6  1  0.750001  0.000120  0.236040  1
  Tm  Tm7  1  0.250000  0.765753  0.000000  1
  Tm  Tm8  1  0.250002  0.234920  0.239652  1
  Tm  Tm9  1  0.250002  0.995268  0.760348  1
  In  In10  1  0.249999  0.602244  0.603140  1
  In  In11  1  0.249999  0.999102  0.396860  1
  Pb  Pb12  1  0.750000  0.602782  0.000000  1
  Pb  Pb13  1  0.749999  0.398549  0.397241  1
  Pb  Pb14  1  0.749999  0.001310  0.602759  1
  Pb  Pb15  1  0.249998  0.393289  0.000000  1
