# generated using pymatgen
data_Tb6CdSn5Pd6
_symmetry_space_group_name_H-M   'P 1'
_cell_length_a   7.69738900
_cell_length_b   7.69531522
_cell_length_c   7.78520073
_cell_angle_alpha   89.96606255
_cell_angle_beta   90.00000000
_cell_angle_gamma   120.00891064
_symmetry_Int_Tables_number   1
_chemical_formula_structural   Tb6CdSn5Pd6
_chemical_formula_sum   'Tb6 Cd1 Sn5 Pd6'
_cell_volume   399.32931385
_cell_formula_units_Z   1
loop_
 _symmetry_equiv_pos_site_id
 _symmetry_equiv_pos_as_xyz
  1  'x, y, z'
loop_
 _atom_site_type_symbol
 _atom_site_label
 _atom_site_symmetry_multiplicity
 _atom_site_fract_x
 _atom_site_fract_y
 _atom_site_fract_z
 _atom_site_occupancy
  Tb  Tb0  1  0.408793  0.003861  0.246995  1
  Tb  Tb1  1  0.598330  0.596152  0.247680  1
  Tb  Tb2  1  0.994401  0.400137  0.247836  1
  Tb  Tb3  1  0.404932  0.996139  0.753005  1
  Tb  Tb4  1  0.594264  0.599863  0.752164  1
  Tb  Tb5  1  0.002178  0.403848  0.752320  1
  Cd  Cd6  1  0.737407  0.000000  0.000000  1
  Sn  Sn7  1  0.267530  0.266038  0.499828  1
  Sn  Sn8  1  0.001492  0.733962  0.500172  1
  Sn  Sn9  1  0.997020  0.744959  0.999687  1
  Sn  Sn10  1  0.252059  0.255041  0.000313  1
  Sn  Sn11  1  0.736837  0.000000  0.500000  1
  Pd  Pd12  1  0.325934  0.661471  0.006939  1
  Pd  Pd13  1  0.333736  0.665487  0.491959  1
  Pd  Pd14  1  0.664465  0.338529  0.993061  1
  Pd  Pd15  1  0.668250  0.334513  0.508041  1
  Pd  Pd16  1  0.006055  0.999739  0.258685  1
  Pd  Pd17  1  0.006317  0.000261  0.741315  1
