# generated using pymatgen
data_Yb4ErLu5Ru4
_symmetry_space_group_name_H-M   'P 1'
_cell_length_a   6.34241506
_cell_length_b   7.18837207
_cell_length_c   8.40871982
_cell_angle_alpha   97.58221240
_cell_angle_beta   112.10963105
_cell_angle_gamma   89.94358771
_symmetry_Int_Tables_number   1
_chemical_formula_structural   Yb4ErLu5Ru4
_chemical_formula_sum   'Yb4 Er1 Lu5 Ru4'
_cell_volume   351.57614964
_cell_formula_units_Z   1
loop_
 _symmetry_equiv_pos_site_id
 _symmetry_equiv_pos_as_xyz
  1  'x, y, z'
loop_
 _atom_site_type_symbol
 _atom_site_label
 _atom_site_symmetry_multiplicity
 _atom_site_fract_x
 _atom_site_fract_y
 _atom_site_fract_z
 _atom_site_occupancy
  Yb  Yb0  1  0.522965  0.078750  0.815803  1
  Yb  Yb1  1  0.477263  0.920840  0.184201  1
  Yb  Yb2  1  0.706923  0.421266  0.184170  1
  Yb  Yb3  1  0.292753  0.579086  0.815836  1
  Er  Er4  1  0.304326  0.314971  0.433571  1
  Lu  Lu5  1  0.696544  0.684882  0.567036  1
  Lu  Lu6  1  0.870662  0.184171  0.567231  1
  Lu  Lu7  1  0.128753  0.815654  0.432973  1
  Lu  Lu8  1  0.069495  0.249661  0.999310  1
  Lu  Lu9  1  0.930144  0.750196  0.000054  1
  Ru  Ru10  1  0.313978  0.576401  0.231352  1
  Ru  Ru11  1  0.687360  0.424745  0.769257  1
  Ru  Ru12  1  0.082259  0.924201  0.768242  1
  Ru  Ru13  1  0.916574  0.075176  0.230964  1
