# generated using pymatgen
data_NaSm6RhBr12
_symmetry_space_group_name_H-M   'P 1'
_cell_length_a   9.42572703
_cell_length_b   9.42572676
_cell_length_c   9.42572557
_cell_angle_alpha   107.00751618
_cell_angle_beta   107.00751527
_cell_angle_gamma   107.00752144
_symmetry_Int_Tables_number   1
_chemical_formula_structural   NaSm6RhBr12
_chemical_formula_sum   'Na1 Sm6 Rh1 Br12'
_cell_volume   697.27019486
_cell_formula_units_Z   1
loop_
 _symmetry_equiv_pos_site_id
 _symmetry_equiv_pos_as_xyz
  1  'x, y, z'
loop_
 _atom_site_type_symbol
 _atom_site_label
 _atom_site_symmetry_multiplicity
 _atom_site_fract_x
 _atom_site_fract_y
 _atom_site_fract_z
 _atom_site_occupancy
  Na  Na0  1  0.500000  0.500000  0.500000  1
  Sm  Sm1  1  0.319278  0.110142  0.028932  1
  Sm  Sm2  1  0.028932  0.319278  0.110142  1
  Sm  Sm3  1  0.110142  0.028932  0.319278  1
  Sm  Sm4  1  0.680722  0.889858  0.971068  1
  Sm  Sm5  1  0.971068  0.680722  0.889858  1
  Sm  Sm6  1  0.889858  0.971068  0.680722  1
  Rh  Rh7  1  0.000000  0.000000  0.000000  1
  Br  Br8  1  0.681104  0.218636  0.071925  1
  Br  Br9  1  0.071925  0.681104  0.218636  1
  Br  Br10  1  0.218636  0.071925  0.681104  1
  Br  Br11  1  0.318896  0.781364  0.928075  1
  Br  Br12  1  0.928075  0.318896  0.781364  1
  Br  Br13  1  0.781364  0.928075  0.318896  1
  Br  Br14  1  0.451603  0.152534  0.369796  1
  Br  Br15  1  0.369796  0.451603  0.152534  1
  Br  Br16  1  0.152534  0.369796  0.451603  1
  Br  Br17  1  0.548397  0.847466  0.630204  1
  Br  Br18  1  0.630204  0.548397  0.847466  1
  Br  Br19  1  0.847466  0.630204  0.548397  1
