# generated using pymatgen
data_Ti2CoCuSi2
_symmetry_space_group_name_H-M   'P 1'
_cell_length_a   3.68634900
_cell_length_b   6.18848800
_cell_length_c   7.07046100
_cell_angle_alpha   90.00000000
_cell_angle_beta   90.00000000
_cell_angle_gamma   90.00000000
_symmetry_Int_Tables_number   1
_chemical_formula_structural   Ti2CoCuSi2
_chemical_formula_sum   'Ti4 Co2 Cu2 Si4'
_cell_volume   161.29790747
_cell_formula_units_Z   2
loop_
 _symmetry_equiv_pos_site_id
 _symmetry_equiv_pos_as_xyz
  1  'x, y, z'
loop_
 _atom_site_type_symbol
 _atom_site_label
 _atom_site_symmetry_multiplicity
 _atom_site_fract_x
 _atom_site_fract_y
 _atom_site_fract_z
 _atom_site_occupancy
  Ti  Ti0  1  0.750000  0.479265  0.317472  1
  Ti  Ti1  1  0.250000  0.027965  0.820688  1
  Ti  Ti2  1  0.750000  0.979265  0.182528  1
  Ti  Ti3  1  0.250000  0.527965  0.679312  1
  Co  Co4  1  0.250000  0.635060  0.054929  1
  Co  Co5  1  0.250000  0.135060  0.445071  1
  Cu  Cu6  1  0.750000  0.853348  0.561866  1
  Cu  Cu7  1  0.750000  0.353348  0.938134  1
  Si  Si8  1  0.250000  0.266100  0.134339  1
  Si  Si9  1  0.250000  0.766100  0.365661  1
  Si  Si10  1  0.750000  0.738262  0.886725  1
  Si  Si11  1  0.750000  0.238262  0.613275  1
