# generated using pymatgen
data_Dy2Ho4Al24ZnRu7
_symmetry_space_group_name_H-M   'P 1'
_cell_length_a   8.82912611
_cell_length_b   8.82775789
_cell_length_c   9.53161005
_cell_angle_alpha   89.99895418
_cell_angle_beta   89.98933525
_cell_angle_gamma   119.95674479
_symmetry_Int_Tables_number   1
_chemical_formula_structural   Dy2Ho4Al24ZnRu7
_chemical_formula_sum   'Dy2 Ho4 Al24 Zn1 Ru7'
_cell_volume   643.65648792
_cell_formula_units_Z   1
loop_
 _symmetry_equiv_pos_site_id
 _symmetry_equiv_pos_as_xyz
  1  'x, y, z'
loop_
 _atom_site_type_symbol
 _atom_site_label
 _atom_site_symmetry_multiplicity
 _atom_site_fract_x
 _atom_site_fract_y
 _atom_site_fract_z
 _atom_site_occupancy
  Dy  Dy0  1  0.193037  0.386373  0.247550  1
  Dy  Dy1  1  0.806963  0.613627  0.752450  1
  Ho  Ho2  1  0.613494  0.806980  0.247619  1
  Ho  Ho3  1  0.386506  0.193020  0.752381  1
  Ho  Ho4  1  0.194373  0.805623  0.253231  1
  Ho  Ho5  1  0.805627  0.194377  0.746769  1
  Al  Al6  1  0.329239  0.670903  0.021266  1
  Al  Al7  1  0.670761  0.329097  0.978734  1
  Al  Al8  1  0.666279  0.333585  0.516227  1
  Al  Al9  1  0.333721  0.666415  0.483773  1
  Al  Al10  1  0.162107  0.324191  0.576825  1
  Al  Al11  1  0.837893  0.675809  0.423175  1
  Al  Al12  1  0.675794  0.837928  0.576748  1
  Al  Al13  1  0.849474  0.678010  0.081860  1
  Al  Al14  1  0.324206  0.162072  0.423252  1
  Al  Al15  1  0.150526  0.321990  0.918140  1
  Al  Al16  1  0.162496  0.837585  0.578159  1
  Al  Al17  1  0.321991  0.150473  0.081779  1
  Al  Al18  1  0.837504  0.162415  0.421841  1
  Al  Al19  1  0.678009  0.849527  0.918221  1
  Al  Al20  1  0.837222  0.162641  0.078455  1
  Al  Al21  1  0.162778  0.837359  0.921545  1
  Al  Al22  1  0.561075  0.121089  0.248566  1
  Al  Al23  1  0.438925  0.878911  0.751434  1
  Al  Al24  1  0.878798  0.438958  0.248584  1
  Al  Al25  1  0.121202  0.561042  0.751416  1
  Al  Al26  1  0.563480  0.436665  0.254546  1
  Al  Al27  1  0.436520  0.563335  0.745454  1
  Al  Al28  1  0.999083  0.000769  0.250380  1
  Al  Al29  1  0.000917  0.999231  0.749620  1
  Zn  Zn30  1  0.500000  0.500000  0.000000  1
  Ru  Ru31  1  0.500000  0.000000  0.000000  1
  Ru  Ru32  1  0.000000  0.500000  0.000000  1
  Ru  Ru33  1  0.500000  0.000000  0.500000  1
  Ru  Ru34  1  0.000000  0.500000  0.500000  1
  Ru  Ru35  1  0.500000  0.500000  0.500000  1
  Ru  Ru36  1  0.000000  0.000000  0.000000  1
  Ru  Ru37  1  0.000000  0.000000  0.500000  1
