# generated using pymatgen
data_YbHoTiIr3
_symmetry_space_group_name_H-M   'P 1'
_cell_length_a   5.60364755
_cell_length_b   5.16501898
_cell_length_c   5.60364700
_cell_angle_alpha   57.14863772
_cell_angle_beta   59.99999733
_cell_angle_gamma   57.14863490
_symmetry_Int_Tables_number   1
_chemical_formula_structural   YbHoTiIr3
_chemical_formula_sum   'Yb1 Ho1 Ti1 Ir3'
_cell_volume   109.48885612
_cell_formula_units_Z   1
loop_
 _symmetry_equiv_pos_site_id
 _symmetry_equiv_pos_as_xyz
  1  'x, y, z'
loop_
 _atom_site_type_symbol
 _atom_site_label
 _atom_site_symmetry_multiplicity
 _atom_site_fract_x
 _atom_site_fract_y
 _atom_site_fract_z
 _atom_site_occupancy
  Yb  Yb0  1  0.750122  0.749634  0.750122  1
  Ho  Ho1  1  0.500254  0.499238  0.500254  1
  Ti  Ti2  1  0.125732  0.622803  0.125732  1
  Ir  Ir3  1  0.626111  0.126108  0.123890  1
  Ir  Ir4  1  0.123890  0.126108  0.123890  1
  Ir  Ir5  1  0.123890  0.126108  0.626111  1
