# generated using pymatgen
data_CaErInAg
_symmetry_space_group_name_H-M   'P 1'
_cell_length_a   3.65157300
_cell_length_b   3.65157300
_cell_length_c   7.76129000
_cell_angle_alpha   90.00000000
_cell_angle_beta   90.00000000
_cell_angle_gamma   90.00000000
_symmetry_Int_Tables_number   1
_chemical_formula_structural   CaErInAg
_chemical_formula_sum   'Ca1 Er1 In1 Ag1'
_cell_volume   103.48892735
_cell_formula_units_Z   1
loop_
 _symmetry_equiv_pos_site_id
 _symmetry_equiv_pos_as_xyz
  1  'x, y, z'
loop_
 _atom_site_type_symbol
 _atom_site_label
 _atom_site_symmetry_multiplicity
 _atom_site_fract_x
 _atom_site_fract_y
 _atom_site_fract_z
 _atom_site_occupancy
  Ca  Ca0  1  0.000000  0.000000  0.763929  1
  Er  Er1  1  0.000000  0.000000  0.232556  1
  In  In2  1  0.500000  0.500000  0.492167  1
  Ag  Ag3  1  0.500000  0.500000  0.011349  1
