# generated using pymatgen
data_DyEr7(B6Ru)4
_symmetry_space_group_name_H-M   'P 1'
_cell_length_a   3.63836000
_cell_length_b   9.10430989
_cell_length_c   11.47627760
_cell_angle_alpha   89.99292715
_cell_angle_beta   90.00000000
_cell_angle_gamma   90.00000000
_symmetry_Int_Tables_number   1
_chemical_formula_structural   DyEr7(B6Ru)4
_chemical_formula_sum   'Dy1 Er7 B24 Ru4'
_cell_volume   380.14890331
_cell_formula_units_Z   1
loop_
 _symmetry_equiv_pos_site_id
 _symmetry_equiv_pos_as_xyz
  1  'x, y, z'
loop_
 _atom_site_type_symbol
 _atom_site_label
 _atom_site_symmetry_multiplicity
 _atom_site_fract_x
 _atom_site_fract_y
 _atom_site_fract_z
 _atom_site_occupancy
  Dy  Dy0  1  0.000000  0.322006  0.414138  1
  Er  Er1  1  0.000000  0.678010  0.585664  1
  Er  Er2  1  0.000000  0.821748  0.085601  1
  Er  Er3  1  0.000000  0.178152  0.914304  1
  Er  Er4  1  0.000000  0.943432  0.372080  1
  Er  Er5  1  0.000000  0.056618  0.627881  1
  Er  Er6  1  0.000000  0.443444  0.127802  1
  Er  Er7  1  0.000000  0.556572  0.872708  1
  B  B8  1  0.500000  0.554504  0.433268  1
  B  B9  1  0.500000  0.446282  0.567255  1
  B  B10  1  0.500000  0.053551  0.066231  1
  B  B11  1  0.500000  0.946016  0.933087  1
  B  B12  1  0.500000  0.748715  0.419839  1
  B  B13  1  0.500000  0.251670  0.580709  1
  B  B14  1  0.500000  0.248010  0.079905  1
  B  B15  1  0.500000  0.751798  0.919907  1
  B  B16  1  0.500000  0.791167  0.265653  1
  B  B17  1  0.500000  0.209162  0.734578  1
  B  B18  1  0.500000  0.290320  0.233710  1
  B  B19  1  0.500000  0.709162  0.765791  1
  B  B20  1  0.500000  0.631337  0.184810  1
  B  B21  1  0.500000  0.368984  0.815629  1
  B  B22  1  0.500000  0.130503  0.314745  1
  B  B23  1  0.500000  0.868918  0.684663  1
  B  B24  1  0.500000  0.982243  0.212256  1
  B  B25  1  0.500000  0.017416  0.787294  1
  B  B26  1  0.500000  0.483140  0.287160  1
  B  B27  1  0.500000  0.517579  0.713045  1
  B  B28  1  0.500000  0.607397  0.029823  1
  B  B29  1  0.500000  0.392688  0.970669  1
  B  B30  1  0.500000  0.105827  0.470713  1
  B  B31  1  0.500000  0.893572  0.529319  1
  Ru  Ru32  1  0.000000  0.638188  0.320876  1
  Ru  Ru33  1  0.000000  0.362471  0.679498  1
  Ru  Ru34  1  0.000000  0.137003  0.178403  1
  Ru  Ru35  1  0.000000  0.862394  0.820988  1
