# generated using pymatgen
data_Pr2Ho3P12Ir11Ru8
_symmetry_space_group_name_H-M   'P 1'
_cell_length_a   12.66470346
_cell_length_b   12.63904864
_cell_length_c   3.99172800
_cell_angle_alpha   90.00000000
_cell_angle_beta   90.00000000
_cell_angle_gamma   120.00355450
_symmetry_Int_Tables_number   1
_chemical_formula_structural   Pr2Ho3P12Ir11Ru8
_chemical_formula_sum   'Pr2 Ho3 P12 Ir11 Ru8'
_cell_volume   553.33154033
_cell_formula_units_Z   1
loop_
 _symmetry_equiv_pos_site_id
 _symmetry_equiv_pos_as_xyz
  1  'x, y, z'
loop_
 _atom_site_type_symbol
 _atom_site_label
 _atom_site_symmetry_multiplicity
 _atom_site_fract_x
 _atom_site_fract_y
 _atom_site_fract_z
 _atom_site_occupancy
  Pr  Pr0  1  0.184018  0.186034  0.500000  1
  Pr  Pr1  1  0.998832  0.813740  0.500000  1
  Ho  Ho2  1  0.667209  0.331465  0.000000  1
  Ho  Ho3  1  0.334661  0.668876  0.000000  1
  Ho  Ho4  1  0.812502  0.001080  0.500000  1
  P  P5  1  0.634086  0.999080  0.000000  1
  P  P6  1  0.365693  0.365948  0.000000  1
  P  P7  1  0.000555  0.633705  0.000000  1
  P  P8  1  0.689392  0.517621  0.500000  1
  P  P9  1  0.828554  0.307057  0.500000  1
  P  P10  1  0.317296  0.833122  0.500000  1
  P  P11  1  0.518470  0.691716  0.500000  1
  P  P12  1  0.180914  0.999982  0.000000  1
  P  P13  1  0.816228  0.818354  0.000000  1
  P  P14  1  0.994627  0.181903  0.000000  1
  P  P15  1  0.481092  0.168470  0.500000  1
  P  P16  1  0.170978  0.482232  0.500000  1
  Ir  Ir17  1  0.623815  0.803963  0.000000  1
  Ir  Ir18  1  0.182786  0.380451  0.000000  1
  Ir  Ir19  1  0.378337  0.181409  0.000000  1
  Ir  Ir20  1  0.196004  0.818665  0.000000  1
  Ir  Ir21  1  0.801854  0.619356  0.000000  1
  Ir  Ir22  1  0.869991  0.505938  0.500000  1
  Ir  Ir23  1  0.493327  0.361264  0.500000  1
  Ir  Ir24  1  0.637011  0.129587  0.500000  1
  Ir  Ir25  1  0.133260  0.640117  0.500000  1
  Ir  Ir26  1  0.363388  0.493213  0.500000  1
  Ir  Ir27  1  0.996030  0.000305  0.000000  1
  Ru  Ru28  1  0.511466  0.871493  0.500000  1
  Ru  Ru29  1  0.709760  0.709563  0.500000  1
  Ru  Ru30  1  0.000919  0.290311  0.500000  1
  Ru  Ru31  1  0.451241  0.998738  0.000000  1
  Ru  Ru32  1  0.547445  0.545722  0.000000  1
  Ru  Ru33  1  0.001755  0.454004  0.000000  1
  Ru  Ru34  1  0.817546  0.195766  0.000000  1
  Ru  Ru35  1  0.288955  0.999746  0.500000  1
