# generated using pymatgen
data_NdTa2(Nb2Sn3)2
_symmetry_space_group_name_H-M   'P 1'
_cell_length_a   5.82378733
_cell_length_b   5.81836685
_cell_length_c   9.63871800
_cell_angle_alpha   90.00000000
_cell_angle_beta   90.00000000
_cell_angle_gamma   119.96921332
_symmetry_Int_Tables_number   1
_chemical_formula_structural   NdTa2(Nb2Sn3)2
_chemical_formula_sum   'Nd1 Ta2 Nb4 Sn6'
_cell_volume   282.93792202
_cell_formula_units_Z   1
loop_
 _symmetry_equiv_pos_site_id
 _symmetry_equiv_pos_as_xyz
  1  'x, y, z'
loop_
 _atom_site_type_symbol
 _atom_site_label
 _atom_site_symmetry_multiplicity
 _atom_site_fract_x
 _atom_site_fract_y
 _atom_site_fract_z
 _atom_site_occupancy
  Nd  Nd0  1  0.000000  0.000000  0.999927  1
  Ta  Ta1  1  0.500000  0.500000  0.750418  1
  Ta  Ta2  1  0.500000  0.000000  0.750418  1
  Nb  Nb3  1  0.000000  0.500000  0.749935  1
  Nb  Nb4  1  0.000000  0.500000  0.250175  1
  Nb  Nb5  1  0.500000  0.500000  0.250156  1
  Nb  Nb6  1  0.500000  0.000000  0.250156  1
  Sn  Sn7  1  0.666108  0.333053  0.499814  1
  Sn  Sn8  1  0.333892  0.666947  0.499814  1
  Sn  Sn9  1  0.666641  0.333321  0.000199  1
  Sn  Sn10  1  0.333359  0.666679  0.000199  1
  Sn  Sn11  1  0.000000  0.000000  0.667561  1
  Sn  Sn12  1  0.000000  0.000000  0.331228  1
