# generated using pymatgen
data_Eu10Si5Ag
_symmetry_space_group_name_H-M   'P 1'
_cell_length_a   9.35792731
_cell_length_b   9.35792689
_cell_length_c   9.35792683
_cell_angle_alpha   130.31473966
_cell_angle_beta   130.31473618
_cell_angle_gamma   72.90410103
_symmetry_Int_Tables_number   1
_chemical_formula_structural   Eu10Si5Ag
_chemical_formula_sum   'Eu10 Si5 Ag1'
_cell_volume   465.38072379
_cell_formula_units_Z   1
loop_
 _symmetry_equiv_pos_site_id
 _symmetry_equiv_pos_as_xyz
  1  'x, y, z'
loop_
 _atom_site_type_symbol
 _atom_site_label
 _atom_site_symmetry_multiplicity
 _atom_site_fract_x
 _atom_site_fract_y
 _atom_site_fract_z
 _atom_site_occupancy
  Eu  Eu0  1  0.475341  0.959209  0.149459  1
  Eu  Eu1  1  0.174120  0.690252  0.149459  1
  Eu  Eu2  1  0.540791  0.024659  0.850541  1
  Eu  Eu3  1  0.024659  0.174120  0.483868  1
  Eu  Eu4  1  0.690252  0.540791  0.516132  1
  Eu  Eu5  1  0.959209  0.809748  0.483868  1
  Eu  Eu6  1  0.005188  0.005188  0.000000  1
  Eu  Eu7  1  0.494812  0.494812  0.000000  1
  Eu  Eu8  1  0.809748  0.325880  0.850541  1
  Eu  Eu9  1  0.325880  0.475341  0.516132  1
  Si  Si10  1  0.111024  0.611024  0.722046  1
  Si  Si11  1  0.611024  0.888976  0.500000  1
  Si  Si12  1  0.388976  0.111024  0.500000  1
  Si  Si13  1  0.888976  0.388976  0.277954  1
  Si  Si14  1  0.750000  0.750000  0.000000  1
  Ag  Ag15  1  0.250000  0.250000  0.000000  1
