# generated using pymatgen
data_Sm2Mn5(NiP)7
_symmetry_space_group_name_H-M   'P 1'
_cell_length_a   9.18925829
_cell_length_b   9.18897193
_cell_length_c   3.70554000
_cell_angle_alpha   90.00000000
_cell_angle_beta   90.00000000
_cell_angle_gamma   119.94043030
_symmetry_Int_Tables_number   1
_chemical_formula_structural   Sm2Mn5(NiP)7
_chemical_formula_sum   'Sm2 Mn5 Ni7 P7'
_cell_volume   271.13769495
_cell_formula_units_Z   1
loop_
 _symmetry_equiv_pos_site_id
 _symmetry_equiv_pos_as_xyz
  1  'x, y, z'
loop_
 _atom_site_type_symbol
 _atom_site_label
 _atom_site_symmetry_multiplicity
 _atom_site_fract_x
 _atom_site_fract_y
 _atom_site_fract_z
 _atom_site_occupancy
  Sm  Sm0  1  0.665415  0.333080  0.000000  1
  Sm  Sm1  1  0.334013  0.667246  0.500000  1
  Mn  Mn2  1  0.727987  0.880533  0.500000  1
  Mn  Mn3  1  0.121098  0.843996  0.500000  1
  Mn  Mn4  1  0.217004  0.098659  0.000000  1
  Mn  Mn5  1  0.902121  0.121001  0.000000  1
  Mn  Mn6  1  0.878561  0.777677  0.000000  1
  Ni  Ni7  1  0.434581  0.061424  0.500000  1
  Ni  Ni8  1  0.941637  0.375007  0.500000  1
  Ni  Ni9  1  0.627442  0.566445  0.500000  1
  Ni  Ni10  1  0.152451  0.275725  0.500000  1
  Ni  Ni11  1  0.383419  0.434225  0.000000  1
  Ni  Ni12  1  0.565291  0.950017  0.000000  1
  Ni  Ni13  1  0.048347  0.613537  0.000000  1
  P  P14  1  0.111899  0.402035  0.000000  1
  P  P15  1  0.600064  0.711728  0.000000  1
  P  P16  1  0.287795  0.889341  0.000000  1
  P  P17  1  0.001706  0.997787  0.500000  1
  P  P18  1  0.404488  0.294629  0.500000  1
  P  P19  1  0.705027  0.110139  0.500000  1
  P  P20  1  0.889652  0.595768  0.500000  1
