# generated using pymatgen
data_Ho2Tm4Al24Pd2Ru5Pt
_symmetry_space_group_name_H-M   'P 1'
_cell_length_a   8.78615134
_cell_length_b   8.81797338
_cell_length_c   9.50994500
_cell_angle_alpha   89.84771526
_cell_angle_beta   90.14551302
_cell_angle_gamma   119.67123566
_symmetry_Int_Tables_number   1
_chemical_formula_structural   Ho2Tm4Al24Pd2Ru5Pt
_chemical_formula_sum   'Ho2 Tm4 Al24 Pd2 Ru5 Pt1'
_cell_volume   640.18187546
_cell_formula_units_Z   1
loop_
 _symmetry_equiv_pos_site_id
 _symmetry_equiv_pos_as_xyz
  1  'x, y, z'
loop_
 _atom_site_type_symbol
 _atom_site_label
 _atom_site_symmetry_multiplicity
 _atom_site_fract_x
 _atom_site_fract_y
 _atom_site_fract_z
 _atom_site_occupancy
  Ho  Ho0  1  0.804568  0.189600  0.748737  1
  Ho  Ho1  1  0.195432  0.810400  0.251263  1
  Tm  Tm2  1  0.389761  0.191564  0.750190  1
  Tm  Tm3  1  0.610239  0.808436  0.249810  1
  Tm  Tm4  1  0.805749  0.614127  0.750340  1
  Tm  Tm5  1  0.194251  0.385873  0.249660  1
  Al  Al6  1  0.665461  0.328478  0.969540  1
  Al  Al7  1  0.334539  0.671522  0.030460  1
  Al  Al8  1  0.338397  0.669106  0.471321  1
  Al  Al9  1  0.661603  0.330894  0.528679  1
  Al  Al10  1  0.833095  0.158483  0.421379  1
  Al  Al11  1  0.166905  0.841517  0.578621  1
  Al  Al12  1  0.327503  0.164935  0.423288  1
  Al  Al13  1  0.166941  0.841899  0.920652  1
  Al  Al14  1  0.672497  0.835065  0.576712  1
  Al  Al15  1  0.833059  0.158101  0.079348  1
  Al  Al16  1  0.831819  0.675798  0.423199  1
  Al  Al17  1  0.673954  0.841114  0.921839  1
  Al  Al18  1  0.168181  0.324202  0.576801  1
  Al  Al19  1  0.326046  0.158886  0.078161  1
  Al  Al20  1  0.162121  0.323247  0.921206  1
  Al  Al21  1  0.837879  0.676753  0.078794  1
  Al  Al22  1  0.438086  0.562427  0.746485  1
  Al  Al23  1  0.561914  0.437573  0.253515  1
  Al  Al24  1  0.125906  0.562816  0.750659  1
  Al  Al25  1  0.874094  0.437184  0.249341  1
  Al  Al26  1  0.439465  0.877031  0.750588  1
  Al  Al27  1  0.560535  0.122969  0.249412  1
  Al  Al28  1  0.998965  0.996081  0.749804  1
  Al  Al29  1  0.001035  0.003919  0.250196  1
  Pd  Pd30  1  0.000000  0.500000  0.000000  1
  Pd  Pd31  1  0.000000  0.500000  0.500000  1
  Ru  Ru32  1  0.500000  0.500000  0.500000  1
  Ru  Ru33  1  0.500000  0.000000  0.000000  1
  Ru  Ru34  1  0.500000  0.000000  0.500000  1
  Ru  Ru35  1  0.000000  0.000000  0.000000  1
  Ru  Ru36  1  0.000000  0.000000  0.500000  1
  Pt  Pt37  1  0.500000  0.500000  0.000000  1
