# generated using pymatgen
data_Dy4Y8InCo4Ru
_symmetry_space_group_name_H-M   'P 1'
_cell_length_a   8.32811130
_cell_length_b   8.32811215
_cell_length_c   8.32811315
_cell_angle_alpha   111.21165905
_cell_angle_beta   110.51602411
_cell_angle_gamma   106.72128691
_symmetry_Int_Tables_number   1
_chemical_formula_structural   Dy4Y8InCo4Ru
_chemical_formula_sum   'Dy4 Y8 In1 Co4 Ru1'
_cell_volume   443.86873832
_cell_formula_units_Z   1
loop_
 _symmetry_equiv_pos_site_id
 _symmetry_equiv_pos_as_xyz
  1  'x, y, z'
loop_
 _atom_site_type_symbol
 _atom_site_label
 _atom_site_symmetry_multiplicity
 _atom_site_fract_x
 _atom_site_fract_y
 _atom_site_fract_z
 _atom_site_occupancy
  Dy  Dy0  1  0.314330  0.621682  0.307351  1
  Dy  Dy1  1  0.685670  0.378318  0.692649  1
  Dy  Dy2  1  0.314330  0.006979  0.692649  1
  Dy  Dy3  1  0.685670  0.993021  0.307351  1
  Y  Y4  1  0.410403  0.217885  0.192519  1
  Y  Y5  1  0.589597  0.782115  0.807481  1
  Y  Y6  1  0.025366  0.217885  0.807481  1
  Y  Y7  1  0.974634  0.782115  0.192519  1
  Y  Y8  1  0.183949  0.285177  0.469127  1
  Y  Y9  1  0.816051  0.714823  0.530873  1
  Y  Y10  1  0.183949  0.714823  0.898773  1
  Y  Y11  1  0.816051  0.285177  0.101227  1
  In  In12  1  0.500000  0.500000  0.000000  1
  Co  Co13  1  0.378929  0.000000  0.378929  1
  Co  Co14  1  0.621071  0.000000  0.621071  1
  Co  Co15  1  0.111187  0.611187  0.500000  1
  Co  Co16  1  0.888813  0.388813  0.500000  1
  Ru  Ru17  1  0.000000  0.000000  0.000000  1
