# generated using pymatgen
data_Cs3Rb2AgSb2
_symmetry_space_group_name_H-M   'P 1'
_cell_length_a   6.51908000
_cell_length_b   6.51907873
_cell_length_c   22.00745000
_cell_angle_alpha   90.00000000
_cell_angle_beta   90.00000000
_cell_angle_gamma   119.99999630
_symmetry_Int_Tables_number   1
_chemical_formula_structural   Cs3Rb2AgSb2
_chemical_formula_sum   'Cs6 Rb4 Ag2 Sb4'
_cell_volume   809.97741295
_cell_formula_units_Z   2
loop_
 _symmetry_equiv_pos_site_id
 _symmetry_equiv_pos_as_xyz
  1  'x, y, z'
loop_
 _atom_site_type_symbol
 _atom_site_label
 _atom_site_symmetry_multiplicity
 _atom_site_fract_x
 _atom_site_fract_y
 _atom_site_fract_z
 _atom_site_occupancy
  Cs  Cs0  1  0.333333  0.666667  0.549780  1
  Cs  Cs1  1  0.666667  0.333333  0.049780  1
  Cs  Cs2  1  0.666667  0.333333  0.450220  1
  Cs  Cs3  1  0.333333  0.666667  0.950220  1
  Cs  Cs4  1  0.333333  0.666667  0.750000  1
  Cs  Cs5  1  0.666667  0.333333  0.250000  1
  Rb  Rb6  1  0.000000  0.000000  0.147979  1
  Rb  Rb7  1  0.000000  0.000000  0.647979  1
  Rb  Rb8  1  0.000000  0.000000  0.852021  1
  Rb  Rb9  1  0.000000  0.000000  0.352021  1
  Ag  Ag10  1  0.333333  0.666667  0.250000  1
  Ag  Ag11  1  0.666667  0.333333  0.750000  1
  Sb  Sb12  1  0.333333  0.666667  0.373302  1
  Sb  Sb13  1  0.666667  0.333333  0.873302  1
  Sb  Sb14  1  0.666667  0.333333  0.626698  1
  Sb  Sb15  1  0.333333  0.666667  0.126698  1
