# generated using pymatgen
data_Ba20InSi10Sb
_symmetry_space_group_name_H-M   'P 1'
_cell_length_a   8.49675800
_cell_length_b   8.49675800
_cell_length_c   17.31053800
_cell_angle_alpha   90.00000000
_cell_angle_beta   90.00000000
_cell_angle_gamma   90.00000000
_symmetry_Int_Tables_number   1
_chemical_formula_structural   Ba20InSi10Sb
_chemical_formula_sum   'Ba20 In1 Si10 Sb1'
_cell_volume   1249.73249945
_cell_formula_units_Z   1
loop_
 _symmetry_equiv_pos_site_id
 _symmetry_equiv_pos_as_xyz
  1  'x, y, z'
loop_
 _atom_site_type_symbol
 _atom_site_label
 _atom_site_symmetry_multiplicity
 _atom_site_fract_x
 _atom_site_fract_y
 _atom_site_fract_z
 _atom_site_occupancy
  Ba  Ba0  1  0.312375  0.671012  0.113948  1
  Ba  Ba1  1  0.171012  0.187625  0.113948  1
  Ba  Ba2  1  0.500000  0.000000  0.721931  1
  Ba  Ba3  1  0.328139  0.690505  0.396008  1
  Ba  Ba4  1  0.668485  0.688959  0.886071  1
  Ba  Ba5  1  0.190505  0.171861  0.396008  1
  Ba  Ba6  1  0.671861  0.309495  0.396008  1
  Ba  Ba7  1  0.172217  0.809443  0.604426  1
  Ba  Ba8  1  0.331515  0.311041  0.886071  1
  Ba  Ba9  1  0.188959  0.831515  0.886071  1
  Ba  Ba10  1  0.500000  0.000000  0.239659  1
  Ba  Ba11  1  0.827783  0.190557  0.604426  1
  Ba  Ba12  1  0.309443  0.327783  0.604426  1
  Ba  Ba13  1  0.809495  0.828139  0.396008  1
  Ba  Ba14  1  0.811041  0.168485  0.886071  1
  Ba  Ba15  1  0.828988  0.812375  0.113948  1
  Ba  Ba16  1  0.000000  0.500000  0.276475  1
  Ba  Ba17  1  0.000000  0.500000  0.759350  1
  Ba  Ba18  1  0.687625  0.328988  0.113948  1
  Ba  Ba19  1  0.690557  0.672217  0.604426  1
  In  In20  1  0.000000  0.500000  0.987708  1
  Si  Si21  1  0.100988  0.101498  0.744873  1
  Si  Si22  1  0.398502  0.600988  0.744873  1
  Si  Si23  1  0.600246  0.601651  0.254826  1
  Si  Si24  1  0.101651  0.899754  0.254826  1
  Si  Si25  1  0.601498  0.399012  0.744873  1
  Si  Si26  1  0.899012  0.898502  0.744873  1
  Si  Si27  1  0.399754  0.398349  0.254826  1
  Si  Si28  1  0.898349  0.100246  0.254826  1
  Si  Si29  1  0.500000  0.000000  0.511768  1
  Si  Si30  1  0.000000  0.500000  0.487980  1
  Sb  Sb31  1  0.500000  0.000000  0.014523  1
