# generated using pymatgen
data_Tb4Co9Si4Ge
_symmetry_space_group_name_H-M   'P 1'
_cell_length_a   5.20040200
_cell_length_b   5.20040129
_cell_length_c   22.01753300
_cell_angle_alpha   90.00000000
_cell_angle_beta   90.00000000
_cell_angle_gamma   119.99999179
_symmetry_Int_Tables_number   1
_chemical_formula_structural   Tb4Co9Si4Ge
_chemical_formula_sum   'Tb8 Co18 Si8 Ge2'
_cell_volume   515.67146200
_cell_formula_units_Z   2
loop_
 _symmetry_equiv_pos_site_id
 _symmetry_equiv_pos_as_xyz
  1  'x, y, z'
loop_
 _atom_site_type_symbol
 _atom_site_label
 _atom_site_symmetry_multiplicity
 _atom_site_fract_x
 _atom_site_fract_y
 _atom_site_fract_z
 _atom_site_occupancy
  Tb  Tb0  1  0.333333  0.666667  0.528711  1
  Tb  Tb1  1  0.666667  0.333333  0.471289  1
  Tb  Tb2  1  0.666667  0.333333  0.028711  1
  Tb  Tb3  1  0.333333  0.666667  0.971289  1
  Tb  Tb4  1  0.333333  0.666667  0.674628  1
  Tb  Tb5  1  0.666667  0.333333  0.325372  1
  Tb  Tb6  1  0.666667  0.333333  0.174628  1
  Tb  Tb7  1  0.333333  0.666667  0.825372  1
  Co  Co8  1  0.168008  0.336015  0.090048  1
  Co  Co9  1  0.831992  0.663985  0.909952  1
  Co  Co10  1  0.663985  0.831992  0.090048  1
  Co  Co11  1  0.831992  0.663985  0.590048  1
  Co  Co12  1  0.336015  0.168008  0.909952  1
  Co  Co13  1  0.168008  0.336015  0.409952  1
  Co  Co14  1  0.168008  0.831992  0.090048  1
  Co  Co15  1  0.336015  0.168008  0.590048  1
  Co  Co16  1  0.831992  0.168008  0.909952  1
  Co  Co17  1  0.663985  0.831992  0.409952  1
  Co  Co18  1  0.831992  0.168008  0.590048  1
  Co  Co19  1  0.168008  0.831992  0.409952  1
  Co  Co20  1  0.167153  0.334305  0.250000  1
  Co  Co21  1  0.832847  0.665695  0.750000  1
  Co  Co22  1  0.665695  0.832847  0.250000  1
  Co  Co23  1  0.334305  0.167153  0.750000  1
  Co  Co24  1  0.167153  0.832847  0.250000  1
  Co  Co25  1  0.832847  0.167153  0.750000  1
  Si  Si26  1  0.333333  0.666667  0.169237  1
  Si  Si27  1  0.666667  0.333333  0.830763  1
  Si  Si28  1  0.666667  0.333333  0.669237  1
  Si  Si29  1  0.333333  0.666667  0.330763  1
  Si  Si30  1  0.000000  0.000000  0.169316  1
  Si  Si31  1  0.000000  0.000000  0.830684  1
  Si  Si32  1  0.000000  0.000000  0.669316  1
  Si  Si33  1  0.000000  0.000000  0.330684  1
  Ge  Ge34  1  0.000000  0.000000  0.000000  1
  Ge  Ge35  1  0.000000  0.000000  0.500000  1
