# generated using pymatgen
data_Er4Mn3VB16
_symmetry_space_group_name_H-M   'P 1'
_cell_length_a   3.40659800
_cell_length_b   5.90873236
_cell_length_c   11.41953101
_cell_angle_alpha   90.04103192
_cell_angle_beta   90.00000000
_cell_angle_gamma   90.00000000
_symmetry_Int_Tables_number   1
_chemical_formula_structural   Er4Mn3VB16
_chemical_formula_sum   'Er4 Mn3 V1 B16'
_cell_volume   229.85997897
_cell_formula_units_Z   1
loop_
 _symmetry_equiv_pos_site_id
 _symmetry_equiv_pos_as_xyz
  1  'x, y, z'
loop_
 _atom_site_type_symbol
 _atom_site_label
 _atom_site_symmetry_multiplicity
 _atom_site_fract_x
 _atom_site_fract_y
 _atom_site_fract_z
 _atom_site_occupancy
  Er  Er0  1  0.500000  0.373262  0.148900  1
  Er  Er1  1  0.500000  0.626495  0.849976  1
  Er  Er2  1  0.500000  0.124088  0.652049  1
  Er  Er3  1  0.500000  0.874471  0.348500  1
  Mn  Mn4  1  0.500000  0.623925  0.582905  1
  Mn  Mn5  1  0.500000  0.128634  0.915247  1
  Mn  Mn6  1  0.500000  0.871629  0.082214  1
  V  V7  1  0.500000  0.375141  0.418765  1
  B  B8  1  0.000000  0.112536  0.045832  1
  B  B9  1  0.000000  0.887829  0.952716  1
  B  B10  1  0.000000  0.389426  0.549526  1
  B  B11  1  0.000000  0.616671  0.455460  1
  B  B12  1  0.000000  0.134022  0.469129  1
  B  B13  1  0.000000  0.862349  0.534193  1
  B  B14  1  0.000000  0.362518  0.967569  1
  B  B15  1  0.000000  0.637548  0.031577  1
  B  B16  1  0.000000  0.023764  0.190388  1
  B  B17  1  0.000000  0.975097  0.808502  1
  B  B18  1  0.000000  0.477199  0.692585  1
  B  B19  1  0.000000  0.526994  0.307116  1
  B  B20  1  0.000000  0.214391  0.313448  1
  B  B21  1  0.000000  0.780956  0.684177  1
  B  B22  1  0.000000  0.282127  0.816200  1
  B  B23  1  0.000000  0.718928  0.183026  1
