# generated using pymatgen
data_Hf3Fe6Co2P6Ru
_symmetry_space_group_name_H-M   'P 1'
_cell_length_a   11.90600514
_cell_length_b   11.86178083
_cell_length_c   3.65421100
_cell_angle_alpha   90.00000000
_cell_angle_beta   90.00000000
_cell_angle_gamma   119.82732401
_symmetry_Int_Tables_number   1
_chemical_formula_structural   Hf3Fe6Co2P6Ru
_chemical_formula_sum   'Hf6 Fe12 Co4 P12 Ru2'
_cell_volume   447.70635369
_cell_formula_units_Z   2
loop_
 _symmetry_equiv_pos_site_id
 _symmetry_equiv_pos_as_xyz
  1  'x, y, z'
loop_
 _atom_site_type_symbol
 _atom_site_label
 _atom_site_symmetry_multiplicity
 _atom_site_fract_x
 _atom_site_fract_y
 _atom_site_fract_z
 _atom_site_occupancy
  Hf  Hf0  1  0.808471  0.811273  0.500000  1
  Hf  Hf1  1  0.000136  0.176973  0.500000  1
  Hf  Hf2  1  0.336703  0.669638  0.000000  1
  Hf  Hf3  1  0.663905  0.334702  0.000000  1
  Hf  Hf4  1  0.999194  0.560543  0.000000  1
  Hf  Hf5  1  0.190253  0.002656  0.500000  1
  Fe  Fe6  1  0.624860  0.821417  0.000000  1
  Fe  Fe7  1  0.374737  0.196544  0.000000  1
  Fe  Fe8  1  0.003307  0.728060  0.500000  1
  Fe  Fe9  1  0.279333  0.279939  0.500000  1
  Fe  Fe10  1  0.871583  0.350783  0.500000  1
  Fe  Fe11  1  0.720409  0.000431  0.500000  1
  Fe  Fe12  1  0.815249  0.626508  0.000000  1
  Fe  Fe13  1  0.361605  0.877029  0.500000  1
  Fe  Fe14  1  0.128876  0.478816  0.500000  1
  Fe  Fe15  1  0.637040  0.515155  0.500000  1
  Fe  Fe16  1  0.513764  0.642444  0.500000  1
  Fe  Fe17  1  0.485775  0.128048  0.500000  1
  Co  Co18  1  0.186122  0.813080  0.000000  1
  Co  Co19  1  0.000375  0.000783  0.000000  1
  Co  Co20  1  0.192664  0.368346  0.000000  1
  Co  Co21  1  0.807084  0.175538  0.000000  1
  P  P22  1  0.000005  0.349904  0.000000  1
  P  P23  1  0.823359  0.518407  0.500000  1
  P  P24  1  0.685305  0.167357  0.500000  1
  P  P25  1  0.180276  0.175731  0.000000  1
  P  P26  1  0.635662  0.639457  0.000000  1
  P  P27  1  0.819573  0.995061  0.000000  1
  P  P28  1  0.519995  0.832496  0.500000  1
  P  P29  1  0.176653  0.692426  0.500000  1
  P  P30  1  0.365518  0.005733  0.000000  1
  P  P31  1  0.479878  0.312382  0.500000  1
  P  P32  1  0.997807  0.821381  0.000000  1
  P  P33  1  0.315058  0.481820  0.500000  1
  Ru  Ru34  1  0.442691  0.446286  0.000000  1
  Ru  Ru35  1  0.556773  0.002851  0.000000  1
