# generated using pymatgen
data_Er8Lu10ScSi16Tc
_symmetry_space_group_name_H-M   'P 1'
_cell_length_a   7.14478208
_cell_length_b   7.52201693
_cell_length_c   14.17462700
_cell_angle_alpha   90.00000000
_cell_angle_beta   90.00000000
_cell_angle_gamma   90.15312320
_symmetry_Int_Tables_number   1
_chemical_formula_structural   Er8Lu10ScSi16Tc
_chemical_formula_sum   'Er8 Lu10 Sc1 Si16 Tc1'
_cell_volume   761.78669325
_cell_formula_units_Z   1
loop_
 _symmetry_equiv_pos_site_id
 _symmetry_equiv_pos_as_xyz
  1  'x, y, z'
loop_
 _atom_site_type_symbol
 _atom_site_label
 _atom_site_symmetry_multiplicity
 _atom_site_fract_x
 _atom_site_fract_y
 _atom_site_fract_z
 _atom_site_occupancy
  Er  Er0  1  0.017139  0.181143  0.093918  1
  Er  Er1  1  0.989582  0.813656  0.899963  1
  Er  Er2  1  0.482850  0.674913  0.902974  1
  Er  Er3  1  0.989582  0.813656  0.600037  1
  Er  Er4  1  0.515946  0.318178  0.096512  1
  Er  Er5  1  0.017139  0.181143  0.406082  1
  Er  Er6  1  0.515946  0.318178  0.403488  1
  Er  Er7  1  0.482850  0.674913  0.597026  1
  Lu  Lu8  1  0.844153  0.490663  0.250000  1
  Lu  Lu9  1  0.652665  0.985860  0.750000  1
  Lu  Lu10  1  0.321571  0.180996  0.627059  1
  Lu  Lu11  1  0.675987  0.824707  0.374812  1
  Lu  Lu12  1  0.177018  0.675471  0.377628  1
  Lu  Lu13  1  0.675987  0.824707  0.125188  1
  Lu  Lu14  1  0.823139  0.330592  0.628377  1
  Lu  Lu15  1  0.321571  0.180996  0.872941  1
  Lu  Lu16  1  0.823139  0.330592  0.871623  1
  Lu  Lu17  1  0.177018  0.675471  0.122372  1
  Sc  Sc18  1  0.344067  0.010291  0.250000  1
  Si  Si19  1  0.024120  0.105389  0.750000  1
  Si  Si20  1  0.981411  0.898594  0.250000  1
  Si  Si21  1  0.472112  0.606609  0.250000  1
  Si  Si22  1  0.510344  0.409569  0.750000  1
  Si  Si23  1  0.277448  0.849163  0.750000  1
  Si  Si24  1  0.718983  0.132824  0.250000  1
  Si  Si25  1  0.221179  0.362898  0.250000  1
  Si  Si26  1  0.792713  0.632457  0.750000  1
  Si  Si27  1  0.154008  0.472475  0.548472  1
  Si  Si28  1  0.843977  0.532599  0.463612  1
  Si  Si29  1  0.347465  0.969329  0.462276  1
  Si  Si30  1  0.843977  0.532599  0.036388  1
  Si  Si31  1  0.657266  0.032171  0.539385  1
  Si  Si32  1  0.154008  0.472475  0.951528  1
  Si  Si33  1  0.657266  0.032171  0.960615  1
  Si  Si34  1  0.347465  0.969329  0.037724  1
  Tc  Tc35  1  0.148908  0.503227  0.750000  1
