# generated using pymatgen
data_La6Nd7Th3(CdIr)4
_symmetry_space_group_name_H-M   'P 1'
_cell_length_a   10.04137789
_cell_length_b   10.05100222
_cell_length_c   10.03741700
_cell_angle_alpha   60.04470472
_cell_angle_beta   60.01305098
_cell_angle_gamma   60.20297509
_symmetry_Int_Tables_number   1
_chemical_formula_structural   La6Nd7Th3(CdIr)4
_chemical_formula_sum   'La6 Nd7 Th3 Cd4 Ir4'
_cell_volume   717.73044485
_cell_formula_units_Z   1
loop_
 _symmetry_equiv_pos_site_id
 _symmetry_equiv_pos_as_xyz
  1  'x, y, z'
loop_
 _atom_site_type_symbol
 _atom_site_label
 _atom_site_symmetry_multiplicity
 _atom_site_fract_x
 _atom_site_fract_y
 _atom_site_fract_z
 _atom_site_occupancy
  La  La0  1  0.954937  0.349481  0.347791  1
  La  La1  1  0.807008  0.191593  0.193191  1
  La  La2  1  0.191428  0.807344  0.808491  1
  La  La3  1  0.191428  0.807344  0.192736  1
  La  La4  1  0.807008  0.191593  0.808209  1
  La  La5  1  0.192722  0.192228  0.807525  1
  Nd  Nd6  1  0.806149  0.806640  0.193606  1
  Nd  Nd7  1  0.938014  0.563991  0.563677  1
  Nd  Nd8  1  0.562947  0.937503  0.936682  1
  Nd  Nd9  1  0.562947  0.937503  0.562868  1
  Nd  Nd10  1  0.938014  0.563991  0.934318  1
  Nd  Nd11  1  0.562459  0.563111  0.937215  1
  Nd  Nd12  1  0.937989  0.934944  0.563533  1
  Th  Th13  1  0.345284  0.346132  0.346235  1
  Th  Th14  1  0.345284  0.346132  0.962349  1
  Th  Th15  1  0.346879  0.961361  0.345880  1
  Cd  Cd16  1  0.578479  0.581495  0.580096  1
  Cd  Cd17  1  0.578479  0.581495  0.259929  1
  Cd  Cd18  1  0.578021  0.259860  0.581059  1
  Cd  Cd19  1  0.258302  0.580768  0.580464  1
  Ir  Ir20  1  0.150330  0.140787  0.140904  1
  Ir  Ir21  1  0.150330  0.140787  0.567977  1
  Ir  Ir22  1  0.151264  0.568008  0.140363  1
  Ir  Ir23  1  0.564294  0.145906  0.144900  1
