# generated using pymatgen
data_Sr6SmSc(BO3)6
_symmetry_space_group_name_H-M   'P 1'
_cell_length_a   7.84061896
_cell_length_b   7.84061959
_cell_length_c   7.84061961
_cell_angle_alpha   105.20054015
_cell_angle_beta   105.20054912
_cell_angle_gamma   105.20053722
_symmetry_Int_Tables_number   1
_chemical_formula_structural   Sr6SmSc(BO3)6
_chemical_formula_sum   'Sr6 Sm1 Sc1 B6 O18'
_cell_volume   419.56685934
_cell_formula_units_Z   1
loop_
 _symmetry_equiv_pos_site_id
 _symmetry_equiv_pos_as_xyz
  1  'x, y, z'
loop_
 _atom_site_type_symbol
 _atom_site_label
 _atom_site_symmetry_multiplicity
 _atom_site_fract_x
 _atom_site_fract_y
 _atom_site_fract_z
 _atom_site_occupancy
  Sr  Sr0  1  0.647130  0.265628  0.158924  1
  Sr  Sr1  1  0.158924  0.647130  0.265627  1
  Sr  Sr2  1  0.734372  0.841076  0.352870  1
  Sr  Sr3  1  0.265628  0.158924  0.647130  1
  Sr  Sr4  1  0.841076  0.352870  0.734372  1
  Sr  Sr5  1  0.352870  0.734372  0.841076  1
  Sm  Sm6  1  0.000000  0.000000  0.000000  1
  Sc  Sc7  1  0.500000  0.500000  0.500000  1
  B  B8  1  0.297220  0.380809  0.042704  1
  B  B9  1  0.380809  0.042705  0.297220  1
  B  B10  1  0.042705  0.297220  0.380809  1
  B  B11  1  0.957295  0.702780  0.619191  1
  B  B12  1  0.619191  0.957295  0.702780  1
  B  B13  1  0.702780  0.619191  0.957295  1
  O  O14  1  0.723157  0.810207  0.018713  1
  O  O15  1  0.807291  0.547547  0.069600  1
  O  O16  1  0.981287  0.276843  0.189793  1
  O  O17  1  0.452452  0.930399  0.192709  1
  O  O18  1  0.431670  0.498478  0.220702  1
  O  O19  1  0.189793  0.981287  0.276843  1
  O  O20  1  0.498478  0.220702  0.431669  1
  O  O21  1  0.930399  0.192710  0.452452  1
  O  O22  1  0.220702  0.431670  0.498478  1
  O  O23  1  0.779298  0.568330  0.501522  1
  O  O24  1  0.069601  0.807290  0.547548  1
  O  O25  1  0.501522  0.779298  0.568331  1
  O  O26  1  0.810207  0.018713  0.723157  1
  O  O27  1  0.568330  0.501522  0.779298  1
  O  O28  1  0.547548  0.069601  0.807291  1
  O  O29  1  0.018713  0.723157  0.810207  1
  O  O30  1  0.192709  0.452453  0.930400  1
  O  O31  1  0.276843  0.189793  0.981287  1
