# generated using pymatgen
data_Tb9Y(SiHg)4
_symmetry_space_group_name_H-M   'P 1'
_cell_length_a   8.82737271
_cell_length_b   8.82737420
_cell_length_c   7.58939916
_cell_angle_alpha   89.98980485
_cell_angle_beta   89.98980337
_cell_angle_gamma   129.23363013
_symmetry_Int_Tables_number   1
_chemical_formula_structural   Tb9Y(SiHg)4
_chemical_formula_sum   'Tb9 Y1 Si4 Hg4'
_cell_volume   458.07113588
_cell_formula_units_Z   1
loop_
 _symmetry_equiv_pos_site_id
 _symmetry_equiv_pos_as_xyz
  1  'x, y, z'
loop_
 _atom_site_type_symbol
 _atom_site_label
 _atom_site_symmetry_multiplicity
 _atom_site_fract_x
 _atom_site_fract_y
 _atom_site_fract_z
 _atom_site_occupancy
  Tb  Tb0  1  0.055305  0.310201  0.324182  1
  Tb  Tb1  1  0.944695  0.689799  0.675818  1
  Tb  Tb2  1  0.444571  0.189652  0.824301  1
  Tb  Tb3  1  0.810348  0.555429  0.175699  1
  Tb  Tb4  1  0.555429  0.810348  0.175699  1
  Tb  Tb5  1  0.189652  0.444571  0.824301  1
  Tb  Tb6  1  0.689799  0.944695  0.675818  1
  Tb  Tb7  1  0.310201  0.055305  0.324182  1
  Tb  Tb8  1  0.000000  0.000000  0.000000  1
  Y  Y9  1  0.500000  0.500000  0.500000  1
  Si  Si10  1  0.381791  0.381791  0.121598  1
  Si  Si11  1  0.618209  0.618209  0.878402  1
  Si  Si12  1  0.118341  0.118341  0.621500  1
  Si  Si13  1  0.881659  0.881659  0.378500  1
  Hg  Hg14  1  0.781845  0.218155  0.000000  1
  Hg  Hg15  1  0.218155  0.781845  0.000000  1
  Hg  Hg16  1  0.718090  0.281910  0.500000  1
  Hg  Hg17  1  0.281910  0.718090  0.500000  1
