# generated using pymatgen
data_Nd3SnRh3Pb2
_symmetry_space_group_name_H-M   'P 1'
_cell_length_a   7.71590400
_cell_length_b   7.73828035
_cell_length_c   4.07565300
_cell_angle_alpha   90.00000000
_cell_angle_beta   90.00000000
_cell_angle_gamma   119.90438265
_symmetry_Int_Tables_number   1
_chemical_formula_structural   Nd3SnRh3Pb2
_chemical_formula_sum   'Nd3 Sn1 Rh3 Pb2'
_cell_volume   210.94864835
_cell_formula_units_Z   1
loop_
 _symmetry_equiv_pos_site_id
 _symmetry_equiv_pos_as_xyz
  1  'x, y, z'
loop_
 _atom_site_type_symbol
 _atom_site_label
 _atom_site_symmetry_multiplicity
 _atom_site_fract_x
 _atom_site_fract_y
 _atom_site_fract_z
 _atom_site_occupancy
  Nd  Nd0  1  0.003563  0.594215  0.000000  1
  Nd  Nd1  1  0.409348  0.405785  0.000000  1
  Nd  Nd2  1  0.586855  0.000000  0.000000  1
  Sn  Sn3  1  0.256136  0.000000  0.500000  1
  Rh  Rh4  1  0.013089  0.000000  0.000000  1
  Rh  Rh5  1  0.656311  0.325415  0.500000  1
  Rh  Rh6  1  0.330895  0.674585  0.500000  1
  Pb  Pb7  1  0.742967  0.742133  0.500000  1
  Pb  Pb8  1  0.000834  0.257867  0.500000  1
