# generated using pymatgen
data_Y7P12Ir17
_symmetry_space_group_name_H-M   'P 1'
_cell_length_a   12.73492700
_cell_length_b   13.03098754
_cell_length_c   3.99369400
_cell_angle_alpha   90.00000000
_cell_angle_beta   90.00000000
_cell_angle_gamma   119.25123815
_symmetry_Int_Tables_number   1
_chemical_formula_structural   Y7P12Ir17
_chemical_formula_sum   'Y7 P12 Ir17'
_cell_volume   578.23818444
_cell_formula_units_Z   1
loop_
 _symmetry_equiv_pos_site_id
 _symmetry_equiv_pos_as_xyz
  1  'x, y, z'
loop_
 _atom_site_type_symbol
 _atom_site_label
 _atom_site_symmetry_multiplicity
 _atom_site_fract_x
 _atom_site_fract_y
 _atom_site_fract_z
 _atom_site_occupancy
  Y  Y0  1  0.329727  0.662411  0.500000  1
  Y  Y1  1  0.667317  0.337589  0.500000  1
  Y  Y2  1  0.003171  0.817685  0.000000  1
  Y  Y3  1  0.185485  0.182315  0.000000  1
  Y  Y4  1  0.810264  0.000000  0.000000  1
  Y  Y5  1  0.996155  0.444094  0.500000  1
  Y  Y6  1  0.552061  0.555906  0.500000  1
  P  P7  1  0.011218  0.660092  0.500000  1
  P  P8  1  0.351127  0.339908  0.500000  1
  P  P9  1  0.643714  0.000000  0.500000  1
  P  P10  1  0.516658  0.691935  0.000000  1
  P  P11  1  0.309357  0.825186  0.000000  1
  P  P12  1  0.167440  0.479934  0.000000  1
  P  P13  1  0.484171  0.174814  0.000000  1
  P  P14  1  0.687505  0.520066  0.000000  1
  P  P15  1  0.824722  0.308065  0.000000  1
  P  P16  1  0.999124  0.174408  0.500000  1
  P  P17  1  0.824717  0.825592  0.500000  1
  P  P18  1  0.181740  0.000000  0.500000  1
  Ir  Ir19  1  0.504119  0.866407  0.000000  1
  Ir  Ir20  1  0.121676  0.647233  0.000000  1
  Ir  Ir21  1  0.357767  0.502393  0.000000  1
  Ir  Ir22  1  0.474444  0.352767  0.000000  1
  Ir  Ir23  1  0.855376  0.497607  0.000000  1
  Ir  Ir24  1  0.637713  0.133593  0.000000  1
  Ir  Ir25  1  0.465182  0.000000  0.500000  1
  Ir  Ir26  1  0.996298  0.270509  0.000000  1
  Ir  Ir27  1  0.725789  0.729491  0.000000  1
  Ir  Ir28  1  0.287024  0.000000  0.000000  1
  Ir  Ir29  1  0.624034  0.811433  0.500000  1
  Ir  Ir30  1  0.209606  0.829494  0.500000  1
  Ir  Ir31  1  0.181230  0.363336  0.500000  1
  Ir  Ir32  1  0.380112  0.170506  0.500000  1
  Ir  Ir33  1  0.817895  0.636664  0.500000  1
  Ir  Ir34  1  0.812601  0.188567  0.500000  1
  Ir  Ir35  1  0.003461  0.000000  0.500000  1
