# generated using pymatgen
data_La16Cd4Os3Au
_symmetry_space_group_name_H-M   'P 1'
_cell_length_a   10.21807657
_cell_length_b   10.21126527
_cell_length_c   10.13988131
_cell_angle_alpha   59.76852522
_cell_angle_beta   59.74996077
_cell_angle_gamma   59.98279306
_symmetry_Int_Tables_number   1
_chemical_formula_structural   La16Cd4Os3Au
_chemical_formula_sum   'La16 Cd4 Os3 Au1'
_cell_volume   745.28165453
_cell_formula_units_Z   1
loop_
 _symmetry_equiv_pos_site_id
 _symmetry_equiv_pos_as_xyz
  1  'x, y, z'
loop_
 _atom_site_type_symbol
 _atom_site_label
 _atom_site_symmetry_multiplicity
 _atom_site_fract_x
 _atom_site_fract_y
 _atom_site_fract_z
 _atom_site_occupancy
  La  La0  1  0.895669  0.896177  0.912201  1
  La  La1  1  0.438894  0.439092  0.059850  1
  La  La2  1  0.057707  0.057879  0.428800  1
  La  La3  1  0.439234  0.062224  0.059357  1
  La  La4  1  0.308667  0.689794  0.312070  1
  La  La5  1  0.689416  0.689814  0.312149  1
  La  La6  1  0.689913  0.307827  0.312252  1
  La  La7  1  0.295907  0.896202  0.912164  1
  La  La8  1  0.895809  0.296519  0.911932  1
  La  La9  1  0.310084  0.686109  0.693751  1
  La  La10  1  0.905037  0.905643  0.284319  1
  La  La11  1  0.062166  0.439025  0.059866  1
  La  La12  1  0.310024  0.309481  0.694144  1
  La  La13  1  0.057663  0.455699  0.428951  1
  La  La14  1  0.455583  0.057905  0.428799  1
  La  La15  1  0.686348  0.309487  0.694239  1
  Cd  Cd16  1  0.670133  0.670228  0.989506  1
  Cd  Cd17  1  0.988087  0.670965  0.669907  1
  Cd  Cd18  1  0.670849  0.988506  0.669802  1
  Cd  Cd19  1  0.671043  0.670985  0.669912  1
  Os  Os20  1  0.111788  0.111605  0.107436  1
  Os  Os21  1  0.111900  0.668805  0.107361  1
  Os  Os22  1  0.669196  0.111605  0.107449  1
  Au  Au23  1  0.108884  0.108424  0.673776  1
