# generated using pymatgen
data_Sr2Dy2TmSn4
_symmetry_space_group_name_H-M   'P 1'
_cell_length_a   8.05242000
_cell_length_b   8.51327400
_cell_length_c   16.23729300
_cell_angle_alpha   90.00000000
_cell_angle_beta   90.00000000
_cell_angle_gamma   90.00000000
_symmetry_Int_Tables_number   1
_chemical_formula_structural   Sr2Dy2TmSn4
_chemical_formula_sum   'Sr8 Dy8 Tm4 Sn16'
_cell_volume   1113.10634354
_cell_formula_units_Z   4
loop_
 _symmetry_equiv_pos_site_id
 _symmetry_equiv_pos_as_xyz
  1  'x, y, z'
loop_
 _atom_site_type_symbol
 _atom_site_label
 _atom_site_symmetry_multiplicity
 _atom_site_fract_x
 _atom_site_fract_y
 _atom_site_fract_z
 _atom_site_occupancy
  Sr  Sr0  1  0.503277  0.677205  0.593933  1
  Sr  Sr1  1  0.003277  0.822795  0.906067  1
  Sr  Sr2  1  0.496723  0.322795  0.093933  1
  Sr  Sr3  1  0.996723  0.177205  0.406067  1
  Sr  Sr4  1  0.496723  0.322795  0.406067  1
  Sr  Sr5  1  0.996723  0.177205  0.093933  1
  Sr  Sr6  1  0.503277  0.677205  0.906067  1
  Sr  Sr7  1  0.003277  0.822795  0.593933  1
  Dy  Dy8  1  0.675274  0.164329  0.624170  1
  Dy  Dy9  1  0.175274  0.335671  0.875830  1
  Dy  Dy10  1  0.324726  0.835671  0.124170  1
  Dy  Dy11  1  0.824726  0.664329  0.375830  1
  Dy  Dy12  1  0.324726  0.835671  0.375830  1
  Dy  Dy13  1  0.824726  0.664329  0.124170  1
  Dy  Dy14  1  0.675274  0.164329  0.875830  1
  Dy  Dy15  1  0.175274  0.335671  0.624170  1
  Tm  Tm16  1  0.841485  0.505058  0.750000  1
  Tm  Tm17  1  0.341485  0.994942  0.750000  1
  Tm  Tm18  1  0.158515  0.494942  0.250000  1
  Tm  Tm19  1  0.658515  0.005058  0.250000  1
  Sn  Sn20  1  0.662043  0.959122  0.456622  1
  Sn  Sn21  1  0.162043  0.540878  0.043378  1
  Sn  Sn22  1  0.337957  0.040878  0.956622  1
  Sn  Sn23  1  0.837957  0.459122  0.543378  1
  Sn  Sn24  1  0.337957  0.040878  0.543378  1
  Sn  Sn25  1  0.837957  0.459122  0.956622  1
  Sn  Sn26  1  0.662043  0.959122  0.043378  1
  Sn  Sn27  1  0.162043  0.540878  0.456622  1
  Sn  Sn28  1  0.477470  0.365630  0.750000  1
  Sn  Sn29  1  0.977470  0.134370  0.750000  1
  Sn  Sn30  1  0.522530  0.634370  0.250000  1
  Sn  Sn31  1  0.022530  0.865630  0.250000  1
  Sn  Sn32  1  0.709564  0.866101  0.750000  1
  Sn  Sn33  1  0.209564  0.633899  0.750000  1
  Sn  Sn34  1  0.290436  0.133899  0.250000  1
  Sn  Sn35  1  0.790436  0.366101  0.250000  1
