# generated using pymatgen
data_YPa7(Si4Mo3)4
_symmetry_space_group_name_H-M   'P 1'
_cell_length_a   6.77941602
_cell_length_b   6.95782613
_cell_length_c   12.94003300
_cell_angle_alpha   89.98997834
_cell_angle_beta   89.99606163
_cell_angle_gamma   90.00494838
_symmetry_Int_Tables_number   1
_chemical_formula_structural   YPa7(Si4Mo3)4
_chemical_formula_sum   'Y1 Pa7 Si16 Mo12'
_cell_volume   610.38131662
_cell_formula_units_Z   1
loop_
 _symmetry_equiv_pos_site_id
 _symmetry_equiv_pos_as_xyz
  1  'x, y, z'
loop_
 _atom_site_type_symbol
 _atom_site_label
 _atom_site_symmetry_multiplicity
 _atom_site_fract_x
 _atom_site_fract_y
 _atom_site_fract_z
 _atom_site_occupancy
  Y  Y0  1  0.994521  0.166063  0.093171  1
  Pa  Pa1  1  0.491819  0.337076  0.094551  1
  Pa  Pa2  1  0.990711  0.164152  0.406042  1
  Pa  Pa3  1  0.508896  0.663462  0.593940  1
  Pa  Pa4  1  0.008563  0.831744  0.903911  1
  Pa  Pa5  1  0.509764  0.662275  0.906317  1
  Pa  Pa6  1  0.009861  0.836872  0.593984  1
  Pa  Pa7  1  0.490150  0.335946  0.405074  1
  Si  Si8  1  0.658658  0.044909  0.545562  1
  Si  Si9  1  0.157545  0.454180  0.954390  1
  Si  Si10  1  0.341208  0.957279  0.045508  1
  Si  Si11  1  0.839720  0.545328  0.455237  1
  Si  Si12  1  0.342819  0.954549  0.454363  1
  Si  Si13  1  0.842929  0.542655  0.045680  1
  Si  Si14  1  0.660653  0.044114  0.955951  1
  Si  Si15  1  0.158330  0.455260  0.545116  1
  Si  Si16  1  0.537511  0.363032  0.750119  1
  Si  Si17  1  0.038411  0.135544  0.750961  1
  Si  Si18  1  0.460947  0.635790  0.251413  1
  Si  Si19  1  0.962802  0.865370  0.248745  1
  Si  Si20  1  0.804406  0.623795  0.748986  1
  Si  Si21  1  0.305563  0.876106  0.750216  1
  Si  Si22  1  0.192725  0.375411  0.249386  1
  Si  Si23  1  0.696726  0.125740  0.247668  1
  Mo  Mo24  1  0.829480  0.333098  0.623160  1
  Mo  Mo25  1  0.330086  0.165554  0.877797  1
  Mo  Mo26  1  0.169094  0.668913  0.123540  1
  Mo  Mo27  1  0.673912  0.837973  0.376048  1
  Mo  Mo28  1  0.168834  0.665065  0.376872  1
  Mo  Mo29  1  0.665190  0.828824  0.122710  1
  Mo  Mo30  1  0.826554  0.336162  0.875989  1
  Mo  Mo31  1  0.328872  0.165870  0.622570  1
  Mo  Mo32  1  0.671899  0.985626  0.750875  1
  Mo  Mo33  1  0.171807  0.512159  0.750162  1
  Mo  Mo34  1  0.331608  0.012255  0.251782  1
  Mo  Mo35  1  0.827431  0.491849  0.252198  1
