# generated using pymatgen
data_Ce3SmCo16(MoP3)4
_symmetry_space_group_name_H-M   'P 1'
_cell_length_a   3.73281000
_cell_length_b   10.48249913
_cell_length_c   11.94194241
_cell_angle_alpha   90.07296391
_cell_angle_beta   90.00000000
_cell_angle_gamma   90.00000000
_symmetry_Int_Tables_number   1
_chemical_formula_structural   Ce3SmCo16(MoP3)4
_chemical_formula_sum   'Ce3 Sm1 Co16 Mo4 P12'
_cell_volume   467.27800648
_cell_formula_units_Z   1
loop_
 _symmetry_equiv_pos_site_id
 _symmetry_equiv_pos_as_xyz
  1  'x, y, z'
loop_
 _atom_site_type_symbol
 _atom_site_label
 _atom_site_symmetry_multiplicity
 _atom_site_fract_x
 _atom_site_fract_y
 _atom_site_fract_z
 _atom_site_occupancy
  Ce  Ce0  1  0.250000  0.919005  0.203820  1
  Ce  Ce1  1  0.750000  0.418924  0.296188  1
  Ce  Ce2  1  0.750000  0.080893  0.796443  1
  Sm  Sm3  1  0.250000  0.581909  0.704208  1
  Co  Co4  1  0.250000  0.404750  0.485696  1
  Co  Co5  1  0.250000  0.094733  0.986233  1
  Co  Co6  1  0.750000  0.594274  0.510958  1
  Co  Co7  1  0.750000  0.905340  0.013580  1
  Co  Co8  1  0.250000  0.221842  0.174013  1
  Co  Co9  1  0.250000  0.277524  0.673947  1
  Co  Co10  1  0.750000  0.777956  0.825799  1
  Co  Co11  1  0.750000  0.722209  0.325728  1
  Co  Co12  1  0.250000  0.886035  0.702411  1
  Co  Co13  1  0.250000  0.614912  0.202403  1
  Co  Co14  1  0.750000  0.115093  0.297890  1
  Co  Co15  1  0.750000  0.383949  0.798115  1
  Co  Co16  1  0.250000  0.465496  0.932672  1
  Co  Co17  1  0.250000  0.034547  0.432422  1
  Co  Co18  1  0.750000  0.534632  0.067762  1
  Co  Co19  1  0.750000  0.965347  0.568560  1
  Mo  Mo20  1  0.250000  0.705979  0.989631  1
  Mo  Mo21  1  0.250000  0.793755  0.490075  1
  Mo  Mo22  1  0.750000  0.293597  0.010428  1
  Mo  Mo23  1  0.750000  0.206859  0.510936  1
  P  P24  1  0.250000  0.421397  0.112696  1
  P  P25  1  0.250000  0.078863  0.612647  1
  P  P26  1  0.750000  0.577946  0.886734  1
  P  P27  1  0.750000  0.921555  0.387626  1
  P  P28  1  0.250000  0.273783  0.861400  1
  P  P29  1  0.250000  0.226632  0.362036  1
  P  P30  1  0.750000  0.726740  0.138159  1
  P  P31  1  0.750000  0.772057  0.637815  1
  P  P32  1  0.250000  0.600033  0.394067  1
  P  P33  1  0.250000  0.899466  0.893442  1
  P  P34  1  0.750000  0.401730  0.606855  1
  P  P35  1  0.750000  0.100241  0.106602  1
