# generated using pymatgen
data_TcS27
_symmetry_space_group_name_H-M   'P 1'
_cell_length_a   15.10856734
_cell_length_b   15.10189253
_cell_length_c   15.09773065
_cell_angle_alpha   118.57682561
_cell_angle_beta   118.64926619
_cell_angle_gamma   118.74757344
_symmetry_Int_Tables_number   1
_chemical_formula_structural   TcS27
_chemical_formula_sum   'Tc1 S27'
_cell_volume   1030.05559894
_cell_formula_units_Z   1
loop_
 _symmetry_equiv_pos_site_id
 _symmetry_equiv_pos_as_xyz
  1  'x, y, z'
loop_
 _atom_site_type_symbol
 _atom_site_label
 _atom_site_symmetry_multiplicity
 _atom_site_fract_x
 _atom_site_fract_y
 _atom_site_fract_z
 _atom_site_occupancy
  Tc  Tc0  1  0.868050  0.868136  0.868395  1
  S  S1  1  0.800909  0.518395  0.518355  1
  S  S2  1  0.520413  0.520518  0.802600  1
  S  S3  1  0.519191  0.801585  0.519254  1
  S  S4  1  0.248500  0.377863  0.637366  1
  S  S5  1  0.350017  0.948894  0.349722  1
  S  S6  1  0.349572  0.349437  0.948458  1
  S  S7  1  0.949082  0.350122  0.349976  1
  S  S8  1  0.128794  0.740979  0.257963  1
  S  S9  1  0.257516  0.128395  0.740570  1
  S  S10  1  0.740934  0.257923  0.128678  1
  S  S11  1  0.741041  0.128812  0.258102  1
  S  S12  1  0.257724  0.740748  0.128533  1
  S  S13  1  0.128517  0.257596  0.740688  1
  S  S14  1  0.344675  0.876568  0.527235  1
  S  S15  1  0.527469  0.344844  0.876686  1
  S  S16  1  0.876547  0.527161  0.344300  1
  S  S17  1  0.876548  0.344499  0.527168  1
  S  S18  1  0.527296  0.876630  0.344496  1
  S  S19  1  0.344851  0.527449  0.876653  1
  S  S20  1  0.247462  0.636531  0.376964  1
  S  S21  1  0.377870  0.248733  0.637483  1
  S  S22  1  0.636234  0.376373  0.247036  1
  S  S23  1  0.636149  0.246937  0.376426  1
  S  S24  1  0.377002  0.636786  0.247850  1
  S  S25  1  0.871773  0.008063  0.008367  1
  S  S26  1  0.011222  0.011395  0.875429  1
  S  S27  1  0.009942  0.873921  0.010542  1
