# generated using pymatgen
data_Nb3GaNi2N
_symmetry_space_group_name_H-M   'P 1'
_cell_length_a   8.10632269
_cell_length_b   8.10632327
_cell_length_c   8.10632200
_cell_angle_alpha   59.99999703
_cell_angle_beta   59.99999464
_cell_angle_gamma   59.99999646
_symmetry_Int_Tables_number   1
_chemical_formula_structural   Nb3GaNi2N
_chemical_formula_sum   'Nb12 Ga4 Ni8 N4'
_cell_volume   376.66617404
_cell_formula_units_Z   4
loop_
 _symmetry_equiv_pos_site_id
 _symmetry_equiv_pos_as_xyz
  1  'x, y, z'
loop_
 _atom_site_type_symbol
 _atom_site_label
 _atom_site_symmetry_multiplicity
 _atom_site_fract_x
 _atom_site_fract_y
 _atom_site_fract_z
 _atom_site_occupancy
  Nb  Nb0  1  0.806893  0.806893  0.193107  1
  Nb  Nb1  1  0.193107  0.193107  0.806893  1
  Nb  Nb2  1  0.806893  0.193107  0.806893  1
  Nb  Nb3  1  0.193107  0.806893  0.193107  1
  Nb  Nb4  1  0.193107  0.806893  0.806893  1
  Nb  Nb5  1  0.806893  0.193107  0.193107  1
  Nb  Nb6  1  0.443107  0.443107  0.056893  1
  Nb  Nb7  1  0.056893  0.056893  0.443107  1
  Nb  Nb8  1  0.443107  0.056893  0.443107  1
  Nb  Nb9  1  0.056893  0.443107  0.056893  1
  Nb  Nb10  1  0.056893  0.443107  0.443107  1
  Nb  Nb11  1  0.443107  0.056893  0.056893  1
  Ga  Ga12  1  0.125000  0.625000  0.625000  1
  Ga  Ga13  1  0.625000  0.125000  0.625000  1
  Ga  Ga14  1  0.625000  0.625000  0.125000  1
  Ga  Ga15  1  0.625000  0.625000  0.625000  1
  Ni  Ni16  1  0.747192  0.417602  0.417602  1
  Ni  Ni17  1  0.417602  0.747192  0.417602  1
  Ni  Ni18  1  0.417602  0.417602  0.747192  1
  Ni  Ni19  1  0.417602  0.417602  0.417602  1
  Ni  Ni20  1  0.502808  0.832398  0.832398  1
  Ni  Ni21  1  0.832398  0.502808  0.832398  1
  Ni  Ni22  1  0.832398  0.832398  0.502808  1
  Ni  Ni23  1  0.832398  0.832398  0.832398  1
  N  N24  1  0.625000  0.125000  0.125000  1
  N  N25  1  0.125000  0.625000  0.125000  1
  N  N26  1  0.125000  0.125000  0.625000  1
  N  N27  1  0.125000  0.125000  0.125000  1
