# generated using pymatgen
data_Nd3Cd3Hg2Ru
_symmetry_space_group_name_H-M   'P 1'
_cell_length_a   8.19634100
_cell_length_b   8.19634289
_cell_length_c   3.93150500
_cell_angle_alpha   90.00000000
_cell_angle_beta   90.00000000
_cell_angle_gamma   119.99998832
_symmetry_Int_Tables_number   1
_chemical_formula_structural   Nd3Cd3Hg2Ru
_chemical_formula_sum   'Nd3 Cd3 Hg2 Ru1'
_cell_volume   228.73343521
_cell_formula_units_Z   1
loop_
 _symmetry_equiv_pos_site_id
 _symmetry_equiv_pos_as_xyz
  1  'x, y, z'
loop_
 _atom_site_type_symbol
 _atom_site_label
 _atom_site_symmetry_multiplicity
 _atom_site_fract_x
 _atom_site_fract_y
 _atom_site_fract_z
 _atom_site_occupancy
  Nd  Nd0  1  0.610864  0.036994  0.000000  1
  Nd  Nd1  1  0.963006  0.573870  0.000000  1
  Nd  Nd2  1  0.426130  0.389136  0.000000  1
  Cd  Cd3  1  0.274325  0.002560  0.500000  1
  Cd  Cd4  1  0.997440  0.271765  0.500000  1
  Cd  Cd5  1  0.728235  0.725675  0.500000  1
  Hg  Hg6  1  0.333333  0.666667  0.500000  1
  Hg  Hg7  1  0.000000  0.000000  0.000000  1
  Ru  Ru8  1  0.666667  0.333333  0.500000  1
