# generated using pymatgen
data_Ca5PrU2O12
_symmetry_space_group_name_H-M   'P 1'
_cell_length_a   6.84216295
_cell_length_b   6.83020421
_cell_length_c   6.85535300
_cell_angle_alpha   92.00148048
_cell_angle_beta   91.26460840
_cell_angle_gamma   91.64450859
_symmetry_Int_Tables_number   1
_chemical_formula_structural   Ca5PrU2O12
_chemical_formula_sum   'Ca5 Pr1 U2 O12'
_cell_volume   319.96105389
_cell_formula_units_Z   1
loop_
 _symmetry_equiv_pos_site_id
 _symmetry_equiv_pos_as_xyz
  1  'x, y, z'
loop_
 _atom_site_type_symbol
 _atom_site_label
 _atom_site_symmetry_multiplicity
 _atom_site_fract_x
 _atom_site_fract_y
 _atom_site_fract_z
 _atom_site_occupancy
  Ca  Ca0  1  0.748773  0.939964  0.443039  1
  Ca  Ca1  1  0.553999  0.249828  0.063151  1
  Ca  Ca2  1  0.253313  0.057695  0.554804  1
  Ca  Ca3  1  0.063245  0.559710  0.251538  1
  Ca  Ca4  1  0.444780  0.749222  0.939786  1
  Pr  Pr5  1  0.937671  0.441582  0.747690  1
  U  U6  1  0.000888  0.999688  0.004902  1
  U  U7  1  0.497257  0.501556  0.495521  1
  O  O8  1  0.292446  0.063706  0.929725  1
  O  O9  1  0.062750  0.925732  0.296536  1
  O  O10  1  0.921998  0.299918  0.065294  1
  O  O11  1  0.707855  0.935683  0.073261  1
  O  O12  1  0.937961  0.078724  0.707337  1
  O  O13  1  0.080371  0.698572  0.936871  1
  O  O14  1  0.199017  0.407200  0.533598  1
  O  O15  1  0.413546  0.541445  0.203286  1
  O  O16  1  0.456848  0.793538  0.586485  1
  O  O17  1  0.586172  0.457637  0.792707  1
  O  O18  1  0.797869  0.591073  0.461628  1
  O  O19  1  0.543242  0.207526  0.412841  1
