# generated using pymatgen
data_Ba2CaBi2
_symmetry_space_group_name_H-M   'P 1'
_cell_length_a   10.09223711
_cell_length_b   10.09223723
_cell_length_c   8.71463800
_cell_angle_alpha   90.00000000
_cell_angle_beta   90.00000000
_cell_angle_gamma   149.73213210
_symmetry_Int_Tables_number   1
_chemical_formula_structural   Ba2CaBi2
_chemical_formula_sum   'Ba4 Ca2 Bi4'
_cell_volume   447.39603445
_cell_formula_units_Z   2
loop_
 _symmetry_equiv_pos_site_id
 _symmetry_equiv_pos_as_xyz
  1  'x, y, z'
loop_
 _atom_site_type_symbol
 _atom_site_label
 _atom_site_symmetry_multiplicity
 _atom_site_fract_x
 _atom_site_fract_y
 _atom_site_fract_z
 _atom_site_occupancy
  Ba  Ba0  1  0.031969  0.968030  0.232006  1
  Ba  Ba1  1  0.797846  0.202153  0.398746  1
  Ba  Ba2  1  0.968030  0.031969  0.732007  1
  Ba  Ba3  1  0.202153  0.797846  0.898746  1
  Ca  Ca4  1  0.403692  0.596308  0.075204  1
  Ca  Ca5  1  0.596308  0.403692  0.575204  1
  Bi  Bi6  1  0.436197  0.563802  0.442945  1
  Bi  Bi7  1  0.174628  0.825371  0.485450  1
  Bi  Bi8  1  0.563802  0.436197  0.942945  1
  Bi  Bi9  1  0.825371  0.174628  0.985450  1
