# generated using pymatgen
data_TbTm2Ga5Ni
_symmetry_space_group_name_H-M   'P 1'
_cell_length_a   6.82548400
_cell_length_b   6.86789355
_cell_length_c   4.21742900
_cell_angle_alpha   90.00000000
_cell_angle_beta   90.00000000
_cell_angle_gamma   119.79595014
_symmetry_Int_Tables_number   1
_chemical_formula_structural   TbTm2Ga5Ni
_chemical_formula_sum   'Tb1 Tm2 Ga5 Ni1'
_cell_volume   171.56343133
_cell_formula_units_Z   1
loop_
 _symmetry_equiv_pos_site_id
 _symmetry_equiv_pos_as_xyz
  1  'x, y, z'
loop_
 _atom_site_type_symbol
 _atom_site_label
 _atom_site_symmetry_multiplicity
 _atom_site_fract_x
 _atom_site_fract_y
 _atom_site_fract_z
 _atom_site_occupancy
  Tb  Tb0  1  0.592226  0.000000  0.000000  1
  Tm  Tm1  1  0.999238  0.594856  0.000000  1
  Tm  Tm2  1  0.404381  0.405144  0.000000  1
  Ga  Ga3  1  0.235140  0.000000  0.500000  1
  Ga  Ga4  1  0.000985  0.236274  0.500000  1
  Ga  Ga5  1  0.764711  0.763726  0.500000  1
  Ga  Ga6  1  0.331194  0.663264  0.500000  1
  Ga  Ga7  1  0.667931  0.336736  0.500000  1
  Ni  Ni8  1  0.004194  0.000000  0.000000  1
