# generated using pymatgen
data_Pr3NdAl12(GaIr)6
_symmetry_space_group_name_H-M   'P 1'
_cell_length_a   7.60501313
_cell_length_b   7.60920208
_cell_length_c   9.73444000
_cell_angle_alpha   90.00000000
_cell_angle_beta   90.00000000
_cell_angle_gamma   119.64434006
_symmetry_Int_Tables_number   1
_chemical_formula_structural   Pr3NdAl12(GaIr)6
_chemical_formula_sum   'Pr3 Nd1 Al12 Ga6 Ir6'
_cell_volume   489.58264436
_cell_formula_units_Z   1
loop_
 _symmetry_equiv_pos_site_id
 _symmetry_equiv_pos_as_xyz
  1  'x, y, z'
loop_
 _atom_site_type_symbol
 _atom_site_label
 _atom_site_symmetry_multiplicity
 _atom_site_fract_x
 _atom_site_fract_y
 _atom_site_fract_z
 _atom_site_occupancy
  Pr  Pr0  1  0.996635  0.669221  0.250000  1
  Pr  Pr1  1  0.003555  0.330778  0.750000  1
  Pr  Pr2  1  0.669209  0.996631  0.250000  1
  Nd  Nd3  1  0.330780  0.003345  0.750000  1
  Al  Al4  1  0.003397  0.334506  0.071231  1
  Al  Al5  1  0.997062  0.666018  0.928720  1
  Al  Al6  1  0.997062  0.666018  0.571280  1
  Al  Al7  1  0.334493  0.003289  0.429231  1
  Al  Al8  1  0.003397  0.334506  0.428769  1
  Al  Al9  1  0.664977  0.996626  0.571315  1
  Al  Al10  1  0.664977  0.996626  0.928685  1
  Al  Al11  1  0.334493  0.003289  0.070769  1
  Al  Al12  1  0.335140  0.334740  0.549769  1
  Al  Al13  1  0.664919  0.664893  0.450673  1
  Al  Al14  1  0.664919  0.664893  0.049327  1
  Al  Al15  1  0.335140  0.334740  0.950231  1
  Ga  Ga16  1  0.129278  0.129236  0.250000  1
  Ga  Ga17  1  0.871083  0.870592  0.750000  1
  Ga  Ga18  1  0.339028  0.545469  0.250000  1
  Ga  Ga19  1  0.660452  0.454155  0.750000  1
  Ga  Ga20  1  0.545447  0.339040  0.250000  1
  Ga  Ga21  1  0.454737  0.661504  0.750000  1
  Ir  Ir22  1  0.670194  0.329353  0.999859  1
  Ir  Ir23  1  0.329486  0.670518  0.999831  1
  Ir  Ir24  1  0.329486  0.670518  0.500169  1
  Ir  Ir25  1  0.670194  0.329353  0.500141  1
  Ir  Ir26  1  0.000231  0.000073  0.999781  1
  Ir  Ir27  1  0.000231  0.000073  0.500219  1
