# generated using pymatgen
data_Zr3(Zn2Ni)2
_symmetry_space_group_name_H-M   'P 1'
_cell_length_a   7.06791400
_cell_length_b   7.06791207
_cell_length_c   3.37429600
_cell_angle_alpha   90.00000000
_cell_angle_beta   90.00000000
_cell_angle_gamma   119.99999032
_symmetry_Int_Tables_number   1
_chemical_formula_structural   Zr3(Zn2Ni)2
_chemical_formula_sum   'Zr3 Zn4 Ni2'
_cell_volume   145.98097014
_cell_formula_units_Z   1
loop_
 _symmetry_equiv_pos_site_id
 _symmetry_equiv_pos_as_xyz
  1  'x, y, z'
loop_
 _atom_site_type_symbol
 _atom_site_label
 _atom_site_symmetry_multiplicity
 _atom_site_fract_x
 _atom_site_fract_y
 _atom_site_fract_z
 _atom_site_occupancy
  Zr  Zr0  1  0.000000  0.588598  0.500000  1
  Zr  Zr1  1  0.411402  0.411402  0.500000  1
  Zr  Zr2  1  0.588598  0.000000  0.500000  1
  Zn  Zn3  1  0.000000  0.000000  0.500000  1
  Zn  Zn4  1  0.266165  0.000000  0.000000  1
  Zn  Zn5  1  0.733835  0.733835  0.000000  1
  Zn  Zn6  1  0.000000  0.266165  0.000000  1
  Ni  Ni7  1  0.666667  0.333333  0.000000  1
  Ni  Ni8  1  0.333333  0.666667  0.000000  1
