# generated using pymatgen
data_Zr3TiPd2C
_symmetry_space_group_name_H-M   'P 1'
_cell_length_a   8.77248177
_cell_length_b   8.77248253
_cell_length_c   8.77248200
_cell_angle_alpha   60.00000199
_cell_angle_beta   59.99999913
_cell_angle_gamma   59.99999792
_symmetry_Int_Tables_number   1
_chemical_formula_structural   Zr3TiPd2C
_chemical_formula_sum   'Zr12 Ti4 Pd8 C4'
_cell_volume   477.36708542
_cell_formula_units_Z   4
loop_
 _symmetry_equiv_pos_site_id
 _symmetry_equiv_pos_as_xyz
  1  'x, y, z'
loop_
 _atom_site_type_symbol
 _atom_site_label
 _atom_site_symmetry_multiplicity
 _atom_site_fract_x
 _atom_site_fract_y
 _atom_site_fract_z
 _atom_site_occupancy
  Zr  Zr0  1  0.813741  0.813741  0.186259  1
  Zr  Zr1  1  0.186259  0.186259  0.813741  1
  Zr  Zr2  1  0.813741  0.186259  0.813741  1
  Zr  Zr3  1  0.186259  0.813741  0.186259  1
  Zr  Zr4  1  0.186259  0.813741  0.813741  1
  Zr  Zr5  1  0.813741  0.186259  0.186259  1
  Zr  Zr6  1  0.436259  0.436259  0.063741  1
  Zr  Zr7  1  0.063741  0.063741  0.436259  1
  Zr  Zr8  1  0.436259  0.063741  0.436259  1
  Zr  Zr9  1  0.063741  0.436259  0.063741  1
  Zr  Zr10  1  0.063741  0.436259  0.436259  1
  Zr  Zr11  1  0.436259  0.063741  0.063741  1
  Ti  Ti12  1  0.125000  0.625000  0.625000  1
  Ti  Ti13  1  0.625000  0.125000  0.625000  1
  Ti  Ti14  1  0.625000  0.625000  0.125000  1
  Ti  Ti15  1  0.625000  0.625000  0.625000  1
  Pd  Pd16  1  0.750754  0.416415  0.416415  1
  Pd  Pd17  1  0.416415  0.750754  0.416415  1
  Pd  Pd18  1  0.416415  0.416415  0.750754  1
  Pd  Pd19  1  0.416415  0.416415  0.416415  1
  Pd  Pd20  1  0.499246  0.833585  0.833585  1
  Pd  Pd21  1  0.833585  0.499246  0.833585  1
  Pd  Pd22  1  0.833585  0.833585  0.499246  1
  Pd  Pd23  1  0.833585  0.833585  0.833585  1
  C  C24  1  0.625000  0.125000  0.125000  1
  C  C25  1  0.125000  0.625000  0.125000  1
  C  C26  1  0.125000  0.125000  0.625000  1
  C  C27  1  0.125000  0.125000  0.125000  1
