# generated using pymatgen
data_Ce8Hf11Si16W
_symmetry_space_group_name_H-M   'P 1'
_cell_length_a   7.30711999
_cell_length_b   7.30712081
_cell_length_c   13.43794768
_cell_angle_alpha   89.85097751
_cell_angle_beta   90.14902358
_cell_angle_gamma   90.12449161
_symmetry_Int_Tables_number   1
_chemical_formula_structural   Ce8Hf11Si16W
_chemical_formula_sum   'Ce8 Hf11 Si16 W1'
_cell_volume   717.49935633
_cell_formula_units_Z   1
loop_
 _symmetry_equiv_pos_site_id
 _symmetry_equiv_pos_as_xyz
  1  'x, y, z'
loop_
 _atom_site_type_symbol
 _atom_site_label
 _atom_site_symmetry_multiplicity
 _atom_site_fract_x
 _atom_site_fract_y
 _atom_site_fract_z
 _atom_site_occupancy
  Ce  Ce0  1  0.996594  0.340323  0.213376  1
  Ce  Ce1  1  0.007097  0.658442  0.716423  1
  Ce  Ce2  1  0.159132  0.493010  0.465020  1
  Ce  Ce3  1  0.503959  0.842920  0.034923  1
  Ce  Ce4  1  0.842920  0.503959  0.965077  1
  Ce  Ce5  1  0.493010  0.159132  0.534980  1
  Ce  Ce6  1  0.340323  0.996594  0.786624  1
  Ce  Ce7  1  0.658442  0.007097  0.283577  1
  Hf  Hf8  1  0.826357  0.826357  0.500000  1
  Hf  Hf9  1  0.325418  0.673898  0.248634  1
  Hf  Hf10  1  0.673898  0.325418  0.751366  1
  Hf  Hf11  1  0.151051  0.997932  0.373357  1
  Hf  Hf12  1  0.850455  0.002982  0.877691  1
  Hf  Hf13  1  0.502090  0.651799  0.624862  1
  Hf  Hf14  1  0.348065  0.495049  0.878351  1
  Hf  Hf15  1  0.495049  0.348065  0.121649  1
  Hf  Hf16  1  0.651799  0.502090  0.375138  1
  Hf  Hf17  1  0.997932  0.151051  0.626643  1
  Hf  Hf18  1  0.002982  0.850455  0.122309  1
  Si  Si19  1  0.363726  0.297008  0.313911  1
  Si  Si20  1  0.635969  0.703245  0.815091  1
  Si  Si21  1  0.203348  0.863463  0.564914  1
  Si  Si22  1  0.137297  0.799454  0.934690  1
  Si  Si23  1  0.799454  0.137297  0.065310  1
  Si  Si24  1  0.863463  0.203348  0.435086  1
  Si  Si25  1  0.297008  0.363726  0.686089  1
  Si  Si26  1  0.703245  0.635969  0.184909  1
  Si  Si27  1  0.292249  0.050498  0.181705  1
  Si  Si28  1  0.705216  0.952302  0.685739  1
  Si  Si29  1  0.452418  0.794335  0.434533  1
  Si  Si30  1  0.204805  0.544607  0.064530  1
  Si  Si31  1  0.544607  0.204805  0.935470  1
  Si  Si32  1  0.794335  0.452418  0.565467  1
  Si  Si33  1  0.050498  0.292249  0.818295  1
  Si  Si34  1  0.952302  0.705216  0.314261  1
  W  W35  1  0.173485  0.173485  0.000000  1
