# generated using pymatgen
data_Dy4Zn8Cd3Ga
_symmetry_space_group_name_H-M   'P 1'
_cell_length_a   4.43459700
_cell_length_b   7.12827509
_cell_length_c   10.05603432
_cell_angle_alpha   89.73540256
_cell_angle_beta   90.00000000
_cell_angle_gamma   90.00000000
_symmetry_Int_Tables_number   1
_chemical_formula_structural   Dy4Zn8Cd3Ga
_chemical_formula_sum   'Dy4 Zn8 Cd3 Ga1'
_cell_volume   317.87818592
_cell_formula_units_Z   1
loop_
 _symmetry_equiv_pos_site_id
 _symmetry_equiv_pos_as_xyz
  1  'x, y, z'
loop_
 _atom_site_type_symbol
 _atom_site_label
 _atom_site_symmetry_multiplicity
 _atom_site_fract_x
 _atom_site_fract_y
 _atom_site_fract_z
 _atom_site_occupancy
  Dy  Dy0  1  0.250000  0.301153  0.672669  1
  Dy  Dy1  1  0.750000  0.698570  0.330368  1
  Dy  Dy2  1  0.250000  0.806055  0.823262  1
  Dy  Dy3  1  0.750000  0.197053  0.172863  1
  Zn  Zn4  1  0.750000  0.970311  0.601067  1
  Zn  Zn5  1  0.750000  0.298160  0.466064  1
  Zn  Zn6  1  0.750000  0.811848  0.037404  1
  Zn  Zn7  1  0.250000  0.186635  0.961858  1
  Zn  Zn8  1  0.750000  0.592915  0.645279  1
  Zn  Zn9  1  0.250000  0.412352  0.354313  1
  Zn  Zn10  1  0.750000  0.085710  0.846621  1
  Zn  Zn11  1  0.250000  0.914113  0.146368  1
  Cd  Cd12  1  0.250000  0.532122  0.097800  1
  Cd  Cd13  1  0.750000  0.467341  0.901058  1
  Cd  Cd14  1  0.250000  0.033207  0.406494  1
  Ga  Ga15  1  0.250000  0.692456  0.536511  1
