# generated using pymatgen
data_Y8LuZr(In2Rh)4
_symmetry_space_group_name_H-M   'P 1'
_cell_length_a   3.63295300
_cell_length_b   8.01427748
_cell_length_c   18.20567900
_cell_angle_alpha   89.94610383
_cell_angle_beta   90.00000000
_cell_angle_gamma   90.00000000
_symmetry_Int_Tables_number   1
_chemical_formula_structural   Y8LuZr(In2Rh)4
_chemical_formula_sum   'Y8 Lu1 Zr1 In8 Rh4'
_cell_volume   530.06709243
_cell_formula_units_Z   1
loop_
 _symmetry_equiv_pos_site_id
 _symmetry_equiv_pos_as_xyz
  1  'x, y, z'
loop_
 _atom_site_type_symbol
 _atom_site_label
 _atom_site_symmetry_multiplicity
 _atom_site_fract_x
 _atom_site_fract_y
 _atom_site_fract_z
 _atom_site_occupancy
  Y  Y0  1  0.000000  0.751705  0.782313  1
  Y  Y1  1  0.000000  0.622192  0.588992  1
  Y  Y2  1  0.000000  0.253226  0.723252  1
  Y  Y3  1  0.000000  0.378602  0.411218  1
  Y  Y4  1  0.000000  0.250866  0.216654  1
  Y  Y5  1  0.000000  0.000302  0.499362  1
  Y  Y6  1  0.000000  0.745564  0.278315  1
  Y  Y7  1  0.000000  0.499424  0.001751  1
  Lu  Lu8  1  0.000000  0.121181  0.911507  1
  Zr  Zr9  1  0.000000  0.878710  0.088929  1
  In  In10  1  0.500000  0.805001  0.938955  1
  In  In11  1  0.500000  0.577140  0.148893  1
  In  In12  1  0.500000  0.433886  0.852529  1
  In  In13  1  0.500000  0.066484  0.345734  1
  In  In14  1  0.500000  0.296111  0.569004  1
  In  In15  1  0.500000  0.935372  0.651894  1
  In  In16  1  0.500000  0.703895  0.431234  1
  In  In17  1  0.500000  0.191795  0.063380  1
  Rh  Rh18  1  0.500000  0.528914  0.696974  1
  Rh  Rh19  1  0.500000  0.469103  0.302731  1
  Rh  Rh20  1  0.500000  0.029490  0.808739  1
  Rh  Rh21  1  0.500000  0.961038  0.187642  1
