# generated using pymatgen
data_MgCuIO6
_symmetry_space_group_name_H-M   'P 1'
_cell_length_a   5.02313100
_cell_length_b   5.02312984
_cell_length_c   4.78387200
_cell_angle_alpha   90.00000000
_cell_angle_beta   90.00000000
_cell_angle_gamma   120.00000106
_symmetry_Int_Tables_number   1
_chemical_formula_structural   MgCuIO6
_chemical_formula_sum   'Mg1 Cu1 I1 O6'
_cell_volume   104.53436523
_cell_formula_units_Z   1
loop_
 _symmetry_equiv_pos_site_id
 _symmetry_equiv_pos_as_xyz
  1  'x, y, z'
loop_
 _atom_site_type_symbol
 _atom_site_label
 _atom_site_symmetry_multiplicity
 _atom_site_fract_x
 _atom_site_fract_y
 _atom_site_fract_z
 _atom_site_occupancy
  Mg  Mg0  1  0.000000  0.000000  0.000000  1
  Cu  Cu1  1  0.333333  0.666667  0.500000  1
  I  I2  1  0.666667  0.333333  0.500000  1
  O  O3  1  0.361626  0.014391  0.726708  1
  O  O4  1  0.985609  0.347234  0.726708  1
  O  O5  1  0.652766  0.638374  0.726708  1
  O  O6  1  0.985609  0.638374  0.273292  1
  O  O7  1  0.652766  0.014391  0.273292  1
  O  O8  1  0.361626  0.347234  0.273292  1
