# generated using pymatgen
data_Sc4CrI4
_symmetry_space_group_name_H-M   'P 1'
_cell_length_a   11.17651350
_cell_length_b   11.17651202
_cell_length_c   5.43416000
_cell_angle_alpha   90.22147838
_cell_angle_beta   90.22147322
_cell_angle_gamma   90.06103502
_symmetry_Int_Tables_number   1
_chemical_formula_structural   Sc4CrI4
_chemical_formula_sum   'Sc8 Cr2 I8'
_cell_volume   678.79450086
_cell_formula_units_Z   2
loop_
 _symmetry_equiv_pos_site_id
 _symmetry_equiv_pos_as_xyz
  1  'x, y, z'
loop_
 _atom_site_type_symbol
 _atom_site_label
 _atom_site_symmetry_multiplicity
 _atom_site_fract_x
 _atom_site_fract_y
 _atom_site_fract_z
 _atom_site_occupancy
  Sc  Sc0  1  0.190912  0.920974  0.000828  1
  Sc  Sc1  1  0.809088  0.079026  0.999172  1
  Sc  Sc2  1  0.079026  0.809088  0.499172  1
  Sc  Sc3  1  0.920974  0.190912  0.500828  1
  Sc  Sc4  1  0.809019  0.920836  0.497777  1
  Sc  Sc5  1  0.190981  0.079164  0.502223  1
  Sc  Sc6  1  0.079164  0.190981  0.002223  1
  Sc  Sc7  1  0.920836  0.809019  0.997777  1
  Cr  Cr8  1  0.999928  0.000072  0.250000  1
  Cr  Cr9  1  0.000072  0.999928  0.750000  1
  I  I10  1  0.345543  0.857016  0.501828  1
  I  I11  1  0.654457  0.142984  0.498172  1
  I  I12  1  0.142984  0.654457  0.998172  1
  I  I13  1  0.857016  0.345543  0.001828  1
  I  I14  1  0.345426  0.143519  0.004277  1
  I  I15  1  0.654574  0.856481  0.995723  1
  I  I16  1  0.856481  0.654574  0.495723  1
  I  I17  1  0.143519  0.345426  0.504277  1
