# generated using pymatgen
data_Ce6Co3Si4Tc
_symmetry_space_group_name_H-M   'P 1'
_cell_length_a   5.52892800
_cell_length_b   7.94940470
_cell_length_c   12.43889500
_cell_angle_alpha   89.87907874
_cell_angle_beta   90.00000000
_cell_angle_gamma   90.00000000
_symmetry_Int_Tables_number   1
_chemical_formula_structural   Ce6Co3Si4Tc
_chemical_formula_sum   'Ce12 Co6 Si8 Tc2'
_cell_volume   546.70919278
_cell_formula_units_Z   2
loop_
 _symmetry_equiv_pos_site_id
 _symmetry_equiv_pos_as_xyz
  1  'x, y, z'
loop_
 _atom_site_type_symbol
 _atom_site_label
 _atom_site_symmetry_multiplicity
 _atom_site_fract_x
 _atom_site_fract_y
 _atom_site_fract_z
 _atom_site_occupancy
  Ce  Ce0  1  0.346632  0.746937  0.751179  1
  Ce  Ce1  1  0.346632  0.753063  0.248821  1
  Ce  Ce2  1  0.648812  0.245377  0.751701  1
  Ce  Ce3  1  0.648812  0.254623  0.248299  1
  Ce  Ce4  1  0.164939  0.396738  0.400407  1
  Ce  Ce5  1  0.164939  0.103262  0.599593  1
  Ce  Ce6  1  0.832523  0.900048  0.088415  1
  Ce  Ce7  1  0.832523  0.599952  0.911585  1
  Ce  Ce8  1  0.848419  0.598625  0.596014  1
  Ce  Ce9  1  0.848419  0.901375  0.403986  1
  Ce  Ce10  1  0.155366  0.096581  0.912829  1
  Ce  Ce11  1  0.155366  0.403419  0.087171  1
  Co  Co12  1  0.617283  0.544238  0.087651  1
  Co  Co13  1  0.617283  0.955762  0.912349  1
  Co  Co14  1  0.375693  0.041442  0.081794  1
  Co  Co15  1  0.375693  0.458558  0.918206  1
  Co  Co16  1  0.631851  0.539872  0.407579  1
  Co  Co17  1  0.631851  0.960128  0.592421  1
  Si  Si18  1  0.655557  0.250000  0.500000  1
  Si  Si19  1  0.350149  0.750000  0.000000  1
  Si  Si20  1  0.365974  0.750000  0.500000  1
  Si  Si21  1  0.642992  0.250000  0.000000  1
  Si  Si22  1  0.843334  0.895237  0.754104  1
  Si  Si23  1  0.843334  0.604763  0.245896  1
  Si  Si24  1  0.149454  0.394966  0.762664  1
  Si  Si25  1  0.149454  0.105034  0.237336  1
  Tc  Tc26  1  0.378358  0.036118  0.408145  1
  Tc  Tc27  1  0.378358  0.463882  0.591855  1
