# generated using pymatgen
data_PrIn2Co2Ir7
_symmetry_space_group_name_H-M   'P 1'
_cell_length_a   8.79302898
_cell_length_b   8.79302898
_cell_length_c   5.11123800
_cell_angle_alpha   90.00000000
_cell_angle_beta   90.00000000
_cell_angle_gamma   90.30905643
_symmetry_Int_Tables_number   1
_chemical_formula_structural   PrIn2Co2Ir7
_chemical_formula_sum   'Pr2 In4 Co4 Ir14'
_cell_volume   395.18167242
_cell_formula_units_Z   2
loop_
 _symmetry_equiv_pos_site_id
 _symmetry_equiv_pos_as_xyz
  1  'x, y, z'
loop_
 _atom_site_type_symbol
 _atom_site_label
 _atom_site_symmetry_multiplicity
 _atom_site_fract_x
 _atom_site_fract_y
 _atom_site_fract_z
 _atom_site_occupancy
  Pr  Pr0  1  0.500000  0.500000  0.999095  1
  Pr  Pr1  1  0.000000  0.000000  0.999095  1
  In  In2  1  0.129114  0.629114  0.994231  1
  In  In3  1  0.870886  0.370886  0.994231  1
  In  In4  1  0.379958  0.120042  0.989201  1
  In  In5  1  0.620042  0.879958  0.989201  1
  Co  Co6  1  0.000000  0.500000  0.499452  1
  Co  Co7  1  0.500000  0.000000  0.511664  1
  Co  Co8  1  0.326518  0.826518  0.748563  1
  Co  Co9  1  0.673482  0.173482  0.748563  1
  Ir  Ir10  1  0.563462  0.711915  0.503017  1
  Ir  Ir11  1  0.436538  0.288085  0.503017  1
  Ir  Ir12  1  0.932365  0.209040  0.503268  1
  Ir  Ir13  1  0.067635  0.790960  0.503268  1
  Ir  Ir14  1  0.709040  0.432365  0.503268  1
  Ir  Ir15  1  0.290960  0.567635  0.503268  1
  Ir  Ir16  1  0.211915  0.063462  0.503017  1
  Ir  Ir17  1  0.788085  0.936538  0.503017  1
  Ir  Ir18  1  0.172002  0.327998  0.761147  1
  Ir  Ir19  1  0.827998  0.672002  0.761147  1
  Ir  Ir20  1  0.669693  0.169693  0.243176  1
  Ir  Ir21  1  0.330307  0.830307  0.243176  1
  Ir  Ir22  1  0.826450  0.673550  0.246457  1
  Ir  Ir23  1  0.173550  0.326450  0.246457  1
