# generated using pymatgen
data_Sc3U(Al3Ir)6
_symmetry_space_group_name_H-M   'P 1'
_cell_length_a   7.51591355
_cell_length_b   7.51026836
_cell_length_c   9.29704700
_cell_angle_alpha   90.00000000
_cell_angle_beta   90.00000000
_cell_angle_gamma   119.70144769
_symmetry_Int_Tables_number   1
_chemical_formula_structural   Sc3U(Al3Ir)6
_chemical_formula_sum   'Sc3 U1 Al18 Ir6'
_cell_volume   455.83910702
_cell_formula_units_Z   1
loop_
 _symmetry_equiv_pos_site_id
 _symmetry_equiv_pos_as_xyz
  1  'x, y, z'
loop_
 _atom_site_type_symbol
 _atom_site_label
 _atom_site_symmetry_multiplicity
 _atom_site_fract_x
 _atom_site_fract_y
 _atom_site_fract_z
 _atom_site_occupancy
  Sc  Sc0  1  0.005249  0.328332  0.750000  1
  Sc  Sc1  1  0.672035  0.994630  0.250000  1
  Sc  Sc2  1  0.329228  0.004687  0.750000  1
  U  U3  1  0.997683  0.673247  0.250000  1
  Al  Al4  1  0.130713  0.131014  0.250000  1
  Al  Al5  1  0.876914  0.879286  0.750000  1
  Al  Al6  1  0.997783  0.330115  0.074735  1
  Al  Al7  1  0.001928  0.664522  0.916905  1
  Al  Al8  1  0.001928  0.664522  0.583095  1
  Al  Al9  1  0.340776  0.003303  0.424965  1
  Al  Al10  1  0.997783  0.330115  0.425265  1
  Al  Al11  1  0.665210  0.002855  0.578419  1
  Al  Al12  1  0.665210  0.002855  0.921581  1
  Al  Al13  1  0.340776  0.003303  0.075035  1
  Al  Al14  1  0.329618  0.329885  0.561088  1
  Al  Al15  1  0.663423  0.667945  0.446314  1
  Al  Al16  1  0.663423  0.667945  0.053686  1
  Al  Al17  1  0.329618  0.329885  0.938912  1
  Al  Al18  1  0.341117  0.549594  0.250000  1
  Al  Al19  1  0.658043  0.444057  0.750000  1
  Al  Al20  1  0.547677  0.340763  0.250000  1
  Al  Al21  1  0.446166  0.660331  0.750000  1
  Ir  Ir22  1  0.673888  0.329885  0.001865  1
  Ir  Ir23  1  0.325389  0.671895  0.001888  1
  Ir  Ir24  1  0.325389  0.671895  0.498112  1
  Ir  Ir25  1  0.673888  0.329885  0.498135  1
  Ir  Ir26  1  0.999572  0.996624  0.003048  1
  Ir  Ir27  1  0.999572  0.996624  0.496952  1
