# generated using pymatgen
data_Y2HoTh(Al8Pd3)3
_symmetry_space_group_name_H-M   'P 1'
_cell_length_a   7.58260440
_cell_length_b   7.60796337
_cell_length_c   13.20547406
_cell_angle_alpha   84.51198970
_cell_angle_beta   78.99577078
_cell_angle_gamma   59.94840420
_symmetry_Int_Tables_number   1
_chemical_formula_structural   Y2HoTh(Al8Pd3)3
_chemical_formula_sum   'Y2 Ho1 Th1 Al24 Pd9'
_cell_volume   647.27040806
_cell_formula_units_Z   1
loop_
 _symmetry_equiv_pos_site_id
 _symmetry_equiv_pos_as_xyz
  1  'x, y, z'
loop_
 _atom_site_type_symbol
 _atom_site_label
 _atom_site_symmetry_multiplicity
 _atom_site_fract_x
 _atom_site_fract_y
 _atom_site_fract_z
 _atom_site_occupancy
  Y  Y0  1  0.606249  0.831130  0.192619  1
  Y  Y1  1  0.733241  0.498610  0.808197  1
  Ho  Ho2  1  0.266012  0.502014  0.192826  1
  Th  Th3  1  0.393550  0.168098  0.807963  1
  Al  Al4  1  0.687032  0.830659  0.947253  1
  Al  Al5  1  0.314743  0.166538  0.058551  1
  Al  Al6  1  0.146287  0.833562  0.560261  1
  Al  Al7  1  0.855074  0.166401  0.437265  1
  Al  Al8  1  0.480289  0.166663  0.557091  1
  Al  Al9  1  0.520834  0.832425  0.439926  1
  Al  Al10  1  0.217702  0.165552  0.329258  1
  Al  Al11  1  0.787295  0.831289  0.667060  1
  Al  Al12  1  0.437348  0.510544  0.667642  1
  Al  Al13  1  0.563393  0.493231  0.328933  1
  Al  Al14  1  0.106758  0.159380  0.665977  1
  Al  Al15  1  0.891170  0.840105  0.330244  1
  Al  Al16  1  0.351339  0.502975  0.947480  1
  Al  Al17  1  0.646204  0.501046  0.056436  1
  Al  Al18  1  0.011610  0.167137  0.957920  1
  Al  Al19  1  0.984163  0.831875  0.047855  1
  Al  Al20  1  0.186516  0.500462  0.439904  1
  Al  Al21  1  0.813294  0.500193  0.558732  1
  Al  Al22  1  0.733177  0.164266  0.183883  1
  Al  Al23  1  0.265537  0.832876  0.816276  1
  Al  Al24  1  0.059051  0.634293  0.814927  1
  Al  Al25  1  0.937734  0.369878  0.185607  1
  Al  Al26  1  0.859084  0.040904  0.816323  1
  Al  Al27  1  0.144365  0.957553  0.184501  1
  Pd  Pd28  1  0.120688  0.492049  0.637875  1
  Pd  Pd29  1  0.880602  0.507377  0.361700  1
  Pd  Pd30  1  0.656585  0.171559  0.000014  1
  Pd  Pd31  1  0.342809  0.829174  0.000371  1
  Pd  Pd32  1  0.538038  0.166923  0.361500  1
  Pd  Pd33  1  0.461793  0.833820  0.637817  1
  Pd  Pd34  1  0.777996  0.174684  0.637491  1
  Pd  Pd35  1  0.221845  0.825188  0.362079  1
  Pd  Pd36  1  0.000593  0.499564  0.000244  1
