# generated using pymatgen
data_DyEr5Al24(Os3Ru)2
_symmetry_space_group_name_H-M   'P 1'
_cell_length_a   8.79980612
_cell_length_b   8.80234578
_cell_length_c   9.53126800
_cell_angle_alpha   90.00000000
_cell_angle_beta   90.00000000
_cell_angle_gamma   120.00955249
_symmetry_Int_Tables_number   1
_chemical_formula_structural   DyEr5Al24(Os3Ru)2
_chemical_formula_sum   'Dy1 Er5 Al24 Os6 Ru2'
_cell_volume   639.30931126
_cell_formula_units_Z   1
loop_
 _symmetry_equiv_pos_site_id
 _symmetry_equiv_pos_as_xyz
  1  'x, y, z'
loop_
 _atom_site_type_symbol
 _atom_site_label
 _atom_site_symmetry_multiplicity
 _atom_site_fract_x
 _atom_site_fract_y
 _atom_site_fract_z
 _atom_site_occupancy
  Dy  Dy0  1  0.386761  0.193381  0.750000  1
  Er  Er1  1  0.193430  0.806544  0.250000  1
  Er  Er2  1  0.193430  0.386887  0.250000  1
  Er  Er3  1  0.613133  0.806566  0.250000  1
  Er  Er4  1  0.806570  0.193477  0.750000  1
  Er  Er5  1  0.806570  0.613093  0.750000  1
  Al  Al6  1  0.560688  0.439328  0.250000  1
  Al  Al7  1  0.560688  0.121361  0.250000  1
  Al  Al8  1  0.878617  0.439309  0.250000  1
  Al  Al9  1  0.439323  0.560865  0.750000  1
  Al  Al10  1  0.439323  0.878457  0.750000  1
  Al  Al11  1  0.121361  0.560680  0.750000  1
  Al  Al12  1  0.324041  0.162021  0.423437  1
  Al  Al13  1  0.837977  0.162029  0.423521  1
  Al  Al14  1  0.837977  0.675949  0.423521  1
  Al  Al15  1  0.675910  0.837955  0.576451  1
  Al  Al16  1  0.161966  0.837871  0.576439  1
  Al  Al17  1  0.161966  0.324094  0.576439  1
  Al  Al18  1  0.675910  0.837955  0.923549  1
  Al  Al19  1  0.161966  0.837871  0.923561  1
  Al  Al20  1  0.161966  0.324094  0.923561  1
  Al  Al21  1  0.324041  0.162021  0.076563  1
  Al  Al22  1  0.837977  0.162029  0.076479  1
  Al  Al23  1  0.837977  0.675949  0.076479  1
  Al  Al24  1  0.666779  0.333389  0.515833  1
  Al  Al25  1  0.333337  0.666669  0.484132  1
  Al  Al26  1  0.333337  0.666669  0.015868  1
  Al  Al27  1  0.666779  0.333389  0.984167  1
  Al  Al28  1  0.999995  0.999998  0.250000  1
  Al  Al29  1  0.999846  0.999923  0.750000  1
  Os  Os30  1  0.500057  0.500146  0.499891  1
  Os  Os31  1  0.500057  0.999911  0.499891  1
  Os  Os32  1  0.000072  0.500036  0.499952  1
  Os  Os33  1  0.500057  0.500146  0.000109  1
  Os  Os34  1  0.500057  0.999911  0.000109  1
  Os  Os35  1  0.000072  0.500036  0.000048  1
  Ru  Ru36  1  0.999996  0.999998  0.499969  1
  Ru  Ru37  1  0.999996  0.999998  0.000031  1
