# generated using pymatgen
data_CuRh3(SO4)6
_symmetry_space_group_name_H-M   'P 1'
_cell_length_a   8.32209006
_cell_length_b   8.32209180
_cell_length_c   8.93828500
_cell_angle_alpha   117.74456394
_cell_angle_beta   62.25542975
_cell_angle_gamma   120.00000068
_symmetry_Int_Tables_number   1
_chemical_formula_structural   CuRh3(SO4)6
_chemical_formula_sum   'Cu1 Rh3 S6 O24'
_cell_volume   452.06123805
_cell_formula_units_Z   1
loop_
 _symmetry_equiv_pos_site_id
 _symmetry_equiv_pos_as_xyz
  1  'x, y, z'
loop_
 _atom_site_type_symbol
 _atom_site_label
 _atom_site_symmetry_multiplicity
 _atom_site_fract_x
 _atom_site_fract_y
 _atom_site_fract_z
 _atom_site_occupancy
  Cu  Cu0  1  0.356745  0.643254  0.929764  1
  Rh  Rh1  1  0.645285  0.354714  0.064144  1
  Rh  Rh2  1  0.846231  0.153769  0.461307  1
  Rh  Rh3  1  0.153597  0.846403  0.539209  1
  S  S4  1  0.250788  0.459636  0.250215  1
  S  S5  1  0.540364  0.041368  0.250215  1
  S  S6  1  0.958632  0.749212  0.250215  1
  S  S7  1  0.045165  0.250181  0.747119  1
  S  S8  1  0.457898  0.954836  0.747119  1
  S  S9  1  0.749819  0.542103  0.747119  1
  O  O10  1  0.106592  0.705161  0.081665  1
  O  O11  1  0.294838  0.483097  0.081665  1
  O  O12  1  0.516903  0.893408  0.081665  1
  O  O13  1  0.376040  0.367130  0.233994  1
  O  O14  1  0.632870  0.242905  0.233994  1
  O  O15  1  0.757095  0.623959  0.233994  1
  O  O16  1  0.041574  0.330245  0.299443  1
  O  O17  1  0.669754  0.010770  0.299443  1
  O  O18  1  0.989230  0.958427  0.299443  1
  O  O19  1  0.292848  0.651765  0.395682  1
  O  O20  1  0.348236  0.036767  0.395682  1
  O  O21  1  0.963233  0.707150  0.395682  1
  O  O22  1  0.030343  0.293567  0.608016  1
  O  O23  1  0.655208  0.969657  0.608016  1
  O  O24  1  0.706435  0.344792  0.608016  1
  O  O25  1  0.004019  0.038878  0.702096  1
  O  O26  1  0.332764  0.995981  0.702096  1
  O  O27  1  0.961121  0.667236  0.702096  1
  O  O28  1  0.242948  0.371391  0.760255  1
  O  O29  1  0.368187  0.757051  0.760255  1
  O  O30  1  0.628610  0.631813  0.760255  1
  O  O31  1  0.478014  0.097943  0.923375  1
  O  O32  1  0.696555  0.521986  0.923375  1
  O  O33  1  0.902056  0.303446  0.923375  1
