# generated using pymatgen
data_Dy3Tm(MnAl3)2
_symmetry_space_group_name_H-M   'P 1'
_cell_length_a   9.38243862
_cell_length_b   9.38243805
_cell_length_c   9.38243805
_cell_angle_alpha   34.41388924
_cell_angle_beta   34.41389512
_cell_angle_gamma   34.41389283
_symmetry_Int_Tables_number   1
_chemical_formula_structural   Dy3Tm(MnAl3)2
_chemical_formula_sum   'Dy3 Tm1 Mn2 Al6'
_cell_volume   235.32204927
_cell_formula_units_Z   1
loop_
 _symmetry_equiv_pos_site_id
 _symmetry_equiv_pos_as_xyz
  1  'x, y, z'
loop_
 _atom_site_type_symbol
 _atom_site_label
 _atom_site_symmetry_multiplicity
 _atom_site_fract_x
 _atom_site_fract_y
 _atom_site_fract_z
 _atom_site_occupancy
  Dy  Dy0  1  0.313294  0.313294  0.313294  1
  Dy  Dy1  1  0.686798  0.686798  0.686798  1
  Dy  Dy2  1  0.186627  0.186627  0.186627  1
  Tm  Tm3  1  0.813429  0.813429  0.813429  1
  Mn  Mn4  1  0.499956  0.499956  0.499956  1
  Mn  Mn5  1  0.000013  0.000013  0.000013  1
  Al  Al6  1  0.250002  0.250002  0.750183  1
  Al  Al7  1  0.750010  0.750010  0.249674  1
  Al  Al8  1  0.250002  0.750183  0.250002  1
  Al  Al9  1  0.750010  0.249674  0.750010  1
  Al  Al10  1  0.750183  0.250002  0.250002  1
  Al  Al11  1  0.249674  0.750010  0.750010  1
