# generated using pymatgen
data_Tb3Er9Tc3Ru
_symmetry_space_group_name_H-M   'P 1'
_cell_length_a   6.26565504
_cell_length_b   7.37553803
_cell_length_c   9.08604700
_cell_angle_alpha   90.00000000
_cell_angle_beta   90.00000000
_cell_angle_gamma   89.98815840
_symmetry_Int_Tables_number   1
_chemical_formula_structural   Tb3Er9Tc3Ru
_chemical_formula_sum   'Tb3 Er9 Tc3 Ru1'
_cell_volume   419.88963803
_cell_formula_units_Z   1
loop_
 _symmetry_equiv_pos_site_id
 _symmetry_equiv_pos_as_xyz
  1  'x, y, z'
loop_
 _atom_site_type_symbol
 _atom_site_label
 _atom_site_symmetry_multiplicity
 _atom_site_fract_x
 _atom_site_fract_y
 _atom_site_fract_z
 _atom_site_occupancy
  Tb  Tb0  1  0.874251  0.540111  0.250000  1
  Tb  Tb1  1  0.626449  0.039425  0.250000  1
  Tb  Tb2  1  0.129390  0.458774  0.750000  1
  Er  Er3  1  0.336473  0.676978  0.062718  1
  Er  Er4  1  0.161118  0.175788  0.438190  1
  Er  Er5  1  0.661090  0.324081  0.563128  1
  Er  Er6  1  0.837826  0.823864  0.937031  1
  Er  Er7  1  0.661090  0.324081  0.936872  1
  Er  Er8  1  0.837826  0.823864  0.562969  1
  Er  Er9  1  0.336473  0.676978  0.437282  1
  Er  Er10  1  0.161118  0.175788  0.061810  1
  Er  Er11  1  0.374400  0.958009  0.750000  1
  Tc  Tc12  1  0.041434  0.884272  0.250000  1
  Tc  Tc13  1  0.459866  0.386256  0.250000  1
  Tc  Tc14  1  0.960461  0.115229  0.750000  1
  Ru  Ru15  1  0.540733  0.616499  0.750000  1
