# generated using pymatgen
data_Th2Sn5Ir3
_symmetry_space_group_name_H-M   'P 1'
_cell_length_a   13.58032328
_cell_length_b   13.58032309
_cell_length_c   7.43502600
_cell_angle_alpha   90.00000000
_cell_angle_beta   90.00000000
_cell_angle_gamma   160.94035471
_symmetry_Int_Tables_number   1
_chemical_formula_structural   Th2Sn5Ir3
_chemical_formula_sum   'Th4 Sn10 Ir6'
_cell_volume   447.77042801
_cell_formula_units_Z   2
loop_
 _symmetry_equiv_pos_site_id
 _symmetry_equiv_pos_as_xyz
  1  'x, y, z'
loop_
 _atom_site_type_symbol
 _atom_site_label
 _atom_site_symmetry_multiplicity
 _atom_site_fract_x
 _atom_site_fract_y
 _atom_site_fract_z
 _atom_site_occupancy
  Th  Th0  1  0.172345  0.827655  0.760845  1
  Th  Th1  1  0.827655  0.172345  0.260845  1
  Th  Th2  1  0.474466  0.525534  0.732428  1
  Th  Th3  1  0.525534  0.474466  0.232428  1
  Sn  Sn4  1  0.877208  0.122792  0.732713  1
  Sn  Sn5  1  0.122792  0.877208  0.232713  1
  Sn  Sn6  1  0.705377  0.294623  0.055821  1
  Sn  Sn7  1  0.294623  0.705377  0.555821  1
  Sn  Sn8  1  0.597804  0.402196  0.607584  1
  Sn  Sn9  1  0.402196  0.597804  0.107584  1
  Sn  Sn10  1  0.950835  0.049165  0.391129  1
  Sn  Sn11  1  0.049165  0.950835  0.891129  1
  Sn  Sn12  1  0.290150  0.709850  0.980062  1
  Sn  Sn13  1  0.709850  0.290150  0.480062  1
  Ir  Ir14  1  0.050452  0.949548  0.513135  1
  Ir  Ir15  1  0.949548  0.050452  0.013135  1
  Ir  Ir16  1  0.775242  0.224758  0.772635  1
  Ir  Ir17  1  0.224758  0.775242  0.272635  1
  Ir  Ir18  1  0.394569  0.605431  0.481647  1
  Ir  Ir19  1  0.605431  0.394569  0.981647  1
