# generated using pymatgen
data_TbNd6Y3(In2Pd)4
_symmetry_space_group_name_H-M   'P 1'
_cell_length_a   8.28146165
_cell_length_b   18.55838672
_cell_length_c   3.73619700
_cell_angle_alpha   90.00000000
_cell_angle_beta   90.00000000
_cell_angle_gamma   90.07248015
_symmetry_Int_Tables_number   1
_chemical_formula_structural   TbNd6Y3(In2Pd)4
_chemical_formula_sum   'Tb1 Nd6 Y3 In8 Pd4'
_cell_volume   574.21777951
_cell_formula_units_Z   1
loop_
 _symmetry_equiv_pos_site_id
 _symmetry_equiv_pos_as_xyz
  1  'x, y, z'
loop_
 _atom_site_type_symbol
 _atom_site_label
 _atom_site_symmetry_multiplicity
 _atom_site_fract_x
 _atom_site_fract_y
 _atom_site_fract_z
 _atom_site_occupancy
  Tb  Tb0  1  0.120579  0.415720  0.000000  1
  Nd  Nd1  1  0.499402  0.499884  0.000000  1
  Nd  Nd2  1  0.000031  0.000012  0.000000  1
  Nd  Nd3  1  0.740017  0.283471  0.000000  1
  Nd  Nd4  1  0.259834  0.716505  0.000000  1
  Nd  Nd5  1  0.759838  0.783525  0.000000  1
  Nd  Nd6  1  0.240343  0.216465  0.000000  1
  Y  Y7  1  0.620694  0.083994  0.000000  1
  Y  Y8  1  0.379318  0.916020  0.000000  1
  Y  Y9  1  0.879534  0.583885  0.000000  1
  In  In10  1  0.698107  0.935065  0.500000  1
  In  In11  1  0.301928  0.064948  0.500000  1
  In  In12  1  0.801478  0.435113  0.500000  1
  In  In13  1  0.198251  0.565083  0.500000  1
  In  In14  1  0.583811  0.651521  0.500000  1
  In  In15  1  0.416515  0.348382  0.500000  1
  In  In16  1  0.916046  0.151532  0.500000  1
  In  In17  1  0.083955  0.848453  0.500000  1
  Pd  Pd18  1  0.526479  0.193967  0.500000  1
  Pd  Pd19  1  0.473637  0.806059  0.500000  1
  Pd  Pd20  1  0.973524  0.693978  0.500000  1
  Pd  Pd21  1  0.026680  0.306418  0.500000  1
