# generated using pymatgen
data_Nd2Zn14Ir3
_symmetry_space_group_name_H-M   'P 1'
_cell_length_a   6.86708168
_cell_length_b   6.86708073
_cell_length_c   6.86708017
_cell_angle_alpha   97.41998238
_cell_angle_beta   82.58001879
_cell_angle_gamma   97.41998821
_symmetry_Int_Tables_number   1
_chemical_formula_structural   Nd2Zn14Ir3
_chemical_formula_sum   'Nd2 Zn14 Ir3'
_cell_volume   316.33937196
_cell_formula_units_Z   1
loop_
 _symmetry_equiv_pos_site_id
 _symmetry_equiv_pos_as_xyz
  1  'x, y, z'
loop_
 _atom_site_type_symbol
 _atom_site_label
 _atom_site_symmetry_multiplicity
 _atom_site_fract_x
 _atom_site_fract_y
 _atom_site_fract_z
 _atom_site_occupancy
  Nd  Nd0  1  0.328671  0.671329  0.328672  1
  Nd  Nd1  1  0.671329  0.328671  0.671329  1
  Zn  Zn2  1  0.707561  0.707560  0.000000  1
  Zn  Zn3  1  0.292439  0.292439  0.000000  1
  Zn  Zn4  1  0.100442  0.899558  0.100443  1
  Zn  Zn5  1  0.649829  0.350170  0.157836  1
  Zn  Zn6  1  0.000000  0.292439  0.292439  1
  Zn  Zn7  1  0.707561  0.000000  0.292439  1
  Zn  Zn8  1  0.350171  0.157836  0.350170  1
  Zn  Zn9  1  0.842165  0.649830  0.350171  1
  Zn  Zn10  1  0.649829  0.842164  0.649830  1
  Zn  Zn11  1  0.157836  0.350171  0.649830  1
  Zn  Zn12  1  0.292440  0.000000  0.707560  1
  Zn  Zn13  1  0.000000  0.707561  0.707561  1
  Zn  Zn14  1  0.350171  0.649830  0.842164  1
  Zn  Zn15  1  0.899557  0.100443  0.899558  1
  Ir  Ir16  1  0.999999  0.500000  0.000000  1
  Ir  Ir17  1  0.500000  0.000000  0.000000  1
  Ir  Ir18  1  0.000000  0.000000  0.500000  1
