# generated using pymatgen
data_Mg4(HgPd3)3
_symmetry_space_group_name_H-M   'P 1'
_cell_length_a   7.04323886
_cell_length_b   7.04321578
_cell_length_c   7.04323759
_cell_angle_alpha   107.13643443
_cell_angle_beta   107.13655721
_cell_angle_gamma   114.24907327
_symmetry_Int_Tables_number   1
_chemical_formula_structural   Mg4(HgPd3)3
_chemical_formula_sum   'Mg4 Hg3 Pd9'
_cell_volume   267.54860672
_cell_formula_units_Z   1
loop_
 _symmetry_equiv_pos_site_id
 _symmetry_equiv_pos_as_xyz
  1  'x, y, z'
loop_
 _atom_site_type_symbol
 _atom_site_label
 _atom_site_symmetry_multiplicity
 _atom_site_fract_x
 _atom_site_fract_y
 _atom_site_fract_z
 _atom_site_occupancy
  Mg  Mg0  1  0.240490  0.240490  0.480980  1
  Mg  Mg1  1  0.759510  0.759510  0.519020  1
  Mg  Mg2  1  0.240488  0.759510  0.000000  1
  Mg  Mg3  1  0.759512  0.240490  0.000000  1
  Hg  Hg4  1  0.500000  0.000000  0.500000  1
  Hg  Hg5  1  0.000000  0.500000  0.500000  1
  Hg  Hg6  1  0.500000  0.500000  0.000000  1
  Pd  Pd7  1  0.500608  0.252482  0.248125  1
  Pd  Pd8  1  0.499392  0.747518  0.751875  1
  Pd  Pd9  1  0.004356  0.252482  0.751875  1
  Pd  Pd10  1  0.252482  0.004357  0.751875  1
  Pd  Pd11  1  0.995644  0.747518  0.248125  1
  Pd  Pd12  1  0.747518  0.995643  0.248125  1
  Pd  Pd13  1  0.252481  0.500607  0.248124  1
  Pd  Pd14  1  0.747519  0.499393  0.751876  1
  Pd  Pd15  1  0.000000  0.000000  0.000000  1
