# generated using pymatgen
data_Pr10AgSn6I
_symmetry_space_group_name_H-M   'P 1'
_cell_length_a   9.69892205
_cell_length_b   9.69755962
_cell_length_c   6.82749403
_cell_angle_alpha   90.00629772
_cell_angle_beta   89.98879489
_cell_angle_gamma   120.00255809
_symmetry_Int_Tables_number   1
_chemical_formula_structural   Pr10AgSn6I
_chemical_formula_sum   'Pr10 Ag1 Sn6 I1'
_cell_volume   556.11765716
_cell_formula_units_Z   1
loop_
 _symmetry_equiv_pos_site_id
 _symmetry_equiv_pos_as_xyz
  1  'x, y, z'
loop_
 _atom_site_type_symbol
 _atom_site_label
 _atom_site_symmetry_multiplicity
 _atom_site_fract_x
 _atom_site_fract_y
 _atom_site_fract_z
 _atom_site_occupancy
  Pr  Pr0  1  0.273349  0.999984  0.754550  1
  Pr  Pr1  1  0.726651  0.000016  0.245450  1
  Pr  Pr2  1  0.000027  0.273375  0.754554  1
  Pr  Pr3  1  0.999973  0.726625  0.245446  1
  Pr  Pr4  1  0.726666  0.726625  0.754539  1
  Pr  Pr5  1  0.273334  0.273375  0.245461  1
  Pr  Pr6  1  0.333307  0.666612  0.500002  1
  Pr  Pr7  1  0.666693  0.333388  0.499998  1
  Pr  Pr8  1  0.666660  0.333329  0.000002  1
  Pr  Pr9  1  0.333340  0.666671  0.999998  1
  Ag  Ag10  1  0.000000  0.000000  0.000000  1
  Sn  Sn11  1  0.618424  0.999988  0.751288  1
  Sn  Sn12  1  0.381576  0.000012  0.248712  1
  Sn  Sn13  1  0.000078  0.618415  0.751313  1
  Sn  Sn14  1  0.999922  0.381585  0.248687  1
  Sn  Sn15  1  0.381658  0.381560  0.751293  1
  Sn  Sn16  1  0.618342  0.618440  0.248707  1
  I  I17  1  0.000000  0.000000  0.500000  1
