# generated using pymatgen
data_Zr4V4Re3Os
_symmetry_space_group_name_H-M   'P 1'
_cell_length_a   5.25932609
_cell_length_b   5.25932762
_cell_length_c   8.54354800
_cell_angle_alpha   90.00000000
_cell_angle_beta   90.00000000
_cell_angle_gamma   119.97843186
_symmetry_Int_Tables_number   1
_chemical_formula_structural   Zr4V4Re3Os
_chemical_formula_sum   'Zr4 V4 Re3 Os1'
_cell_volume   204.70269751
_cell_formula_units_Z   1
loop_
 _symmetry_equiv_pos_site_id
 _symmetry_equiv_pos_as_xyz
  1  'x, y, z'
loop_
 _atom_site_type_symbol
 _atom_site_label
 _atom_site_symmetry_multiplicity
 _atom_site_fract_x
 _atom_site_fract_y
 _atom_site_fract_z
 _atom_site_occupancy
  Zr  Zr0  1  0.333159  0.666841  0.440559  1
  Zr  Zr1  1  0.666738  0.333262  0.560404  1
  Zr  Zr2  1  0.666738  0.333262  0.939596  1
  Zr  Zr3  1  0.333159  0.666841  0.059441  1
  V  V4  1  0.829687  0.662938  0.250000  1
  V  V5  1  0.337062  0.170313  0.250000  1
  V  V6  1  0.170303  0.337142  0.750000  1
  V  V7  1  0.662858  0.829697  0.750000  1
  Re  Re8  1  0.999564  0.000436  0.500395  1
  Re  Re9  1  0.999564  0.000436  0.999605  1
  Re  Re10  1  0.827675  0.172325  0.250000  1
  Os  Os11  1  0.173493  0.826507  0.750000  1
