# generated using pymatgen
data_Cs7VIn3AsP4
_symmetry_space_group_name_H-M   'P 1'
_cell_length_a   8.83931925
_cell_length_b   9.63681290
_cell_length_c   14.83310334
_cell_angle_alpha   85.21714948
_cell_angle_beta   84.95985646
_cell_angle_gamma   84.37026484
_symmetry_Int_Tables_number   1
_chemical_formula_structural   Cs7VIn3AsP4
_chemical_formula_sum   'Cs14 V2 In6 As2 P8'
_cell_volume   1249.00274871
_cell_formula_units_Z   2
loop_
 _symmetry_equiv_pos_site_id
 _symmetry_equiv_pos_as_xyz
  1  'x, y, z'
loop_
 _atom_site_type_symbol
 _atom_site_label
 _atom_site_symmetry_multiplicity
 _atom_site_fract_x
 _atom_site_fract_y
 _atom_site_fract_z
 _atom_site_occupancy
  Cs  Cs0  1  0.837428  0.366342  0.648745  1
  Cs  Cs1  1  0.812389  0.806641  0.131056  1
  Cs  Cs2  1  0.241261  0.008864  0.469840  1
  Cs  Cs3  1  0.271482  0.260857  0.250510  1
  Cs  Cs4  1  0.735877  0.500696  0.975730  1
  Cs  Cs5  1  0.259001  0.497705  0.024233  1
  Cs  Cs6  1  0.681069  0.085088  0.888191  1
  Cs  Cs7  1  0.761678  0.994070  0.531720  1
  Cs  Cs8  1  0.729325  0.740772  0.746062  1
  Cs  Cs9  1  0.329923  0.348082  0.600122  1
  Cs  Cs10  1  0.164813  0.631886  0.352416  1
  Cs  Cs11  1  0.182988  0.192094  0.865462  1
  Cs  Cs12  1  0.319052  0.915729  0.115900  1
  Cs  Cs13  1  0.669221  0.655923  0.397819  1
  V  V14  1  0.354309  0.604772  0.773274  1
  V  V15  1  0.646556  0.393185  0.226881  1
  In  In16  1  0.061896  0.810146  0.863674  1
  In  In17  1  0.932345  0.193015  0.133351  1
  In  In18  1  0.358191  0.942495  0.704887  1
  In  In19  1  0.103414  0.720531  0.629004  1
  In  In20  1  0.896622  0.281992  0.371462  1
  In  In21  1  0.638110  0.059220  0.292975  1
  As  As22  1  0.379501  0.790056  0.875485  1
  As  As23  1  0.966560  0.003554  0.297792  1
  P  P24  1  0.898816  0.445520  0.212954  1
  P  P25  1  0.625075  0.214904  0.130908  1
  P  P26  1  0.101947  0.554243  0.787156  1
  P  P27  1  0.588737  0.303519  0.376572  1
  P  P28  1  0.411815  0.695699  0.624187  1
  P  P29  1  0.040441  0.985243  0.702611  1
  P  P30  1  0.504675  0.413696  0.806066  1
  P  P31  1  0.495482  0.583459  0.192953  1
