# generated using pymatgen
data_Nd6Lu7Th3(CdIr)4
_symmetry_space_group_name_H-M   'P 1'
_cell_length_a   9.75130135
_cell_length_b   9.73307003
_cell_length_c   9.73307000
_cell_angle_alpha   60.00000010
_cell_angle_beta   60.06182770
_cell_angle_gamma   60.06183290
_symmetry_Int_Tables_number   1
_chemical_formula_structural   Nd6Lu7Th3(CdIr)4
_chemical_formula_sum   'Nd6 Lu7 Th3 Cd4 Ir4'
_cell_volume   653.81144699
_cell_formula_units_Z   1
loop_
 _symmetry_equiv_pos_site_id
 _symmetry_equiv_pos_as_xyz
  1  'x, y, z'
loop_
 _atom_site_type_symbol
 _atom_site_label
 _atom_site_symmetry_multiplicity
 _atom_site_fract_x
 _atom_site_fract_y
 _atom_site_fract_z
 _atom_site_occupancy
  Nd  Nd0  1  0.938947  0.560551  0.560551  1
  Nd  Nd1  1  0.562299  0.937776  0.937776  1
  Nd  Nd2  1  0.562299  0.937776  0.562150  1
  Nd  Nd3  1  0.938947  0.560551  0.939950  1
  Nd  Nd4  1  0.562299  0.562150  0.937776  1
  Nd  Nd5  1  0.938947  0.939950  0.560551  1
  Lu  Lu6  1  0.954928  0.348357  0.348357  1
  Lu  Lu7  1  0.815605  0.185102  0.185102  1
  Lu  Lu8  1  0.183298  0.817251  0.817251  1
  Lu  Lu9  1  0.183298  0.817251  0.182200  1
  Lu  Lu10  1  0.815605  0.185102  0.814192  1
  Lu  Lu11  1  0.183298  0.182200  0.817251  1
  Lu  Lu12  1  0.815605  0.814192  0.185102  1
  Th  Th13  1  0.346538  0.349576  0.349576  1
  Th  Th14  1  0.346538  0.349576  0.954311  1
  Th  Th15  1  0.346538  0.954311  0.349576  1
  Cd  Cd16  1  0.583106  0.578077  0.578077  1
  Cd  Cd17  1  0.583106  0.578077  0.260739  1
  Cd  Cd18  1  0.583106  0.260739  0.578077  1
  Cd  Cd19  1  0.259303  0.580232  0.580232  1
  Ir  Ir20  1  0.140913  0.141949  0.141949  1
  Ir  Ir21  1  0.140913  0.141949  0.575188  1
  Ir  Ir22  1  0.140913  0.575188  0.141949  1
  Ir  Ir23  1  0.573647  0.142117  0.142117  1
