# generated using pymatgen
data_Cs2RbRh3F12
_symmetry_space_group_name_H-M   'P 1'
_cell_length_a   7.53270930
_cell_length_b   7.53270995
_cell_length_c   13.80407855
_cell_angle_alpha   74.82984308
_cell_angle_beta   74.82984248
_cell_angle_gamma   60.07770511
_symmetry_Int_Tables_number   1
_chemical_formula_structural   Cs2RbRh3F12
_chemical_formula_sum   'Cs4 Rb2 Rh6 F24'
_cell_volume   647.10037319
_cell_formula_units_Z   2
loop_
 _symmetry_equiv_pos_site_id
 _symmetry_equiv_pos_as_xyz
  1  'x, y, z'
loop_
 _atom_site_type_symbol
 _atom_site_label
 _atom_site_symmetry_multiplicity
 _atom_site_fract_x
 _atom_site_fract_y
 _atom_site_fract_z
 _atom_site_occupancy
  Cs  Cs0  1  0.898134  0.474186  0.684104  1
  Cs  Cs1  1  0.101866  0.525814  0.315896  1
  Cs  Cs2  1  0.525814  0.101866  0.815896  1
  Cs  Cs3  1  0.474186  0.898134  0.184104  1
  Rb  Rb4  1  0.223901  0.776099  0.750000  1
  Rb  Rb5  1  0.776099  0.223901  0.250000  1
  Rh  Rh6  1  0.500000  0.000000  0.500000  1
  Rh  Rh7  1  0.000000  0.500000  0.000000  1
  Rh  Rh8  1  0.000000  0.000000  0.500000  1
  Rh  Rh9  1  0.000000  0.000000  0.000000  1
  Rh  Rh10  1  0.500000  0.500000  0.500000  1
  Rh  Rh11  1  0.500000  0.500000  0.000000  1
  F  F12  1  0.886183  0.969686  0.647635  1
  F  F13  1  0.523762  0.894302  0.647020  1
  F  F14  1  0.286435  0.394880  0.033193  1
  F  F15  1  0.691292  0.190473  0.030929  1
  F  F16  1  0.894302  0.523762  0.147020  1
  F  F17  1  0.105698  0.476238  0.852980  1
  F  F18  1  0.476238  0.105698  0.352980  1
  F  F19  1  0.809527  0.308708  0.469071  1
  F  F20  1  0.113817  0.030314  0.352365  1
  F  F21  1  0.605120  0.713565  0.466807  1
  F  F22  1  0.447863  0.519685  0.146658  1
  F  F23  1  0.394880  0.286435  0.533193  1
  F  F24  1  0.519685  0.447863  0.646658  1
  F  F25  1  0.808734  0.920447  0.461947  1
  F  F26  1  0.191266  0.079553  0.538053  1
  F  F27  1  0.552137  0.480315  0.853342  1
  F  F28  1  0.920447  0.808734  0.961947  1
  F  F29  1  0.480315  0.552137  0.353342  1
  F  F30  1  0.713565  0.605120  0.966807  1
  F  F31  1  0.969686  0.886183  0.147635  1
  F  F32  1  0.079553  0.191266  0.038053  1
  F  F33  1  0.308708  0.809527  0.969071  1
  F  F34  1  0.030314  0.113817  0.852365  1
  F  F35  1  0.190473  0.691292  0.530929  1
