# generated using pymatgen
data_K8La3NdI20
_symmetry_space_group_name_H-M   'P 1'
_cell_length_a   9.35341393
_cell_length_b   9.95804000
_cell_length_c   14.76926705
_cell_angle_alpha   90.00000000
_cell_angle_beta   89.92630159
_cell_angle_gamma   90.00000000
_symmetry_Int_Tables_number   1
_chemical_formula_structural   K8La3NdI20
_chemical_formula_sum   'K8 La3 Nd1 I20'
_cell_volume   1375.63306154
_cell_formula_units_Z   1
loop_
 _symmetry_equiv_pos_site_id
 _symmetry_equiv_pos_as_xyz
  1  'x, y, z'
loop_
 _atom_site_type_symbol
 _atom_site_label
 _atom_site_symmetry_multiplicity
 _atom_site_fract_x
 _atom_site_fract_y
 _atom_site_fract_z
 _atom_site_occupancy
  K  K0  1  0.948095  0.004060  0.827975  1
  K  K1  1  0.051805  0.995794  0.172045  1
  K  K2  1  0.448196  0.995871  0.672121  1
  K  K3  1  0.051805  0.504206  0.172045  1
  K  K4  1  0.551800  0.004067  0.327886  1
  K  K5  1  0.948095  0.495940  0.827975  1
  K  K6  1  0.551800  0.495933  0.327886  1
  K  K7  1  0.448196  0.504129  0.672121  1
  La  La8  1  0.921740  0.750000  0.505397  1
  La  La9  1  0.078342  0.250000  0.494521  1
  La  La10  1  0.421595  0.250000  0.994457  1
  Nd  Nd11  1  0.578938  0.750000  0.005231  1
  I  I12  1  0.128982  0.750000  0.680885  1
  I  I13  1  0.870905  0.250000  0.319037  1
  I  I14  1  0.629092  0.250000  0.819029  1
  I  I15  1  0.372838  0.750000  0.179329  1
  I  I16  1  0.833351  0.045670  0.578286  1
  I  I17  1  0.166693  0.954333  0.421687  1
  I  I18  1  0.334873  0.952874  0.922458  1
  I  I19  1  0.166693  0.545667  0.421687  1
  I  I20  1  0.665821  0.042986  0.077534  1
  I  I21  1  0.833351  0.454330  0.578286  1
  I  I22  1  0.665821  0.457014  0.077534  1
  I  I23  1  0.334873  0.547126  0.922458  1
  I  I24  1  0.570541  0.750000  0.507321  1
  I  I25  1  0.429472  0.250000  0.492773  1
  I  I26  1  0.070680  0.250000  0.992670  1
  I  I27  1  0.926462  0.750000  0.007330  1
  I  I28  1  0.663361  0.750000  0.795622  1
  I  I29  1  0.335694  0.250000  0.206286  1
  I  I30  1  0.164333  0.250000  0.706298  1
  I  I31  1  0.835757  0.750000  0.293832  1
