# generated using pymatgen
data_Dy7Mg(Si4W3)4
_symmetry_space_group_name_H-M   'P 1'
_cell_length_a   6.74219498
_cell_length_b   6.92654183
_cell_length_c   12.89347002
_cell_angle_alpha   90.04276626
_cell_angle_beta   89.96684468
_cell_angle_gamma   90.11671428
_symmetry_Int_Tables_number   1
_chemical_formula_structural   Dy7Mg(Si4W3)4
_chemical_formula_sum   'Dy7 Mg1 Si16 W12'
_cell_volume   602.12476478
_cell_formula_units_Z   1
loop_
 _symmetry_equiv_pos_site_id
 _symmetry_equiv_pos_as_xyz
  1  'x, y, z'
loop_
 _atom_site_type_symbol
 _atom_site_label
 _atom_site_symmetry_multiplicity
 _atom_site_fract_x
 _atom_site_fract_y
 _atom_site_fract_z
 _atom_site_occupancy
  Dy  Dy0  1  0.497336  0.668946  0.593758  1
  Dy  Dy1  1  0.996870  0.831678  0.907172  1
  Dy  Dy2  1  0.505052  0.331981  0.093100  1
  Dy  Dy3  1  0.002883  0.165770  0.409893  1
  Dy  Dy4  1  0.503399  0.331696  0.408605  1
  Dy  Dy5  1  0.004622  0.167861  0.093477  1
  Dy  Dy6  1  0.495486  0.668655  0.904586  1
  Mg  Mg7  1  0.983821  0.832045  0.591324  1
  Si  Si8  1  0.660967  0.957187  0.454932  1
  Si  Si9  1  0.162829  0.542988  0.045992  1
  Si  Si10  1  0.337994  0.043604  0.953145  1
  Si  Si11  1  0.842634  0.464037  0.548353  1
  Si  Si12  1  0.330557  0.036869  0.547472  1
  Si  Si13  1  0.837918  0.456868  0.953196  1
  Si  Si14  1  0.663124  0.956326  0.045395  1
  Si  Si15  1  0.161054  0.544087  0.454533  1
  Si  Si16  1  0.465421  0.370689  0.750062  1
  Si  Si17  1  0.967236  0.125600  0.748388  1
  Si  Si18  1  0.536339  0.629107  0.250673  1
  Si  Si19  1  0.035539  0.870746  0.250902  1
  Si  Si20  1  0.702237  0.865890  0.747195  1
  Si  Si21  1  0.190727  0.639141  0.745231  1
  Si  Si22  1  0.302640  0.134482  0.250596  1
  Si  Si23  1  0.804500  0.366368  0.251659  1
  W  W24  1  0.670395  0.163577  0.624009  1
  W  W25  1  0.168692  0.337319  0.873900  1
  W  W26  1  0.332211  0.837866  0.125803  1
  W  W27  1  0.831977  0.664800  0.375874  1
  W  W28  1  0.331892  0.837958  0.374766  1
  W  W29  1  0.831987  0.663466  0.126125  1
  W  W30  1  0.670211  0.160893  0.872770  1
  W  W31  1  0.170332  0.332836  0.626538  1
  W  W32  1  0.833987  0.499290  0.750304  1
  W  W33  1  0.334869  0.000553  0.749727  1
  W  W34  1  0.167616  0.500591  0.250428  1
  W  W35  1  0.664644  0.998226  0.250118  1
