# generated using pymatgen
data_Ho3Zr(Al3Ir)6
_symmetry_space_group_name_H-M   'P 1'
_cell_length_a   7.53837155
_cell_length_b   7.52917184
_cell_length_c   9.41334800
_cell_angle_alpha   90.00000000
_cell_angle_beta   90.00000000
_cell_angle_gamma   119.64873685
_symmetry_Int_Tables_number   1
_chemical_formula_structural   Ho3Zr(Al3Ir)6
_chemical_formula_sum   'Ho3 Zr1 Al18 Ir6'
_cell_volume   464.32904384
_cell_formula_units_Z   1
loop_
 _symmetry_equiv_pos_site_id
 _symmetry_equiv_pos_as_xyz
  1  'x, y, z'
loop_
 _atom_site_type_symbol
 _atom_site_label
 _atom_site_symmetry_multiplicity
 _atom_site_fract_x
 _atom_site_fract_y
 _atom_site_fract_z
 _atom_site_occupancy
  Ho  Ho0  1  0.005613  0.328587  0.750000  1
  Ho  Ho1  1  0.670322  0.995623  0.250000  1
  Ho  Ho2  1  0.329938  0.006281  0.750000  1
  Zr  Zr3  1  0.996425  0.671011  0.250000  1
  Al  Al4  1  0.125353  0.122734  0.250000  1
  Al  Al5  1  0.871529  0.870359  0.750000  1
  Al  Al6  1  0.000270  0.337399  0.078036  1
  Al  Al7  1  0.999467  0.665284  0.929485  1
  Al  Al8  1  0.999467  0.665284  0.570515  1
  Al  Al9  1  0.332211  0.998182  0.421830  1
  Al  Al10  1  0.000270  0.337399  0.421964  1
  Al  Al11  1  0.664916  0.998525  0.574383  1
  Al  Al12  1  0.664916  0.998525  0.925617  1
  Al  Al13  1  0.332211  0.998182  0.078170  1
  Al  Al14  1  0.333774  0.333851  0.552000  1
  Al  Al15  1  0.668766  0.666876  0.443348  1
  Al  Al16  1  0.668766  0.666876  0.056652  1
  Al  Al17  1  0.333774  0.333851  0.948000  1
  Al  Al18  1  0.335635  0.549045  0.250000  1
  Al  Al19  1  0.661213  0.452590  0.750000  1
  Al  Al20  1  0.554146  0.343550  0.250000  1
  Al  Al21  1  0.451454  0.660102  0.750000  1
  Ir  Ir22  1  0.672199  0.327943  0.000630  1
  Ir  Ir23  1  0.327973  0.672249  0.001325  1
  Ir  Ir24  1  0.327973  0.672249  0.498675  1
  Ir  Ir25  1  0.672199  0.327943  0.499370  1
  Ir  Ir26  1  0.999611  0.999750  0.000559  1
  Ir  Ir27  1  0.999611  0.999750  0.499441  1
