# generated using pymatgen
data_Hf18Re5W3Se2
_symmetry_space_group_name_H-M   'P 1'
_cell_length_a   8.74078769
_cell_length_b   8.74078734
_cell_length_c   8.56109900
_cell_angle_alpha   90.00000000
_cell_angle_beta   90.00000000
_cell_angle_gamma   120.21708572
_symmetry_Int_Tables_number   1
_chemical_formula_structural   Hf18Re5W3Se2
_chemical_formula_sum   'Hf18 Re5 W3 Se2'
_cell_volume   565.20643134
_cell_formula_units_Z   1
loop_
 _symmetry_equiv_pos_site_id
 _symmetry_equiv_pos_as_xyz
  1  'x, y, z'
loop_
 _atom_site_type_symbol
 _atom_site_label
 _atom_site_symmetry_multiplicity
 _atom_site_fract_x
 _atom_site_fract_y
 _atom_site_fract_z
 _atom_site_occupancy
  Hf  Hf0  1  0.192411  0.807589  0.451738  1
  Hf  Hf1  1  0.192317  0.384467  0.451970  1
  Hf  Hf2  1  0.615533  0.807683  0.451970  1
  Hf  Hf3  1  0.807307  0.192693  0.549834  1
  Hf  Hf4  1  0.807548  0.615215  0.548764  1
  Hf  Hf5  1  0.384785  0.192452  0.548764  1
  Hf  Hf6  1  0.807307  0.192693  0.950166  1
  Hf  Hf7  1  0.807548  0.615215  0.951236  1
  Hf  Hf8  1  0.384785  0.192452  0.951236  1
  Hf  Hf9  1  0.192411  0.807589  0.048262  1
  Hf  Hf10  1  0.192317  0.384467  0.048030  1
  Hf  Hf11  1  0.615533  0.807683  0.048030  1
  Hf  Hf12  1  0.544584  0.455416  0.250000  1
  Hf  Hf13  1  0.544098  0.089379  0.250000  1
  Hf  Hf14  1  0.910621  0.455902  0.250000  1
  Hf  Hf15  1  0.455089  0.544911  0.750000  1
  Hf  Hf16  1  0.454764  0.909828  0.750000  1
  Hf  Hf17  1  0.090172  0.545236  0.750000  1
  Re  Re18  1  0.888697  0.778431  0.250000  1
  Re  Re19  1  0.221569  0.111303  0.250000  1
  Re  Re20  1  0.110583  0.889417  0.750000  1
  Re  Re21  1  0.111091  0.221604  0.750000  1
  Re  Re22  1  0.778396  0.888909  0.750000  1
  W  W23  1  0.889843  0.110157  0.250000  1
  W  W24  1  0.000549  0.999451  0.500912  1
  W  W25  1  0.000549  0.999451  0.999088  1
  Se  Se26  1  0.332975  0.667025  0.250000  1
  Se  Se27  1  0.666617  0.333383  0.750000  1
