# generated using pymatgen
data_Nd5Th5(HgPb3)2
_symmetry_space_group_name_H-M   'P 1'
_cell_length_a   9.71348414
_cell_length_b   9.72903428
_cell_length_c   6.70917000
_cell_angle_alpha   90.00000000
_cell_angle_beta   90.00000000
_cell_angle_gamma   120.05277285
_symmetry_Int_Tables_number   1
_chemical_formula_structural   Nd5Th5(HgPb3)2
_chemical_formula_sum   'Nd5 Th5 Hg2 Pb6'
_cell_volume   548.79861208
_cell_formula_units_Z   1
loop_
 _symmetry_equiv_pos_site_id
 _symmetry_equiv_pos_as_xyz
  1  'x, y, z'
loop_
 _atom_site_type_symbol
 _atom_site_label
 _atom_site_symmetry_multiplicity
 _atom_site_fract_x
 _atom_site_fract_y
 _atom_site_fract_z
 _atom_site_occupancy
  Nd  Nd0  1  0.710840  0.711145  0.250000  1
  Nd  Nd1  1  0.289158  0.000298  0.250000  1
  Nd  Nd2  1  0.000003  0.290286  0.250000  1
  Nd  Nd3  1  0.287950  0.287006  0.750000  1
  Nd  Nd4  1  0.712048  0.999052  0.750000  1
  Th  Th5  1  0.668220  0.336240  0.500916  1
  Th  Th6  1  0.331781  0.668021  0.500914  1
  Th  Th7  1  0.331781  0.668021  0.999086  1
  Th  Th8  1  0.668220  0.336240  0.999084  1
  Th  Th9  1  0.000003  0.706093  0.750000  1
  Hg  Hg10  1  0.000000  0.000215  0.497976  1
  Hg  Hg11  1  0.000000  0.000215  0.002024  1
  Pb  Pb12  1  0.368452  0.369612  0.250000  1
  Pb  Pb13  1  0.631546  0.001155  0.250000  1
  Pb  Pb14  1  0.000003  0.631648  0.250000  1
  Pb  Pb15  1  0.628680  0.629299  0.750000  1
  Pb  Pb16  1  0.371316  0.000610  0.750000  1
  Pb  Pb17  1  0.000000  0.364844  0.750000  1
