# generated using pymatgen
data_Tm8ReB24Rh2W
_symmetry_space_group_name_H-M   'P 1'
_cell_length_a   3.62990100
_cell_length_b   9.10668904
_cell_length_c   11.49826801
_cell_angle_alpha   90.41928526
_cell_angle_beta   90.00000000
_cell_angle_gamma   90.00000000
_symmetry_Int_Tables_number   1
_chemical_formula_structural   Tm8ReB24Rh2W
_chemical_formula_sum   'Tm8 Re1 B24 Rh2 W1'
_cell_volume   380.08093553
_cell_formula_units_Z   1
loop_
 _symmetry_equiv_pos_site_id
 _symmetry_equiv_pos_as_xyz
  1  'x, y, z'
loop_
 _atom_site_type_symbol
 _atom_site_label
 _atom_site_symmetry_multiplicity
 _atom_site_fract_x
 _atom_site_fract_y
 _atom_site_fract_z
 _atom_site_occupancy
  Tm  Tm0  1  0.500000  0.317931  0.411446  1
  Tm  Tm1  1  0.500000  0.682158  0.588921  1
  Tm  Tm2  1  0.500000  0.174005  0.916402  1
  Tm  Tm3  1  0.500000  0.824582  0.082033  1
  Tm  Tm4  1  0.500000  0.444504  0.126237  1
  Tm  Tm5  1  0.500000  0.557972  0.872515  1
  Tm  Tm6  1  0.500000  0.054908  0.628853  1
  Tm  Tm7  1  0.500000  0.944433  0.373248  1
  Re  Re8  1  0.500000  0.860671  0.819244  1
  B  B9  1  0.000000  0.106572  0.472406  1
  B  B10  1  0.000000  0.893067  0.529256  1
  B  B11  1  0.000000  0.396302  0.970157  1
  B  B12  1  0.000000  0.605349  0.028774  1
  B  B13  1  0.000000  0.132166  0.317933  1
  B  B14  1  0.000000  0.867934  0.684338  1
  B  B15  1  0.000000  0.368149  0.816558  1
  B  B16  1  0.000000  0.632378  0.183620  1
  B  B17  1  0.000000  0.050555  0.064670  1
  B  B18  1  0.000000  0.946639  0.932102  1
  B  B19  1  0.000000  0.446193  0.565377  1
  B  B20  1  0.000000  0.553846  0.434859  1
  B  B21  1  0.000000  0.483270  0.288231  1
  B  B22  1  0.000000  0.517341  0.711721  1
  B  B23  1  0.000000  0.017523  0.786684  1
  B  B24  1  0.000000  0.978350  0.213742  1
  B  B25  1  0.000000  0.251476  0.078549  1
  B  B26  1  0.000000  0.751021  0.918544  1
  B  B27  1  0.000000  0.250511  0.578802  1
  B  B28  1  0.000000  0.749377  0.421779  1
  B  B29  1  0.000000  0.296486  0.236868  1
  B  B30  1  0.000000  0.706344  0.764361  1
  B  B31  1  0.000000  0.208576  0.735252  1
  B  B32  1  0.000000  0.791214  0.265850  1
  Rh  Rh33  1  0.500000  0.362023  0.678776  1
  Rh  Rh34  1  0.500000  0.637821  0.321955  1
  W  W35  1  0.500000  0.138355  0.179939  1
