# generated using pymatgen
data_Pr3NdAl12(PbO4)8
_symmetry_space_group_name_H-M   'P 1'
_cell_length_a   9.64684733
_cell_length_b   9.64684733
_cell_length_c   9.64684733
_cell_angle_alpha   90.02111830
_cell_angle_beta   89.97888170
_cell_angle_gamma   89.97888170
_symmetry_Int_Tables_number   1
_chemical_formula_structural   Pr3NdAl12(PbO4)8
_chemical_formula_sum   'Pr3 Nd1 Al12 Pb8 O32'
_cell_volume   897.75147554
_cell_formula_units_Z   1
loop_
 _symmetry_equiv_pos_site_id
 _symmetry_equiv_pos_as_xyz
  1  'x, y, z'
loop_
 _atom_site_type_symbol
 _atom_site_label
 _atom_site_symmetry_multiplicity
 _atom_site_fract_x
 _atom_site_fract_y
 _atom_site_fract_z
 _atom_site_occupancy
  Pr  Pr0  1  0.000000  0.000000  0.000000  1
  Pr  Pr1  1  0.500000  0.500000  0.000000  1
  Pr  Pr2  1  0.500000  0.000000  0.500000  1
  Nd  Nd3  1  0.000000  0.500000  0.500000  1
  Al  Al4  1  0.750045  0.250045  0.000000  1
  Al  Al5  1  0.249955  0.749955  0.000000  1
  Al  Al6  1  0.750045  0.000000  0.250045  1
  Al  Al7  1  0.750294  0.500000  0.250294  1
  Al  Al8  1  0.000000  0.749706  0.250294  1
  Al  Al9  1  0.500000  0.749955  0.250045  1
  Al  Al10  1  0.750294  0.250294  0.500000  1
  Al  Al11  1  0.249706  0.749706  0.500000  1
  Al  Al12  1  0.249955  0.000000  0.749955  1
  Al  Al13  1  0.000000  0.250294  0.749706  1
  Al  Al14  1  0.500000  0.250045  0.749955  1
  Al  Al15  1  0.249706  0.500000  0.749706  1
  Pb  Pb16  1  0.382553  0.117447  0.117447  1
  Pb  Pb17  1  0.117285  0.382715  0.117897  1
  Pb  Pb18  1  0.117285  0.117897  0.382715  1
  Pb  Pb19  1  0.382103  0.382715  0.382715  1
  Pb  Pb20  1  0.617897  0.617285  0.617285  1
  Pb  Pb21  1  0.882716  0.882104  0.617285  1
  Pb  Pb22  1  0.882716  0.617285  0.882104  1
  Pb  Pb23  1  0.617447  0.882554  0.882554  1
  O  O24  1  0.762829  0.093955  0.093955  1
  O  O25  1  0.737207  0.406039  0.094040  1
  O  O26  1  0.406044  0.737170  0.093955  1
  O  O27  1  0.093960  0.762792  0.094040  1
  O  O28  1  0.141337  0.141514  0.141514  1
  O  O29  1  0.358486  0.358663  0.141514  1
  O  O30  1  0.594040  0.593960  0.237208  1
  O  O31  1  0.906039  0.905959  0.237208  1
  O  O32  1  0.906425  0.593574  0.263600  1
  O  O33  1  0.593955  0.906044  0.262829  1
  O  O34  1  0.358486  0.141514  0.358663  1
  O  O35  1  0.140362  0.359638  0.359638  1
  O  O36  1  0.737207  0.094040  0.406039  1
  O  O37  1  0.763600  0.406425  0.406425  1
  O  O38  1  0.093574  0.736399  0.406425  1
  O  O39  1  0.405959  0.762792  0.406039  1
  O  O40  1  0.594040  0.237208  0.593960  1
  O  O41  1  0.906425  0.263600  0.593574  1
  O  O42  1  0.236400  0.593574  0.593574  1
  O  O43  1  0.262792  0.905959  0.593960  1
  O  O44  1  0.859638  0.640362  0.640362  1
  O  O45  1  0.641514  0.858486  0.641337  1
  O  O46  1  0.406044  0.093955  0.737170  1
  O  O47  1  0.093574  0.406425  0.736399  1
  O  O48  1  0.093960  0.094040  0.762792  1
  O  O49  1  0.405959  0.406039  0.762792  1
  O  O50  1  0.641514  0.641337  0.858486  1
  O  O51  1  0.858663  0.858486  0.858486  1
  O  O52  1  0.906039  0.237208  0.905959  1
  O  O53  1  0.593955  0.262829  0.906044  1
  O  O54  1  0.262792  0.593960  0.905959  1
  O  O55  1  0.237171  0.906044  0.906044  1
