# generated using pymatgen
data_Lu2Sc2Co4Si3Ge
_symmetry_space_group_name_H-M   'P 1'
_cell_length_a   4.05396600
_cell_length_b   6.57414230
_cell_length_c   6.95449014
_cell_angle_alpha   90.17645157
_cell_angle_beta   90.00000000
_cell_angle_gamma   90.00000000
_symmetry_Int_Tables_number   1
_chemical_formula_structural   Lu2Sc2Co4Si3Ge
_chemical_formula_sum   'Lu2 Sc2 Co4 Si3 Ge1'
_cell_volume   185.34566733
_cell_formula_units_Z   1
loop_
 _symmetry_equiv_pos_site_id
 _symmetry_equiv_pos_as_xyz
  1  'x, y, z'
loop_
 _atom_site_type_symbol
 _atom_site_label
 _atom_site_symmetry_multiplicity
 _atom_site_fract_x
 _atom_site_fract_y
 _atom_site_fract_z
 _atom_site_occupancy
  Lu  Lu0  1  0.750000  0.999746  0.690130  1
  Lu  Lu1  1  0.750000  0.505305  0.811146  1
  Sc  Sc2  1  0.250000  0.987456  0.298948  1
  Sc  Sc3  1  0.250000  0.489632  0.200014  1
  Co  Co4  1  0.250000  0.152366  0.950450  1
  Co  Co5  1  0.250000  0.663290  0.556687  1
  Co  Co6  1  0.750000  0.852559  0.066837  1
  Co  Co7  1  0.750000  0.355937  0.424721  1
  Si  Si8  1  0.250000  0.795849  0.903113  1
  Si  Si9  1  0.750000  0.703581  0.383395  1
  Si  Si10  1  0.750000  0.202391  0.115367  1
  Ge  Ge11  1  0.250000  0.291887  0.599191  1
