# generated using pymatgen
data_Y5Zn2Rh3
_symmetry_space_group_name_H-M   'P 1'
_cell_length_a   8.36132601
_cell_length_b   8.36132658
_cell_length_c   8.36132600
_cell_angle_alpha   109.47121439
_cell_angle_beta   109.47121576
_cell_angle_gamma   109.47122413
_symmetry_Int_Tables_number   1
_chemical_formula_structural   Y5Zn2Rh3
_chemical_formula_sum   'Y10 Zn4 Rh6'
_cell_volume   449.99081595
_cell_formula_units_Z   2
loop_
 _symmetry_equiv_pos_site_id
 _symmetry_equiv_pos_as_xyz
  1  'x, y, z'
loop_
 _atom_site_type_symbol
 _atom_site_label
 _atom_site_symmetry_multiplicity
 _atom_site_fract_x
 _atom_site_fract_y
 _atom_site_fract_z
 _atom_site_occupancy
  Y  Y0  1  0.000000  0.227778  0.000000  1
  Y  Y1  1  0.750000  0.433963  0.183964  1
  Y  Y2  1  0.433964  0.683965  0.250000  1
  Y  Y3  1  0.250000  0.066036  0.316037  1
  Y  Y4  1  0.227778  0.500001  0.500001  1
  Y  Y5  1  0.816036  0.250000  0.566036  1
  Y  Y6  1  0.500000  0.000000  0.727778  1
  Y  Y7  1  0.066036  0.816036  0.750000  1
  Y  Y8  1  0.272222  0.272222  0.772223  1
  Y  Y9  1  0.683965  0.750000  0.933964  1
  Zn  Zn10  1  0.000000  0.595740  0.000000  1
  Zn  Zn11  1  0.500000  0.000000  0.095740  1
  Zn  Zn12  1  0.904260  0.904260  0.404260  1
  Zn  Zn13  1  0.595740  0.500000  0.500000  1
  Rh  Rh14  1  0.366845  0.250000  0.116845  1
  Rh  Rh15  1  0.883156  0.133156  0.249999  1
  Rh  Rh16  1  0.133156  0.750000  0.383155  1
  Rh  Rh17  1  0.750000  0.883156  0.633156  1
  Rh  Rh18  1  0.616844  0.366845  0.750000  1
  Rh  Rh19  1  0.250000  0.616844  0.866845  1
