# generated using pymatgen
data_LiTm3LuAl3B16
_symmetry_space_group_name_H-M   'P 1'
_cell_length_a   3.49533400
_cell_length_b   5.92802496
_cell_length_c   11.46713504
_cell_angle_alpha   90.14974239
_cell_angle_beta   90.00000000
_cell_angle_gamma   90.00000000
_symmetry_Int_Tables_number   1
_chemical_formula_structural   LiTm3LuAl3B16
_chemical_formula_sum   'Li1 Tm3 Lu1 Al3 B16'
_cell_volume   237.60312539
_cell_formula_units_Z   1
loop_
 _symmetry_equiv_pos_site_id
 _symmetry_equiv_pos_as_xyz
  1  'x, y, z'
loop_
 _atom_site_type_symbol
 _atom_site_label
 _atom_site_symmetry_multiplicity
 _atom_site_fract_x
 _atom_site_fract_y
 _atom_site_fract_z
 _atom_site_occupancy
  Li  Li0  1  0.000000  0.635881  0.088508  1
  Tm  Tm1  1  0.000000  0.370105  0.651927  1
  Tm  Tm2  1  0.000000  0.124892  0.149265  1
  Tm  Tm3  1  0.000000  0.872631  0.851845  1
  Lu  Lu4  1  0.000000  0.630034  0.345464  1
  Al  Al5  1  0.000000  0.370051  0.916852  1
  Al  Al6  1  0.000000  0.138319  0.408161  1
  Al  Al7  1  0.000000  0.860620  0.589535  1
  B  B8  1  0.500000  0.787605  0.185476  1
  B  B9  1  0.500000  0.210183  0.813056  1
  B  B10  1  0.500000  0.292582  0.311820  1
  B  B11  1  0.500000  0.709140  0.687450  1
  B  B12  1  0.500000  0.865550  0.031755  1
  B  B13  1  0.500000  0.131818  0.969620  1
  B  B14  1  0.500000  0.367167  0.468743  1
  B  B15  1  0.500000  0.632486  0.530218  1
  B  B16  1  0.500000  0.885038  0.452074  1
  B  B17  1  0.500000  0.114030  0.546870  1
  B  B18  1  0.500000  0.388020  0.047895  1
  B  B19  1  0.500000  0.614531  0.954324  1
  B  B20  1  0.500000  0.970549  0.305628  1
  B  B21  1  0.500000  0.026364  0.693706  1
  B  B22  1  0.500000  0.476832  0.192524  1
  B  B23  1  0.500000  0.525573  0.807285  1
