# generated using pymatgen
data_TbLu3(Ga2Ag)4
_symmetry_space_group_name_H-M   'P 1'
_cell_length_a   4.35650500
_cell_length_b   6.90351736
_cell_length_c   10.18998015
_cell_angle_alpha   90.24947432
_cell_angle_beta   90.00000000
_cell_angle_gamma   90.00000000
_symmetry_Int_Tables_number   1
_chemical_formula_structural   TbLu3(Ga2Ag)4
_chemical_formula_sum   'Tb1 Lu3 Ga8 Ag4'
_cell_volume   306.46286635
_cell_formula_units_Z   1
loop_
 _symmetry_equiv_pos_site_id
 _symmetry_equiv_pos_as_xyz
  1  'x, y, z'
loop_
 _atom_site_type_symbol
 _atom_site_label
 _atom_site_symmetry_multiplicity
 _atom_site_fract_x
 _atom_site_fract_y
 _atom_site_fract_z
 _atom_site_occupancy
  Tb  Tb0  1  0.250000  0.277690  0.677219  1
  Lu  Lu1  1  0.250000  0.776513  0.824442  1
  Lu  Lu2  1  0.750000  0.222097  0.176870  1
  Lu  Lu3  1  0.750000  0.722886  0.323060  1
  Ga  Ga4  1  0.250000  0.930572  0.156619  1
  Ga  Ga5  1  0.750000  0.066215  0.844209  1
  Ga  Ga6  1  0.750000  0.572082  0.656284  1
  Ga  Ga7  1  0.250000  0.432780  0.343634  1
  Ga  Ga8  1  0.250000  0.702541  0.535335  1
  Ga  Ga9  1  0.750000  0.301278  0.463211  1
  Ga  Ga10  1  0.750000  0.801287  0.035714  1
  Ga  Ga11  1  0.250000  0.196370  0.966751  1
  Ag  Ag12  1  0.250000  0.545464  0.094672  1
  Ag  Ag13  1  0.750000  0.453263  0.905908  1
  Ag  Ag14  1  0.750000  0.952864  0.593036  1
  Ag  Ag15  1  0.250000  0.046097  0.403037  1
