# generated using pymatgen
data_BaLa2MnCoH12
_symmetry_space_group_name_H-M   'P 1'
_cell_length_a   5.13010800
_cell_length_b   5.13010813
_cell_length_c   8.43626300
_cell_angle_alpha   90.00000000
_cell_angle_beta   90.00000000
_cell_angle_gamma   119.99999917
_symmetry_Int_Tables_number   1
_chemical_formula_structural   BaLa2MnCoH12
_chemical_formula_sum   'Ba1 La2 Mn1 Co1 H12'
_cell_volume   192.27984911
_cell_formula_units_Z   1
loop_
 _symmetry_equiv_pos_site_id
 _symmetry_equiv_pos_as_xyz
  1  'x, y, z'
loop_
 _atom_site_type_symbol
 _atom_site_label
 _atom_site_symmetry_multiplicity
 _atom_site_fract_x
 _atom_site_fract_y
 _atom_site_fract_z
 _atom_site_occupancy
  Ba  Ba0  1  0.000000  0.000000  0.020757  1
  La  La1  1  0.666667  0.333333  0.347466  1
  La  La2  1  0.333333  0.666667  0.626590  1
  Mn  Mn3  1  0.333333  0.666667  0.269704  1
  Co  Co4  1  0.666667  0.333333  0.730693  1
  H  H5  1  0.177465  0.822535  0.380492  1
  H  H6  1  0.645071  0.822535  0.380492  1
  H  H7  1  0.177465  0.354929  0.380492  1
  H  H8  1  0.815627  0.184373  0.630080  1
  H  H9  1  0.368745  0.184373  0.630080  1
  H  H10  1  0.815627  0.631255  0.630080  1
  H  H11  1  0.530411  0.060822  0.843380  1
  H  H12  1  0.530411  0.469589  0.843380  1
  H  H13  1  0.939178  0.469589  0.843380  1
  H  H14  1  0.482406  0.964811  0.147645  1
  H  H15  1  0.482406  0.517594  0.147645  1
  H  H16  1  0.035189  0.517594  0.147645  1
