# generated using pymatgen
data_HoLu5(Sb4Au3)2
_symmetry_space_group_name_H-M   'P 1'
_cell_length_a   8.54158583
_cell_length_b   8.54017079
_cell_length_c   8.54158574
_cell_angle_alpha   109.41738391
_cell_angle_beta   109.57830833
_cell_angle_gamma   109.42471748
_symmetry_Int_Tables_number   1
_chemical_formula_structural   HoLu5(Sb4Au3)2
_chemical_formula_sum   'Ho1 Lu5 Sb8 Au6'
_cell_volume   479.60608830
_cell_formula_units_Z   1
loop_
 _symmetry_equiv_pos_site_id
 _symmetry_equiv_pos_as_xyz
  1  'x, y, z'
loop_
 _atom_site_type_symbol
 _atom_site_label
 _atom_site_symmetry_multiplicity
 _atom_site_fract_x
 _atom_site_fract_y
 _atom_site_fract_z
 _atom_site_occupancy
  Ho  Ho0  1  0.874720  0.250000  0.124720  1
  Lu  Lu1  1  0.625152  0.750000  0.375152  1
  Lu  Lu2  1  0.249606  0.124452  0.874079  1
  Lu  Lu3  1  0.749627  0.375548  0.625154  1
  Lu  Lu4  1  0.125434  0.874814  0.250009  1
  Lu  Lu5  1  0.375195  0.625186  0.750620  1
  Sb  Sb6  1  0.680053  0.498463  0.999612  1
  Sb  Sb7  1  0.501149  0.001537  0.681590  1
  Sb  Sb8  1  0.000317  0.680856  0.499785  1
  Sb  Sb9  1  0.818930  0.819144  0.819461  1
  Sb  Sb10  1  0.500366  0.000517  0.181216  1
  Sb  Sb11  1  0.180699  0.499483  0.999849  1
  Sb  Sb12  1  0.000380  0.181015  0.498930  1
  Sb  Sb13  1  0.317915  0.318985  0.319365  1
  Au  Au14  1  0.374937  0.250000  0.624937  1
  Au  Au15  1  0.125102  0.750000  0.875102  1
  Au  Au16  1  0.254076  0.628478  0.377569  1
  Au  Au17  1  0.749092  0.871522  0.125598  1
  Au  Au18  1  0.622481  0.376756  0.251524  1
  Au  Au19  1  0.874768  0.123244  0.745726  1
