# generated using pymatgen
data_Ba6TbTm(BO3)6
_symmetry_space_group_name_H-M   'P 1'
_cell_length_a   8.22806019
_cell_length_b   8.22806121
_cell_length_c   8.22806039
_cell_angle_alpha   105.65280923
_cell_angle_beta   105.65280496
_cell_angle_gamma   105.65280325
_symmetry_Int_Tables_number   1
_chemical_formula_structural   Ba6TbTm(BO3)6
_chemical_formula_sum   'Ba6 Tb1 Tm1 B6 O18'
_cell_volume   479.94445696
_cell_formula_units_Z   1
loop_
 _symmetry_equiv_pos_site_id
 _symmetry_equiv_pos_as_xyz
  1  'x, y, z'
loop_
 _atom_site_type_symbol
 _atom_site_label
 _atom_site_symmetry_multiplicity
 _atom_site_fract_x
 _atom_site_fract_y
 _atom_site_fract_z
 _atom_site_occupancy
  Ba  Ba0  1  0.350463  0.734093  0.841873  1
  Ba  Ba1  1  0.841873  0.350463  0.734093  1
  Ba  Ba2  1  0.734093  0.841873  0.350463  1
  Ba  Ba3  1  0.649537  0.265907  0.158127  1
  Ba  Ba4  1  0.158127  0.649537  0.265907  1
  Ba  Ba5  1  0.265907  0.158127  0.649537  1
  Tb  Tb6  1  0.000000  0.000000  0.000000  1
  Tm  Tm7  1  0.500000  0.500000  0.500000  1
  B  B8  1  0.709452  0.622410  0.954713  1
  B  B9  1  0.954713  0.709452  0.622410  1
  B  B10  1  0.622410  0.954713  0.709452  1
  B  B11  1  0.045287  0.290548  0.377590  1
  B  B12  1  0.377590  0.045287  0.290548  1
  B  B13  1  0.290548  0.377590  0.045287  1
  O  O14  1  0.060713  0.803796  0.548610  1
  O  O15  1  0.548610  0.060713  0.803796  1
  O  O16  1  0.427224  0.490374  0.215478  1
  O  O17  1  0.490374  0.215478  0.427224  1
  O  O18  1  0.215478  0.427224  0.490374  1
  O  O19  1  0.784522  0.572776  0.509626  1
  O  O20  1  0.572776  0.509626  0.784522  1
  O  O21  1  0.509626  0.784522  0.572776  1
  O  O22  1  0.256834  0.191263  0.984016  1
  O  O23  1  0.191263  0.984016  0.256834  1
  O  O24  1  0.984016  0.256834  0.191263  1
  O  O25  1  0.743166  0.808737  0.015984  1
  O  O26  1  0.808737  0.015984  0.743166  1
  O  O27  1  0.015984  0.743166  0.808737  1
  O  O28  1  0.196204  0.451390  0.939287  1
  O  O29  1  0.451390  0.939287  0.196204  1
  O  O30  1  0.939287  0.196204  0.451390  1
  O  O31  1  0.803796  0.548610  0.060713  1
