# generated using pymatgen
data_Hf3CrTc2P3
_symmetry_space_group_name_H-M   'P 1'
_cell_length_a   6.72397501
_cell_length_b   6.72397679
_cell_length_c   3.44667800
_cell_angle_alpha   90.00000000
_cell_angle_beta   90.00000000
_cell_angle_gamma   120.35249651
_symmetry_Int_Tables_number   1
_chemical_formula_structural   Hf3CrTc2P3
_chemical_formula_sum   'Hf3 Cr1 Tc2 P3'
_cell_volume   134.47143709
_cell_formula_units_Z   1
loop_
 _symmetry_equiv_pos_site_id
 _symmetry_equiv_pos_as_xyz
  1  'x, y, z'
loop_
 _atom_site_type_symbol
 _atom_site_label
 _atom_site_symmetry_multiplicity
 _atom_site_fract_x
 _atom_site_fract_y
 _atom_site_fract_z
 _atom_site_occupancy
  Hf  Hf0  1  0.409272  0.409272  0.500000  1
  Hf  Hf1  1  0.595045  0.998276  0.500000  1
  Hf  Hf2  1  0.998276  0.595045  0.500000  1
  Cr  Cr3  1  0.751778  0.751778  0.000000  1
  Tc  Tc4  1  0.001145  0.247992  0.000000  1
  Tc  Tc5  1  0.247992  0.001145  0.000000  1
  P  P6  1  0.668745  0.339694  0.000000  1
  P  P7  1  0.339694  0.668745  0.000000  1
  P  P8  1  0.988055  0.988055  0.500000  1
