# generated using pymatgen
data_Ta4Mn2Al5V
_symmetry_space_group_name_H-M   'P 1'
_cell_length_a   5.06977721
_cell_length_b   5.02610109
_cell_length_c   8.19854349
_cell_angle_alpha   90.00000007
_cell_angle_beta   89.86920369
_cell_angle_gamma   119.71543158
_symmetry_Int_Tables_number   1
_chemical_formula_structural   Ta4Mn2Al5V
_chemical_formula_sum   'Ta4 Mn2 Al5 V1'
_cell_volume   181.43628379
_cell_formula_units_Z   1
loop_
 _symmetry_equiv_pos_site_id
 _symmetry_equiv_pos_as_xyz
  1  'x, y, z'
loop_
 _atom_site_type_symbol
 _atom_site_label
 _atom_site_symmetry_multiplicity
 _atom_site_fract_x
 _atom_site_fract_y
 _atom_site_fract_z
 _atom_site_occupancy
  Ta  Ta0  1  0.334642  0.668494  0.061718  1
  Ta  Ta1  1  0.662692  0.328020  0.560539  1
  Ta  Ta2  1  0.665358  0.333850  0.938282  1
  Ta  Ta3  1  0.337308  0.665330  0.439461  1
  Mn  Mn4  1  0.847810  0.172841  0.237617  1
  Mn  Mn5  1  0.152190  0.325032  0.762383  1
  Al  Al6  1  0.000000  0.025282  0.500000  1
  Al  Al7  1  0.837358  0.658590  0.248444  1
  Al  Al8  1  0.162642  0.821232  0.751556  1
  Al  Al9  1  0.644860  0.811858  0.751163  1
  Al  Al10  1  0.355140  0.166997  0.248837  1
  V  V11  1  0.000000  0.022475  0.000000  1
