# generated using pymatgen
data_MgZnFeB2Rh5
_symmetry_space_group_name_H-M   'P 1'
_cell_length_a   9.38908321
_cell_length_b   9.38908264
_cell_length_c   2.90129300
_cell_angle_alpha   90.00000000
_cell_angle_beta   90.00000000
_cell_angle_gamma   90.88421296
_symmetry_Int_Tables_number   1
_chemical_formula_structural   MgZnFeB2Rh5
_chemical_formula_sum   'Mg2 Zn2 Fe2 B4 Rh10'
_cell_volume   255.73267526
_cell_formula_units_Z   2
loop_
 _symmetry_equiv_pos_site_id
 _symmetry_equiv_pos_as_xyz
  1  'x, y, z'
loop_
 _atom_site_type_symbol
 _atom_site_label
 _atom_site_symmetry_multiplicity
 _atom_site_fract_x
 _atom_site_fract_y
 _atom_site_fract_z
 _atom_site_occupancy
  Mg  Mg0  1  0.177060  0.322940  0.000000  1
  Mg  Mg1  1  0.822940  0.677060  0.000000  1
  Zn  Zn2  1  0.000000  0.000000  0.000000  1
  Zn  Zn3  1  0.500000  0.500000  0.000000  1
  Fe  Fe4  1  0.676390  0.176390  0.000000  1
  Fe  Fe5  1  0.323610  0.823610  0.000000  1
  B  B6  1  0.127440  0.627440  0.000000  1
  B  B7  1  0.872560  0.372560  0.000000  1
  B  B8  1  0.626623  0.873377  0.000000  1
  B  B9  1  0.373377  0.126623  0.000000  1
  Rh  Rh10  1  0.500000  0.000000  0.500000  1
  Rh  Rh11  1  0.000000  0.500000  0.500000  1
  Rh  Rh12  1  0.219191  0.062984  0.500000  1
  Rh  Rh13  1  0.780809  0.937016  0.500000  1
  Rh  Rh14  1  0.078786  0.786850  0.500000  1
  Rh  Rh15  1  0.713150  0.421214  0.500000  1
  Rh  Rh16  1  0.921214  0.213150  0.500000  1
  Rh  Rh17  1  0.286850  0.578786  0.500000  1
  Rh  Rh18  1  0.562984  0.719191  0.500000  1
  Rh  Rh19  1  0.437016  0.280809  0.500000  1
