# generated using pymatgen
data_Sm4Lu6Ga7Si
_symmetry_space_group_name_H-M   'P 1'
_cell_length_a   7.49457284
_cell_length_b   7.72847052
_cell_length_c   15.07033600
_cell_angle_alpha   90.00000000
_cell_angle_beta   90.00000000
_cell_angle_gamma   90.20498461
_symmetry_Int_Tables_number   1
_chemical_formula_structural   Sm4Lu6Ga7Si
_chemical_formula_sum   'Sm8 Lu12 Ga14 Si2'
_cell_volume   872.89216526
_cell_formula_units_Z   2
loop_
 _symmetry_equiv_pos_site_id
 _symmetry_equiv_pos_as_xyz
  1  'x, y, z'
loop_
 _atom_site_type_symbol
 _atom_site_label
 _atom_site_symmetry_multiplicity
 _atom_site_fract_x
 _atom_site_fract_y
 _atom_site_fract_z
 _atom_site_occupancy
  Sm  Sm0  1  0.015115  0.177341  0.097141  1
  Sm  Sm1  1  0.984885  0.822659  0.902859  1
  Sm  Sm2  1  0.486374  0.676664  0.903216  1
  Sm  Sm3  1  0.984885  0.822659  0.597141  1
  Sm  Sm4  1  0.513626  0.323336  0.096784  1
  Sm  Sm5  1  0.015115  0.177341  0.402859  1
  Sm  Sm6  1  0.513626  0.323336  0.403216  1
  Sm  Sm7  1  0.486374  0.676664  0.596784  1
  Lu  Lu8  1  0.160955  0.508036  0.750000  1
  Lu  Lu9  1  0.839045  0.491964  0.250000  1
  Lu  Lu10  1  0.337448  0.009485  0.250000  1
  Lu  Lu11  1  0.662552  0.990515  0.750000  1
  Lu  Lu12  1  0.329230  0.175810  0.622082  1
  Lu  Lu13  1  0.670770  0.824190  0.377918  1
  Lu  Lu14  1  0.171500  0.674095  0.377398  1
  Lu  Lu15  1  0.670770  0.824190  0.122082  1
  Lu  Lu16  1  0.828500  0.325905  0.622602  1
  Lu  Lu17  1  0.329230  0.175810  0.877918  1
  Lu  Lu18  1  0.828500  0.325905  0.877398  1
  Lu  Lu19  1  0.171500  0.674095  0.122602  1
  Ga  Ga20  1  0.034103  0.114907  0.750000  1
  Ga  Ga21  1  0.965897  0.885093  0.250000  1
  Ga  Ga22  1  0.464877  0.610865  0.250000  1
  Ga  Ga23  1  0.535123  0.389135  0.750000  1
  Ga  Ga24  1  0.281931  0.874976  0.750000  1
  Ga  Ga25  1  0.718069  0.125024  0.250000  1
  Ga  Ga26  1  0.155793  0.466739  0.539340  1
  Ga  Ga27  1  0.844207  0.533261  0.460660  1
  Ga  Ga28  1  0.343104  0.966539  0.460584  1
  Ga  Ga29  1  0.844207  0.533261  0.039340  1
  Ga  Ga30  1  0.656896  0.033461  0.539416  1
  Ga  Ga31  1  0.155793  0.466739  0.960660  1
  Ga  Ga32  1  0.656896  0.033461  0.960584  1
  Ga  Ga33  1  0.343104  0.966539  0.039416  1
  Si  Si34  1  0.218752  0.377616  0.250000  1
  Si  Si35  1  0.781248  0.622384  0.750000  1
