# generated using pymatgen
data_Hf18Re2Mo5WSe2
_symmetry_space_group_name_H-M   'P 1'
_cell_length_a   8.70253400
_cell_length_b   8.73590664
_cell_length_c   8.62724200
_cell_angle_alpha   90.00000000
_cell_angle_beta   90.00000000
_cell_angle_gamma   119.87370251
_symmetry_Int_Tables_number   1
_chemical_formula_structural   Hf18Re2Mo5WSe2
_chemical_formula_sum   'Hf18 Re2 Mo5 W1 Se2'
_cell_volume   568.73195126
_cell_formula_units_Z   1
loop_
 _symmetry_equiv_pos_site_id
 _symmetry_equiv_pos_as_xyz
  1  'x, y, z'
loop_
 _atom_site_type_symbol
 _atom_site_label
 _atom_site_symmetry_multiplicity
 _atom_site_fract_x
 _atom_site_fract_y
 _atom_site_fract_z
 _atom_site_occupancy
  Hf  Hf0  1  0.542945  0.085890  0.250000  1
  Hf  Hf1  1  0.456810  0.913621  0.750000  1
  Hf  Hf2  1  0.914133  0.457075  0.250000  1
  Hf  Hf3  1  0.085814  0.542922  0.750000  1
  Hf  Hf4  1  0.542942  0.457075  0.250000  1
  Hf  Hf5  1  0.457108  0.542922  0.750000  1
  Hf  Hf6  1  0.192969  0.385936  0.046979  1
  Hf  Hf7  1  0.806724  0.613449  0.952782  1
  Hf  Hf8  1  0.614778  0.807126  0.047906  1
  Hf  Hf9  1  0.806724  0.613449  0.547218  1
  Hf  Hf10  1  0.386271  0.192950  0.952838  1
  Hf  Hf11  1  0.192969  0.385936  0.453021  1
  Hf  Hf12  1  0.192348  0.807126  0.047906  1
  Hf  Hf13  1  0.386271  0.192950  0.547162  1
  Hf  Hf14  1  0.806678  0.192950  0.952838  1
  Hf  Hf15  1  0.614778  0.807126  0.452094  1
  Hf  Hf16  1  0.806678  0.192950  0.547162  1
  Hf  Hf17  1  0.192348  0.807126  0.452094  1
  Re  Re18  1  0.000198  0.000397  0.999431  1
  Re  Re19  1  0.000198  0.000397  0.500569  1
  Mo  Mo20  1  0.109494  0.218988  0.750000  1
  Mo  Mo21  1  0.219806  0.109988  0.250000  1
  Mo  Mo22  1  0.780594  0.890321  0.750000  1
  Mo  Mo23  1  0.890181  0.109988  0.250000  1
  Mo  Mo24  1  0.109727  0.890321  0.750000  1
  W  W25  1  0.890659  0.781319  0.250000  1
  Se  Se26  1  0.333128  0.666258  0.250000  1
  Se  Se27  1  0.666723  0.333445  0.750000  1
