# generated using pymatgen
data_Nd8MgCdOsPt
_symmetry_space_group_name_H-M   'P 1'
_cell_length_a   10.02470795
_cell_length_b   10.02470676
_cell_length_c   10.10376700
_cell_angle_alpha   59.73876737
_cell_angle_beta   59.73877133
_cell_angle_gamma   59.59968067
_symmetry_Int_Tables_number   1
_chemical_formula_structural   Nd8MgCdOsPt
_chemical_formula_sum   'Nd16 Mg2 Cd2 Os2 Pt2'
_cell_volume   712.95943718
_cell_formula_units_Z   2
loop_
 _symmetry_equiv_pos_site_id
 _symmetry_equiv_pos_as_xyz
  1  'x, y, z'
loop_
 _atom_site_type_symbol
 _atom_site_label
 _atom_site_symmetry_multiplicity
 _atom_site_fract_x
 _atom_site_fract_y
 _atom_site_fract_z
 _atom_site_occupancy
  Nd  Nd0  1  0.347664  0.347664  0.353162  1
  Nd  Nd1  1  0.347664  0.347664  0.951509  1
  Nd  Nd2  1  0.343066  0.960623  0.348156  1
  Nd  Nd3  1  0.960623  0.343066  0.348156  1
  Nd  Nd4  1  0.815487  0.188201  0.190669  1
  Nd  Nd5  1  0.188201  0.815487  0.805644  1
  Nd  Nd6  1  0.188201  0.815487  0.190669  1
  Nd  Nd7  1  0.815487  0.188201  0.805644  1
  Nd  Nd8  1  0.189666  0.189666  0.810334  1
  Nd  Nd9  1  0.809023  0.809023  0.190977  1
  Nd  Nd10  1  0.939432  0.556221  0.565815  1
  Nd  Nd11  1  0.556221  0.939432  0.938533  1
  Nd  Nd12  1  0.556221  0.939432  0.565815  1
  Nd  Nd13  1  0.939432  0.556221  0.938533  1
  Nd  Nd14  1  0.563063  0.563063  0.936937  1
  Nd  Nd15  1  0.939117  0.939117  0.560883  1
  Mg  Mg16  1  0.576326  0.576326  0.579240  1
  Mg  Mg17  1  0.576326  0.576326  0.268108  1
  Cd  Cd18  1  0.581270  0.257922  0.580405  1
  Cd  Cd19  1  0.257922  0.581270  0.580405  1
  Os  Os20  1  0.144289  0.144289  0.136127  1
  Os  Os21  1  0.144289  0.144289  0.575294  1
  Pt  Pt22  1  0.146256  0.574757  0.139493  1
  Pt  Pt23  1  0.574757  0.146256  0.139493  1
