# generated using pymatgen
data_LiTb6Mg(Co4P3)4
_symmetry_space_group_name_H-M   'P 1'
_cell_length_a   3.74238600
_cell_length_b   10.62874100
_cell_length_c   12.29337500
_cell_angle_alpha   90.00000000
_cell_angle_beta   90.00000000
_cell_angle_gamma   90.00000000
_symmetry_Int_Tables_number   1
_chemical_formula_structural   LiTb6Mg(Co4P3)4
_chemical_formula_sum   'Li1 Tb6 Mg1 Co16 P12'
_cell_volume   488.99175201
_cell_formula_units_Z   1
loop_
 _symmetry_equiv_pos_site_id
 _symmetry_equiv_pos_as_xyz
  1  'x, y, z'
loop_
 _atom_site_type_symbol
 _atom_site_label
 _atom_site_symmetry_multiplicity
 _atom_site_fract_x
 _atom_site_fract_y
 _atom_site_fract_z
 _atom_site_occupancy
  Li  Li0  1  0.000000  0.000000  0.844818  1
  Tb  Tb1  1  0.000000  0.500000  0.525415  1
  Tb  Tb2  1  0.500000  0.000000  0.477880  1
  Tb  Tb3  1  0.500000  0.821545  0.206881  1
  Tb  Tb4  1  0.500000  0.178455  0.206881  1
  Tb  Tb5  1  0.000000  0.681185  0.794359  1
  Tb  Tb6  1  0.000000  0.318815  0.794359  1
  Mg  Mg7  1  0.500000  0.500000  0.153616  1
  Co  Co8  1  0.500000  0.500000  0.704387  1
  Co  Co9  1  0.000000  0.000000  0.295521  1
  Co  Co10  1  0.000000  0.500000  0.986867  1
  Co  Co11  1  0.500000  0.000000  0.012534  1
  Co  Co12  1  0.500000  0.330862  0.994492  1
  Co  Co13  1  0.500000  0.669138  0.994492  1
  Co  Co14  1  0.000000  0.165095  0.001295  1
  Co  Co15  1  0.000000  0.834905  0.001295  1
  Co  Co16  1  0.500000  0.296086  0.432225  1
  Co  Co17  1  0.500000  0.703914  0.432225  1
  Co  Co18  1  0.000000  0.202867  0.569431  1
  Co  Co19  1  0.000000  0.797133  0.569431  1
  Co  Co20  1  0.500000  0.879291  0.706520  1
  Co  Co21  1  0.500000  0.120709  0.706520  1
  Co  Co22  1  0.000000  0.621870  0.294033  1
  Co  Co23  1  0.000000  0.378130  0.294033  1
  P  P24  1  0.500000  0.500000  0.884030  1
  P  P25  1  0.000000  0.000000  0.114506  1
  P  P26  1  0.500000  0.500000  0.353430  1
  P  P27  1  0.000000  0.000000  0.653834  1
  P  P28  1  0.500000  0.308271  0.616125  1
  P  P29  1  0.500000  0.691729  0.616125  1
  P  P30  1  0.000000  0.190600  0.385704  1
  P  P31  1  0.000000  0.809400  0.385704  1
  P  P32  1  0.500000  0.845717  0.892109  1
  P  P33  1  0.500000  0.154283  0.892109  1
  P  P34  1  0.000000  0.662232  0.103407  1
  P  P35  1  0.000000  0.337768  0.103407  1
