# generated using pymatgen
data_Y13Th3(AgRh)4
_symmetry_space_group_name_H-M   'P 1'
_cell_length_a   9.64167109
_cell_length_b   9.64827956
_cell_length_c   9.64827900
_cell_angle_alpha   59.99999849
_cell_angle_beta   59.97732280
_cell_angle_gamma   59.97732569
_symmetry_Int_Tables_number   1
_chemical_formula_structural   Y13Th3(AgRh)4
_chemical_formula_sum   'Y13 Th3 Ag4 Rh4'
_cell_volume   634.43641817
_cell_formula_units_Z   1
loop_
 _symmetry_equiv_pos_site_id
 _symmetry_equiv_pos_as_xyz
  1  'x, y, z'
loop_
 _atom_site_type_symbol
 _atom_site_label
 _atom_site_symmetry_multiplicity
 _atom_site_fract_x
 _atom_site_fract_y
 _atom_site_fract_z
 _atom_site_occupancy
  Y  Y0  1  0.180270  0.606577  0.606577  1
  Y  Y1  1  0.062778  0.438394  0.438394  1
  Y  Y2  1  0.436816  0.062940  0.062940  1
  Y  Y3  1  0.436816  0.062940  0.437304  1
  Y  Y4  1  0.062778  0.438394  0.060434  1
  Y  Y5  1  0.436816  0.437304  0.062940  1
  Y  Y6  1  0.062778  0.060434  0.438394  1
  Y  Y7  1  0.185434  0.814292  0.814292  1
  Y  Y8  1  0.816540  0.184048  0.184048  1
  Y  Y9  1  0.816540  0.184048  0.815365  1
  Y  Y10  1  0.185434  0.814292  0.185981  1
  Y  Y11  1  0.816540  0.815365  0.184048  1
  Y  Y12  1  0.185434  0.185981  0.814292  1
  Th  Th13  1  0.602542  0.602611  0.602611  1
  Th  Th14  1  0.602542  0.602611  0.192237  1
  Th  Th15  1  0.602542  0.192237  0.602611  1
  Ag  Ag16  1  0.833676  0.832551  0.832551  1
  Ag  Ag17  1  0.833676  0.832551  0.501222  1
  Ag  Ag18  1  0.833676  0.501222  0.832551  1
  Ag  Ag19  1  0.500124  0.833292  0.833292  1
  Rh  Rh20  1  0.397081  0.394277  0.394277  1
  Rh  Rh21  1  0.397081  0.394277  0.814367  1
  Rh  Rh22  1  0.397081  0.814367  0.394277  1
  Rh  Rh23  1  0.815007  0.394998  0.394998  1
