# generated using pymatgen
data_HoErFe3Co9P7
_symmetry_space_group_name_H-M   'P 1'
_cell_length_a   8.98097700
_cell_length_b   8.98097618
_cell_length_c   3.60824900
_cell_angle_alpha   90.00000000
_cell_angle_beta   90.00000000
_cell_angle_gamma   120.00000669
_symmetry_Int_Tables_number   1
_chemical_formula_structural   HoErFe3Co9P7
_chemical_formula_sum   'Ho1 Er1 Fe3 Co9 P7'
_cell_volume   252.04276257
_cell_formula_units_Z   1
loop_
 _symmetry_equiv_pos_site_id
 _symmetry_equiv_pos_as_xyz
  1  'x, y, z'
loop_
 _atom_site_type_symbol
 _atom_site_label
 _atom_site_symmetry_multiplicity
 _atom_site_fract_x
 _atom_site_fract_y
 _atom_site_fract_z
 _atom_site_occupancy
  Ho  Ho0  1  0.000000  0.000000  0.000000  1
  Er  Er1  1  0.333333  0.666667  0.500000  1
  Fe  Fe2  1  0.542904  0.115860  0.500000  1
  Fe  Fe3  1  0.572956  0.457096  0.500000  1
  Fe  Fe4  1  0.884140  0.427044  0.500000  1
  Co  Co5  1  0.295300  0.901669  0.000000  1
  Co  Co6  1  0.606370  0.704700  0.000000  1
  Co  Co7  1  0.098331  0.393630  0.000000  1
  Co  Co8  1  0.783902  0.176045  0.000000  1
  Co  Co9  1  0.392143  0.216098  0.000000  1
  Co  Co10  1  0.823955  0.607857  0.000000  1
  Co  Co11  1  0.716276  0.948707  0.500000  1
  Co  Co12  1  0.232432  0.283724  0.500000  1
  Co  Co13  1  0.051293  0.767568  0.500000  1
  P  P14  1  0.553070  0.923358  0.000000  1
  P  P15  1  0.370288  0.446930  0.000000  1
  P  P16  1  0.076642  0.629712  0.000000  1
  P  P17  1  0.956506  0.220753  0.500000  1
  P  P18  1  0.264246  0.043494  0.500000  1
  P  P19  1  0.779247  0.735754  0.500000  1
  P  P20  1  0.666667  0.333333  0.000000  1
