# generated using pymatgen
data_Dy2Ho14In3HgRh4
_symmetry_space_group_name_H-M   'P 1'
_cell_length_a   9.61555446
_cell_length_b   9.61555459
_cell_length_c   9.61445257
_cell_angle_alpha   59.88467186
_cell_angle_beta   59.88467250
_cell_angle_gamma   59.90523128
_symmetry_Int_Tables_number   1
_chemical_formula_structural   Dy2Ho14In3HgRh4
_chemical_formula_sum   'Dy2 Ho14 In3 Hg1 Rh4'
_cell_volume   627.02961106
_cell_formula_units_Z   1
loop_
 _symmetry_equiv_pos_site_id
 _symmetry_equiv_pos_as_xyz
  1  'x, y, z'
loop_
 _atom_site_type_symbol
 _atom_site_label
 _atom_site_symmetry_multiplicity
 _atom_site_fract_x
 _atom_site_fract_y
 _atom_site_fract_z
 _atom_site_occupancy
  Dy  Dy0  1  0.188066  0.188066  0.811846  1
  Dy  Dy1  1  0.601998  0.601998  0.197719  1
  Ho  Ho2  1  0.439728  0.059510  0.439434  1
  Ho  Ho3  1  0.439465  0.439465  0.059596  1
  Ho  Ho4  1  0.813213  0.184504  0.813499  1
  Ho  Ho5  1  0.187970  0.811715  0.188316  1
  Ho  Ho6  1  0.436299  0.061290  0.061202  1
  Ho  Ho7  1  0.184504  0.813213  0.813499  1
  Ho  Ho8  1  0.061290  0.436299  0.061202  1
  Ho  Ho9  1  0.813625  0.813625  0.184328  1
  Ho  Ho10  1  0.197809  0.602142  0.601930  1
  Ho  Ho11  1  0.059510  0.439728  0.439434  1
  Ho  Ho12  1  0.061103  0.061103  0.436355  1
  Ho  Ho13  1  0.811715  0.187970  0.188316  1
  Ho  Ho14  1  0.602142  0.197809  0.601930  1
  Ho  Ho15  1  0.598260  0.598260  0.598320  1
  In  In16  1  0.832395  0.832395  0.502223  1
  In  In17  1  0.502518  0.832289  0.832269  1
  In  In18  1  0.832289  0.502518  0.832269  1
  Hg  Hg19  1  0.836326  0.836326  0.836036  1
  Rh  Rh20  1  0.391664  0.822979  0.391996  1
  Rh  Rh21  1  0.393280  0.393280  0.393376  1
  Rh  Rh22  1  0.822979  0.391664  0.391996  1
  Rh  Rh23  1  0.391854  0.391854  0.822907  1
