# generated using pymatgen
data_Yb5Er3(Pd2Pb)4
_symmetry_space_group_name_H-M   'P 1'
_cell_length_a   7.86069200
_cell_length_b   7.86069177
_cell_length_c   7.36593000
_cell_angle_alpha   90.00000000
_cell_angle_beta   90.00000000
_cell_angle_gamma   91.30529211
_symmetry_Int_Tables_number   1
_chemical_formula_structural   Yb5Er3(Pd2Pb)4
_chemical_formula_sum   'Yb5 Er3 Pd8 Pb4'
_cell_volume   455.02622224
_cell_formula_units_Z   1
loop_
 _symmetry_equiv_pos_site_id
 _symmetry_equiv_pos_as_xyz
  1  'x, y, z'
loop_
 _atom_site_type_symbol
 _atom_site_label
 _atom_site_symmetry_multiplicity
 _atom_site_fract_x
 _atom_site_fract_y
 _atom_site_fract_z
 _atom_site_occupancy
  Yb  Yb0  1  0.338371  0.339952  0.500000  1
  Yb  Yb1  1  0.660048  0.661629  0.500000  1
  Yb  Yb2  1  0.178040  0.821960  0.500000  1
  Yb  Yb3  1  0.838027  0.161973  0.000000  1
  Yb  Yb4  1  0.161360  0.838640  0.000000  1
  Er  Er5  1  0.681809  0.677768  0.000000  1
  Er  Er6  1  0.821599  0.178401  0.500000  1
  Er  Er7  1  0.322232  0.318191  0.000000  1
  Pd  Pd8  1  0.869188  0.875530  0.733080  1
  Pd  Pd9  1  0.124470  0.130812  0.733080  1
  Pd  Pd10  1  0.629256  0.370744  0.769013  1
  Pd  Pd11  1  0.629256  0.370744  0.230987  1
  Pd  Pd12  1  0.377484  0.622516  0.219536  1
  Pd  Pd13  1  0.124470  0.130812  0.266920  1
  Pd  Pd14  1  0.869188  0.875530  0.266920  1
  Pd  Pd15  1  0.377484  0.622516  0.780464  1
  Pb  Pb16  1  0.497862  0.999004  0.748505  1
  Pb  Pb17  1  0.497862  0.999004  0.251495  1
  Pb  Pb18  1  0.000996  0.502138  0.748505  1
  Pb  Pb19  1  0.000996  0.502138  0.251495  1
