# generated using pymatgen
data_CeY15(CdIr)4
_symmetry_space_group_name_H-M   'P 1'
_cell_length_a   9.70954082
_cell_length_b   9.70954030
_cell_length_c   9.70954084
_cell_angle_alpha   59.70009299
_cell_angle_beta   59.70009519
_cell_angle_gamma   59.70009632
_symmetry_Int_Tables_number   1
_chemical_formula_structural   CeY15(CdIr)4
_chemical_formula_sum   'Ce1 Y15 Cd4 Ir4'
_cell_volume   642.85404866
_cell_formula_units_Z   1
loop_
 _symmetry_equiv_pos_site_id
 _symmetry_equiv_pos_as_xyz
  1  'x, y, z'
loop_
 _atom_site_type_symbol
 _atom_site_label
 _atom_site_symmetry_multiplicity
 _atom_site_fract_x
 _atom_site_fract_y
 _atom_site_fract_z
 _atom_site_occupancy
  Ce  Ce0  1  0.344009  0.344009  0.344009  1
  Y  Y1  1  0.350781  0.350781  0.949106  1
  Y  Y2  1  0.350781  0.949106  0.350781  1
  Y  Y3  1  0.949106  0.350781  0.350781  1
  Y  Y4  1  0.811460  0.189613  0.189613  1
  Y  Y5  1  0.188454  0.810800  0.810800  1
  Y  Y6  1  0.189613  0.811460  0.189613  1
  Y  Y7  1  0.810800  0.188454  0.810800  1
  Y  Y8  1  0.189613  0.189613  0.811460  1
  Y  Y9  1  0.810800  0.810800  0.188454  1
  Y  Y10  1  0.939830  0.562650  0.562650  1
  Y  Y11  1  0.561194  0.938696  0.938696  1
  Y  Y12  1  0.562650  0.939830  0.562650  1
  Y  Y13  1  0.938696  0.561194  0.938696  1
  Y  Y14  1  0.562650  0.562650  0.939830  1
  Y  Y15  1  0.938696  0.938696  0.561194  1
  Cd  Cd16  1  0.579516  0.579516  0.579516  1
  Cd  Cd17  1  0.580343  0.580343  0.256537  1
  Cd  Cd18  1  0.580343  0.256537  0.580343  1
  Cd  Cd19  1  0.256537  0.580343  0.580343  1
  Ir  Ir20  1  0.142443  0.142443  0.142443  1
  Ir  Ir21  1  0.144003  0.144003  0.573678  1
  Ir  Ir22  1  0.144003  0.573678  0.144003  1
  Ir  Ir23  1  0.573678  0.144003  0.144003  1
