# generated using pymatgen
data_YTmLu4(Al3Os)8
_symmetry_space_group_name_H-M   'P 1'
_cell_length_a   8.77376000
_cell_length_b   8.77208137
_cell_length_c   9.58946200
_cell_angle_alpha   90.00000000
_cell_angle_beta   90.00000000
_cell_angle_gamma   119.95963254
_symmetry_Int_Tables_number   1
_chemical_formula_structural   YTmLu4(Al3Os)8
_chemical_formula_sum   'Y1 Tm1 Lu4 Al24 Os8'
_cell_volume   639.42526222
_cell_formula_units_Z   1
loop_
 _symmetry_equiv_pos_site_id
 _symmetry_equiv_pos_as_xyz
  1  'x, y, z'
loop_
 _atom_site_type_symbol
 _atom_site_label
 _atom_site_symmetry_multiplicity
 _atom_site_fract_x
 _atom_site_fract_y
 _atom_site_fract_z
 _atom_site_occupancy
  Y  Y0  1  0.806920  0.192978  0.750000  1
  Tm  Tm1  1  0.804656  0.609699  0.750000  1
  Lu  Lu2  1  0.195286  0.391156  0.250000  1
  Lu  Lu3  1  0.608800  0.804724  0.250000  1
  Lu  Lu4  1  0.391248  0.195766  0.750000  1
  Lu  Lu5  1  0.195506  0.804528  0.250000  1
  Al  Al6  1  0.333237  0.666744  0.021631  1
  Al  Al7  1  0.666439  0.333216  0.979773  1
  Al  Al8  1  0.666439  0.333216  0.520227  1
  Al  Al9  1  0.333237  0.666744  0.478369  1
  Al  Al10  1  0.164190  0.327448  0.576034  1
  Al  Al11  1  0.836636  0.673498  0.422843  1
  Al  Al12  1  0.672497  0.835890  0.576008  1
  Al  Al13  1  0.836636  0.673498  0.077157  1
  Al  Al14  1  0.326503  0.163364  0.422967  1
  Al  Al15  1  0.164190  0.327448  0.923966  1
  Al  Al16  1  0.163431  0.836793  0.576222  1
  Al  Al17  1  0.326503  0.163364  0.077033  1
  Al  Al18  1  0.836470  0.163535  0.422044  1
  Al  Al19  1  0.672497  0.835890  0.923992  1
  Al  Al20  1  0.836470  0.163535  0.077956  1
  Al  Al21  1  0.163431  0.836793  0.923778  1
  Al  Al22  1  0.561134  0.122941  0.250000  1
  Al  Al23  1  0.437416  0.876306  0.750000  1
  Al  Al24  1  0.877072  0.438855  0.250000  1
  Al  Al25  1  0.124013  0.562544  0.750000  1
  Al  Al26  1  0.561287  0.438681  0.250000  1
  Al  Al27  1  0.438221  0.561369  0.750000  1
  Al  Al28  1  0.999896  0.000079  0.250000  1
  Al  Al29  1  0.002245  0.998271  0.750000  1
  Os  Os30  1  0.498876  0.999343  0.000889  1
  Os  Os31  1  0.000675  0.500901  0.001026  1
  Os  Os32  1  0.498876  0.999343  0.499111  1
  Os  Os33  1  0.499557  0.499970  0.000365  1
  Os  Os34  1  0.000675  0.500901  0.498974  1
  Os  Os35  1  0.499557  0.499970  0.499635  1
  Os  Os36  1  0.999639  0.000349  0.000007  1
  Os  Os37  1  0.999639  0.000349  0.499993  1
