# generated using pymatgen
data_K3Y(PS4)2
_symmetry_space_group_name_H-M   'P 1'
_cell_length_a   8.91364709
_cell_length_b   9.98462457
_cell_length_c   10.64219400
_cell_angle_alpha   107.38096175
_cell_angle_beta   103.17722924
_cell_angle_gamma   114.00285915
_symmetry_Int_Tables_number   1
_chemical_formula_structural   K3Y(PS4)2
_chemical_formula_sum   'K6 Y2 P4 S16'
_cell_volume   756.48846900
_cell_formula_units_Z   2
loop_
 _symmetry_equiv_pos_site_id
 _symmetry_equiv_pos_as_xyz
  1  'x, y, z'
loop_
 _atom_site_type_symbol
 _atom_site_label
 _atom_site_symmetry_multiplicity
 _atom_site_fract_x
 _atom_site_fract_y
 _atom_site_fract_z
 _atom_site_occupancy
  K  K0  1  0.000000  0.500000  0.000000  1
  K  K1  1  0.500000  0.500001  0.000000  1
  K  K2  1  0.255813  0.005781  0.011604  1
  K  K3  1  0.488646  0.738655  0.477344  1
  K  K4  1  0.511353  0.261344  0.522656  1
  K  K5  1  0.744186  0.994220  0.988396  1
  Y  Y6  1  0.993457  0.243465  0.486929  1
  Y  Y7  1  0.006544  0.756536  0.513071  1
  P  P8  1  0.743229  0.342778  0.249011  1
  P  P9  1  0.005756  0.906240  0.249018  1
  P  P10  1  0.994245  0.093761  0.750982  1
  P  P11  1  0.256773  0.657222  0.750991  1
  S  S12  1  0.643839  0.270009  0.034729  1
  S  S13  1  0.890838  0.764699  0.034741  1
  S  S14  1  0.130290  0.149395  0.289532  1
  S  S15  1  0.659214  0.140145  0.289543  1
  S  S16  1  0.019515  0.466477  0.340226  1
  S  S17  1  0.820706  0.873748  0.340251  1
  S  S18  1  0.657383  0.490606  0.350830  1
  S  S19  1  0.193458  0.860261  0.350834  1
  S  S20  1  0.806543  0.139740  0.649165  1
  S  S21  1  0.342616  0.509393  0.649170  1
  S  S22  1  0.179294  0.126252  0.659748  1
  S  S23  1  0.980485  0.533523  0.659775  1
  S  S24  1  0.340786  0.859855  0.710457  1
  S  S25  1  0.869710  0.850606  0.710468  1
  S  S26  1  0.109165  0.235302  0.965260  1
  S  S27  1  0.356160  0.729990  0.965271  1
