# generated using pymatgen
data_La5Pr5(Bi3Cl)2
_symmetry_space_group_name_H-M   'P 1'
_cell_length_a   9.71855101
_cell_length_b   9.71944724
_cell_length_c   6.74729100
_cell_angle_alpha   90.00000000
_cell_angle_beta   90.00000000
_cell_angle_gamma   120.00305057
_symmetry_Int_Tables_number   1
_chemical_formula_structural   La5Pr5(Bi3Cl)2
_chemical_formula_sum   'La5 Pr5 Bi6 Cl2'
_cell_volume   551.93737926
_cell_formula_units_Z   1
loop_
 _symmetry_equiv_pos_site_id
 _symmetry_equiv_pos_as_xyz
  1  'x, y, z'
loop_
 _atom_site_type_symbol
 _atom_site_label
 _atom_site_symmetry_multiplicity
 _atom_site_fract_x
 _atom_site_fract_y
 _atom_site_fract_z
 _atom_site_occupancy
  La  La0  1  0.733036  0.999913  0.750000  1
  La  La1  1  0.000000  0.266763  0.250000  1
  La  La2  1  0.733370  0.733259  0.250000  1
  La  La3  1  0.266630  0.999889  0.250000  1
  La  La4  1  0.266964  0.266877  0.750000  1
  Pr  Pr5  1  0.333235  0.666764  0.500190  1
  Pr  Pr6  1  0.333235  0.666764  0.999810  1
  Pr  Pr7  1  0.666765  0.333528  0.500190  1
  Pr  Pr8  1  0.666765  0.333528  0.999810  1
  Pr  Pr9  1  0.000000  0.732518  0.750000  1
  Bi  Bi10  1  0.384974  0.999778  0.750000  1
  Bi  Bi11  1  0.614523  0.999934  0.250000  1
  Bi  Bi12  1  0.000000  0.614526  0.250000  1
  Bi  Bi13  1  0.615026  0.614804  0.750000  1
  Bi  Bi14  1  0.000000  0.386071  0.750000  1
  Bi  Bi15  1  0.385477  0.385412  0.250000  1
  Cl  Cl16  1  0.000000  0.999835  0.500185  1
  Cl  Cl17  1  0.000000  0.999835  0.999815  1
