# generated using pymatgen
data_Nd3BiMo4F28
_symmetry_space_group_name_H-M   'P 1'
_cell_length_a   5.66640095
_cell_length_b   9.19369529
_cell_length_c   12.29104400
_cell_angle_alpha   61.79922739
_cell_angle_beta   90.09595812
_cell_angle_gamma   89.89946599
_symmetry_Int_Tables_number   1
_chemical_formula_structural   Nd3BiMo4F28
_chemical_formula_sum   'Nd3 Bi1 Mo4 F28'
_cell_volume   564.29485435
_cell_formula_units_Z   1
loop_
 _symmetry_equiv_pos_site_id
 _symmetry_equiv_pos_as_xyz
  1  'x, y, z'
loop_
 _atom_site_type_symbol
 _atom_site_label
 _atom_site_symmetry_multiplicity
 _atom_site_fract_x
 _atom_site_fract_y
 _atom_site_fract_z
 _atom_site_occupancy
  Nd  Nd0  1  0.260318  0.190092  0.735993  1
  Nd  Nd1  1  0.239168  0.186709  0.236564  1
  Nd  Nd2  1  0.742560  0.812699  0.264713  1
  Bi  Bi3  1  0.761010  0.817848  0.763691  1
  Mo  Mo4  1  0.755518  0.274976  0.956879  1
  Mo  Mo5  1  0.256231  0.726903  0.542805  1
  Mo  Mo6  1  0.243136  0.725461  0.042437  1
  Mo  Mo7  1  0.746004  0.273880  0.457414  1
  F  F8  1  0.435113  0.706938  0.914900  1
  F  F9  1  0.943115  0.292421  0.584605  1
  F  F10  1  0.564796  0.288615  0.085654  1
  F  F11  1  0.057979  0.704027  0.416481  1
  F  F12  1  0.444343  0.274799  0.543035  1
  F  F13  1  0.939434  0.717034  0.958063  1
  F  F14  1  0.552480  0.717457  0.459917  1
  F  F15  1  0.060732  0.278729  0.043703  1
  F  F16  1  0.771699  0.515378  0.858336  1
  F  F17  1  0.268018  0.480331  0.636453  1
  F  F18  1  0.227751  0.482101  0.136796  1
  F  F19  1  0.728999  0.517420  0.361003  1
  F  F20  1  0.760543  0.030904  0.051340  1
  F  F21  1  0.266534  0.973506  0.448361  1
  F  F22  1  0.242171  0.970191  0.947656  1
  F  F23  1  0.738685  0.028910  0.550986  1
  F  F24  1  0.966706  0.730651  0.630333  1
  F  F25  1  0.458903  0.273659  0.863863  1
  F  F26  1  0.039786  0.275675  0.367124  1
  F  F27  1  0.532101  0.731551  0.134846  1
  F  F28  1  0.059308  0.744095  0.173176  1
  F  F29  1  0.554967  0.258400  0.326609  1
  F  F30  1  0.939909  0.255697  0.827182  1
  F  F31  1  0.441584  0.747751  0.673356  1
  F  F32  1  0.402381  0.963560  0.230736  1
  F  F33  1  0.900009  0.034404  0.273016  1
  F  F34  1  0.604116  0.032959  0.772156  1
  F  F35  1  0.093893  0.964270  0.729818  1
