# generated using pymatgen
data_Lu4Ga2Ru5W
_symmetry_space_group_name_H-M   'P 1'
_cell_length_a   5.45729009
_cell_length_b   5.21196012
_cell_length_c   8.85215000
_cell_angle_alpha   90.00000000
_cell_angle_beta   90.00000000
_cell_angle_gamma   121.67172071
_symmetry_Int_Tables_number   1
_chemical_formula_structural   Lu4Ga2Ru5W
_chemical_formula_sum   'Lu4 Ga2 Ru5 W1'
_cell_volume   214.28528782
_cell_formula_units_Z   1
loop_
 _symmetry_equiv_pos_site_id
 _symmetry_equiv_pos_as_xyz
  1  'x, y, z'
loop_
 _atom_site_type_symbol
 _atom_site_label
 _atom_site_symmetry_multiplicity
 _atom_site_fract_x
 _atom_site_fract_y
 _atom_site_fract_z
 _atom_site_occupancy
  Lu  Lu0  1  0.331140  0.669153  0.439756  1
  Lu  Lu1  1  0.671747  0.344174  0.566397  1
  Lu  Lu2  1  0.671747  0.344174  0.933603  1
  Lu  Lu3  1  0.331140  0.669153  0.060244  1
  Ga  Ga4  1  0.336499  0.161629  0.250000  1
  Ga  Ga5  1  0.834817  0.654967  0.250000  1
  Ru  Ru6  1  0.170637  0.817314  0.750000  1
  Ru  Ru7  1  0.651261  0.821507  0.750000  1
  Ru  Ru8  1  0.008206  0.018909  0.003125  1
  Ru  Ru9  1  0.824491  0.161234  0.250000  1
  Ru  Ru10  1  0.008206  0.018909  0.496875  1
  W  W11  1  0.160107  0.318880  0.750000  1
