# generated using pymatgen
data_Hf4CoBi2
_symmetry_space_group_name_H-M   'P 1'
_cell_length_a   8.26114654
_cell_length_b   8.26114569
_cell_length_c   8.26114672
_cell_angle_alpha   95.61827130
_cell_angle_beta   95.61827042
_cell_angle_gamma   143.53301069
_symmetry_Int_Tables_number   1
_chemical_formula_structural   Hf4CoBi2
_chemical_formula_sum   'Hf8 Co2 Bi4'
_cell_volume   318.27129581
_cell_formula_units_Z   2
loop_
 _symmetry_equiv_pos_site_id
 _symmetry_equiv_pos_as_xyz
  1  'x, y, z'
loop_
 _atom_site_type_symbol
 _atom_site_label
 _atom_site_symmetry_multiplicity
 _atom_site_fract_x
 _atom_site_fract_y
 _atom_site_fract_z
 _atom_site_occupancy
  Hf  Hf0  1  0.694288  0.581379  0.275667  1
  Hf  Hf1  1  0.581379  0.305712  0.887092  1
  Hf  Hf2  1  0.081379  0.194288  0.275667  1
  Hf  Hf3  1  0.918621  0.805712  0.724333  1
  Hf  Hf4  1  0.194288  0.918621  0.112908  1
  Hf  Hf5  1  0.805712  0.081379  0.887092  1
  Hf  Hf6  1  0.305712  0.418621  0.724333  1
  Hf  Hf7  1  0.418621  0.694288  0.112908  1
  Co  Co8  1  0.250000  0.250000  0.000000  1
  Co  Co9  1  0.750000  0.750000  0.000000  1
  Bi  Bi10  1  0.138611  0.638611  0.777223  1
  Bi  Bi11  1  0.361389  0.138611  0.500000  1
  Bi  Bi12  1  0.638611  0.861389  0.500000  1
  Bi  Bi13  1  0.861389  0.361389  0.222777  1
