# generated using pymatgen
data_Tm2TaBe2Co5
_symmetry_space_group_name_H-M   'P 1'
_cell_length_a   9.14638100
_cell_length_b   9.14638100
_cell_length_c   3.14089200
_cell_angle_alpha   90.00000000
_cell_angle_beta   90.00000000
_cell_angle_gamma   90.00000000
_symmetry_Int_Tables_number   1
_chemical_formula_structural   Tm2TaBe2Co5
_chemical_formula_sum   'Tm4 Ta2 Be4 Co10'
_cell_volume   262.75535755
_cell_formula_units_Z   2
loop_
 _symmetry_equiv_pos_site_id
 _symmetry_equiv_pos_as_xyz
  1  'x, y, z'
loop_
 _atom_site_type_symbol
 _atom_site_label
 _atom_site_symmetry_multiplicity
 _atom_site_fract_x
 _atom_site_fract_y
 _atom_site_fract_z
 _atom_site_occupancy
  Tm  Tm0  1  0.824005  0.324005  0.000000  1
  Tm  Tm1  1  0.175995  0.675995  0.000000  1
  Tm  Tm2  1  0.324005  0.175995  0.000000  1
  Tm  Tm3  1  0.675995  0.824005  0.000000  1
  Ta  Ta4  1  0.500000  0.500000  0.000000  1
  Ta  Ta5  1  0.000000  0.000000  0.000000  1
  Be  Be6  1  0.617759  0.117759  0.000000  1
  Be  Be7  1  0.382241  0.882241  0.000000  1
  Be  Be8  1  0.117759  0.382241  0.000000  1
  Be  Be9  1  0.882241  0.617759  0.000000  1
  Co  Co10  1  0.500000  0.000000  0.500000  1
  Co  Co11  1  0.000000  0.500000  0.500000  1
  Co  Co12  1  0.715132  0.567113  0.500000  1
  Co  Co13  1  0.284868  0.432887  0.500000  1
  Co  Co14  1  0.215132  0.932887  0.500000  1
  Co  Co15  1  0.784868  0.067113  0.500000  1
  Co  Co16  1  0.432887  0.715132  0.500000  1
  Co  Co17  1  0.567113  0.284868  0.500000  1
  Co  Co18  1  0.067113  0.215132  0.500000  1
  Co  Co19  1  0.932887  0.784868  0.500000  1
