# generated using pymatgen
data_Sr6MgMn2ZnO12
_symmetry_space_group_name_H-M   'P 1'
_cell_length_a   6.68592247
_cell_length_b   6.68592225
_cell_length_c   6.68592299
_cell_angle_alpha   92.97373374
_cell_angle_beta   92.97373825
_cell_angle_gamma   92.97372006
_symmetry_Int_Tables_number   1
_chemical_formula_structural   Sr6MgMn2ZnO12
_chemical_formula_sum   'Sr6 Mg1 Mn2 Zn1 O12'
_cell_volume   297.62028196
_cell_formula_units_Z   1
loop_
 _symmetry_equiv_pos_site_id
 _symmetry_equiv_pos_as_xyz
  1  'x, y, z'
loop_
 _atom_site_type_symbol
 _atom_site_label
 _atom_site_symmetry_multiplicity
 _atom_site_fract_x
 _atom_site_fract_y
 _atom_site_fract_z
 _atom_site_occupancy
  Sr  Sr0  1  0.887657  0.612343  0.250000  1
  Sr  Sr1  1  0.250000  0.887657  0.612343  1
  Sr  Sr2  1  0.612343  0.250000  0.887657  1
  Sr  Sr3  1  0.750000  0.113451  0.386549  1
  Sr  Sr4  1  0.386549  0.750000  0.113451  1
  Sr  Sr5  1  0.113451  0.386549  0.750000  1
  Mg  Mg6  1  0.750000  0.750000  0.750000  1
  Mn  Mn7  1  0.500870  0.500870  0.500870  1
  Mn  Mn8  1  0.999130  0.999130  0.999130  1
  Zn  Zn9  1  0.250000  0.250000  0.250000  1
  O  O10  1  0.222439  0.541805  0.413670  1
  O  O11  1  0.413670  0.222439  0.541805  1
  O  O12  1  0.541805  0.413670  0.222439  1
  O  O13  1  0.910611  0.037574  0.720928  1
  O  O14  1  0.720928  0.910611  0.037574  1
  O  O15  1  0.037574  0.720928  0.910611  1
  O  O16  1  0.779072  0.462426  0.589389  1
  O  O17  1  0.589389  0.779072  0.462426  1
  O  O18  1  0.462426  0.589389  0.779072  1
  O  O19  1  0.086330  0.958195  0.277561  1
  O  O20  1  0.277561  0.086330  0.958195  1
  O  O21  1  0.958195  0.277561  0.086330  1
