# generated using pymatgen
data_Tb3Ho(Er3Pt4)2
_symmetry_space_group_name_H-M   'P 1'
_cell_length_a   7.45827600
_cell_length_b   7.53963501
_cell_length_c   14.69886102
_cell_angle_alpha   89.99342352
_cell_angle_beta   90.00000000
_cell_angle_gamma   90.00000000
_symmetry_Int_Tables_number   1
_chemical_formula_structural   Tb3Ho(Er3Pt4)2
_chemical_formula_sum   'Tb6 Ho2 Er12 Pt16'
_cell_volume   826.55632616
_cell_formula_units_Z   2
loop_
 _symmetry_equiv_pos_site_id
 _symmetry_equiv_pos_as_xyz
  1  'x, y, z'
loop_
 _atom_site_type_symbol
 _atom_site_label
 _atom_site_symmetry_multiplicity
 _atom_site_fract_x
 _atom_site_fract_y
 _atom_site_fract_z
 _atom_site_occupancy
  Tb  Tb0  1  0.500960  0.679394  0.592799  1
  Tb  Tb1  1  0.000960  0.820606  0.907201  1
  Tb  Tb2  1  0.499000  0.321255  0.092673  1
  Tb  Tb3  1  0.999000  0.178745  0.407327  1
  Tb  Tb4  1  0.498964  0.320805  0.407156  1
  Tb  Tb5  1  0.998964  0.179195  0.092844  1
  Ho  Ho6  1  0.501664  0.679572  0.906956  1
  Ho  Ho7  1  0.001664  0.820428  0.593044  1
  Er  Er8  1  0.656994  0.167577  0.622665  1
  Er  Er9  1  0.156994  0.332423  0.877335  1
  Er  Er10  1  0.343626  0.831914  0.122484  1
  Er  Er11  1  0.843626  0.668086  0.377516  1
  Er  Er12  1  0.343268  0.832353  0.377307  1
  Er  Er13  1  0.843268  0.667647  0.122693  1
  Er  Er14  1  0.656532  0.167761  0.877262  1
  Er  Er15  1  0.156532  0.332239  0.622738  1
  Er  Er16  1  0.819597  0.511021  0.750042  1
  Er  Er17  1  0.319597  0.988979  0.749958  1
  Er  Er18  1  0.180285  0.489373  0.250002  1
  Er  Er19  1  0.680285  0.010627  0.249998  1
  Pt  Pt20  1  0.683300  0.966159  0.458373  1
  Pt  Pt21  1  0.183300  0.533841  0.041627  1
  Pt  Pt22  1  0.317320  0.032682  0.957881  1
  Pt  Pt23  1  0.817320  0.467318  0.542119  1
  Pt  Pt24  1  0.315934  0.032737  0.542046  1
  Pt  Pt25  1  0.815934  0.467263  0.957954  1
  Pt  Pt26  1  0.682799  0.966009  0.041694  1
  Pt  Pt27  1  0.182799  0.533991  0.458306  1
  Pt  Pt28  1  0.454128  0.385707  0.750222  1
  Pt  Pt29  1  0.954128  0.114293  0.749778  1
  Pt  Pt30  1  0.545877  0.614822  0.250001  1
  Pt  Pt31  1  0.045877  0.885178  0.249999  1
  Pt  Pt32  1  0.682172  0.856804  0.750290  1
  Pt  Pt33  1  0.182172  0.643196  0.749710  1
  Pt  Pt34  1  0.317580  0.142659  0.249997  1
  Pt  Pt35  1  0.817580  0.357341  0.250003  1
