# generated using pymatgen
data_La5Er(CI5)2
_symmetry_space_group_name_H-M   'P 1'
_cell_length_a   8.00026953
_cell_length_b   9.82597260
_cell_length_c   9.90645296
_cell_angle_alpha   107.29345223
_cell_angle_beta   96.46025097
_cell_angle_gamma   104.70557910
_symmetry_Int_Tables_number   1
_chemical_formula_structural   La5Er(CI5)2
_chemical_formula_sum   'La5 Er1 C2 I10'
_cell_volume   704.13510922
_cell_formula_units_Z   1
loop_
 _symmetry_equiv_pos_site_id
 _symmetry_equiv_pos_as_xyz
  1  'x, y, z'
loop_
 _atom_site_type_symbol
 _atom_site_label
 _atom_site_symmetry_multiplicity
 _atom_site_fract_x
 _atom_site_fract_y
 _atom_site_fract_z
 _atom_site_occupancy
  La  La0  1  0.027891  0.730462  0.920199  1
  La  La1  1  0.105719  0.038342  0.773006  1
  La  La2  1  0.967952  0.268608  0.077416  1
  La  La3  1  0.888957  0.958394  0.224747  1
  La  La4  1  0.374481  0.134108  0.179829  1
  Er  Er5  1  0.637105  0.871114  0.827159  1
  C  C6  1  0.084012  0.028868  0.039844  1
  C  C7  1  0.909791  0.969403  0.958834  1
  I  I8  1  0.214295  0.737938  0.650314  1
  I  I9  1  0.909069  0.627175  0.181266  1
  I  I10  1  0.088500  0.371358  0.816654  1
  I  I11  1  0.731692  0.910715  0.548428  1
  I  I12  1  0.253487  0.083501  0.463411  1
  I  I13  1  0.642595  0.555498  0.727291  1
  I  I14  1  0.459931  0.807522  0.079321  1
  I  I15  1  0.808381  0.268560  0.360571  1
  I  I16  1  0.348897  0.461082  0.271916  1
  I  I17  1  0.547243  0.177351  0.899796  1
