# generated using pymatgen
data_Zr4ScCoAs3
_symmetry_space_group_name_H-M   'P 1'
_cell_length_a   3.77531800
_cell_length_b   10.44438800
_cell_length_c   17.61319200
_cell_angle_alpha   90.00000000
_cell_angle_beta   90.00000000
_cell_angle_gamma   90.00000000
_symmetry_Int_Tables_number   1
_chemical_formula_structural   Zr4ScCoAs3
_chemical_formula_sum   'Zr16 Sc4 Co4 As12'
_cell_volume   694.50376612
_cell_formula_units_Z   4
loop_
 _symmetry_equiv_pos_site_id
 _symmetry_equiv_pos_as_xyz
  1  'x, y, z'
loop_
 _atom_site_type_symbol
 _atom_site_label
 _atom_site_symmetry_multiplicity
 _atom_site_fract_x
 _atom_site_fract_y
 _atom_site_fract_z
 _atom_site_occupancy
  Zr  Zr0  1  0.250000  0.055426  0.078525  1
  Zr  Zr1  1  0.750000  0.944574  0.921475  1
  Zr  Zr2  1  0.750000  0.555426  0.421475  1
  Zr  Zr3  1  0.250000  0.444574  0.578525  1
  Zr  Zr4  1  0.250000  0.481027  0.271645  1
  Zr  Zr5  1  0.750000  0.518973  0.728355  1
  Zr  Zr6  1  0.750000  0.981027  0.228355  1
  Zr  Zr7  1  0.250000  0.018973  0.771645  1
  Zr  Zr8  1  0.250000  0.810242  0.365967  1
  Zr  Zr9  1  0.750000  0.189758  0.634033  1
  Zr  Zr10  1  0.750000  0.310242  0.134033  1
  Zr  Zr11  1  0.250000  0.689758  0.865967  1
  Zr  Zr12  1  0.250000  0.755388  0.165207  1
  Zr  Zr13  1  0.750000  0.244612  0.834793  1
  Zr  Zr14  1  0.750000  0.255388  0.334793  1
  Zr  Zr15  1  0.250000  0.744612  0.665207  1
  Sc  Sc16  1  0.250000  0.125330  0.474988  1
  Sc  Sc17  1  0.750000  0.874670  0.525012  1
  Sc  Sc18  1  0.750000  0.625330  0.025012  1
  Sc  Sc19  1  0.250000  0.374670  0.974988  1
  Co  Co20  1  0.250000  0.362455  0.408566  1
  Co  Co21  1  0.750000  0.637545  0.591434  1
  Co  Co22  1  0.750000  0.862455  0.091434  1
  Co  Co23  1  0.250000  0.137545  0.908566  1
  As  As24  1  0.250000  0.813660  0.005937  1
  As  As25  1  0.750000  0.186340  0.994063  1
  As  As26  1  0.750000  0.313660  0.494063  1
  As  As27  1  0.250000  0.686340  0.505937  1
  As  As28  1  0.250000  0.499838  0.113580  1
  As  As29  1  0.750000  0.500162  0.886420  1
  As  As30  1  0.750000  0.999838  0.386420  1
  As  As31  1  0.250000  0.000162  0.613580  1
  As  As32  1  0.250000  0.183883  0.221314  1
  As  As33  1  0.750000  0.816117  0.778686  1
  As  As34  1  0.750000  0.683883  0.278686  1
  As  As35  1  0.250000  0.316117  0.721314  1
