# generated using pymatgen
data_LiCa3Ag2P3
_symmetry_space_group_name_H-M   'P 1'
_cell_length_a   7.01242000
_cell_length_b   7.03100418
_cell_length_c   4.17498400
_cell_angle_alpha   90.00000000
_cell_angle_beta   90.00000000
_cell_angle_gamma   119.91261232
_symmetry_Int_Tables_number   1
_chemical_formula_structural   LiCa3Ag2P3
_chemical_formula_sum   'Li1 Ca3 Ag2 P3'
_cell_volume   178.42367448
_cell_formula_units_Z   1
loop_
 _symmetry_equiv_pos_site_id
 _symmetry_equiv_pos_as_xyz
  1  'x, y, z'
loop_
 _atom_site_type_symbol
 _atom_site_label
 _atom_site_symmetry_multiplicity
 _atom_site_fract_x
 _atom_site_fract_y
 _atom_site_fract_z
 _atom_site_occupancy
  Li  Li0  1  0.237157  0.000000  0.000000  1
  Ca  Ca1  1  0.588535  0.000000  0.500000  1
  Ca  Ca2  1  0.414966  0.416819  0.500000  1
  Ca  Ca3  1  0.998148  0.583181  0.500000  1
  Ag  Ag4  1  0.752952  0.751359  0.000000  1
  Ag  Ag5  1  0.001592  0.248641  0.000000  1
  P  P6  1  0.011068  0.000000  0.500000  1
  P  P7  1  0.333186  0.670791  0.000000  1
  P  P8  1  0.662396  0.329209  0.000000  1
