# generated using pymatgen
data_Tb3Tm13(TlRh)4
_symmetry_space_group_name_H-M   'P 1'
_cell_length_a   9.55531171
_cell_length_b   9.55330947
_cell_length_c   9.55336400
_cell_angle_alpha   60.01367469
_cell_angle_beta   59.99288104
_cell_angle_gamma   60.04236425
_symmetry_Int_Tables_number   1
_chemical_formula_structural   Tb3Tm13(TlRh)4
_chemical_formula_sum   'Tb3 Tm13 Tl4 Rh4'
_cell_volume   616.87957099
_cell_formula_units_Z   1
loop_
 _symmetry_equiv_pos_site_id
 _symmetry_equiv_pos_as_xyz
  1  'x, y, z'
loop_
 _atom_site_type_symbol
 _atom_site_label
 _atom_site_symmetry_multiplicity
 _atom_site_fract_x
 _atom_site_fract_y
 _atom_site_fract_z
 _atom_site_occupancy
  Tb  Tb0  1  0.060756  0.060756  0.439244  1
  Tb  Tb1  1  0.437856  0.062755  0.437228  1
  Tb  Tb2  1  0.062755  0.437856  0.062162  1
  Tm  Tm3  1  0.048947  0.648878  0.651251  1
  Tm  Tm4  1  0.438918  0.438918  0.061082  1
  Tm  Tm5  1  0.648878  0.048947  0.650925  1
  Tm  Tm6  1  0.188550  0.811565  0.187202  1
  Tm  Tm7  1  0.187474  0.187474  0.812526  1
  Tm  Tm8  1  0.812077  0.812077  0.187923  1
  Tm  Tm9  1  0.440188  0.060111  0.059501  1
  Tm  Tm10  1  0.811957  0.188371  0.186831  1
  Tm  Tm11  1  0.060111  0.440188  0.440200  1
  Tm  Tm12  1  0.811565  0.188550  0.812685  1
  Tm  Tm13  1  0.188371  0.811957  0.812841  1
  Tm  Tm14  1  0.650689  0.650212  0.046855  1
  Tm  Tm15  1  0.650212  0.650689  0.652244  1
  Tl  Tl16  1  0.413926  0.415512  0.413817  1
  Tl  Tl17  1  0.754940  0.415742  0.415229  1
  Tl  Tl18  1  0.415742  0.754940  0.414087  1
  Tl  Tl19  1  0.415512  0.413926  0.756744  1
  Rh  Rh20  1  0.858577  0.856903  0.427111  1
  Rh  Rh21  1  0.856903  0.858577  0.857409  1
  Rh  Rh22  1  0.427590  0.857507  0.858330  1
  Rh  Rh23  1  0.857507  0.427590  0.856573  1
