# generated using pymatgen
data_YbLu(TcO4)6
_symmetry_space_group_name_H-M   'P 1'
_cell_length_a   10.27763200
_cell_length_b   10.27763229
_cell_length_c   6.17030500
_cell_angle_alpha   90.00000000
_cell_angle_beta   90.00000000
_cell_angle_gamma   120.00000167
_symmetry_Int_Tables_number   1
_chemical_formula_structural   YbLu(TcO4)6
_chemical_formula_sum   'Yb1 Lu1 Tc6 O24'
_cell_volume   564.44729348
_cell_formula_units_Z   1
loop_
 _symmetry_equiv_pos_site_id
 _symmetry_equiv_pos_as_xyz
  1  'x, y, z'
loop_
 _atom_site_type_symbol
 _atom_site_label
 _atom_site_symmetry_multiplicity
 _atom_site_fract_x
 _atom_site_fract_y
 _atom_site_fract_z
 _atom_site_occupancy
  Yb  Yb0  1  0.333333  0.666667  0.250000  1
  Lu  Lu1  1  0.666667  0.333333  0.750000  1
  Tc  Tc2  1  0.086497  0.393191  0.750000  1
  Tc  Tc3  1  0.399582  0.302205  0.250000  1
  Tc  Tc4  1  0.606809  0.693303  0.750000  1
  Tc  Tc5  1  0.902621  0.600418  0.250000  1
  Tc  Tc6  1  0.306697  0.913503  0.750000  1
  Tc  Tc7  1  0.697795  0.097379  0.250000  1
  O  O8  1  0.493797  0.653609  0.520862  1
  O  O9  1  0.346391  0.840187  0.520862  1
  O  O10  1  0.848334  0.732980  0.250000  1
  O  O11  1  0.120001  0.860528  0.750000  1
  O  O12  1  0.267020  0.115354  0.250000  1
  O  O13  1  0.139472  0.259473  0.750000  1
  O  O14  1  0.513284  0.344669  0.017779  1
  O  O15  1  0.884646  0.151666  0.250000  1
  O  O16  1  0.096988  0.687410  0.250000  1
  O  O17  1  0.159813  0.506203  0.979138  1
  O  O18  1  0.159813  0.506203  0.520862  1
  O  O19  1  0.889178  0.310825  0.750000  1
  O  O20  1  0.312590  0.409577  0.250000  1
  O  O21  1  0.689175  0.578353  0.750000  1
  O  O22  1  0.831384  0.486716  0.482221  1
  O  O23  1  0.421647  0.110822  0.750000  1
  O  O24  1  0.655331  0.168616  0.017779  1
  O  O25  1  0.493797  0.653609  0.979138  1
  O  O26  1  0.346391  0.840187  0.979138  1
  O  O27  1  0.655331  0.168616  0.482221  1
  O  O28  1  0.513284  0.344669  0.482221  1
  O  O29  1  0.831384  0.486716  0.017779  1
  O  O30  1  0.740527  0.879999  0.750000  1
  O  O31  1  0.590423  0.903012  0.250000  1
