# generated using pymatgen
data_Dy2HoIn3Rh2Au
_symmetry_space_group_name_H-M   'P 1'
_cell_length_a   7.75379510
_cell_length_b   7.75604799
_cell_length_c   3.79792300
_cell_angle_alpha   90.00000000
_cell_angle_beta   90.00000000
_cell_angle_gamma   120.00842539
_symmetry_Int_Tables_number   1
_chemical_formula_structural   Dy2HoIn3Rh2Au
_chemical_formula_sum   'Dy2 Ho1 In3 Rh2 Au1'
_cell_volume   197.78562174
_cell_formula_units_Z   1
loop_
 _symmetry_equiv_pos_site_id
 _symmetry_equiv_pos_as_xyz
  1  'x, y, z'
loop_
 _atom_site_type_symbol
 _atom_site_label
 _atom_site_symmetry_multiplicity
 _atom_site_fract_x
 _atom_site_fract_y
 _atom_site_fract_z
 _atom_site_occupancy
  Dy  Dy0  1  0.411593  0.392540  0.500000  1
  Dy  Dy1  1  0.607516  0.019021  0.500000  1
  Ho  Ho2  1  0.980762  0.588548  0.500000  1
  In  In3  1  0.742854  0.740165  0.000000  1
  In  In4  1  0.259541  0.002106  0.000000  1
  In  In5  1  0.997711  0.257645  0.000000  1
  Rh  Rh6  1  0.667279  0.333807  0.000000  1
  Rh  Rh7  1  0.999988  0.999649  0.500000  1
  Au  Au8  1  0.332756  0.666519  0.000000  1
