# generated using pymatgen
data_Dy5Tm5IrOs3
_symmetry_space_group_name_H-M   'P 1'
_cell_length_a   6.35921041
_cell_length_b   7.31214118
_cell_length_c   8.36236903
_cell_angle_alpha   96.83452493
_cell_angle_beta   112.40696738
_cell_angle_gamma   90.14975988
_symmetry_Int_Tables_number   1
_chemical_formula_structural   Dy5Tm5IrOs3
_chemical_formula_sum   'Dy5 Tm5 Ir1 Os3'
_cell_volume   356.44519596
_cell_formula_units_Z   1
loop_
 _symmetry_equiv_pos_site_id
 _symmetry_equiv_pos_as_xyz
  1  'x, y, z'
loop_
 _atom_site_type_symbol
 _atom_site_label
 _atom_site_symmetry_multiplicity
 _atom_site_fract_x
 _atom_site_fract_y
 _atom_site_fract_z
 _atom_site_occupancy
  Dy  Dy0  1  0.971155  0.916362  0.181569  1
  Dy  Dy1  1  0.787382  0.580898  0.816075  1
  Dy  Dy2  1  0.025793  0.083384  0.813283  1
  Dy  Dy3  1  0.210001  0.419514  0.182380  1
  Dy  Dy4  1  0.647783  0.816438  0.438742  1
  Tm  Tm5  1  0.209138  0.681221  0.563514  1
  Tm  Tm6  1  0.353121  0.181851  0.564807  1
  Tm  Tm7  1  0.795121  0.319939  0.437965  1
  Tm  Tm8  1  0.422246  0.748918  0.998066  1
  Tm  Tm9  1  0.577372  0.250195  0.999438  1
  Ir  Ir10  1  0.398030  0.077568  0.221411  1
  Os  Os11  1  0.821231  0.574778  0.218033  1
  Os  Os12  1  0.602854  0.925160  0.782830  1
  Os  Os13  1  0.178774  0.423775  0.781886  1
