# generated using pymatgen
data_TbTaB6Os
_symmetry_space_group_name_H-M   'P 1'
_cell_length_a   3.50820300
_cell_length_b   9.00473600
_cell_length_c   11.30321000
_cell_angle_alpha   90.00000000
_cell_angle_beta   90.00000000
_cell_angle_gamma   90.00000000
_symmetry_Int_Tables_number   1
_chemical_formula_structural   TbTaB6Os
_chemical_formula_sum   'Tb4 Ta4 B24 Os4'
_cell_volume   357.07339822
_cell_formula_units_Z   4
loop_
 _symmetry_equiv_pos_site_id
 _symmetry_equiv_pos_as_xyz
  1  'x, y, z'
loop_
 _atom_site_type_symbol
 _atom_site_label
 _atom_site_symmetry_multiplicity
 _atom_site_fract_x
 _atom_site_fract_y
 _atom_site_fract_z
 _atom_site_occupancy
  Tb  Tb0  1  0.000000  0.323776  0.413307  1
  Tb  Tb1  1  0.000000  0.676224  0.586693  1
  Tb  Tb2  1  0.000000  0.823776  0.086693  1
  Tb  Tb3  1  0.000000  0.176224  0.913307  1
  Ta  Ta4  1  0.000000  0.947124  0.377119  1
  Ta  Ta5  1  0.000000  0.052876  0.622881  1
  Ta  Ta6  1  0.000000  0.447124  0.122881  1
  Ta  Ta7  1  0.000000  0.552876  0.877119  1
  B  B8  1  0.500000  0.554977  0.433548  1
  B  B9  1  0.500000  0.445023  0.566452  1
  B  B10  1  0.500000  0.054977  0.066452  1
  B  B11  1  0.500000  0.945023  0.933548  1
  B  B12  1  0.500000  0.754666  0.418573  1
  B  B13  1  0.500000  0.245334  0.581427  1
  B  B14  1  0.500000  0.254666  0.081427  1
  B  B15  1  0.500000  0.745334  0.918573  1
  B  B16  1  0.500000  0.798120  0.263067  1
  B  B17  1  0.500000  0.201880  0.736932  1
  B  B18  1  0.500000  0.298120  0.236933  1
  B  B19  1  0.500000  0.701880  0.763068  1
  B  B20  1  0.500000  0.629172  0.181033  1
  B  B21  1  0.500000  0.370828  0.818967  1
  B  B22  1  0.500000  0.129172  0.318967  1
  B  B23  1  0.500000  0.870828  0.681033  1
  B  B24  1  0.500000  0.981056  0.214254  1
  B  B25  1  0.500000  0.018944  0.785746  1
  B  B26  1  0.500000  0.481056  0.285746  1
  B  B27  1  0.500000  0.518944  0.714254  1
  B  B28  1  0.500000  0.600013  0.026636  1
  B  B29  1  0.500000  0.399987  0.973364  1
  B  B30  1  0.500000  0.100013  0.473364  1
  B  B31  1  0.500000  0.899987  0.526636  1
  Os  Os32  1  0.000000  0.644134  0.317195  1
  Os  Os33  1  0.000000  0.355866  0.682805  1
  Os  Os34  1  0.000000  0.144134  0.182805  1
  Os  Os35  1  0.000000  0.855866  0.817195  1
