# generated using pymatgen
data_Y3TmFe16(P3W)4
_symmetry_space_group_name_H-M   'P 1'
_cell_length_a   3.69786800
_cell_length_b   10.40371354
_cell_length_c   12.02830865
_cell_angle_alpha   90.03725566
_cell_angle_beta   90.00000000
_cell_angle_gamma   90.00000000
_symmetry_Int_Tables_number   1
_chemical_formula_structural   Y3TmFe16(P3W)4
_chemical_formula_sum   'Y3 Tm1 Fe16 P12 W4'
_cell_volume   462.74769254
_cell_formula_units_Z   1
loop_
 _symmetry_equiv_pos_site_id
 _symmetry_equiv_pos_as_xyz
  1  'x, y, z'
loop_
 _atom_site_type_symbol
 _atom_site_label
 _atom_site_symmetry_multiplicity
 _atom_site_fract_x
 _atom_site_fract_y
 _atom_site_fract_z
 _atom_site_occupancy
  Y  Y0  1  0.250000  0.583153  0.708237  1
  Y  Y1  1  0.250000  0.917500  0.208247  1
  Y  Y2  1  0.750000  0.416480  0.291481  1
  Tm  Tm3  1  0.750000  0.082766  0.791786  1
  Fe  Fe4  1  0.250000  0.409037  0.492116  1
  Fe  Fe5  1  0.250000  0.091107  0.990772  1
  Fe  Fe6  1  0.750000  0.590996  0.508024  1
  Fe  Fe7  1  0.750000  0.909498  0.007465  1
  Fe  Fe8  1  0.250000  0.218355  0.175653  1
  Fe  Fe9  1  0.250000  0.281146  0.676709  1
  Fe  Fe10  1  0.750000  0.782436  0.824158  1
  Fe  Fe11  1  0.750000  0.718386  0.324078  1
  Fe  Fe12  1  0.250000  0.880133  0.700690  1
  Fe  Fe13  1  0.250000  0.621154  0.199714  1
  Fe  Fe14  1  0.750000  0.120650  0.300353  1
  Fe  Fe15  1  0.750000  0.377371  0.799745  1
  Fe  Fe16  1  0.250000  0.462856  0.933375  1
  Fe  Fe17  1  0.250000  0.036425  0.435031  1
  Fe  Fe18  1  0.750000  0.536304  0.065469  1
  Fe  Fe19  1  0.750000  0.964182  0.566920  1
  P  P20  1  0.250000  0.424029  0.113612  1
  P  P21  1  0.250000  0.076105  0.615446  1
  P  P22  1  0.750000  0.575346  0.885798  1
  P  P23  1  0.750000  0.924631  0.386562  1
  P  P24  1  0.250000  0.265643  0.864317  1
  P  P25  1  0.250000  0.231388  0.363882  1
  P  P26  1  0.750000  0.732120  0.135538  1
  P  P27  1  0.750000  0.768201  0.635690  1
  P  P28  1  0.250000  0.594940  0.387236  1
  P  P29  1  0.250000  0.906899  0.886947  1
  P  P30  1  0.750000  0.405238  0.612614  1
  P  P31  1  0.750000  0.095238  0.112815  1
  W  W32  1  0.250000  0.705644  0.989003  1
  W  W33  1  0.250000  0.795006  0.489775  1
  W  W34  1  0.750000  0.294584  0.010093  1
  W  W35  1  0.750000  0.205054  0.510650  1
