# generated using pymatgen
data_Tb2ZnInPd
_symmetry_space_group_name_H-M   'P 1'
_cell_length_a   7.84440600
_cell_length_b   7.81716000
_cell_length_c   3.73159000
_cell_angle_alpha   90.00000000
_cell_angle_beta   90.00000000
_cell_angle_gamma   90.00000000
_symmetry_Int_Tables_number   1
_chemical_formula_structural   Tb2ZnInPd
_chemical_formula_sum   'Tb4 Zn2 In2 Pd2'
_cell_volume   228.82474384
_cell_formula_units_Z   2
loop_
 _symmetry_equiv_pos_site_id
 _symmetry_equiv_pos_as_xyz
  1  'x, y, z'
loop_
 _atom_site_type_symbol
 _atom_site_label
 _atom_site_symmetry_multiplicity
 _atom_site_fract_x
 _atom_site_fract_y
 _atom_site_fract_z
 _atom_site_occupancy
  Tb  Tb0  1  0.329341  0.816469  0.500000  1
  Tb  Tb1  1  0.829341  0.683531  0.500000  1
  Tb  Tb2  1  0.174374  0.338109  0.500000  1
  Tb  Tb3  1  0.674374  0.161891  0.500000  1
  Zn  Zn4  1  0.374832  0.120886  0.000000  1
  Zn  Zn5  1  0.874832  0.379114  0.000000  1
  In  In6  1  0.003649  0.001890  0.000000  1
  In  In7  1  0.503649  0.498110  0.000000  1
  Pd  Pd8  1  0.117805  0.621947  0.000000  1
  Pd  Pd9  1  0.617805  0.878053  0.000000  1
