# generated using pymatgen
data_Li3Y3InSiSn
_symmetry_space_group_name_H-M   'P 1'
_cell_length_a   7.37399300
_cell_length_b   7.37399389
_cell_length_c   4.33379000
_cell_angle_alpha   90.00000000
_cell_angle_beta   90.00000000
_cell_angle_gamma   120.00000051
_symmetry_Int_Tables_number   1
_chemical_formula_structural   Li3Y3InSiSn
_chemical_formula_sum   'Li3 Y3 In1 Si1 Sn1'
_cell_volume   204.08166405
_cell_formula_units_Z   1
loop_
 _symmetry_equiv_pos_site_id
 _symmetry_equiv_pos_as_xyz
  1  'x, y, z'
loop_
 _atom_site_type_symbol
 _atom_site_label
 _atom_site_symmetry_multiplicity
 _atom_site_fract_x
 _atom_site_fract_y
 _atom_site_fract_z
 _atom_site_occupancy
  Li  Li0  1  0.252854  0.004923  0.500000  1
  Li  Li1  1  0.752069  0.747146  0.500000  1
  Li  Li2  1  0.995077  0.247931  0.500000  1
  Y  Y3  1  0.987164  0.555486  0.000000  1
  Y  Y4  1  0.568322  0.012836  0.000000  1
  Y  Y5  1  0.444514  0.431678  0.000000  1
  In  In6  1  0.000000  0.000000  0.000000  1
  Si  Si7  1  0.666667  0.333333  0.500000  1
  Sn  Sn8  1  0.333333  0.666667  0.500000  1
