# generated using pymatgen
data_Pr4Ru2PtRhF28
_symmetry_space_group_name_H-M   'P 1'
_cell_length_a   5.70740873
_cell_length_b   9.23098652
_cell_length_c   12.34282060
_cell_angle_alpha   62.27041643
_cell_angle_beta   89.90218558
_cell_angle_gamma   90.03859070
_symmetry_Int_Tables_number   1
_chemical_formula_structural   Pr4Ru2PtRhF28
_chemical_formula_sum   'Pr4 Ru2 Pt1 Rh1 F28'
_cell_volume   575.59745792
_cell_formula_units_Z   1
loop_
 _symmetry_equiv_pos_site_id
 _symmetry_equiv_pos_as_xyz
  1  'x, y, z'
loop_
 _atom_site_type_symbol
 _atom_site_label
 _atom_site_symmetry_multiplicity
 _atom_site_fract_x
 _atom_site_fract_y
 _atom_site_fract_z
 _atom_site_occupancy
  Pr  Pr0  1  0.757173  0.810970  0.770218  1
  Pr  Pr1  1  0.257791  0.180969  0.739012  1
  Pr  Pr2  1  0.237703  0.197488  0.231948  1
  Pr  Pr3  1  0.739188  0.806847  0.262342  1
  Ru  Ru4  1  0.754553  0.276106  0.954779  1
  Ru  Ru5  1  0.254357  0.723486  0.545095  1
  Pt  Pt6  1  0.742578  0.269839  0.460670  1
  Rh  Rh7  1  0.243496  0.728058  0.041207  1
  F  F8  1  0.440770  0.710352  0.915763  1
  F  F9  1  0.931900  0.292582  0.585145  1
  F  F10  1  0.564113  0.294155  0.077879  1
  F  F11  1  0.059333  0.707342  0.422861  1
  F  F12  1  0.450750  0.282463  0.541579  1
  F  F13  1  0.956539  0.715093  0.956337  1
  F  F14  1  0.536535  0.715581  0.458533  1
  F  F15  1  0.040822  0.284350  0.037960  1
  F  F16  1  0.764336  0.509509  0.861160  1
  F  F17  1  0.263895  0.489665  0.637695  1
  F  F18  1  0.236837  0.485425  0.138768  1
  F  F19  1  0.737630  0.510243  0.364272  1
  F  F20  1  0.754919  0.043443  0.043941  1
  F  F21  1  0.254366  0.955786  0.455542  1
  F  F22  1  0.236168  0.970516  0.945579  1
  F  F23  1  0.736778  0.029423  0.552342  1
  F  F24  1  0.976521  0.725599  0.635612  1
  F  F25  1  0.473603  0.274360  0.866704  1
  F  F26  1  0.030767  0.263447  0.375215  1
  F  F27  1  0.525579  0.736257  0.130862  1
  F  F28  1  0.051305  0.747443  0.167564  1
  F  F29  1  0.558446  0.251249  0.332707  1
  F  F30  1  0.944299  0.262465  0.828592  1
  F  F31  1  0.448973  0.737894  0.669347  1
  F  F32  1  0.419396  0.976332  0.231712  1
  F  F33  1  0.916833  0.030539  0.265357  1
  F  F34  1  0.603625  0.039739  0.770120  1
  F  F35  1  0.098120  0.964987  0.725582  1
