# generated using pymatgen
data_GaSb(P2O7)2
_symmetry_space_group_name_H-M   'P 1'
_cell_length_a   8.09467620
_cell_length_b   4.86538696
_cell_length_c   7.00746316
_cell_angle_alpha   73.25848742
_cell_angle_beta   90.70899320
_cell_angle_gamma   90.28289138
_symmetry_Int_Tables_number   1
_chemical_formula_structural   GaSb(P2O7)2
_chemical_formula_sum   'Ga1 Sb1 P4 O14'
_cell_volume   264.26186746
_cell_formula_units_Z   1
loop_
 _symmetry_equiv_pos_site_id
 _symmetry_equiv_pos_as_xyz
  1  'x, y, z'
loop_
 _atom_site_type_symbol
 _atom_site_label
 _atom_site_symmetry_multiplicity
 _atom_site_fract_x
 _atom_site_fract_y
 _atom_site_fract_z
 _atom_site_occupancy
  Ga  Ga0  1  0.548127  0.788584  0.726722  1
  Sb  Sb1  1  0.049681  0.212737  0.274622  1
  P  P2  1  0.863162  0.606374  0.515317  1
  P  P3  1  0.283422  0.770386  0.096786  1
  P  P4  1  0.774672  0.232177  0.897410  1
  P  P5  1  0.373072  0.391676  0.493417  1
  O  O6  1  0.730038  0.965229  0.839772  1
  O  O7  1  0.376458  0.860318  0.906659  1
  O  O8  1  0.007117  0.826972  0.465090  1
  O  O9  1  0.694716  0.734482  0.508368  1
  O  O10  1  0.372266  0.590276  0.623669  1
  O  O11  1  0.633657  0.425510  0.914505  1
  O  O12  1  0.909100  0.415460  0.736230  1
  O  O13  1  0.403714  0.580062  0.263456  1
  O  O14  1  0.123552  0.590500  0.088904  1
  O  O15  1  0.868068  0.407375  0.375806  1
  O  O16  1  0.192610  0.270063  0.491679  1
  O  O17  1  0.501591  0.160004  0.532901  1
  O  O18  1  0.884543  0.130190  0.090188  1
  O  O19  1  0.233647  0.041625  0.158497  1
