# generated using pymatgen
data_Ho8Lu4Th4Mg3CdIr4
_symmetry_space_group_name_H-M   'P 1'
_cell_length_a   9.70249024
_cell_length_b   9.71756424
_cell_length_c   9.74207000
_cell_angle_alpha   59.91654439
_cell_angle_beta   59.86496450
_cell_angle_gamma   59.95404793
_symmetry_Int_Tables_number   1
_chemical_formula_structural   Ho8Lu4Th4Mg3CdIr4
_chemical_formula_sum   'Ho8 Lu4 Th4 Mg3 Cd1 Ir4'
_cell_volume   648.19705327
_cell_formula_units_Z   1
loop_
 _symmetry_equiv_pos_site_id
 _symmetry_equiv_pos_as_xyz
  1  'x, y, z'
loop_
 _atom_site_type_symbol
 _atom_site_label
 _atom_site_symmetry_multiplicity
 _atom_site_fract_x
 _atom_site_fract_y
 _atom_site_fract_z
 _atom_site_occupancy
  Ho  Ho0  1  0.436314  0.435446  0.064120  1
  Ho  Ho1  1  0.065650  0.065504  0.434423  1
  Ho  Ho2  1  0.188315  0.814843  0.814217  1
  Ho  Ho3  1  0.815658  0.185884  0.183636  1
  Ho  Ho4  1  0.815658  0.185884  0.814822  1
  Ho  Ho5  1  0.188315  0.814843  0.182625  1
  Ho  Ho6  1  0.816247  0.815862  0.183945  1
  Ho  Ho7  1  0.187866  0.184041  0.814047  1
  Lu  Lu8  1  0.063607  0.436187  0.436555  1
  Lu  Lu9  1  0.437222  0.063255  0.063470  1
  Lu  Lu10  1  0.437222  0.063255  0.436053  1
  Lu  Lu11  1  0.063607  0.436187  0.063652  1
  Th  Th12  1  0.599731  0.599548  0.597651  1
  Th  Th13  1  0.599731  0.599548  0.203070  1
  Th  Th14  1  0.599397  0.200688  0.599958  1
  Th  Th15  1  0.201384  0.599098  0.599760  1
  Mg  Mg16  1  0.828080  0.830559  0.832548  1
  Mg  Mg17  1  0.828080  0.830559  0.508813  1
  Mg  Mg18  1  0.827029  0.509312  0.831830  1
  Cd  Cd19  1  0.501630  0.831826  0.833273  1
  Ir  Ir20  1  0.391237  0.390936  0.395258  1
  Ir  Ir21  1  0.391237  0.390936  0.822570  1
  Ir  Ir22  1  0.393393  0.822674  0.391967  1
  Ir  Ir23  1  0.823392  0.393128  0.391739  1
