# generated using pymatgen
data_Ho3Er5Sc12Si15Os
_symmetry_space_group_name_H-M   'P 1'
_cell_length_a   7.05474105
_cell_length_b   7.40737133
_cell_length_c   13.90805117
_cell_angle_alpha   90.01291777
_cell_angle_beta   89.98719045
_cell_angle_gamma   90.21495101
_symmetry_Int_Tables_number   1
_chemical_formula_structural   Ho3Er5Sc12Si15Os
_chemical_formula_sum   'Ho3 Er5 Sc12 Si15 Os1'
_cell_volume   726.78908395
_cell_formula_units_Z   1
loop_
 _symmetry_equiv_pos_site_id
 _symmetry_equiv_pos_as_xyz
  1  'x, y, z'
loop_
 _atom_site_type_symbol
 _atom_site_label
 _atom_site_symmetry_multiplicity
 _atom_site_fract_x
 _atom_site_fract_y
 _atom_site_fract_z
 _atom_site_occupancy
  Ho  Ho0  1  0.011283  0.178934  0.403897  1
  Ho  Ho1  1  0.510996  0.322889  0.403822  1
  Ho  Ho2  1  0.488474  0.676829  0.595721  1
  Er  Er3  1  0.011363  0.179127  0.096267  1
  Er  Er4  1  0.990856  0.828006  0.903684  1
  Er  Er5  1  0.488503  0.676995  0.904136  1
  Er  Er6  1  0.990854  0.827903  0.596381  1
  Er  Er7  1  0.511004  0.322762  0.096281  1
  Sc  Sc8  1  0.156167  0.497750  0.750029  1
  Sc  Sc9  1  0.838005  0.495121  0.249902  1
  Sc  Sc10  1  0.339182  0.005889  0.249930  1
  Sc  Sc11  1  0.669004  0.997415  0.750027  1
  Sc  Sc12  1  0.317931  0.171915  0.627299  1
  Sc  Sc13  1  0.671957  0.825461  0.373813  1
  Sc  Sc14  1  0.171129  0.678163  0.374051  1
  Sc  Sc15  1  0.671892  0.825386  0.126111  1
  Sc  Sc16  1  0.837432  0.318923  0.627471  1
  Sc  Sc17  1  0.317912  0.172031  0.872774  1
  Sc  Sc18  1  0.837493  0.318843  0.872595  1
  Sc  Sc19  1  0.171147  0.678114  0.125882  1
  Si  Si20  1  0.968799  0.885968  0.249914  1
  Si  Si21  1  0.469220  0.613456  0.249904  1
  Si  Si22  1  0.529402  0.389871  0.750106  1
  Si  Si23  1  0.286167  0.865796  0.750150  1
  Si  Si24  1  0.713401  0.131169  0.249752  1
  Si  Si25  1  0.213695  0.370002  0.249740  1
  Si  Si26  1  0.778811  0.627670  0.750139  1
  Si  Si27  1  0.160112  0.469238  0.536975  1
  Si  Si28  1  0.843962  0.536011  0.461580  1
  Si  Si29  1  0.344415  0.965981  0.460003  1
  Si  Si30  1  0.843614  0.535655  0.038511  1
  Si  Si31  1  0.656030  0.033860  0.538230  1
  Si  Si32  1  0.160525  0.469144  0.963067  1
  Si  Si33  1  0.655971  0.033840  0.961811  1
  Si  Si34  1  0.344239  0.966204  0.040047  1
  Os  Os35  1  0.029053  0.107677  0.750000  1
