# generated using pymatgen
data_Y12Co4AgPb
_symmetry_space_group_name_H-M   'P 1'
_cell_length_a   8.41415380
_cell_length_b   8.41415340
_cell_length_c   8.41415305
_cell_angle_alpha   110.00617789
_cell_angle_beta   111.29873062
_cell_angle_gamma   107.13642612
_symmetry_Int_Tables_number   1
_chemical_formula_structural   Y12Co4AgPb
_chemical_formula_sum   'Y12 Co4 Ag1 Pb1'
_cell_volume   457.94488103
_cell_formula_units_Z   1
loop_
 _symmetry_equiv_pos_site_id
 _symmetry_equiv_pos_as_xyz
  1  'x, y, z'
loop_
 _atom_site_type_symbol
 _atom_site_label
 _atom_site_symmetry_multiplicity
 _atom_site_fract_x
 _atom_site_fract_y
 _atom_site_fract_z
 _atom_site_occupancy
  Y  Y0  1  0.292743  0.186682  0.479425  1
  Y  Y1  1  0.707257  0.813318  0.520575  1
  Y  Y2  1  0.292743  0.813318  0.106062  1
  Y  Y3  1  0.707257  0.186682  0.893938  1
  Y  Y4  1  0.617288  0.313203  0.304085  1
  Y  Y5  1  0.382712  0.686797  0.695915  1
  Y  Y6  1  0.009118  0.313203  0.695915  1
  Y  Y7  1  0.990882  0.686797  0.304085  1
  Y  Y8  1  0.216653  0.423492  0.206840  1
  Y  Y9  1  0.783347  0.576508  0.793160  1
  Y  Y10  1  0.216653  0.009814  0.793160  1
  Y  Y11  1  0.783347  0.990186  0.206840  1
  Co  Co12  1  0.000000  0.382150  0.382150  1
  Co  Co13  1  0.000000  0.617850  0.617850  1
  Co  Co14  1  0.389144  0.889144  0.500000  1
  Co  Co15  1  0.610856  0.110856  0.500000  1
  Ag  Ag16  1  0.000000  0.000000  0.000000  1
  Pb  Pb17  1  0.500000  0.500000  0.000000  1
