# generated using pymatgen
data_YZr(Al3Ir)3
_symmetry_space_group_name_H-M   'P 1'
_cell_length_a   7.53337003
_cell_length_b   7.51558610
_cell_length_c   9.36741900
_cell_angle_alpha   90.00000000
_cell_angle_beta   90.00000000
_cell_angle_gamma   119.72078313
_symmetry_Int_Tables_number   1
_chemical_formula_structural   YZr(Al3Ir)3
_chemical_formula_sum   'Y2 Zr2 Al18 Ir6'
_cell_volume   460.59348383
_cell_formula_units_Z   2
loop_
 _symmetry_equiv_pos_site_id
 _symmetry_equiv_pos_as_xyz
  1  'x, y, z'
loop_
 _atom_site_type_symbol
 _atom_site_label
 _atom_site_symmetry_multiplicity
 _atom_site_fract_x
 _atom_site_fract_y
 _atom_site_fract_z
 _atom_site_occupancy
  Y  Y0  1  0.670956  0.994259  0.250000  1
  Y  Y1  1  0.329044  0.005741  0.750000  1
  Zr  Zr2  1  0.995160  0.671333  0.250000  1
  Zr  Zr3  1  0.004840  0.328667  0.750000  1
  Al  Al4  1  0.126763  0.124466  0.250000  1
  Al  Al5  1  0.873237  0.875534  0.750000  1
  Al  Al6  1  0.000114  0.337282  0.075231  1
  Al  Al7  1  0.999886  0.662718  0.924769  1
  Al  Al8  1  0.999886  0.662718  0.575231  1
  Al  Al9  1  0.332120  0.998225  0.421832  1
  Al  Al10  1  0.000114  0.337282  0.424769  1
  Al  Al11  1  0.667880  0.001775  0.578168  1
  Al  Al12  1  0.667880  0.001775  0.921832  1
  Al  Al13  1  0.332120  0.998225  0.078168  1
  Al  Al14  1  0.331228  0.333649  0.555972  1
  Al  Al15  1  0.668772  0.666351  0.444028  1
  Al  Al16  1  0.668772  0.666351  0.055972  1
  Al  Al17  1  0.331228  0.333649  0.944028  1
  Al  Al18  1  0.334501  0.547876  0.250000  1
  Al  Al19  1  0.665499  0.452124  0.750000  1
  Al  Al20  1  0.554190  0.344374  0.250000  1
  Al  Al21  1  0.445810  0.655626  0.750000  1
  Ir  Ir22  1  0.672590  0.327991  0.999589  1
  Ir  Ir23  1  0.327410  0.672009  0.000411  1
  Ir  Ir24  1  0.327410  0.672009  0.499589  1
  Ir  Ir25  1  0.672590  0.327991  0.500411  1
  Ir  Ir26  1  0.000000  0.000000  0.000000  1
  Ir  Ir27  1  0.000000  0.000000  0.500000  1
