# generated using pymatgen
data_Tm4Hf3VF28
_symmetry_space_group_name_H-M   'P 1'
_cell_length_a   5.63874140
_cell_length_b   8.96045488
_cell_length_c   12.01703200
_cell_angle_alpha   62.68492842
_cell_angle_beta   89.97828574
_cell_angle_gamma   89.97623041
_symmetry_Int_Tables_number   1
_chemical_formula_structural   Tm4Hf3VF28
_chemical_formula_sum   'Tm4 Hf3 V1 F28'
_cell_volume   539.46733637
_cell_formula_units_Z   1
loop_
 _symmetry_equiv_pos_site_id
 _symmetry_equiv_pos_as_xyz
  1  'x, y, z'
loop_
 _atom_site_type_symbol
 _atom_site_label
 _atom_site_symmetry_multiplicity
 _atom_site_fract_x
 _atom_site_fract_y
 _atom_site_fract_z
 _atom_site_occupancy
  Tm  Tm0  1  0.757344  0.813852  0.768062  1
  Tm  Tm1  1  0.257014  0.186529  0.726844  1
  Tm  Tm2  1  0.243404  0.188307  0.239537  1
  Tm  Tm3  1  0.743906  0.820790  0.265901  1
  Hf  Hf4  1  0.756745  0.273842  0.954702  1
  Hf  Hf5  1  0.255320  0.726157  0.543560  1
  Hf  Hf6  1  0.245198  0.726600  0.046669  1
  V  V7  1  0.743267  0.272938  0.454461  1
  F  F8  1  0.468474  0.707342  0.924100  1
  F  F9  1  0.952972  0.286517  0.574088  1
  F  F10  1  0.531123  0.290892  0.077028  1
  F  F11  1  0.031130  0.710784  0.420025  1
  F  F12  1  0.466770  0.277906  0.547865  1
  F  F13  1  0.953983  0.721396  0.950050  1
  F  F14  1  0.545802  0.717315  0.447900  1
  F  F15  1  0.044006  0.278198  0.053610  1
  F  F16  1  0.771693  0.525334  0.857434  1
  F  F17  1  0.263776  0.475041  0.639123  1
  F  F18  1  0.228970  0.475368  0.144618  1
  F  F19  1  0.733136  0.502789  0.365545  1
  F  F20  1  0.757314  0.023255  0.058730  1
  F  F21  1  0.260225  0.975956  0.443625  1
  F  F22  1  0.244484  0.974994  0.941233  1
  F  F23  1  0.742186  0.042883  0.546048  1
  F  F24  1  0.982897  0.739301  0.646719  1
  F  F25  1  0.491085  0.264715  0.846048  1
  F  F26  1  0.006590  0.265160  0.357240  1
  F  F27  1  0.513658  0.732039  0.155155  1
  F  F28  1  0.028788  0.747079  0.173688  1
  F  F29  1  0.538239  0.254384  0.332415  1
  F  F30  1  0.974398  0.251564  0.828438  1
  F  F31  1  0.472031  0.749599  0.669507  1
  F  F32  1  0.432475  0.979155  0.236990  1
  F  F33  1  0.932390  0.026273  0.267249  1
  F  F34  1  0.563566  0.020896  0.762858  1
  F  F35  1  0.065641  0.974847  0.732932  1
