# generated using pymatgen
data_La9PrSi5Pb
_symmetry_space_group_name_H-M   'P 1'
_cell_length_a   7.88521349
_cell_length_b   7.88200887
_cell_length_c   9.43867600
_cell_angle_alpha   114.57418818
_cell_angle_beta   114.50989605
_cell_angle_gamma   90.10701787
_symmetry_Int_Tables_number   1
_chemical_formula_structural   La9PrSi5Pb
_chemical_formula_sum   'La9 Pr1 Si5 Pb1'
_cell_volume   474.51582287
_cell_formula_units_Z   1
loop_
 _symmetry_equiv_pos_site_id
 _symmetry_equiv_pos_as_xyz
  1  'x, y, z'
loop_
 _atom_site_type_symbol
 _atom_site_label
 _atom_site_symmetry_multiplicity
 _atom_site_fract_x
 _atom_site_fract_y
 _atom_site_fract_z
 _atom_site_occupancy
  La  La0  1  0.526475  0.526587  0.053290  1
  La  La1  1  0.977589  0.974639  0.951411  1
  La  La2  1  0.973949  0.828643  0.276843  1
  La  La3  1  0.302762  0.449649  0.276795  1
  La  La4  1  0.827413  0.302214  0.277448  1
  La  La5  1  0.444165  0.970996  0.273199  1
  La  La6  1  0.052636  0.196400  0.722355  1
  La  La7  1  0.670253  0.525118  0.723608  1
  La  La8  1  0.197824  0.672583  0.722064  1
  Pr  Pr9  1  0.529624  0.055198  0.725764  1
  Si  Si10  1  0.249840  0.249443  0.499174  1
  Si  Si11  1  0.613618  0.886434  0.998749  1
  Si  Si12  1  0.386530  0.114029  0.998269  1
  Si  Si13  1  0.885671  0.385741  0.000617  1
  Si  Si14  1  0.111267  0.611625  0.997890  1
  Pb  Pb15  1  0.750384  0.750699  0.502529  1
