# generated using pymatgen
data_ErThTcB6
_symmetry_space_group_name_H-M   'P 1'
_cell_length_a   3.76501500
_cell_length_b   9.23191900
_cell_length_c   11.66116000
_cell_angle_alpha   90.00000000
_cell_angle_beta   90.00000000
_cell_angle_gamma   90.00000000
_symmetry_Int_Tables_number   1
_chemical_formula_structural   ErThTcB6
_chemical_formula_sum   'Er4 Th4 Tc4 B24'
_cell_volume   405.32225521
_cell_formula_units_Z   4
loop_
 _symmetry_equiv_pos_site_id
 _symmetry_equiv_pos_as_xyz
  1  'x, y, z'
loop_
 _atom_site_type_symbol
 _atom_site_label
 _atom_site_symmetry_multiplicity
 _atom_site_fract_x
 _atom_site_fract_y
 _atom_site_fract_z
 _atom_site_occupancy
  Er  Er0  1  0.000000  0.944821  0.372227  1
  Er  Er1  1  0.000000  0.055179  0.627773  1
  Er  Er2  1  0.000000  0.444821  0.127773  1
  Er  Er3  1  0.000000  0.555179  0.872227  1
  Th  Th4  1  0.000000  0.322636  0.414326  1
  Th  Th5  1  0.000000  0.677364  0.585674  1
  Th  Th6  1  0.000000  0.822636  0.085674  1
  Th  Th7  1  0.000000  0.177364  0.914326  1
  Tc  Tc8  1  0.000000  0.639715  0.319492  1
  Tc  Tc9  1  0.000000  0.360285  0.680508  1
  Tc  Tc10  1  0.000000  0.139715  0.180508  1
  Tc  Tc11  1  0.000000  0.860285  0.819492  1
  B  B12  1  0.500000  0.556448  0.429627  1
  B  B13  1  0.500000  0.443552  0.570373  1
  B  B14  1  0.500000  0.056448  0.070373  1
  B  B15  1  0.500000  0.943552  0.929627  1
  B  B16  1  0.500000  0.750241  0.416872  1
  B  B17  1  0.500000  0.249759  0.583128  1
  B  B18  1  0.500000  0.250241  0.083128  1
  B  B19  1  0.500000  0.749759  0.916872  1
  B  B20  1  0.500000  0.791472  0.266516  1
  B  B21  1  0.500000  0.208528  0.733484  1
  B  B22  1  0.500000  0.291472  0.233484  1
  B  B23  1  0.500000  0.708528  0.766516  1
  B  B24  1  0.500000  0.630585  0.185694  1
  B  B25  1  0.500000  0.369415  0.814306  1
  B  B26  1  0.500000  0.130585  0.314306  1
  B  B27  1  0.500000  0.869415  0.685694  1
  B  B28  1  0.500000  0.985310  0.214280  1
  B  B29  1  0.500000  0.014690  0.785720  1
  B  B30  1  0.500000  0.485310  0.285720  1
  B  B31  1  0.500000  0.514690  0.714280  1
  B  B32  1  0.500000  0.602384  0.028009  1
  B  B33  1  0.500000  0.397616  0.971991  1
  B  B34  1  0.500000  0.102384  0.471991  1
  B  B35  1  0.500000  0.897616  0.528009  1
