# generated using pymatgen
data_Tl(BBr)6
_symmetry_space_group_name_H-M   'P 1'
_cell_length_a   10.06087711
_cell_length_b   10.06087626
_cell_length_c   17.03895900
_cell_angle_alpha   107.17142209
_cell_angle_beta   72.82857941
_cell_angle_gamma   119.99999470
_symmetry_Int_Tables_number   1
_chemical_formula_structural   Tl(BBr)6
_chemical_formula_sum   'Tl4 B24 Br24'
_cell_volume   1404.16629259
_cell_formula_units_Z   4
loop_
 _symmetry_equiv_pos_site_id
 _symmetry_equiv_pos_as_xyz
  1  'x, y, z'
loop_
 _atom_site_type_symbol
 _atom_site_label
 _atom_site_symmetry_multiplicity
 _atom_site_fract_x
 _atom_site_fract_y
 _atom_site_fract_z
 _atom_site_occupancy
  Tl  Tl0  1  0.629568  0.370432  0.111296  1
  Tl  Tl1  1  0.201346  0.798653  0.395958  1
  Tl  Tl2  1  0.798652  0.201347  0.604042  1
  Tl  Tl3  1  0.370432  0.629568  0.888704  1
  B  B4  1  0.030203  0.187549  0.020061  1
  B  B5  1  0.812452  0.862715  0.020061  1
  B  B6  1  0.137285  0.969798  0.020061  1
  B  B7  1  0.881939  0.050973  0.084818  1
  B  B8  1  0.084217  0.118061  0.084818  1
  B  B9  1  0.949026  0.915782  0.084818  1
  B  B10  1  0.445853  0.356129  0.415384  1
  B  B11  1  0.643871  0.505108  0.415384  1
  B  B12  1  0.494892  0.554147  0.415384  1
  B  B13  1  0.559929  0.360447  0.480107  1
  B  B14  1  0.320410  0.440071  0.480107  1
  B  B15  1  0.639553  0.679590  0.480107  1
  B  B16  1  0.360447  0.320410  0.519893  1
  B  B17  1  0.679590  0.559929  0.519893  1
  B  B18  1  0.440070  0.639553  0.519893  1
  B  B19  1  0.505108  0.445853  0.584616  1
  B  B20  1  0.356129  0.494892  0.584616  1
  B  B21  1  0.554147  0.643871  0.584616  1
  B  B22  1  0.050974  0.084218  0.915182  1
  B  B23  1  0.915783  0.881939  0.915182  1
  B  B24  1  0.118062  0.949026  0.915182  1
  B  B25  1  0.862715  0.030202  0.979939  1
  B  B26  1  0.187548  0.137285  0.979939  1
  B  B27  1  0.969797  0.812451  0.979939  1
  Br  Br28  1  0.063952  0.405064  0.044587  1
  Br  Br29  1  0.594936  0.703475  0.044587  1
  Br  Br30  1  0.296526  0.936048  0.044587  1
  Br  Br31  1  0.744132  0.109054  0.180684  1
  Br  Br32  1  0.184237  0.255867  0.180684  1
  Br  Br33  1  0.890946  0.815763  0.180684  1
  Br  Br34  1  0.382245  0.188996  0.318852  1
  Br  Br35  1  0.811004  0.512101  0.318852  1
  Br  Br36  1  0.487899  0.617755  0.318852  1
  Br  Br37  1  0.626570  0.196187  0.454929  1
  Br  Br38  1  0.114689  0.373430  0.454929  1
  Br  Br39  1  0.803813  0.885312  0.454929  1
  Br  Br40  1  0.196187  0.114689  0.545072  1
  Br  Br41  1  0.885311  0.626570  0.545072  1
  Br  Br42  1  0.373430  0.803813  0.545072  1
  Br  Br43  1  0.512101  0.382245  0.681149  1
  Br  Br44  1  0.188996  0.487899  0.681149  1
  Br  Br45  1  0.617755  0.811004  0.681149  1
  Br  Br46  1  0.109054  0.184237  0.819316  1
  Br  Br47  1  0.815763  0.744133  0.819316  1
  Br  Br48  1  0.255868  0.890946  0.819316  1
  Br  Br49  1  0.703474  0.063952  0.955413  1
  Br  Br50  1  0.405064  0.296525  0.955413  1
  Br  Br51  1  0.936048  0.594936  0.955413  1
