# generated using pymatgen
data_Tb4Dy11Ho(CdNi)4
_symmetry_space_group_name_H-M   'P 1'
_cell_length_a   9.55616951
_cell_length_b   9.55636187
_cell_length_c   9.55636200
_cell_angle_alpha   60.00098626
_cell_angle_beta   60.00067675
_cell_angle_gamma   60.00066728
_symmetry_Int_Tables_number   1
_chemical_formula_structural   Tb4Dy11Ho(CdNi)4
_chemical_formula_sum   'Tb4 Dy11 Ho1 Cd4 Ni4'
_cell_volume   617.10870847
_cell_formula_units_Z   1
loop_
 _symmetry_equiv_pos_site_id
 _symmetry_equiv_pos_as_xyz
  1  'x, y, z'
loop_
 _atom_site_type_symbol
 _atom_site_label
 _atom_site_symmetry_multiplicity
 _atom_site_fract_x
 _atom_site_fract_y
 _atom_site_fract_z
 _atom_site_occupancy
  Tb  Tb0  1  0.598860  0.598823  0.598823  1
  Tb  Tb1  1  0.598834  0.598826  0.203508  1
  Tb  Tb2  1  0.598834  0.203508  0.598826  1
  Tb  Tb3  1  0.203495  0.598823  0.598823  1
  Dy  Dy4  1  0.438410  0.061590  0.061590  1
  Dy  Dy5  1  0.438368  0.061634  0.438393  1
  Dy  Dy6  1  0.061605  0.438393  0.061634  1
  Dy  Dy7  1  0.438368  0.438393  0.061634  1
  Dy  Dy8  1  0.061605  0.061634  0.438393  1
  Dy  Dy9  1  0.185953  0.814047  0.814047  1
  Dy  Dy10  1  0.814047  0.185953  0.185953  1
  Dy  Dy11  1  0.814065  0.185958  0.814035  1
  Dy  Dy12  1  0.185941  0.814035  0.185958  1
  Dy  Dy13  1  0.814065  0.814035  0.185958  1
  Dy  Dy14  1  0.185941  0.185958  0.814035  1
  Ho  Ho15  1  0.061593  0.438407  0.438407  1
  Cd  Cd16  1  0.831279  0.831291  0.831291  1
  Cd  Cd17  1  0.831298  0.831267  0.506137  1
  Cd  Cd18  1  0.831298  0.506137  0.831267  1
  Cd  Cd19  1  0.506140  0.831291  0.831291  1
  Ni  Ni20  1  0.392273  0.392293  0.392293  1
  Ni  Ni21  1  0.392294  0.392313  0.823098  1
  Ni  Ni22  1  0.392294  0.823098  0.392313  1
  Ni  Ni23  1  0.823140  0.392293  0.392293  1
