# generated using pymatgen
data_CsAl12Tl3Se20
_symmetry_space_group_name_H-M   'P 1'
_cell_length_a   13.46064110
_cell_length_b   7.55531738
_cell_length_c   11.16990700
_cell_angle_alpha   75.75915617
_cell_angle_beta   89.83606759
_cell_angle_gamma   90.12190627
_symmetry_Int_Tables_number   1
_chemical_formula_structural   CsAl12Tl3Se20
_chemical_formula_sum   'Cs1 Al12 Tl3 Se20'
_cell_volume   1101.05562494
_cell_formula_units_Z   1
loop_
 _symmetry_equiv_pos_site_id
 _symmetry_equiv_pos_as_xyz
  1  'x, y, z'
loop_
 _atom_site_type_symbol
 _atom_site_label
 _atom_site_symmetry_multiplicity
 _atom_site_fract_x
 _atom_site_fract_y
 _atom_site_fract_z
 _atom_site_occupancy
  Cs  Cs0  1  0.610078  0.836357  0.394705  1
  Al  Al1  1  0.926392  0.802645  0.399978  1
  Al  Al2  1  0.577524  0.799405  0.895437  1
  Al  Al3  1  0.421480  0.204819  0.097657  1
  Al  Al4  1  0.397024  0.564289  0.806838  1
  Al  Al5  1  0.102825  0.560523  0.308060  1
  Al  Al6  1  0.335075  0.707789  0.123203  1
  Al  Al7  1  0.605209  0.436746  0.186858  1
  Al  Al8  1  0.077036  0.198491  0.601074  1
  Al  Al9  1  0.663054  0.292929  0.871211  1
  Al  Al10  1  0.900803  0.434415  0.695168  1
  Al  Al11  1  0.163383  0.706373  0.624590  1
  Al  Al12  1  0.840424  0.292604  0.373954  1
  Tl  Tl13  1  0.133822  0.159470  0.145124  1
  Tl  Tl14  1  0.361160  0.163000  0.644048  1
  Tl  Tl15  1  0.865129  0.836342  0.860231  1
  Se  Se16  1  0.836246  0.720260  0.588778  1
  Se  Se17  1  0.108390  0.812527  0.410644  1
  Se  Se18  1  0.674448  0.717666  0.076326  1
  Se  Se19  1  0.395391  0.816060  0.909686  1
  Se  Se20  1  0.325663  0.284470  0.914789  1
  Se  Se21  1  0.666285  0.341028  0.392877  1
  Se  Se22  1  0.577657  0.576066  0.765048  1
  Se  Se23  1  0.602897  0.184382  0.084153  1
  Se  Se24  1  0.895076  0.185488  0.589836  1
  Se  Se25  1  0.631885  0.072677  0.753627  1
  Se  Se26  1  0.357288  0.937007  0.236744  1
  Se  Se27  1  0.173509  0.280697  0.417802  1
  Se  Se28  1  0.081386  0.420050  0.732537  1
  Se  Se29  1  0.922291  0.579358  0.270345  1
  Se  Se30  1  0.877942  0.076527  0.256691  1
  Se  Se31  1  0.134234  0.927745  0.741552  1
  Se  Se32  1  0.835372  0.346385  0.899421  1
  Se  Se33  1  0.336628  0.652801  0.601115  1
  Se  Se34  1  0.423579  0.428086  0.228570  1
  Se  Se35  1  0.163418  0.644520  0.101320  1
