# generated using pymatgen
data_Tm2Lu2Al17GaRh6
_symmetry_space_group_name_H-M   'P 1'
_cell_length_a   7.51816244
_cell_length_b   7.51816235
_cell_length_c   9.43207900
_cell_angle_alpha   90.00028814
_cell_angle_beta   90.00028475
_cell_angle_gamma   119.28806278
_symmetry_Int_Tables_number   1
_chemical_formula_structural   Tm2Lu2Al17GaRh6
_chemical_formula_sum   'Tm2 Lu2 Al17 Ga1 Rh6'
_cell_volume   464.97819069
_cell_formula_units_Z   1
loop_
 _symmetry_equiv_pos_site_id
 _symmetry_equiv_pos_as_xyz
  1  'x, y, z'
loop_
 _atom_site_type_symbol
 _atom_site_label
 _atom_site_symmetry_multiplicity
 _atom_site_fract_x
 _atom_site_fract_y
 _atom_site_fract_z
 _atom_site_occupancy
  Tm  Tm0  1  0.994290  0.673798  0.249997  1
  Tm  Tm1  1  0.673798  0.994290  0.249997  1
  Lu  Lu2  1  0.004794  0.327807  0.750005  1
  Lu  Lu3  1  0.327807  0.004794  0.750005  1
  Al  Al4  1  0.872093  0.872093  0.750006  1
  Al  Al5  1  0.001155  0.336078  0.074595  1
  Al  Al6  1  0.999546  0.664194  0.924282  1
  Al  Al7  1  0.999533  0.664195  0.575743  1
  Al  Al8  1  0.336080  0.001173  0.425382  1
  Al  Al9  1  0.001173  0.336080  0.425382  1
  Al  Al10  1  0.664195  0.999533  0.575743  1
  Al  Al11  1  0.664194  0.999546  0.924282  1
  Al  Al12  1  0.336078  0.001155  0.074595  1
  Al  Al13  1  0.332573  0.332573  0.554877  1
  Al  Al14  1  0.666308  0.666308  0.448939  1
  Al  Al15  1  0.666334  0.666334  0.051051  1
  Al  Al16  1  0.332540  0.332540  0.945129  1
  Al  Al17  1  0.338275  0.550932  0.249990  1
  Al  Al18  1  0.661290  0.449283  0.750007  1
  Al  Al19  1  0.550932  0.338275  0.249990  1
  Al  Al20  1  0.449283  0.661290  0.750007  1
  Ga  Ga21  1  0.130307  0.130307  0.249998  1
  Rh  Rh22  1  0.671733  0.327509  0.000006  1
  Rh  Rh23  1  0.327509  0.671733  0.000006  1
  Rh  Rh24  1  0.327505  0.671710  0.499983  1
  Rh  Rh25  1  0.671710  0.327505  0.499983  1
  Rh  Rh26  1  0.999493  0.999493  0.997392  1
  Rh  Rh27  1  0.999470  0.999470  0.502626  1
