# generated using pymatgen
data_Yb5Ce(Si3Ru)8
_symmetry_space_group_name_H-M   'P 1'
_cell_length_a   10.16273257
_cell_length_b   10.16273286
_cell_length_c   8.17498809
_cell_angle_alpha   90.00677583
_cell_angle_beta   90.00677745
_cell_angle_gamma   132.59002336
_symmetry_Int_Tables_number   1
_chemical_formula_structural   Yb5Ce(Si3Ru)8
_chemical_formula_sum   'Yb5 Ce1 Si24 Ru8'
_cell_volume   621.60248468
_cell_formula_units_Z   1
loop_
 _symmetry_equiv_pos_site_id
 _symmetry_equiv_pos_as_xyz
  1  'x, y, z'
loop_
 _atom_site_type_symbol
 _atom_site_label
 _atom_site_symmetry_multiplicity
 _atom_site_fract_x
 _atom_site_fract_y
 _atom_site_fract_z
 _atom_site_occupancy
  Yb  Yb0  1  0.500000  0.500000  0.500000  1
  Yb  Yb1  1  0.002042  0.502111  0.250312  1
  Yb  Yb2  1  0.997958  0.497889  0.749688  1
  Yb  Yb3  1  0.497889  0.997958  0.749688  1
  Yb  Yb4  1  0.502111  0.002042  0.250312  1
  Ce  Ce5  1  0.000000  0.000000  0.000000  1
  Si  Si6  1  0.706778  0.293222  0.000000  1
  Si  Si7  1  0.293222  0.706778  0.000000  1
  Si  Si8  1  0.793631  0.206369  0.500000  1
  Si  Si9  1  0.206369  0.793631  0.500000  1
  Si  Si10  1  0.337417  0.337417  0.169865  1
  Si  Si11  1  0.662583  0.662583  0.830135  1
  Si  Si12  1  0.168207  0.168207  0.664031  1
  Si  Si13  1  0.831793  0.831793  0.335969  1
  Si  Si14  1  0.843326  0.607250  0.005218  1
  Si  Si15  1  0.156674  0.392750  0.994782  1
  Si  Si16  1  0.653235  0.886914  0.506281  1
  Si  Si17  1  0.113086  0.346765  0.493719  1
  Si  Si18  1  0.346765  0.113086  0.493719  1
  Si  Si19  1  0.886914  0.653235  0.506281  1
  Si  Si20  1  0.392750  0.156674  0.994782  1
  Si  Si21  1  0.607250  0.843326  0.005218  1
  Si  Si22  1  0.888759  0.124367  0.274026  1
  Si  Si23  1  0.111241  0.875633  0.725974  1
  Si  Si24  1  0.609319  0.375852  0.769947  1
  Si  Si25  1  0.624148  0.390681  0.230053  1
  Si  Si26  1  0.390681  0.624148  0.230053  1
  Si  Si27  1  0.375852  0.609319  0.769947  1
  Si  Si28  1  0.875633  0.111241  0.725974  1
  Si  Si29  1  0.124367  0.888759  0.274026  1
  Ru  Ru30  1  0.832077  0.167923  0.000000  1
  Ru  Ru31  1  0.167923  0.832077  0.000000  1
  Ru  Ru32  1  0.669188  0.330812  0.500000  1
  Ru  Ru33  1  0.330812  0.669188  0.500000  1
  Ru  Ru34  1  0.125222  0.125222  0.372845  1
  Ru  Ru35  1  0.874778  0.874778  0.627155  1
  Ru  Ru36  1  0.370740  0.370740  0.876435  1
  Ru  Ru37  1  0.629260  0.629260  0.123565  1
