# generated using pymatgen
data_PrEr2(GaRh2)3
_symmetry_space_group_name_H-M   'P 1'
_cell_length_a   5.63166800
_cell_length_b   5.63166615
_cell_length_c   15.67772800
_cell_angle_alpha   90.00000000
_cell_angle_beta   90.00000000
_cell_angle_gamma   119.99999909
_symmetry_Int_Tables_number   1
_chemical_formula_structural   PrEr2(GaRh2)3
_chemical_formula_sum   'Pr2 Er4 Ga6 Rh12'
_cell_volume   430.61356552
_cell_formula_units_Z   2
loop_
 _symmetry_equiv_pos_site_id
 _symmetry_equiv_pos_as_xyz
  1  'x, y, z'
loop_
 _atom_site_type_symbol
 _atom_site_label
 _atom_site_symmetry_multiplicity
 _atom_site_fract_x
 _atom_site_fract_y
 _atom_site_fract_z
 _atom_site_occupancy
  Pr  Pr0  1  0.333333  0.666667  0.750000  1
  Pr  Pr1  1  0.666667  0.333333  0.250000  1
  Er  Er2  1  0.333333  0.666667  0.537689  1
  Er  Er3  1  0.666667  0.333333  0.462311  1
  Er  Er4  1  0.666667  0.333333  0.037689  1
  Er  Er5  1  0.333333  0.666667  0.962311  1
  Ga  Ga6  1  0.000000  0.000000  0.250000  1
  Ga  Ga7  1  0.000000  0.000000  0.750000  1
  Ga  Ga8  1  0.333333  0.666667  0.250000  1
  Ga  Ga9  1  0.666667  0.333333  0.750000  1
  Ga  Ga10  1  0.000000  0.000000  0.000000  1
  Ga  Ga11  1  0.000000  0.000000  0.500000  1
  Rh  Rh12  1  0.169088  0.338175  0.123912  1
  Rh  Rh13  1  0.830912  0.661825  0.876088  1
  Rh  Rh14  1  0.661825  0.830912  0.123912  1
  Rh  Rh15  1  0.830912  0.661825  0.623912  1
  Rh  Rh16  1  0.338175  0.169088  0.876088  1
  Rh  Rh17  1  0.169088  0.338175  0.376088  1
  Rh  Rh18  1  0.169088  0.830912  0.123912  1
  Rh  Rh19  1  0.338175  0.169088  0.623912  1
  Rh  Rh20  1  0.830912  0.169088  0.876088  1
  Rh  Rh21  1  0.661825  0.830912  0.376088  1
  Rh  Rh22  1  0.830912  0.169088  0.623912  1
  Rh  Rh23  1  0.169088  0.830912  0.376088  1
