# generated using pymatgen
data_TbPr9(IrPt2)2
_symmetry_space_group_name_H-M   'P 1'
_cell_length_a   11.48856800
_cell_length_b   11.48856800
_cell_length_c   6.55390500
_cell_angle_alpha   90.00000000
_cell_angle_beta   90.00000000
_cell_angle_gamma   90.00000000
_symmetry_Int_Tables_number   1
_chemical_formula_structural   TbPr9(IrPt2)2
_chemical_formula_sum   'Tb2 Pr18 Ir4 Pt8'
_cell_volume   865.03153522
_cell_formula_units_Z   2
loop_
 _symmetry_equiv_pos_site_id
 _symmetry_equiv_pos_as_xyz
  1  'x, y, z'
loop_
 _atom_site_type_symbol
 _atom_site_label
 _atom_site_symmetry_multiplicity
 _atom_site_fract_x
 _atom_site_fract_y
 _atom_site_fract_z
 _atom_site_occupancy
  Tb  Tb0  1  0.500000  0.500000  0.000000  1
  Tb  Tb1  1  0.500000  0.500000  0.500000  1
  Pr  Pr2  1  0.295628  0.088926  0.373108  1
  Pr  Pr3  1  0.295628  0.911074  0.873108  1
  Pr  Pr4  1  0.704372  0.088926  0.873108  1
  Pr  Pr5  1  0.704372  0.911074  0.373108  1
  Pr  Pr6  1  0.588270  0.792431  0.875213  1
  Pr  Pr7  1  0.588270  0.207569  0.375213  1
  Pr  Pr8  1  0.411730  0.792431  0.375213  1
  Pr  Pr9  1  0.411730  0.207569  0.875213  1
  Pr  Pr10  1  0.207569  0.411730  0.624787  1
  Pr  Pr11  1  0.207569  0.588270  0.124787  1
  Pr  Pr12  1  0.792431  0.411730  0.124787  1
  Pr  Pr13  1  0.792431  0.588270  0.624787  1
  Pr  Pr14  1  0.911074  0.704372  0.126892  1
  Pr  Pr15  1  0.911074  0.295628  0.626892  1
  Pr  Pr16  1  0.088926  0.704372  0.626892  1
  Pr  Pr17  1  0.088926  0.295628  0.126892  1
  Pr  Pr18  1  0.000000  0.000000  0.500000  1
  Pr  Pr19  1  0.000000  0.000000  0.000000  1
  Ir  Ir20  1  0.500000  0.000000  0.114164  1
  Ir  Ir21  1  0.500000  0.000000  0.614164  1
  Ir  Ir22  1  0.000000  0.500000  0.885836  1
  Ir  Ir23  1  0.000000  0.500000  0.385836  1
  Pt  Pt24  1  0.845647  0.154353  0.250000  1
  Pt  Pt25  1  0.845647  0.845647  0.750000  1
  Pt  Pt26  1  0.154353  0.154353  0.750000  1
  Pt  Pt27  1  0.154353  0.845647  0.250000  1
  Pt  Pt28  1  0.647067  0.352933  0.750000  1
  Pt  Pt29  1  0.647067  0.647067  0.250000  1
  Pt  Pt30  1  0.352933  0.352933  0.250000  1
  Pt  Pt31  1  0.352933  0.647067  0.750000  1
