# generated using pymatgen
data_Dy5Ho5(FeBi2)2
_symmetry_space_group_name_H-M   'P 1'
_cell_length_a   7.94372002
_cell_length_b   8.92646000
_cell_length_c   12.33117717
_cell_angle_alpha   90.00000000
_cell_angle_beta   89.91798728
_cell_angle_gamma   90.00000000
_symmetry_Int_Tables_number   1
_chemical_formula_structural   Dy5Ho5(FeBi2)2
_chemical_formula_sum   'Dy10 Ho10 Fe4 Bi8'
_cell_volume   874.39423408
_cell_formula_units_Z   2
loop_
 _symmetry_equiv_pos_site_id
 _symmetry_equiv_pos_as_xyz
  1  'x, y, z'
loop_
 _atom_site_type_symbol
 _atom_site_label
 _atom_site_symmetry_multiplicity
 _atom_site_fract_x
 _atom_site_fract_y
 _atom_site_fract_z
 _atom_site_occupancy
  Dy  Dy0  1  0.347802  0.750000  0.700756  1
  Dy  Dy1  1  0.652198  0.250000  0.299244  1
  Dy  Dy2  1  0.847655  0.250000  0.799555  1
  Dy  Dy3  1  0.152345  0.750000  0.200445  1
  Dy  Dy4  1  0.884187  0.750000  0.812206  1
  Dy  Dy5  1  0.115813  0.250000  0.187794  1
  Dy  Dy6  1  0.384024  0.250000  0.687769  1
  Dy  Dy7  1  0.615976  0.750000  0.312231  1
  Dy  Dy8  1  0.055345  0.750000  0.495254  1
  Dy  Dy9  1  0.944655  0.250000  0.504746  1
  Ho  Ho10  1  0.674037  0.536958  0.563096  1
  Ho  Ho11  1  0.325963  0.463042  0.436904  1
  Ho  Ho12  1  0.174707  0.463045  0.936745  1
  Ho  Ho13  1  0.325963  0.036958  0.436904  1
  Ho  Ho14  1  0.825293  0.536955  0.063255  1
  Ho  Ho15  1  0.674037  0.963042  0.563096  1
  Ho  Ho16  1  0.825293  0.963045  0.063255  1
  Ho  Ho17  1  0.174707  0.036955  0.936745  1
  Ho  Ho18  1  0.555334  0.250000  0.004667  1
  Ho  Ho19  1  0.444666  0.750000  0.995333  1
  Fe  Fe20  1  0.071204  0.750000  0.991397  1
  Fe  Fe21  1  0.928796  0.250000  0.008603  1
  Fe  Fe22  1  0.570955  0.250000  0.508642  1
  Fe  Fe23  1  0.429045  0.750000  0.491358  1
  Bi  Bi24  1  0.570694  0.506987  0.827536  1
  Bi  Bi25  1  0.429306  0.493013  0.172464  1
  Bi  Bi26  1  0.071009  0.492976  0.673195  1
  Bi  Bi27  1  0.429306  0.006987  0.172464  1
  Bi  Bi28  1  0.928991  0.507024  0.326805  1
  Bi  Bi29  1  0.570694  0.993013  0.827536  1
  Bi  Bi30  1  0.928991  0.992976  0.326805  1
  Bi  Bi31  1  0.071009  0.007024  0.673195  1
