# generated using pymatgen
data_Nd4DyZr5(Si5Ir2)4
_symmetry_space_group_name_H-M   'P 1'
_cell_length_a   12.59024800
_cell_length_b   12.59024800
_cell_length_c   4.22174600
_cell_angle_alpha   90.00000000
_cell_angle_beta   90.00000000
_cell_angle_gamma   90.00000000
_symmetry_Int_Tables_number   1
_chemical_formula_structural   Nd4DyZr5(Si5Ir2)4
_chemical_formula_sum   'Nd4 Dy1 Zr5 Si20 Ir8'
_cell_volume   669.20730069
_cell_formula_units_Z   1
loop_
 _symmetry_equiv_pos_site_id
 _symmetry_equiv_pos_as_xyz
  1  'x, y, z'
loop_
 _atom_site_type_symbol
 _atom_site_label
 _atom_site_symmetry_multiplicity
 _atom_site_fract_x
 _atom_site_fract_y
 _atom_site_fract_z
 _atom_site_occupancy
  Nd  Nd0  1  0.884281  0.384799  0.500000  1
  Nd  Nd1  1  0.115719  0.615201  0.500000  1
  Nd  Nd2  1  0.384799  0.115719  0.500000  1
  Nd  Nd3  1  0.615201  0.884281  0.500000  1
  Dy  Dy4  1  0.000000  0.000000  0.000000  1
  Zr  Zr5  1  0.500000  0.500000  0.000000  1
  Zr  Zr6  1  0.675185  0.176509  0.500000  1
  Zr  Zr7  1  0.324815  0.823491  0.500000  1
  Zr  Zr8  1  0.176509  0.324815  0.500000  1
  Zr  Zr9  1  0.823491  0.675185  0.500000  1
  Si  Si10  1  0.567354  0.068906  0.000000  1
  Si  Si11  1  0.432646  0.931094  0.000000  1
  Si  Si12  1  0.068906  0.432646  0.000000  1
  Si  Si13  1  0.931094  0.567354  0.000000  1
  Si  Si14  1  0.664096  0.699839  0.000000  1
  Si  Si15  1  0.335904  0.300161  0.000000  1
  Si  Si16  1  0.162927  0.801780  0.000000  1
  Si  Si17  1  0.837073  0.198220  0.000000  1
  Si  Si18  1  0.300161  0.664096  0.000000  1
  Si  Si19  1  0.699839  0.335904  0.000000  1
  Si  Si20  1  0.198220  0.162927  0.000000  1
  Si  Si21  1  0.801780  0.837073  0.000000  1
  Si  Si22  1  0.652880  0.507796  0.500000  1
  Si  Si23  1  0.347120  0.492204  0.500000  1
  Si  Si24  1  0.156917  0.991849  0.500000  1
  Si  Si25  1  0.843083  0.008151  0.500000  1
  Si  Si26  1  0.492204  0.652880  0.500000  1
  Si  Si27  1  0.507796  0.347120  0.500000  1
  Si  Si28  1  0.008151  0.156917  0.500000  1
  Si  Si29  1  0.991849  0.843083  0.500000  1
  Ir  Ir30  1  0.740177  0.522718  0.000000  1
  Ir  Ir31  1  0.259823  0.477282  0.000000  1
  Ir  Ir32  1  0.244048  0.977133  0.000000  1
  Ir  Ir33  1  0.755952  0.022867  0.000000  1
  Ir  Ir34  1  0.477282  0.740177  0.000000  1
  Ir  Ir35  1  0.522718  0.259823  0.000000  1
  Ir  Ir36  1  0.022867  0.244048  0.000000  1
  Ir  Ir37  1  0.977133  0.755952  0.000000  1
