# generated using pymatgen
data_Mn2PdCl12
_symmetry_space_group_name_H-M   'P 1'
_cell_length_a   8.71842154
_cell_length_b   8.71842163
_cell_length_c   6.50670087
_cell_angle_alpha   73.19327729
_cell_angle_beta   73.19327609
_cell_angle_gamma   82.10023709
_symmetry_Int_Tables_number   1
_chemical_formula_structural   Mn2PdCl12
_chemical_formula_sum   'Mn2 Pd1 Cl12'
_cell_volume   452.44820306
_cell_formula_units_Z   1
loop_
 _symmetry_equiv_pos_site_id
 _symmetry_equiv_pos_as_xyz
  1  'x, y, z'
loop_
 _atom_site_type_symbol
 _atom_site_label
 _atom_site_symmetry_multiplicity
 _atom_site_fract_x
 _atom_site_fract_y
 _atom_site_fract_z
 _atom_site_occupancy
  Mn  Mn0  1  0.261634  0.261634  0.741855  1
  Mn  Mn1  1  0.738366  0.738366  0.258145  1
  Pd  Pd2  1  0.000000  0.000000  0.000000  1
  Cl  Cl3  1  0.979203  0.251329  0.748132  1
  Cl  Cl4  1  0.251329  0.979203  0.748132  1
  Cl  Cl5  1  0.020797  0.748671  0.251868  1
  Cl  Cl6  1  0.748671  0.020797  0.251868  1
  Cl  Cl7  1  0.219841  0.500180  0.785505  1
  Cl  Cl8  1  0.500180  0.219841  0.785505  1
  Cl  Cl9  1  0.780159  0.499820  0.214495  1
  Cl  Cl10  1  0.499820  0.780159  0.214495  1
  Cl  Cl11  1  0.140687  0.140687  0.139839  1
  Cl  Cl12  1  0.859313  0.859313  0.860161  1
  Cl  Cl13  1  0.667064  0.667064  0.617154  1
  Cl  Cl14  1  0.332936  0.332936  0.382846  1
