# generated using pymatgen
data_Pr3Nd3Al24(Ru3Rh)2
_symmetry_space_group_name_H-M   'P 1'
_cell_length_a   8.91124953
_cell_length_b   8.90685327
_cell_length_c   9.70184900
_cell_angle_alpha   90.00000000
_cell_angle_beta   90.00000000
_cell_angle_gamma   119.57793399
_symmetry_Int_Tables_number   1
_chemical_formula_structural   Pr3Nd3Al24(Ru3Rh)2
_chemical_formula_sum   'Pr3 Nd3 Al24 Ru6 Rh2'
_cell_volume   669.69867637
_cell_formula_units_Z   1
loop_
 _symmetry_equiv_pos_site_id
 _symmetry_equiv_pos_as_xyz
  1  'x, y, z'
loop_
 _atom_site_type_symbol
 _atom_site_label
 _atom_site_symmetry_multiplicity
 _atom_site_fract_x
 _atom_site_fract_y
 _atom_site_fract_z
 _atom_site_occupancy
  Pr  Pr0  1  0.189060  0.383757  0.250000  1
  Pr  Pr1  1  0.810738  0.616012  0.750000  1
  Pr  Pr2  1  0.616179  0.810902  0.250000  1
  Nd  Nd3  1  0.383932  0.189099  0.750000  1
  Nd  Nd4  1  0.193853  0.806094  0.250000  1
  Nd  Nd5  1  0.805940  0.193938  0.750000  1
  Al  Al6  1  0.332224  0.667750  0.010786  1
  Al  Al7  1  0.667416  0.332054  0.988724  1
  Al  Al8  1  0.667416  0.332054  0.511276  1
  Al  Al9  1  0.332224  0.667750  0.489214  1
  Al  Al10  1  0.161396  0.323901  0.577028  1
  Al  Al11  1  0.838900  0.675944  0.423196  1
  Al  Al12  1  0.675984  0.838898  0.576885  1
  Al  Al13  1  0.838900  0.675944  0.076804  1
  Al  Al14  1  0.324089  0.161139  0.423590  1
  Al  Al15  1  0.161396  0.323901  0.922972  1
  Al  Al16  1  0.163252  0.837444  0.575989  1
  Al  Al17  1  0.324089  0.161139  0.076410  1
  Al  Al18  1  0.837018  0.163000  0.424277  1
  Al  Al19  1  0.675984  0.838898  0.923115  1
  Al  Al20  1  0.837018  0.163000  0.075723  1
  Al  Al21  1  0.163252  0.837444  0.924011  1
  Al  Al22  1  0.561811  0.126417  0.250000  1
  Al  Al23  1  0.438065  0.874226  0.750000  1
  Al  Al24  1  0.873603  0.438147  0.250000  1
  Al  Al25  1  0.126387  0.561868  0.750000  1
  Al  Al26  1  0.562670  0.437225  0.250000  1
  Al  Al27  1  0.437218  0.562060  0.750000  1
  Al  Al28  1  0.999934  0.000009  0.250000  1
  Al  Al29  1  0.000711  0.000358  0.750000  1
  Ru  Ru30  1  0.499831  0.000166  0.999757  1
  Ru  Ru31  1  0.999855  0.499930  0.999914  1
  Ru  Ru32  1  0.499831  0.000166  0.500243  1
  Ru  Ru33  1  0.999855  0.499930  0.500086  1
  Ru  Ru34  1  0.000113  0.000054  0.999878  1
  Ru  Ru35  1  0.000113  0.000054  0.500122  1
  Rh  Rh36  1  0.499873  0.499664  0.999737  1
  Rh  Rh37  1  0.499873  0.499664  0.500263  1
