# generated using pymatgen
data_Hf4VInRh10
_symmetry_space_group_name_H-M   'P 1'
_cell_length_a   4.15373600
_cell_length_b   5.59788021
_cell_length_c   10.96378115
_cell_angle_alpha   89.89922498
_cell_angle_beta   90.00000000
_cell_angle_gamma   90.00000000
_symmetry_Int_Tables_number   1
_chemical_formula_structural   Hf4VInRh10
_chemical_formula_sum   'Hf4 V1 In1 Rh10'
_cell_volume   254.93072287
_cell_formula_units_Z   1
loop_
 _symmetry_equiv_pos_site_id
 _symmetry_equiv_pos_as_xyz
  1  'x, y, z'
loop_
 _atom_site_type_symbol
 _atom_site_label
 _atom_site_symmetry_multiplicity
 _atom_site_fract_x
 _atom_site_fract_y
 _atom_site_fract_z
 _atom_site_occupancy
  Hf  Hf0  1  0.500000  0.179672  0.642631  1
  Hf  Hf1  1  0.500000  0.820328  0.357369  1
  Hf  Hf2  1  0.500000  0.667238  0.858918  1
  Hf  Hf3  1  0.500000  0.332762  0.141082  1
  V  V4  1  0.000000  0.000000  0.000000  1
  In  In5  1  0.000000  0.500000  0.500000  1
  Rh  Rh6  1  0.500000  0.178794  0.899920  1
  Rh  Rh7  1  0.500000  0.821206  0.100080  1
  Rh  Rh8  1  0.500000  0.705728  0.618404  1
  Rh  Rh9  1  0.500000  0.294272  0.381596  1
  Rh  Rh10  1  0.000000  0.424193  0.750054  1
  Rh  Rh11  1  0.000000  0.575807  0.249946  1
  Rh  Rh12  1  0.000000  0.000000  0.500000  1
  Rh  Rh13  1  0.000000  0.500000  0.000000  1
  Rh  Rh14  1  0.000000  0.073457  0.234829  1
  Rh  Rh15  1  0.000000  0.926543  0.765171  1
