# generated using pymatgen
data_Ta2Nb(BOs)3
_symmetry_space_group_name_H-M   'P 1'
_cell_length_a   3.10711200
_cell_length_b   9.10814800
_cell_length_c   15.84478100
_cell_angle_alpha   90.00000000
_cell_angle_beta   90.00000000
_cell_angle_gamma   90.00000000
_symmetry_Int_Tables_number   1
_chemical_formula_structural   Ta2Nb(BOs)3
_chemical_formula_sum   'Ta8 Nb4 B12 Os12'
_cell_volume   448.40787190
_cell_formula_units_Z   4
loop_
 _symmetry_equiv_pos_site_id
 _symmetry_equiv_pos_as_xyz
  1  'x, y, z'
loop_
 _atom_site_type_symbol
 _atom_site_label
 _atom_site_symmetry_multiplicity
 _atom_site_fract_x
 _atom_site_fract_y
 _atom_site_fract_z
 _atom_site_occupancy
  Ta  Ta0  1  0.000000  0.799791  0.495638  1
  Ta  Ta1  1  0.000000  0.200209  0.504362  1
  Ta  Ta2  1  0.000000  0.299791  0.004362  1
  Ta  Ta3  1  0.000000  0.700209  0.995638  1
  Ta  Ta4  1  0.000000  0.516362  0.593742  1
  Ta  Ta5  1  0.000000  0.483638  0.406258  1
  Ta  Ta6  1  0.000000  0.016362  0.906258  1
  Ta  Ta7  1  0.000000  0.983638  0.093742  1
  Nb  Nb8  1  0.000000  0.687595  0.201870  1
  Nb  Nb9  1  0.000000  0.312405  0.798130  1
  Nb  Nb10  1  0.000000  0.187595  0.298130  1
  Nb  Nb11  1  0.000000  0.812405  0.701870  1
  B  B12  1  0.500000  0.605355  0.496974  1
  B  B13  1  0.500000  0.394645  0.503026  1
  B  B14  1  0.500000  0.105355  0.003026  1
  B  B15  1  0.500000  0.894645  0.996974  1
  B  B16  1  0.000000  0.609538  0.832097  1
  B  B17  1  0.000000  0.390462  0.167903  1
  B  B18  1  0.000000  0.109538  0.667903  1
  B  B19  1  0.000000  0.890462  0.332097  1
  B  B20  1  0.500000  0.715436  0.597601  1
  B  B21  1  0.500000  0.284564  0.402399  1
  B  B22  1  0.500000  0.215436  0.902399  1
  B  B23  1  0.500000  0.784564  0.097601  1
  Os  Os24  1  0.500000  0.719053  0.356130  1
  Os  Os25  1  0.500000  0.280947  0.643870  1
  Os  Os26  1  0.500000  0.219053  0.143870  1
  Os  Os27  1  0.500000  0.780947  0.856130  1
  Os  Os28  1  0.500000  0.514891  0.093163  1
  Os  Os29  1  0.500000  0.485109  0.906837  1
  Os  Os30  1  0.500000  0.014891  0.406837  1
  Os  Os31  1  0.500000  0.985109  0.593163  1
  Os  Os32  1  0.500000  0.560388  0.734765  1
  Os  Os33  1  0.500000  0.439612  0.265235  1
  Os  Os34  1  0.500000  0.060388  0.765235  1
  Os  Os35  1  0.500000  0.939612  0.234765  1
