# generated using pymatgen
data_Zr6Fe7Co16H3
_symmetry_space_group_name_H-M   'P 1'
_cell_length_a   8.22055716
_cell_length_b   8.22055695
_cell_length_c   8.22055723
_cell_angle_alpha   120.10986912
_cell_angle_beta   120.27296888
_cell_angle_gamma   89.66882597
_symmetry_Int_Tables_number   1
_chemical_formula_structural   Zr6Fe7Co16H3
_chemical_formula_sum   'Zr6 Fe7 Co16 H3'
_cell_volume   391.67101648
_cell_formula_units_Z   1
loop_
 _symmetry_equiv_pos_site_id
 _symmetry_equiv_pos_as_xyz
  1  'x, y, z'
loop_
 _atom_site_type_symbol
 _atom_site_label
 _atom_site_symmetry_multiplicity
 _atom_site_fract_x
 _atom_site_fract_y
 _atom_site_fract_z
 _atom_site_occupancy
  Zr  Zr0  1  0.792308  0.214807  0.003300  1
  Zr  Zr1  1  0.792308  0.789008  0.577501  1
  Zr  Zr2  1  0.778454  0.778454  0.000000  1
  Zr  Zr3  1  0.211506  0.789008  0.996700  1
  Zr  Zr4  1  0.211506  0.214807  0.422499  1
  Zr  Zr5  1  0.214627  0.214627  0.000000  1
  Fe  Fe6  1  0.498422  0.495843  0.496158  1
  Fe  Fe7  1  0.498422  0.002266  0.002579  1
  Fe  Fe8  1  0.501019  0.001019  0.500000  1
  Fe  Fe9  1  0.999687  0.002266  0.503842  1
  Fe  Fe10  1  0.999687  0.495843  0.997421  1
  Fe  Fe11  1  0.998921  0.498921  0.500000  1
  Fe  Fe12  1  0.499409  0.499409  0.000000  1
  Co  Co13  1  0.472699  0.823660  0.649038  1
  Co  Co14  1  0.174623  0.823660  0.350962  1
  Co  Co15  1  0.174725  0.824992  0.650267  1
  Co  Co16  1  0.174725  0.524458  0.349733  1
  Co  Co17  1  0.523051  0.174016  0.349036  1
  Co  Co18  1  0.824980  0.174016  0.650964  1
  Co  Co19  1  0.825467  0.173544  0.348077  1
  Co  Co20  1  0.825467  0.477391  0.651923  1
  Co  Co21  1  0.863431  0.619468  0.243964  1
  Co  Co22  1  0.375504  0.619468  0.756036  1
  Co  Co23  1  0.379050  0.621332  0.242282  1
  Co  Co24  1  0.379050  0.136768  0.757718  1
  Co  Co25  1  0.134781  0.378976  0.755805  1
  Co  Co26  1  0.623171  0.378976  0.244195  1
  Co  Co27  1  0.619959  0.376178  0.756220  1
  Co  Co28  1  0.619959  0.863738  0.243780  1
  H  H29  1  0.028378  0.028378  0.000000  1
  H  H30  1  0.714616  0.902250  0.812367  1
  H  H31  1  0.089883  0.902250  0.187633  1
