# generated using pymatgen
data_Y7HoTi11Si16Mo
_symmetry_space_group_name_H-M   'P 1'
_cell_length_a   7.04410921
_cell_length_b   7.04361005
_cell_length_c   12.94665075
_cell_angle_alpha   89.97962377
_cell_angle_beta   90.02738188
_cell_angle_gamma   89.99714662
_symmetry_Int_Tables_number   1
_chemical_formula_structural   Y7HoTi11Si16Mo
_chemical_formula_sum   'Y7 Ho1 Ti11 Si16 Mo1'
_cell_volume   642.36037023
_cell_formula_units_Z   1
loop_
 _symmetry_equiv_pos_site_id
 _symmetry_equiv_pos_as_xyz
  1  'x, y, z'
loop_
 _atom_site_type_symbol
 _atom_site_label
 _atom_site_symmetry_multiplicity
 _atom_site_fract_x
 _atom_site_fract_y
 _atom_site_fract_z
 _atom_site_occupancy
  Y  Y0  1  0.340873  0.003034  0.466868  1
  Y  Y1  1  0.497115  0.840682  0.717131  1
  Y  Y2  1  0.501776  0.159348  0.215672  1
  Y  Y3  1  0.840723  0.497094  0.282834  1
  Y  Y4  1  0.159228  0.501776  0.784298  1
  Y  Y5  1  0.658120  0.998127  0.966990  1
  Y  Y6  1  0.003013  0.340876  0.533165  1
  Ho  Ho7  1  0.998758  0.657693  0.033093  1
  Ti  Ti8  1  0.173799  0.827021  0.249567  1
  Ti  Ti9  1  0.827185  0.173874  0.750341  1
  Ti  Ti10  1  0.673215  0.673226  0.500008  1
  Ti  Ti11  1  0.152699  0.009162  0.876589  1
  Ti  Ti12  1  0.491624  0.651098  0.124839  1
  Ti  Ti13  1  0.507780  0.348653  0.626300  1
  Ti  Ti14  1  0.651235  0.491776  0.875249  1
  Ti  Ti15  1  0.348671  0.507740  0.373695  1
  Ti  Ti16  1  0.848380  0.991892  0.375888  1
  Ti  Ti17  1  0.009211  0.152832  0.123483  1
  Ti  Ti18  1  0.991888  0.848364  0.624112  1
  Si  Si19  1  0.202236  0.130547  0.684668  1
  Si  Si20  1  0.369439  0.701263  0.934814  1
  Si  Si21  1  0.630516  0.297470  0.434576  1
  Si  Si22  1  0.701805  0.370414  0.065332  1
  Si  Si23  1  0.297459  0.630529  0.565412  1
  Si  Si24  1  0.797729  0.868970  0.184362  1
  Si  Si25  1  0.130565  0.202322  0.315332  1
  Si  Si26  1  0.869528  0.797296  0.815497  1
  Si  Si27  1  0.289982  0.952636  0.064641  1
  Si  Si28  1  0.547175  0.790757  0.314766  1
  Si  Si29  1  0.452199  0.209340  0.815211  1
  Si  Si30  1  0.790776  0.547119  0.685226  1
  Si  Si31  1  0.208960  0.452541  0.184568  1
  Si  Si32  1  0.709464  0.047507  0.564679  1
  Si  Si33  1  0.953139  0.290832  0.935438  1
  Si  Si34  1  0.047492  0.709449  0.435348  1
  Mo  Mo35  1  0.326246  0.326738  0.000010  1
