# generated using pymatgen
data_Y4Cu2PdRh
_symmetry_space_group_name_H-M   'P 1'
_cell_length_a   4.41004000
_cell_length_b   5.60038324
_cell_length_c   7.12539803
_cell_angle_alpha   89.97954152
_cell_angle_beta   90.00000000
_cell_angle_gamma   90.00000000
_symmetry_Int_Tables_number   1
_chemical_formula_structural   Y4Cu2PdRh
_chemical_formula_sum   'Y4 Cu2 Pd1 Rh1'
_cell_volume   175.98245729
_cell_formula_units_Z   1
loop_
 _symmetry_equiv_pos_site_id
 _symmetry_equiv_pos_as_xyz
  1  'x, y, z'
loop_
 _atom_site_type_symbol
 _atom_site_label
 _atom_site_symmetry_multiplicity
 _atom_site_fract_x
 _atom_site_fract_y
 _atom_site_fract_z
 _atom_site_occupancy
  Y  Y0  1  0.250000  0.365748  0.685379  1
  Y  Y1  1  0.250000  0.133457  0.178649  1
  Y  Y2  1  0.750000  0.639184  0.311748  1
  Y  Y3  1  0.750000  0.857520  0.823870  1
  Cu  Cu4  1  0.750000  0.136138  0.464534  1
  Cu  Cu5  1  0.750000  0.364770  0.962676  1
  Pd  Pd6  1  0.250000  0.865954  0.537218  1
  Rh  Rh7  1  0.250000  0.637228  0.035926  1
