# generated using pymatgen
data_Ba(AcSn4)3
_symmetry_space_group_name_H-M   'P 1'
_cell_length_a   12.30845170
_cell_length_b   12.30845115
_cell_length_c   12.30845156
_cell_angle_alpha   32.86024817
_cell_angle_beta   32.86024297
_cell_angle_gamma   32.86025063
_symmetry_Int_Tables_number   1
_chemical_formula_structural   Ba(AcSn4)3
_chemical_formula_sum   'Ba1 Ac3 Sn12'
_cell_volume   488.43468875
_cell_formula_units_Z   1
loop_
 _symmetry_equiv_pos_site_id
 _symmetry_equiv_pos_as_xyz
  1  'x, y, z'
loop_
 _atom_site_type_symbol
 _atom_site_label
 _atom_site_symmetry_multiplicity
 _atom_site_fract_x
 _atom_site_fract_y
 _atom_site_fract_z
 _atom_site_occupancy
  Ba  Ba0  1  0.871681  0.871681  0.871681  1
  Ac  Ac1  1  0.127222  0.127222  0.127222  1
  Ac  Ac2  1  0.709458  0.709458  0.709458  1
  Ac  Ac3  1  0.293642  0.293642  0.293642  1
  Sn  Sn4  1  0.296269  0.788619  0.788619  1
  Sn  Sn5  1  0.788619  0.788619  0.296269  1
  Sn  Sn6  1  0.837014  0.397233  0.397233  1
  Sn  Sn7  1  0.397233  0.397233  0.837014  1
  Sn  Sn8  1  0.397233  0.837014  0.397233  1
  Sn  Sn9  1  0.601722  0.163408  0.601722  1
  Sn  Sn10  1  0.163408  0.601722  0.601722  1
  Sn  Sn11  1  0.601722  0.601722  0.163408  1
  Sn  Sn12  1  0.788619  0.296269  0.788619  1
  Sn  Sn13  1  0.207347  0.711464  0.207347  1
  Sn  Sn14  1  0.207347  0.207347  0.711464  1
  Sn  Sn15  1  0.711464  0.207347  0.207347  1
