# generated using pymatgen
data_KPH2
_symmetry_space_group_name_H-M   'P 1'
_cell_length_a   4.45877385
_cell_length_b   5.44293722
_cell_length_c   4.37781817
_cell_angle_alpha   62.98934245
_cell_angle_beta   64.14938335
_cell_angle_gamma   89.74809875
_symmetry_Int_Tables_number   1
_chemical_formula_structural   KPH2
_chemical_formula_sum   'K1 P1 H2'
_cell_volume   82.66239782
_cell_formula_units_Z   1
loop_
 _symmetry_equiv_pos_site_id
 _symmetry_equiv_pos_as_xyz
  1  'x, y, z'
loop_
 _atom_site_type_symbol
 _atom_site_label
 _atom_site_symmetry_multiplicity
 _atom_site_fract_x
 _atom_site_fract_y
 _atom_site_fract_z
 _atom_site_occupancy
  K  K0  1  0.480338  0.766324  0.797117  1
  P  P1  1  0.945389  0.267820  0.819688  1
  H  H2  1  0.270328  0.243419  0.808622  1
  H  H3  1  0.048344  0.229219  0.487792  1
