# generated using pymatgen
data_La5AlZnOs3
_symmetry_space_group_name_H-M   'P 1'
_cell_length_a   8.68980959
_cell_length_b   8.68980981
_cell_length_c   8.60664471
_cell_angle_alpha   109.50941104
_cell_angle_beta   109.46794749
_cell_angle_gamma   109.82476855
_symmetry_Int_Tables_number   1
_chemical_formula_structural   La5AlZnOs3
_chemical_formula_sum   'La10 Al2 Zn2 Os6'
_cell_volume   497.88500880
_cell_formula_units_Z   2
loop_
 _symmetry_equiv_pos_site_id
 _symmetry_equiv_pos_as_xyz
  1  'x, y, z'
loop_
 _atom_site_type_symbol
 _atom_site_label
 _atom_site_symmetry_multiplicity
 _atom_site_fract_x
 _atom_site_fract_y
 _atom_site_fract_z
 _atom_site_occupancy
  La  La0  1  0.251465  0.685980  0.439620  1
  La  La1  1  0.746361  0.811846  0.060381  1
  La  La2  1  0.437151  0.250841  0.687427  1
  La  La3  1  0.685968  0.435969  0.250000  1
  La  La4  1  0.063413  0.749723  0.812573  1
  La  La5  1  0.812171  0.062171  0.750000  1
  La  La6  1  0.214080  0.214910  0.213687  1
  La  La7  1  0.501224  0.000393  0.286313  1
  La  La8  1  0.288032  0.500359  0.999434  1
  La  La9  1  0.000925  0.288598  0.500567  1
  Al  Al10  1  0.914203  0.500699  0.001575  1
  Al  Al11  1  0.999122  0.912628  0.498426  1
  Zn  Zn12  1  0.499458  0.000649  0.915428  1
  Zn  Zn13  1  0.585221  0.584029  0.584572  1
  Os  Os14  1  0.244247  0.117940  0.864990  1
  Os  Os15  1  0.752950  0.379255  0.635009  1
  Os  Os16  1  0.875785  0.257170  0.120491  1
  Os  Os17  1  0.115372  0.865372  0.250001  1
  Os  Os18  1  0.636677  0.755294  0.379508  1
  Os  Os19  1  0.376176  0.626176  0.750000  1
