# generated using pymatgen
data_Tm4Ge2B4Ru9Rh
_symmetry_space_group_name_H-M   'P 1'
_cell_length_a   9.54409062
_cell_length_b   9.51560464
_cell_length_c   3.07877600
_cell_angle_alpha   90.00000000
_cell_angle_beta   90.00000000
_cell_angle_gamma   89.91487827
_symmetry_Int_Tables_number   1
_chemical_formula_structural   Tm4Ge2B4Ru9Rh
_chemical_formula_sum   'Tm4 Ge2 B4 Ru9 Rh1'
_cell_volume   279.60733281
_cell_formula_units_Z   1
loop_
 _symmetry_equiv_pos_site_id
 _symmetry_equiv_pos_as_xyz
  1  'x, y, z'
loop_
 _atom_site_type_symbol
 _atom_site_label
 _atom_site_symmetry_multiplicity
 _atom_site_fract_x
 _atom_site_fract_y
 _atom_site_fract_z
 _atom_site_occupancy
  Tm  Tm0  1  0.823249  0.324861  0.000000  1
  Tm  Tm1  1  0.325669  0.173432  0.000000  1
  Tm  Tm2  1  0.675736  0.824615  0.000000  1
  Tm  Tm3  1  0.175202  0.676989  0.000000  1
  Ge  Ge4  1  0.999589  0.999409  0.000000  1
  Ge  Ge5  1  0.503841  0.501130  0.000000  1
  B  B6  1  0.621977  0.122030  0.000000  1
  B  B7  1  0.116834  0.375893  0.000000  1
  B  B8  1  0.877919  0.623005  0.000000  1
  B  B9  1  0.377209  0.877863  0.000000  1
  Ru  Ru10  1  0.068772  0.214950  0.500000  1
  Ru  Ru11  1  0.214773  0.931706  0.500000  1
  Ru  Ru12  1  0.784678  0.069585  0.500000  1
  Ru  Ru13  1  0.932366  0.785515  0.500000  1
  Ru  Ru14  1  0.431459  0.713813  0.500000  1
  Ru  Ru15  1  0.567619  0.286157  0.500000  1
  Ru  Ru16  1  0.716751  0.569554  0.500000  1
  Ru  Ru17  1  0.499981  0.999321  0.500000  1
  Ru  Ru18  1  0.001273  0.500056  0.500000  1
  Rh  Rh19  1  0.285103  0.430117  0.500000  1
