# generated using pymatgen
data_Ac2InPt2
_symmetry_space_group_name_H-M   'P 1'
_cell_length_a   8.20539400
_cell_length_b   8.20539400
_cell_length_c   4.05805800
_cell_angle_alpha   90.00000000
_cell_angle_beta   90.00000000
_cell_angle_gamma   90.00000000
_symmetry_Int_Tables_number   1
_chemical_formula_structural   Ac2InPt2
_chemical_formula_sum   'Ac4 In2 Pt4'
_cell_volume   273.22292029
_cell_formula_units_Z   2
loop_
 _symmetry_equiv_pos_site_id
 _symmetry_equiv_pos_as_xyz
  1  'x, y, z'
loop_
 _atom_site_type_symbol
 _atom_site_label
 _atom_site_symmetry_multiplicity
 _atom_site_fract_x
 _atom_site_fract_y
 _atom_site_fract_z
 _atom_site_occupancy
  Ac  Ac0  1  0.671239  0.828761  0.500000  1
  Ac  Ac1  1  0.828761  0.328761  0.500000  1
  Ac  Ac2  1  0.328761  0.171239  0.500000  1
  Ac  Ac3  1  0.171239  0.671239  0.500000  1
  In  In4  1  0.500000  0.500000  0.000000  1
  In  In5  1  0.000000  0.000000  0.000000  1
  Pt  Pt6  1  0.628806  0.128806  0.000000  1
  Pt  Pt7  1  0.871194  0.628806  0.000000  1
  Pt  Pt8  1  0.128806  0.371194  0.000000  1
  Pt  Pt9  1  0.371194  0.871194  0.000000  1
