# generated using pymatgen
data_Cs2Sn2Ge2O7
_symmetry_space_group_name_H-M   'P 1'
_cell_length_a   5.89489200
_cell_length_b   5.89489281
_cell_length_c   8.86640300
_cell_angle_alpha   90.00000000
_cell_angle_beta   90.00000000
_cell_angle_gamma   119.99999849
_symmetry_Int_Tables_number   1
_chemical_formula_structural   Cs2Sn2Ge2O7
_chemical_formula_sum   'Cs2 Sn2 Ge2 O7'
_cell_volume   266.82705966
_cell_formula_units_Z   1
loop_
 _symmetry_equiv_pos_site_id
 _symmetry_equiv_pos_as_xyz
  1  'x, y, z'
loop_
 _atom_site_type_symbol
 _atom_site_label
 _atom_site_symmetry_multiplicity
 _atom_site_fract_x
 _atom_site_fract_y
 _atom_site_fract_z
 _atom_site_occupancy
  Cs  Cs0  1  0.666667  0.333333  0.901598  1
  Cs  Cs1  1  0.333333  0.666667  0.098402  1
  Sn  Sn2  1  0.333333  0.666667  0.624455  1
  Sn  Sn3  1  0.666667  0.333333  0.375545  1
  Ge  Ge4  1  0.000000  0.000000  0.299910  1
  Ge  Ge5  1  0.000000  0.000000  0.700090  1
  O  O6  1  0.834335  0.162748  0.233793  1
  O  O7  1  0.165665  0.837252  0.766207  1
  O  O8  1  0.328413  0.165665  0.233793  1
  O  O9  1  0.000000  0.000000  0.500000  1
  O  O10  1  0.162748  0.328413  0.766207  1
  O  O11  1  0.837252  0.671587  0.233793  1
  O  O12  1  0.671587  0.834335  0.766207  1
