# generated using pymatgen
data_CaNb2F12
_symmetry_space_group_name_H-M   'P 1'
_cell_length_a   11.84657246
_cell_length_b   5.86712348
_cell_length_c   5.91258120
_cell_angle_alpha   57.66142993
_cell_angle_beta   57.54852220
_cell_angle_gamma   57.73376434
_symmetry_Int_Tables_number   1
_chemical_formula_structural   CaNb2F12
_chemical_formula_sum   'Ca1 Nb2 F12'
_cell_volume   274.88011011
_cell_formula_units_Z   1
loop_
 _symmetry_equiv_pos_site_id
 _symmetry_equiv_pos_as_xyz
  1  'x, y, z'
loop_
 _atom_site_type_symbol
 _atom_site_label
 _atom_site_symmetry_multiplicity
 _atom_site_fract_x
 _atom_site_fract_y
 _atom_site_fract_z
 _atom_site_occupancy
  Ca  Ca0  1  0.750000  0.500000  0.500000  1
  Nb  Nb1  1  0.013372  0.986438  0.994671  1
  Nb  Nb2  1  0.486628  0.013562  0.005329  1
  F  F3  1  0.163012  0.133334  0.767814  1
  F  F4  1  0.659007  0.137721  0.776388  1
  F  F5  1  0.058038  0.780564  0.330427  1
  F  F6  1  0.573222  0.770128  0.309806  1
  F  F7  1  0.110414  0.669066  0.874112  1
  F  F8  1  0.616262  0.681800  0.862059  1
  F  F9  1  0.441962  0.219436  0.669573  1
  F  F10  1  0.926778  0.229872  0.690194  1
  F  F11  1  0.336988  0.866666  0.232186  1
  F  F12  1  0.840993  0.862279  0.223612  1
  F  F13  1  0.389586  0.330934  0.125888  1
  F  F14  1  0.883738  0.318200  0.137941  1
