# generated using pymatgen
data_Tb12Tc3Ag2
_symmetry_space_group_name_H-M   'P 1'
_cell_length_a   8.39893388
_cell_length_b   8.39893450
_cell_length_c   8.39893429
_cell_angle_alpha   110.13718287
_cell_angle_beta   110.13719089
_cell_angle_gamma   108.14733867
_symmetry_Int_Tables_number   1
_chemical_formula_structural   Tb12Tc3Ag2
_chemical_formula_sum   'Tb12 Tc3 Ag2'
_cell_volume   455.90802470
_cell_formula_units_Z   1
loop_
 _symmetry_equiv_pos_site_id
 _symmetry_equiv_pos_as_xyz
  1  'x, y, z'
loop_
 _atom_site_type_symbol
 _atom_site_label
 _atom_site_symmetry_multiplicity
 _atom_site_fract_x
 _atom_site_fract_y
 _atom_site_fract_z
 _atom_site_occupancy
  Tb  Tb0  1  0.319894  0.319894  0.639789  1
  Tb  Tb1  1  0.680106  0.680106  0.360211  1
  Tb  Tb2  1  0.680106  0.319894  0.000000  1
  Tb  Tb3  1  0.319894  0.680106  0.000000  1
  Tb  Tb4  1  0.183355  0.431484  0.248130  1
  Tb  Tb5  1  0.816645  0.568516  0.751870  1
  Tb  Tb6  1  0.183355  0.935225  0.751870  1
  Tb  Tb7  1  0.935225  0.183355  0.751870  1
  Tb  Tb8  1  0.816645  0.064775  0.248130  1
  Tb  Tb9  1  0.064775  0.816645  0.248130  1
  Tb  Tb10  1  0.431484  0.183355  0.248130  1
  Tb  Tb11  1  0.568516  0.816645  0.751870  1
  Tc  Tc12  1  0.337886  0.337886  0.000000  1
  Tc  Tc13  1  0.662114  0.662114  0.000000  1
  Tc  Tc14  1  0.000000  0.000000  0.000000  1
  Ag  Ag15  1  0.000000  0.500000  0.500000  1
  Ag  Ag16  1  0.500000  0.000000  0.500000  1
