# generated using pymatgen
data_Tb2DyMg(Co4P3)2
_symmetry_space_group_name_H-M   'P 1'
_cell_length_a   3.73666000
_cell_length_b   10.66582000
_cell_length_c   12.27315400
_cell_angle_alpha   90.00000000
_cell_angle_beta   90.00000000
_cell_angle_gamma   90.00000000
_symmetry_Int_Tables_number   1
_chemical_formula_structural   Tb2DyMg(Co4P3)2
_chemical_formula_sum   'Tb4 Dy2 Mg2 Co16 P12'
_cell_volume   489.14094336
_cell_formula_units_Z   2
loop_
 _symmetry_equiv_pos_site_id
 _symmetry_equiv_pos_as_xyz
  1  'x, y, z'
loop_
 _atom_site_type_symbol
 _atom_site_label
 _atom_site_symmetry_multiplicity
 _atom_site_fract_x
 _atom_site_fract_y
 _atom_site_fract_z
 _atom_site_occupancy
  Tb  Tb0  1  0.000000  0.500000  0.525993  1
  Tb  Tb1  1  0.500000  0.000000  0.474074  1
  Tb  Tb2  1  0.000000  0.678079  0.793600  1
  Tb  Tb3  1  0.000000  0.321921  0.793600  1
  Dy  Dy4  1  0.500000  0.822305  0.206226  1
  Dy  Dy5  1  0.500000  0.177695  0.206226  1
  Mg  Mg6  1  0.500000  0.500000  0.156102  1
  Mg  Mg7  1  0.000000  0.000000  0.844014  1
  Co  Co8  1  0.500000  0.500000  0.705455  1
  Co  Co9  1  0.000000  0.000000  0.294336  1
  Co  Co10  1  0.000000  0.500000  0.989112  1
  Co  Co11  1  0.500000  0.000000  0.011413  1
  Co  Co12  1  0.500000  0.332385  0.997089  1
  Co  Co13  1  0.500000  0.667615  0.997089  1
  Co  Co14  1  0.000000  0.167326  0.003390  1
  Co  Co15  1  0.000000  0.832674  0.003390  1
  Co  Co16  1  0.500000  0.296327  0.431662  1
  Co  Co17  1  0.500000  0.703673  0.431662  1
  Co  Co18  1  0.000000  0.203489  0.567932  1
  Co  Co19  1  0.000000  0.796511  0.567932  1
  Co  Co20  1  0.500000  0.878132  0.705404  1
  Co  Co21  1  0.500000  0.121868  0.705404  1
  Co  Co22  1  0.000000  0.622189  0.294267  1
  Co  Co23  1  0.000000  0.377811  0.294267  1
  P  P24  1  0.500000  0.500000  0.885941  1
  P  P25  1  0.000000  0.000000  0.114683  1
  P  P26  1  0.500000  0.500000  0.354838  1
  P  P27  1  0.000000  0.000000  0.645047  1
  P  P28  1  0.500000  0.308691  0.614948  1
  P  P29  1  0.500000  0.691309  0.614948  1
  P  P30  1  0.000000  0.190922  0.384470  1
  P  P31  1  0.000000  0.809078  0.384470  1
  P  P32  1  0.500000  0.839192  0.893516  1
  P  P33  1  0.500000  0.160808  0.893516  1
  P  P34  1  0.000000  0.661220  0.106991  1
  P  P35  1  0.000000  0.338780  0.106991  1
