# generated using pymatgen
data_Tm6Co14TcMo(P6Ir)2
_symmetry_space_group_name_H-M   'P 1'
_cell_length_a   3.70096200
_cell_length_b   10.67897300
_cell_length_c   12.33287700
_cell_angle_alpha   90.00000000
_cell_angle_beta   90.00000000
_cell_angle_gamma   90.00000000
_symmetry_Int_Tables_number   1
_chemical_formula_structural   Tm6Co14TcMo(P6Ir)2
_chemical_formula_sum   'Tm6 Co14 Tc1 Mo1 P12 Ir2'
_cell_volume   487.42580160
_cell_formula_units_Z   1
loop_
 _symmetry_equiv_pos_site_id
 _symmetry_equiv_pos_as_xyz
  1  'x, y, z'
loop_
 _atom_site_type_symbol
 _atom_site_label
 _atom_site_symmetry_multiplicity
 _atom_site_fract_x
 _atom_site_fract_y
 _atom_site_fract_z
 _atom_site_occupancy
  Tm  Tm0  1  0.000000  0.500000  0.519970  1
  Tm  Tm1  1  0.500000  0.000000  0.479850  1
  Tm  Tm2  1  0.500000  0.815077  0.203235  1
  Tm  Tm3  1  0.500000  0.184923  0.203235  1
  Tm  Tm4  1  0.000000  0.684546  0.796502  1
  Tm  Tm5  1  0.000000  0.315454  0.796502  1
  Co  Co6  1  0.000000  0.500000  0.989276  1
  Co  Co7  1  0.500000  0.000000  0.011787  1
  Co  Co8  1  0.500000  0.331792  0.991192  1
  Co  Co9  1  0.500000  0.668208  0.991192  1
  Co  Co10  1  0.000000  0.169061  0.009131  1
  Co  Co11  1  0.000000  0.830939  0.009131  1
  Co  Co12  1  0.500000  0.297474  0.430828  1
  Co  Co13  1  0.500000  0.702526  0.430828  1
  Co  Co14  1  0.000000  0.202899  0.568639  1
  Co  Co15  1  0.000000  0.797101  0.568639  1
  Co  Co16  1  0.500000  0.878961  0.707563  1
  Co  Co17  1  0.500000  0.121039  0.707563  1
  Co  Co18  1  0.000000  0.620009  0.291882  1
  Co  Co19  1  0.000000  0.379991  0.291882  1
  Tc  Tc20  1  0.500000  0.500000  0.157358  1
  Mo  Mo21  1  0.000000  0.000000  0.843283  1
  P  P22  1  0.500000  0.500000  0.889030  1
  P  P23  1  0.000000  0.000000  0.111261  1
  P  P24  1  0.500000  0.500000  0.348384  1
  P  P25  1  0.000000  0.000000  0.650676  1
  P  P26  1  0.500000  0.304019  0.614235  1
  P  P27  1  0.500000  0.695981  0.614235  1
  P  P28  1  0.000000  0.196093  0.385513  1
  P  P29  1  0.000000  0.803907  0.385513  1
  P  P30  1  0.500000  0.844516  0.892761  1
  P  P31  1  0.500000  0.155484  0.892761  1
  P  P32  1  0.000000  0.654111  0.107858  1
  P  P33  1  0.000000  0.345889  0.107858  1
  Ir  Ir34  1  0.500000  0.500000  0.701649  1
  Ir  Ir35  1  0.000000  0.000000  0.298797  1
