# generated using pymatgen
data_Sr2TmLu(Si4N7)2
_symmetry_space_group_name_H-M   'P 1'
_cell_length_a   6.01373400
_cell_length_b   6.01373401
_cell_length_c   9.81137400
_cell_angle_alpha   90.00000000
_cell_angle_beta   90.00000000
_cell_angle_gamma   119.99998897
_symmetry_Int_Tables_number   1
_chemical_formula_structural   Sr2TmLu(Si4N7)2
_chemical_formula_sum   'Sr2 Tm1 Lu1 Si8 N14'
_cell_volume   307.29036282
_cell_formula_units_Z   1
loop_
 _symmetry_equiv_pos_site_id
 _symmetry_equiv_pos_as_xyz
  1  'x, y, z'
loop_
 _atom_site_type_symbol
 _atom_site_label
 _atom_site_symmetry_multiplicity
 _atom_site_fract_x
 _atom_site_fract_y
 _atom_site_fract_z
 _atom_site_occupancy
  Sr  Sr0  1  0.666667  0.333333  0.580989  1
  Sr  Sr1  1  0.333333  0.666667  0.080616  1
  Tm  Tm2  1  0.333333  0.666667  0.450813  1
  Lu  Lu3  1  0.666667  0.333333  0.950860  1
  Si  Si4  1  0.173870  0.347738  0.760427  1
  Si  Si5  1  0.825976  0.174024  0.259813  1
  Si  Si6  1  0.348046  0.174024  0.259813  1
  Si  Si7  1  0.652262  0.826130  0.760427  1
  Si  Si8  1  0.173870  0.826130  0.760427  1
  Si  Si9  1  0.825976  0.651954  0.259813  1
  Si  Si10  1  0.000000  0.000000  0.026496  1
  Si  Si11  1  0.000000  0.000000  0.526679  1
  N  N12  1  0.000000  0.000000  0.835394  1
  N  N13  1  0.000000  0.000000  0.335131  1
  N  N14  1  0.845002  0.690005  0.085337  1
  N  N15  1  0.154547  0.845453  0.586122  1
  N  N16  1  0.690907  0.845453  0.586122  1
  N  N17  1  0.309995  0.154998  0.085337  1
  N  N18  1  0.845002  0.154998  0.085337  1
  N  N19  1  0.154547  0.309093  0.586122  1
  N  N20  1  0.490395  0.509605  0.814247  1
  N  N21  1  0.979614  0.489807  0.313607  1
  N  N22  1  0.510193  0.020386  0.313607  1
  N  N23  1  0.490395  0.980791  0.814247  1
  N  N24  1  0.510193  0.489807  0.313607  1
  N  N25  1  0.019209  0.509605  0.814247  1
