# generated using pymatgen
data_Be7V3GaMo
_symmetry_space_group_name_H-M   'P 1'
_cell_length_a   4.46082300
_cell_length_b   4.46082285
_cell_length_c   7.25150800
_cell_angle_alpha   90.00000000
_cell_angle_beta   90.00000000
_cell_angle_gamma   120.00002336
_symmetry_Int_Tables_number   1
_chemical_formula_structural   Be7V3GaMo
_chemical_formula_sum   'Be7 V3 Ga1 Mo1'
_cell_volume   124.96512497
_cell_formula_units_Z   1
loop_
 _symmetry_equiv_pos_site_id
 _symmetry_equiv_pos_as_xyz
  1  'x, y, z'
loop_
 _atom_site_type_symbol
 _atom_site_label
 _atom_site_symmetry_multiplicity
 _atom_site_fract_x
 _atom_site_fract_y
 _atom_site_fract_z
 _atom_site_occupancy
  Be  Be0  1  0.000000  0.000000  0.999322  1
  Be  Be1  1  0.825970  0.174030  0.240937  1
  Be  Be2  1  0.825970  0.651940  0.240937  1
  Be  Be3  1  0.348060  0.174030  0.240937  1
  Be  Be4  1  0.174114  0.825886  0.758747  1
  Be  Be5  1  0.174114  0.348228  0.758747  1
  Be  Be6  1  0.651772  0.825886  0.758747  1
  V  V7  1  0.333333  0.666667  0.432613  1
  V  V8  1  0.666667  0.333333  0.568958  1
  V  V9  1  0.666667  0.333333  0.932861  1
  Ga  Ga10  1  0.000000  0.000000  0.501277  1
  Mo  Mo11  1  0.333333  0.666667  0.065918  1
