# generated using pymatgen
data_Th3Al7CuPd
_symmetry_space_group_name_H-M   'P 1'
_cell_length_a   9.28634987
_cell_length_b   9.28635093
_cell_length_c   9.28635035
_cell_angle_alpha   35.28029112
_cell_angle_beta   35.28028354
_cell_angle_gamma   35.28028790
_symmetry_Int_Tables_number   1
_chemical_formula_structural   Th3Al7CuPd
_chemical_formula_sum   'Th3 Al7 Cu1 Pd1'
_cell_volume   238.64747218
_cell_formula_units_Z   1
loop_
 _symmetry_equiv_pos_site_id
 _symmetry_equiv_pos_as_xyz
  1  'x, y, z'
loop_
 _atom_site_type_symbol
 _atom_site_label
 _atom_site_symmetry_multiplicity
 _atom_site_fract_x
 _atom_site_fract_y
 _atom_site_fract_z
 _atom_site_occupancy
  Th  Th0  1  0.999996  0.999996  0.999996  1
  Th  Th1  1  0.858861  0.858861  0.858861  1
  Th  Th2  1  0.141365  0.141365  0.141365  1
  Al  Al3  1  0.416800  0.416800  0.930667  1
  Al  Al4  1  0.930667  0.416800  0.416800  1
  Al  Al5  1  0.416800  0.930667  0.416800  1
  Al  Al6  1  0.500137  0.500137  0.500137  1
  Al  Al7  1  0.580872  0.073917  0.580872  1
  Al  Al8  1  0.073917  0.580872  0.580872  1
  Al  Al9  1  0.580872  0.580872  0.073917  1
  Cu  Cu10  1  0.335497  0.335497  0.335497  1
  Pd  Pd11  1  0.664214  0.664214  0.664214  1
