# generated using pymatgen
data_CsS4O13
_symmetry_space_group_name_H-M   'P 1'
_cell_length_a   8.22705041
_cell_length_b   8.22705018
_cell_length_c   10.44007300
_cell_angle_alpha   83.48198807
_cell_angle_beta   83.48198748
_cell_angle_gamma   102.88121919
_symmetry_Int_Tables_number   1
_chemical_formula_structural   CsS4O13
_chemical_formula_sum   'Cs2 S8 O26'
_cell_volume   677.32766735
_cell_formula_units_Z   2
loop_
 _symmetry_equiv_pos_site_id
 _symmetry_equiv_pos_as_xyz
  1  'x, y, z'
loop_
 _atom_site_type_symbol
 _atom_site_label
 _atom_site_symmetry_multiplicity
 _atom_site_fract_x
 _atom_site_fract_y
 _atom_site_fract_z
 _atom_site_occupancy
  Cs  Cs0  1  0.801344  0.198656  0.250000  1
  Cs  Cs1  1  0.198656  0.801344  0.750000  1
  S  S2  1  0.237973  0.573241  0.372639  1
  S  S3  1  0.426759  0.762027  0.127361  1
  S  S4  1  0.762027  0.426759  0.627361  1
  S  S5  1  0.573241  0.237973  0.872639  1
  S  S6  1  0.286832  0.221641  0.421332  1
  S  S7  1  0.778359  0.713168  0.078668  1
  S  S8  1  0.713168  0.778359  0.578668  1
  S  S9  1  0.221641  0.286832  0.921332  1
  O  O10  1  0.082753  0.515501  0.324389  1
  O  O11  1  0.484499  0.917247  0.175611  1
  O  O12  1  0.917247  0.484499  0.675611  1
  O  O13  1  0.515501  0.082753  0.824389  1
  O  O14  1  0.263909  0.714493  0.442133  1
  O  O15  1  0.285507  0.736091  0.057867  1
  O  O16  1  0.736091  0.285507  0.557867  1
  O  O17  1  0.714493  0.263909  0.942133  1
  O  O18  1  0.394084  0.605916  0.250000  1
  O  O19  1  0.605916  0.394084  0.750000  1
  O  O20  1  0.292087  0.428516  0.456749  1
  O  O21  1  0.571484  0.707913  0.043251  1
  O  O22  1  0.707913  0.571484  0.543251  1
  O  O23  1  0.428516  0.292087  0.956749  1
  O  O24  1  0.432251  0.246226  0.323112  1
  O  O25  1  0.753774  0.567749  0.176888  1
  O  O26  1  0.567749  0.753774  0.676888  1
  O  O27  1  0.246226  0.432251  0.823112  1
  O  O28  1  0.303854  0.146365  0.549652  1
  O  O29  1  0.853635  0.696146  0.950348  1
  O  O30  1  0.696146  0.853635  0.450348  1
  O  O31  1  0.146365  0.303854  0.049652  1
  O  O32  1  0.125228  0.162680  0.378868  1
  O  O33  1  0.837320  0.874772  0.121132  1
  O  O34  1  0.874772  0.837320  0.621132  1
  O  O35  1  0.162680  0.125228  0.878868  1
