# generated using pymatgen
data_NdHo3Zr2(AlPt2)2
_symmetry_space_group_name_H-M   'P 1'
_cell_length_a   4.49156200
_cell_length_b   7.21731986
_cell_length_c   8.00762197
_cell_angle_alpha   90.19847659
_cell_angle_beta   90.00000000
_cell_angle_gamma   90.00000000
_symmetry_Int_Tables_number   1
_chemical_formula_structural   NdHo3Zr2(AlPt2)2
_chemical_formula_sum   'Nd1 Ho3 Zr2 Al2 Pt4'
_cell_volume   259.58184134
_cell_formula_units_Z   1
loop_
 _symmetry_equiv_pos_site_id
 _symmetry_equiv_pos_as_xyz
  1  'x, y, z'
loop_
 _atom_site_type_symbol
 _atom_site_label
 _atom_site_symmetry_multiplicity
 _atom_site_fract_x
 _atom_site_fract_y
 _atom_site_fract_z
 _atom_site_occupancy
  Nd  Nd0  1  0.250000  0.511413  0.827308  1
  Ho  Ho1  1  0.750000  0.450552  0.179827  1
  Ho  Ho2  1  0.250000  0.047063  0.675940  1
  Ho  Ho3  1  0.750000  0.988365  0.327085  1
  Zr  Zr4  1  0.750000  0.868754  0.934720  1
  Zr  Zr5  1  0.250000  0.633241  0.433035  1
  Al  Al6  1  0.750000  0.356920  0.563962  1
  Al  Al7  1  0.250000  0.140146  0.068043  1
  Pt  Pt8  1  0.750000  0.730502  0.610070  1
  Pt  Pt9  1  0.750000  0.231201  0.881867  1
  Pt  Pt10  1  0.250000  0.263513  0.380165  1
  Pt  Pt11  1  0.250000  0.778329  0.117977  1
