# generated using pymatgen
data_UMnRuF12
_symmetry_space_group_name_H-M   'P 1'
_cell_length_a   5.49482211
_cell_length_b   5.80606765
_cell_length_c   9.48232611
_cell_angle_alpha   73.75809195
_cell_angle_beta   88.48305487
_cell_angle_gamma   62.04857922
_symmetry_Int_Tables_number   1
_chemical_formula_structural   UMnRuF12
_chemical_formula_sum   'U1 Mn1 Ru1 F12'
_cell_volume   254.60243170
_cell_formula_units_Z   1
loop_
 _symmetry_equiv_pos_site_id
 _symmetry_equiv_pos_as_xyz
  1  'x, y, z'
loop_
 _atom_site_type_symbol
 _atom_site_label
 _atom_site_symmetry_multiplicity
 _atom_site_fract_x
 _atom_site_fract_y
 _atom_site_fract_z
 _atom_site_occupancy
  U  U0  1  0.231619  0.997418  0.757602  1
  Mn  Mn1  1  0.494520  0.511915  0.480459  1
  Ru  Ru2  1  0.775214  0.998792  0.249410  1
  F  F3  1  0.941386  0.220265  0.203361  1
  F  F4  1  0.045843  0.758423  0.799632  1
  F  F5  1  0.004090  0.771634  0.142559  1
  F  F6  1  0.474553  0.753927  0.621242  1
  F  F7  1  0.540682  0.224571  0.372198  1
  F  F8  1  0.924477  0.253927  0.567676  1
  F  F9  1  0.059549  0.761153  0.424610  1
  F  F10  1  0.414141  0.258531  0.674077  1
  F  F11  1  0.601234  0.763508  0.315006  1
  F  F12  1  0.522744  0.765474  0.934892  1
  F  F13  1  0.499926  0.213282  0.089191  1
  F  F14  1  0.970024  0.247182  0.868084  1
