# generated using pymatgen
data_Cs2Tc7W5Se14
_symmetry_space_group_name_H-M   'P 1'
_cell_length_a   9.92943295
_cell_length_b   9.94521236
_cell_length_c   9.90630829
_cell_angle_alpha   60.46091456
_cell_angle_beta   61.05381298
_cell_angle_gamma   60.79589932
_symmetry_Int_Tables_number   1
_chemical_formula_structural   Cs2Tc7W5Se14
_chemical_formula_sum   'Cs2 Tc7 W5 Se14'
_cell_volume   703.71021348
_cell_formula_units_Z   1
loop_
 _symmetry_equiv_pos_site_id
 _symmetry_equiv_pos_as_xyz
  1  'x, y, z'
loop_
 _atom_site_type_symbol
 _atom_site_label
 _atom_site_symmetry_multiplicity
 _atom_site_fract_x
 _atom_site_fract_y
 _atom_site_fract_z
 _atom_site_occupancy
  Cs  Cs0  1  0.378038  0.375729  0.378921  1
  Cs  Cs1  1  0.620238  0.621664  0.625072  1
  Tc  Tc2  1  0.302137  0.123765  0.993360  1
  Tc  Tc3  1  0.194020  0.886609  0.062457  1
  Tc  Tc4  1  0.887212  0.060073  0.193437  1
  Tc  Tc5  1  0.937549  0.803532  0.114549  1
  Tc  Tc6  1  0.803663  0.114355  0.938446  1
  Tc  Tc7  1  0.115194  0.938537  0.805584  1
  Tc  Tc8  1  0.992441  0.301265  0.124775  1
  W  W9  1  0.877817  0.004142  0.702321  1
  W  W10  1  0.123945  0.996519  0.295577  1
  W  W11  1  0.003253  0.703816  0.877821  1
  W  W12  1  0.703922  0.877046  0.001323  1
  W  W13  1  0.060424  0.188670  0.893491  1
  Se  Se14  1  0.983427  0.236504  0.645779  1
  Se  Se15  1  0.234566  0.647372  0.985970  1
  Se  Se16  1  0.646952  0.983873  0.233933  1
  Se  Se17  1  0.019033  0.766969  0.354733  1
  Se  Se18  1  0.762936  0.353407  0.021241  1
  Se  Se19  1  0.356858  0.013804  0.769316  1
  Se  Se20  1  0.168399  0.413684  0.819847  1
  Se  Se21  1  0.415727  0.816364  0.168027  1
  Se  Se22  1  0.814556  0.171396  0.411174  1
  Se  Se23  1  0.829706  0.581882  0.185123  1
  Se  Se24  1  0.583228  0.186496  0.825759  1
  Se  Se25  1  0.185402  0.832210  0.581401  1
  Se  Se26  1  0.777425  0.776608  0.774080  1
  Se  Se27  1  0.221929  0.223706  0.216482  1
