# generated using pymatgen
data_CaTb3Lu2(Si3Ru)8
_symmetry_space_group_name_H-M   'P 1'
_cell_length_a   10.10939337
_cell_length_b   10.10939436
_cell_length_c   8.13108007
_cell_angle_alpha   89.89263262
_cell_angle_beta   90.10736665
_cell_angle_gamma   132.57568884
_symmetry_Int_Tables_number   1
_chemical_formula_structural   CaTb3Lu2(Si3Ru)8
_chemical_formula_sum   'Ca1 Tb3 Lu2 Si24 Ru8'
_cell_volume   611.93041494
_cell_formula_units_Z   1
loop_
 _symmetry_equiv_pos_site_id
 _symmetry_equiv_pos_as_xyz
  1  'x, y, z'
loop_
 _atom_site_type_symbol
 _atom_site_label
 _atom_site_symmetry_multiplicity
 _atom_site_fract_x
 _atom_site_fract_y
 _atom_site_fract_z
 _atom_site_occupancy
  Ca  Ca0  1  0.501942  0.001942  0.750000  1
  Tb  Tb1  1  0.998364  0.498364  0.250000  1
  Tb  Tb2  1  0.497126  0.997126  0.250000  1
  Tb  Tb3  1  0.002680  0.502680  0.750000  1
  Lu  Lu4  1  0.500226  0.500351  0.500577  1
  Lu  Lu5  1  0.000351  0.000226  0.999423  1
  Si  Si6  1  0.793800  0.204392  0.500368  1
  Si  Si7  1  0.295322  0.706211  0.998702  1
  Si  Si8  1  0.206211  0.795322  0.501298  1
  Si  Si9  1  0.704392  0.293800  0.999632  1
  Si  Si10  1  0.332306  0.333637  0.832848  1
  Si  Si11  1  0.667229  0.668794  0.167228  1
  Si  Si12  1  0.168794  0.167229  0.332772  1
  Si  Si13  1  0.833637  0.832306  0.667152  1
  Si  Si14  1  0.119995  0.886340  0.728547  1
  Si  Si15  1  0.110885  0.877862  0.271847  1
  Si  Si16  1  0.611658  0.378786  0.228835  1
  Si  Si17  1  0.623470  0.390307  0.771492  1
  Si  Si18  1  0.878786  0.111658  0.271165  1
  Si  Si19  1  0.890307  0.123470  0.728508  1
  Si  Si20  1  0.386340  0.619995  0.771453  1
  Si  Si21  1  0.377862  0.610885  0.228153  1
  Si  Si22  1  0.344711  0.112069  0.502546  1
  Si  Si23  1  0.887684  0.655083  0.494744  1
  Si  Si24  1  0.387454  0.154648  0.006041  1
  Si  Si25  1  0.844541  0.612376  0.995177  1
  Si  Si26  1  0.654648  0.887454  0.493959  1
  Si  Si27  1  0.112376  0.344541  0.504823  1
  Si  Si28  1  0.612069  0.844711  0.997454  1
  Si  Si29  1  0.155083  0.387684  0.005256  1
  Ru  Ru30  1  0.668850  0.331692  0.499552  1
  Ru  Ru31  1  0.167134  0.830681  0.001607  1
  Ru  Ru32  1  0.330681  0.667134  0.498393  1
  Ru  Ru33  1  0.831692  0.168850  0.000448  1
  Ru  Ru34  1  0.127007  0.126639  0.627118  1
  Ru  Ru35  1  0.873588  0.874156  0.373054  1
  Ru  Ru36  1  0.374156  0.373588  0.126946  1
  Ru  Ru37  1  0.626639  0.627007  0.872882  1
