# generated using pymatgen
data_Sc2Pa2Ge6Ir4Rh3
_symmetry_space_group_name_H-M   'P 1'
_cell_length_a   7.22725366
_cell_length_b   7.22185173
_cell_length_c   7.22748184
_cell_angle_alpha   109.50963965
_cell_angle_beta   109.49557460
_cell_angle_gamma   109.44420348
_symmetry_Int_Tables_number   1
_chemical_formula_structural   Sc2Pa2Ge6Ir4Rh3
_chemical_formula_sum   'Sc2 Pa2 Ge6 Ir4 Rh3'
_cell_volume   290.26526909
_cell_formula_units_Z   1
loop_
 _symmetry_equiv_pos_site_id
 _symmetry_equiv_pos_as_xyz
  1  'x, y, z'
loop_
 _atom_site_type_symbol
 _atom_site_label
 _atom_site_symmetry_multiplicity
 _atom_site_fract_x
 _atom_site_fract_y
 _atom_site_fract_z
 _atom_site_occupancy
  Sc  Sc0  1  0.000046  0.000750  0.500247  1
  Sc  Sc1  1  0.499985  0.999706  0.000140  1
  Pa  Pa2  1  0.500031  0.499939  0.499803  1
  Pa  Pa3  1  0.999854  0.499885  0.000068  1
  Ge  Ge4  1  0.314624  0.305808  0.991853  1
  Ge  Ge5  1  0.991488  0.306486  0.314377  1
  Ge  Ge6  1  0.008569  0.693893  0.684642  1
  Ge  Ge7  1  0.685651  0.999703  0.685958  1
  Ge  Ge8  1  0.313737  0.999716  0.314038  1
  Ge  Ge9  1  0.686074  0.694216  0.008809  1
  Ir  Ir10  1  0.749508  0.248683  0.499191  1
  Ir  Ir11  1  0.499202  0.248431  0.749282  1
  Ir  Ir12  1  0.500701  0.751727  0.251027  1
  Ir  Ir13  1  0.249741  0.499940  0.749703  1
  Rh  Rh14  1  0.750193  0.499894  0.250149  1
  Rh  Rh15  1  0.250558  0.751429  0.500916  1
  Rh  Rh16  1  0.000040  0.999794  0.999795  1
