# generated using pymatgen
data_SmCo4Si3Tc
_symmetry_space_group_name_H-M   'P 1'
_cell_length_a   3.76383500
_cell_length_b   10.61252300
_cell_length_c   12.07791800
_cell_angle_alpha   90.00000000
_cell_angle_beta   90.00000000
_cell_angle_gamma   90.00000000
_symmetry_Int_Tables_number   1
_chemical_formula_structural   SmCo4Si3Tc
_chemical_formula_sum   'Sm4 Co16 Si12 Tc4'
_cell_volume   482.43776595
_cell_formula_units_Z   4
loop_
 _symmetry_equiv_pos_site_id
 _symmetry_equiv_pos_as_xyz
  1  'x, y, z'
loop_
 _atom_site_type_symbol
 _atom_site_label
 _atom_site_symmetry_multiplicity
 _atom_site_fract_x
 _atom_site_fract_y
 _atom_site_fract_z
 _atom_site_occupancy
  Sm  Sm0  1  0.250000  0.581092  0.703850  1
  Sm  Sm1  1  0.250000  0.918908  0.203850  1
  Sm  Sm2  1  0.750000  0.418908  0.296150  1
  Sm  Sm3  1  0.750000  0.081092  0.796150  1
  Co  Co4  1  0.250000  0.406044  0.490196  1
  Co  Co5  1  0.250000  0.093956  0.990196  1
  Co  Co6  1  0.750000  0.593956  0.509804  1
  Co  Co7  1  0.750000  0.906044  0.009804  1
  Co  Co8  1  0.250000  0.214835  0.174590  1
  Co  Co9  1  0.250000  0.285165  0.674590  1
  Co  Co10  1  0.750000  0.785165  0.825410  1
  Co  Co11  1  0.750000  0.714835  0.325410  1
  Co  Co12  1  0.250000  0.884263  0.698361  1
  Co  Co13  1  0.250000  0.615737  0.198361  1
  Co  Co14  1  0.750000  0.115737  0.301639  1
  Co  Co15  1  0.750000  0.384263  0.801639  1
  Co  Co16  1  0.250000  0.467706  0.933541  1
  Co  Co17  1  0.250000  0.032294  0.433541  1
  Co  Co18  1  0.750000  0.532294  0.066459  1
  Co  Co19  1  0.750000  0.967706  0.566459  1
  Si  Si20  1  0.250000  0.416817  0.112197  1
  Si  Si21  1  0.250000  0.083183  0.612197  1
  Si  Si22  1  0.750000  0.583183  0.887803  1
  Si  Si23  1  0.750000  0.916817  0.387803  1
  Si  Si24  1  0.250000  0.272154  0.866595  1
  Si  Si25  1  0.250000  0.227846  0.366595  1
  Si  Si26  1  0.750000  0.727846  0.133405  1
  Si  Si27  1  0.750000  0.772154  0.633405  1
  Si  Si28  1  0.250000  0.602266  0.393951  1
  Si  Si29  1  0.250000  0.897734  0.893951  1
  Si  Si30  1  0.750000  0.397734  0.606049  1
  Si  Si31  1  0.750000  0.102266  0.106049  1
  Tc  Tc32  1  0.250000  0.699881  0.991276  1
  Tc  Tc33  1  0.250000  0.800119  0.491276  1
  Tc  Tc34  1  0.750000  0.300119  0.008724  1
  Tc  Tc35  1  0.750000  0.199881  0.508724  1
