# generated using pymatgen
data_Ti3Fe4P4Os
_symmetry_space_group_name_H-M   'P 1'
_cell_length_a   3.62097000
_cell_length_b   5.94740661
_cell_length_c   6.72545318
_cell_angle_alpha   89.40519425
_cell_angle_beta   90.00000000
_cell_angle_gamma   90.00000000
_symmetry_Int_Tables_number   1
_chemical_formula_structural   Ti3Fe4P4Os
_chemical_formula_sum   'Ti3 Fe4 P4 Os1'
_cell_volume   144.82739154
_cell_formula_units_Z   1
loop_
 _symmetry_equiv_pos_site_id
 _symmetry_equiv_pos_as_xyz
  1  'x, y, z'
loop_
 _atom_site_type_symbol
 _atom_site_label
 _atom_site_symmetry_multiplicity
 _atom_site_fract_x
 _atom_site_fract_y
 _atom_site_fract_z
 _atom_site_occupancy
  Ti  Ti0  1  0.250000  0.521364  0.682763  1
  Ti  Ti1  1  0.750000  0.978807  0.174416  1
  Ti  Ti2  1  0.750000  0.477054  0.319838  1
  Fe  Fe3  1  0.250000  0.143031  0.439645  1
  Fe  Fe4  1  0.250000  0.645207  0.061167  1
  Fe  Fe5  1  0.750000  0.855946  0.561512  1
  Fe  Fe6  1  0.750000  0.355432  0.935904  1
  P  P7  1  0.250000  0.771917  0.377862  1
  P  P8  1  0.250000  0.273507  0.116547  1
  P  P9  1  0.750000  0.221234  0.623999  1
  P  P10  1  0.750000  0.728752  0.876682  1
  Os  Os11  1  0.250000  0.027749  0.829665  1
