# generated using pymatgen
data_RbHf4InBr18
_symmetry_space_group_name_H-M   'P 1'
_cell_length_a   7.92847600
_cell_length_b   10.73673431
_cell_length_c   13.00948592
_cell_angle_alpha   62.61657030
_cell_angle_beta   90.00000000
_cell_angle_gamma   90.00000000
_symmetry_Int_Tables_number   1
_chemical_formula_structural   RbHf4InBr18
_chemical_formula_sum   'Rb1 Hf4 In1 Br18'
_cell_volume   983.35381355
_cell_formula_units_Z   1
loop_
 _symmetry_equiv_pos_site_id
 _symmetry_equiv_pos_as_xyz
  1  'x, y, z'
loop_
 _atom_site_type_symbol
 _atom_site_label
 _atom_site_symmetry_multiplicity
 _atom_site_fract_x
 _atom_site_fract_y
 _atom_site_fract_z
 _atom_site_occupancy
  Rb  Rb0  1  0.472641  0.500000  0.250000  1
  Hf  Hf1  1  0.286958  0.817130  0.864548  1
  Hf  Hf2  1  0.716951  0.181574  0.128572  1
  Hf  Hf3  1  0.286958  0.182870  0.635452  1
  Hf  Hf4  1  0.716951  0.818426  0.371428  1
  In  In5  1  0.503595  0.500000  0.750000  1
  Br  Br6  1  0.153896  0.745606  0.059346  1
  Br  Br7  1  0.837602  0.246041  0.932293  1
  Br  Br8  1  0.153896  0.254394  0.440654  1
  Br  Br9  1  0.837602  0.753959  0.567707  1
  Br  Br10  1  0.160819  0.624507  0.826565  1
  Br  Br11  1  0.849926  0.376212  0.158799  1
  Br  Br12  1  0.160819  0.375493  0.673435  1
  Br  Br13  1  0.849926  0.623788  0.341201  1
  Br  Br14  1  0.028955  0.000000  0.750000  1
  Br  Br15  1  0.972304  0.000000  0.250000  1
  Br  Br16  1  0.412028  0.057538  0.857782  1
  Br  Br17  1  0.588710  0.934301  0.148250  1
  Br  Br18  1  0.412028  0.942462  0.642218  1
  Br  Br19  1  0.588710  0.065699  0.351750  1
  Br  Br20  1  0.571858  0.700175  0.932498  1
  Br  Br21  1  0.432506  0.300194  0.054975  1
  Br  Br22  1  0.571858  0.299825  0.567502  1
  Br  Br23  1  0.432506  0.699806  0.445025  1
