# generated using pymatgen
data_Pr5AuSe4
_symmetry_space_group_name_H-M   'P 1'
_cell_length_a   7.42169896
_cell_length_b   7.42169822
_cell_length_c   7.42169795
_cell_angle_alpha   99.69272819
_cell_angle_beta   99.69273433
_cell_angle_gamma   131.54983633
_symmetry_Int_Tables_number   1
_chemical_formula_structural   Pr5AuSe4
_chemical_formula_sum   'Pr5 Au1 Se4'
_cell_volume   278.99608550
_cell_formula_units_Z   1
loop_
 _symmetry_equiv_pos_site_id
 _symmetry_equiv_pos_as_xyz
  1  'x, y, z'
loop_
 _atom_site_type_symbol
 _atom_site_label
 _atom_site_symmetry_multiplicity
 _atom_site_fract_x
 _atom_site_fract_y
 _atom_site_fract_z
 _atom_site_occupancy
  Pr  Pr0  1  0.397723  0.801101  0.198824  1
  Pr  Pr1  1  0.000000  0.000000  0.000000  1
  Pr  Pr2  1  0.602277  0.198899  0.801176  1
  Pr  Pr3  1  0.198899  0.397723  0.596621  1
  Pr  Pr4  1  0.801101  0.602277  0.403379  1
  Au  Au5  1  0.500000  0.500000  0.000000  1
  Se  Se6  1  0.097886  0.698419  0.796304  1
  Se  Se7  1  0.698419  0.902114  0.600532  1
  Se  Se8  1  0.301581  0.097886  0.399468  1
  Se  Se9  1  0.902114  0.301581  0.203696  1
