# generated using pymatgen
data_Er6Tm2Tc3B24Os
_symmetry_space_group_name_H-M   'P 1'
_cell_length_a   3.64504100
_cell_length_b   9.10411606
_cell_length_c   11.47910405
_cell_angle_alpha   89.95832797
_cell_angle_beta   90.00000000
_cell_angle_gamma   90.00000000
_symmetry_Int_Tables_number   1
_chemical_formula_structural   Er6Tm2Tc3B24Os
_chemical_formula_sum   'Er6 Tm2 Tc3 B24 Os1'
_cell_volume   380.93254734
_cell_formula_units_Z   1
loop_
 _symmetry_equiv_pos_site_id
 _symmetry_equiv_pos_as_xyz
  1  'x, y, z'
loop_
 _atom_site_type_symbol
 _atom_site_label
 _atom_site_symmetry_multiplicity
 _atom_site_fract_x
 _atom_site_fract_y
 _atom_site_fract_z
 _atom_site_occupancy
  Er  Er0  1  0.000000  0.323514  0.413747  1
  Er  Er1  1  0.000000  0.675517  0.584294  1
  Er  Er2  1  0.000000  0.822582  0.087377  1
  Er  Er3  1  0.000000  0.178380  0.914523  1
  Er  Er4  1  0.000000  0.942529  0.370204  1
  Er  Er5  1  0.000000  0.058132  0.629891  1
  Tm  Tm6  1  0.000000  0.443074  0.129972  1
  Tm  Tm7  1  0.000000  0.556860  0.869702  1
  Tc  Tc8  1  0.000000  0.638248  0.320310  1
  Tc  Tc9  1  0.000000  0.361817  0.680206  1
  Tc  Tc10  1  0.000000  0.138266  0.178332  1
  B  B11  1  0.500000  0.553031  0.433100  1
  B  B12  1  0.500000  0.446871  0.566658  1
  B  B13  1  0.500000  0.053060  0.066648  1
  B  B14  1  0.500000  0.946279  0.933181  1
  B  B15  1  0.500000  0.748971  0.419104  1
  B  B16  1  0.500000  0.250741  0.580935  1
  B  B17  1  0.500000  0.249886  0.080946  1
  B  B18  1  0.500000  0.750639  0.918806  1
  B  B19  1  0.500000  0.791965  0.265300  1
  B  B20  1  0.500000  0.208223  0.735253  1
  B  B21  1  0.500000  0.292232  0.234831  1
  B  B22  1  0.500000  0.708520  0.765154  1
  B  B23  1  0.500000  0.630676  0.185097  1
  B  B24  1  0.500000  0.369272  0.815378  1
  B  B25  1  0.500000  0.130491  0.314455  1
  B  B26  1  0.500000  0.869046  0.685381  1
  B  B27  1  0.500000  0.981412  0.211810  1
  B  B28  1  0.500000  0.017439  0.788201  1
  B  B29  1  0.500000  0.481507  0.287822  1
  B  B30  1  0.500000  0.518299  0.711975  1
  B  B31  1  0.500000  0.601336  0.027926  1
  B  B32  1  0.500000  0.399779  0.971909  1
  B  B33  1  0.500000  0.101335  0.471902  1
  B  B34  1  0.500000  0.898616  0.528561  1
  Os  Os35  1  0.000000  0.861453  0.821113  1
