# generated using pymatgen
data_Be3VNiIr
_symmetry_space_group_name_H-M   'P 1'
_cell_length_a   4.40819300
_cell_length_b   4.40819314
_cell_length_c   7.11944600
_cell_angle_alpha   90.00000000
_cell_angle_beta   90.00000000
_cell_angle_gamma   120.00000643
_symmetry_Int_Tables_number   1
_chemical_formula_structural   Be3VNiIr
_chemical_formula_sum   'Be6 V2 Ni2 Ir2'
_cell_volume   119.81136587
_cell_formula_units_Z   2
loop_
 _symmetry_equiv_pos_site_id
 _symmetry_equiv_pos_as_xyz
  1  'x, y, z'
loop_
 _atom_site_type_symbol
 _atom_site_label
 _atom_site_symmetry_multiplicity
 _atom_site_fract_x
 _atom_site_fract_y
 _atom_site_fract_z
 _atom_site_occupancy
  Be  Be0  1  0.830524  0.661048  0.246920  1
  Be  Be1  1  0.169476  0.830524  0.746920  1
  Be  Be2  1  0.661048  0.830524  0.746920  1
  Be  Be3  1  0.338952  0.169476  0.246920  1
  Be  Be4  1  0.830524  0.169476  0.246920  1
  Be  Be5  1  0.169476  0.338952  0.746920  1
  V  V6  1  0.666667  0.333333  0.940780  1
  V  V7  1  0.333333  0.666667  0.440780  1
  Ni  Ni8  1  0.000000  0.000000  0.990542  1
  Ni  Ni9  1  0.000000  0.000000  0.490542  1
  Ir  Ir10  1  0.333333  0.666667  0.077915  1
  Ir  Ir11  1  0.666667  0.333333  0.577915  1
