# generated using pymatgen
data_Na(NdB8)3
_symmetry_space_group_name_H-M   'P 1'
_cell_length_a   7.18054565
_cell_length_b   7.18054553
_cell_length_c   5.85149700
_cell_angle_alpha   90.00000000
_cell_angle_beta   90.00000000
_cell_angle_gamma   109.52290827
_symmetry_Int_Tables_number   1
_chemical_formula_structural   Na(NdB8)3
_chemical_formula_sum   'Na1 Nd3 B24'
_cell_volume   284.35894714
_cell_formula_units_Z   1
loop_
 _symmetry_equiv_pos_site_id
 _symmetry_equiv_pos_as_xyz
  1  'x, y, z'
loop_
 _atom_site_type_symbol
 _atom_site_label
 _atom_site_symmetry_multiplicity
 _atom_site_fract_x
 _atom_site_fract_y
 _atom_site_fract_z
 _atom_site_occupancy
  Na  Na0  1  0.000000  0.000000  0.000000  1
  Nd  Nd1  1  0.749313  0.250687  0.500000  1
  Nd  Nd2  1  0.500000  0.500000  0.000000  1
  Nd  Nd3  1  0.250687  0.749313  0.500000  1
  B  B4  1  0.175556  0.324402  0.650456  1
  B  B5  1  0.925284  0.575150  0.149373  1
  B  B6  1  0.675598  0.824444  0.650456  1
  B  B7  1  0.424850  0.074716  0.149373  1
  B  B8  1  0.175556  0.324402  0.349544  1
  B  B9  1  0.925284  0.575150  0.850627  1
  B  B10  1  0.675598  0.824444  0.349544  1
  B  B11  1  0.424850  0.074716  0.850627  1
  B  B12  1  0.399673  0.399673  0.500000  1
  B  B13  1  0.148702  0.650582  0.000000  1
  B  B14  1  0.899467  0.899467  0.500000  1
  B  B15  1  0.650582  0.148702  0.000000  1
  B  B16  1  0.324402  0.175556  0.650456  1
  B  B17  1  0.074716  0.424850  0.149373  1
  B  B18  1  0.824444  0.675598  0.650456  1
  B  B19  1  0.575150  0.925284  0.149373  1
  B  B20  1  0.100533  0.100533  0.500000  1
  B  B21  1  0.851298  0.349418  0.000000  1
  B  B22  1  0.600327  0.600327  0.500000  1
  B  B23  1  0.349418  0.851298  0.000000  1
  B  B24  1  0.324402  0.175556  0.349544  1
  B  B25  1  0.074716  0.424850  0.850627  1
  B  B26  1  0.824444  0.675598  0.349544  1
  B  B27  1  0.575150  0.925284  0.850627  1
