# generated using pymatgen
data_NdPa7S12
_symmetry_space_group_name_H-M   'P 1'
_cell_length_a   7.37260054
_cell_length_b   3.86265400
_cell_length_c   14.95134668
_cell_angle_alpha   90.00000000
_cell_angle_beta   89.70624365
_cell_angle_gamma   90.00000000
_symmetry_Int_Tables_number   1
_chemical_formula_structural   NdPa7S12
_chemical_formula_sum   'Nd1 Pa7 S12'
_cell_volume   425.77593828
_cell_formula_units_Z   1
loop_
 _symmetry_equiv_pos_site_id
 _symmetry_equiv_pos_as_xyz
  1  'x, y, z'
loop_
 _atom_site_type_symbol
 _atom_site_label
 _atom_site_symmetry_multiplicity
 _atom_site_fract_x
 _atom_site_fract_y
 _atom_site_fract_z
 _atom_site_occupancy
  Nd  Nd0  1  0.260331  0.250000  0.955422  1
  Pa  Pa1  1  0.748389  0.749999  0.040949  1
  Pa  Pa2  1  0.109839  0.250000  0.215167  1
  Pa  Pa3  1  0.611881  0.250000  0.292422  1
  Pa  Pa4  1  0.241190  0.749999  0.459137  1
  Pa  Pa5  1  0.756428  0.250000  0.541440  1
  Pa  Pa6  1  0.386994  0.749999  0.709509  1
  Pa  Pa7  1  0.880194  0.749999  0.787657  1
  S  S8  1  0.123637  0.749999  0.076655  1
  S  S9  1  0.514459  0.250000  0.108097  1
  S  S10  1  0.838607  0.749999  0.225640  1
  S  S11  1  0.341303  0.749999  0.276691  1
  S  S12  1  0.998269  0.250000  0.394724  1
  S  S13  1  0.626051  0.749999  0.428895  1
  S  S14  1  0.372203  0.250000  0.571699  1
  S  S15  1  0.997423  0.749999  0.605720  1
  S  S16  1  0.655415  0.250000  0.722630  1
  S  S17  1  0.154788  0.250000  0.771068  1
  S  S18  1  0.511426  0.749999  0.890175  1
  S  S19  1  0.871170  0.250000  0.926304  1
