# generated using pymatgen
data_Sm8SiHgI12
_symmetry_space_group_name_H-M   'P 1'
_cell_length_a   4.31058500
_cell_length_b   14.40805975
_cell_length_c   15.21843644
_cell_angle_alpha   89.77094817
_cell_angle_beta   90.00000000
_cell_angle_gamma   90.00000000
_symmetry_Int_Tables_number   1
_chemical_formula_structural   Sm8SiHgI12
_chemical_formula_sum   'Sm8 Si1 Hg1 I12'
_cell_volume   945.16640895
_cell_formula_units_Z   1
loop_
 _symmetry_equiv_pos_site_id
 _symmetry_equiv_pos_as_xyz
  1  'x, y, z'
loop_
 _atom_site_type_symbol
 _atom_site_label
 _atom_site_symmetry_multiplicity
 _atom_site_fract_x
 _atom_site_fract_y
 _atom_site_fract_z
 _atom_site_occupancy
  Sm  Sm0  1  0.500000  0.119268  0.340575  1
  Sm  Sm1  1  0.500000  0.880732  0.659425  1
  Sm  Sm2  1  0.500000  0.612810  0.151608  1
  Sm  Sm3  1  0.500000  0.387190  0.848392  1
  Sm  Sm4  1  0.000000  0.120227  0.580963  1
  Sm  Sm5  1  0.000000  0.879773  0.419037  1
  Sm  Sm6  1  0.000000  0.610691  0.925657  1
  Sm  Sm7  1  0.000000  0.389309  0.074343  1
  Si  Si8  1  0.500000  0.500000  0.000000  1
  Hg  Hg9  1  0.500000  0.000000  0.500000  1
  I  I10  1  0.500000  0.247544  0.161151  1
  I  I11  1  0.500000  0.752456  0.838849  1
  I  I12  1  0.500000  0.742200  0.334315  1
  I  I13  1  0.500000  0.257800  0.665685  1
  I  I14  1  0.000000  0.260410  0.413856  1
  I  I15  1  0.000000  0.739590  0.586144  1
  I  I16  1  0.000000  0.755883  0.084801  1
  I  I17  1  0.000000  0.244117  0.915199  1
  I  I18  1  0.000000  0.999279  0.238412  1
  I  I19  1  0.000000  0.000721  0.761588  1
  I  I20  1  0.000000  0.498483  0.257098  1
  I  I21  1  0.000000  0.501517  0.742902  1
