# generated using pymatgen
data_RbPtOF4
_symmetry_space_group_name_H-M   'P 1'
_cell_length_a   6.12349900
_cell_length_b   5.52177468
_cell_length_c   16.09526171
_cell_angle_alpha   68.87441951
_cell_angle_beta   90.00000000
_cell_angle_gamma   90.00000000
_symmetry_Int_Tables_number   1
_chemical_formula_structural   RbPtOF4
_chemical_formula_sum   'Rb4 Pt4 O4 F16'
_cell_volume   507.64664586
_cell_formula_units_Z   4
loop_
 _symmetry_equiv_pos_site_id
 _symmetry_equiv_pos_as_xyz
  1  'x, y, z'
loop_
 _atom_site_type_symbol
 _atom_site_label
 _atom_site_symmetry_multiplicity
 _atom_site_fract_x
 _atom_site_fract_y
 _atom_site_fract_z
 _atom_site_occupancy
  Rb  Rb0  1  0.888028  0.666514  0.340537  1
  Rb  Rb1  1  0.388028  0.333486  0.159463  1
  Rb  Rb2  1  0.111972  0.333486  0.659463  1
  Rb  Rb3  1  0.611972  0.666514  0.840537  1
  Pt  Pt4  1  0.379939  0.018820  0.416777  1
  Pt  Pt5  1  0.879939  0.981180  0.083223  1
  Pt  Pt6  1  0.620061  0.981180  0.583223  1
  Pt  Pt7  1  0.120061  0.018820  0.916777  1
  O  O8  1  0.611846  0.817817  0.493959  1
  O  O9  1  0.111846  0.182183  0.006041  1
  O  O10  1  0.388154  0.182183  0.506041  1
  O  O11  1  0.888154  0.817817  0.993959  1
  F  F12  1  0.156743  0.770523  0.481816  1
  F  F13  1  0.656743  0.229477  0.018184  1
  F  F14  1  0.843257  0.229477  0.518184  1
  F  F15  1  0.343257  0.770523  0.981816  1
  F  F16  1  0.908675  0.263588  0.840533  1
  F  F17  1  0.408675  0.736412  0.659467  1
  F  F18  1  0.091325  0.736412  0.159467  1
  F  F19  1  0.591325  0.263588  0.340533  1
  F  F20  1  0.112460  0.843724  0.829297  1
  F  F21  1  0.612460  0.156276  0.670703  1
  F  F22  1  0.887540  0.156276  0.170703  1
  F  F23  1  0.387540  0.843724  0.329297  1
  F  F24  1  0.351752  0.233262  0.840262  1
  F  F25  1  0.851752  0.766738  0.659738  1
  F  F26  1  0.648248  0.766738  0.159738  1
  F  F27  1  0.148248  0.233262  0.340262  1
