# generated using pymatgen
data_Ac2Ag3Au
_symmetry_space_group_name_H-M   'P 1'
_cell_length_a   4.86932609
_cell_length_b   4.86987335
_cell_length_c   8.02691600
_cell_angle_alpha   90.00000000
_cell_angle_beta   90.00000000
_cell_angle_gamma   119.99971561
_symmetry_Int_Tables_number   1
_chemical_formula_structural   Ac2Ag3Au
_chemical_formula_sum   'Ac2 Ag3 Au1'
_cell_volume   164.84171369
_cell_formula_units_Z   1
loop_
 _symmetry_equiv_pos_site_id
 _symmetry_equiv_pos_as_xyz
  1  'x, y, z'
loop_
 _atom_site_type_symbol
 _atom_site_label
 _atom_site_symmetry_multiplicity
 _atom_site_fract_x
 _atom_site_fract_y
 _atom_site_fract_z
 _atom_site_occupancy
  Ac  Ac0  1  0.999944  0.999987  0.004306  1
  Ac  Ac1  1  0.999944  0.999987  0.495694  1
  Ag  Ag2  1  0.333299  0.666657  0.750000  1
  Ag  Ag3  1  0.666653  0.333343  0.250000  1
  Ag  Ag4  1  0.666600  0.333303  0.750000  1
  Au  Au5  1  0.333361  0.666722  0.250000  1
