# generated using pymatgen
data_Sc22TcOsRu6
_symmetry_space_group_name_H-M   'P 1'
_cell_length_a   9.48896233
_cell_length_b   9.37800235
_cell_length_c   9.48896264
_cell_angle_alpha   60.38607259
_cell_angle_beta   60.43001821
_cell_angle_gamma   60.38607340
_symmetry_Int_Tables_number   1
_chemical_formula_structural   Sc22TcOsRu6
_chemical_formula_sum   'Sc22 Tc1 Os1 Ru6'
_cell_volume   602.49095475
_cell_formula_units_Z   1
loop_
 _symmetry_equiv_pos_site_id
 _symmetry_equiv_pos_as_xyz
  1  'x, y, z'
loop_
 _atom_site_type_symbol
 _atom_site_label
 _atom_site_symmetry_multiplicity
 _atom_site_fract_x
 _atom_site_fract_y
 _atom_site_fract_z
 _atom_site_occupancy
  Sc  Sc0  1  0.844560  0.840232  0.844560  1
  Sc  Sc1  1  0.530140  0.159488  0.150884  1
  Sc  Sc2  1  0.150884  0.159488  0.530140  1
  Sc  Sc3  1  0.155440  0.529351  0.155440  1
  Sc  Sc4  1  0.849116  0.840512  0.469860  1
  Sc  Sc5  1  0.844560  0.470649  0.844560  1
  Sc  Sc6  1  0.469860  0.840512  0.849116  1
  Sc  Sc7  1  0.155440  0.159768  0.155440  1
  Sc  Sc8  1  0.198547  0.801453  0.198547  1
  Sc  Sc9  1  0.198890  0.803704  0.801110  1
  Sc  Sc10  1  0.801110  0.196296  0.198890  1
  Sc  Sc11  1  0.801110  0.803704  0.198890  1
  Sc  Sc12  1  0.198890  0.196296  0.801110  1
  Sc  Sc13  1  0.801453  0.198547  0.801453  1
  Sc  Sc14  1  0.383519  0.380008  0.383519  1
  Sc  Sc15  1  0.153070  0.616255  0.614420  1
  Sc  Sc16  1  0.616481  0.147047  0.616481  1
  Sc  Sc17  1  0.614420  0.616255  0.153070  1
  Sc  Sc18  1  0.383519  0.852953  0.383519  1
  Sc  Sc19  1  0.385580  0.383745  0.846930  1
  Sc  Sc20  1  0.846930  0.383745  0.385580  1
  Sc  Sc21  1  0.616481  0.619992  0.616481  1
  Tc  Tc22  1  0.500000  0.000000  0.500000  1
  Os  Os23  1  0.500000  0.500000  0.500000  1
  Ru  Ru24  1  0.500000  0.500000  0.000000  1
  Ru  Ru25  1  0.000000  0.000000  0.500000  1
  Ru  Ru26  1  0.000000  0.500000  0.500000  1
  Ru  Ru27  1  0.500000  0.000000  0.000000  1
  Ru  Ru28  1  0.000000  0.500000  0.000000  1
  Ru  Ru29  1  0.000000  0.000000  0.000000  1
