# generated using pymatgen
data_HoEr4Pa(SnIr)6
_symmetry_space_group_name_H-M   'P 1'
_cell_length_a   7.49563225
_cell_length_b   7.55951373
_cell_length_c   7.79834800
_cell_angle_alpha   90.00000000
_cell_angle_beta   90.00000000
_cell_angle_gamma   120.29097603
_symmetry_Int_Tables_number   1
_chemical_formula_structural   HoEr4Pa(SnIr)6
_chemical_formula_sum   'Ho1 Er4 Pa1 Sn6 Ir6'
_cell_volume   381.55268315
_cell_formula_units_Z   1
loop_
 _symmetry_equiv_pos_site_id
 _symmetry_equiv_pos_as_xyz
  1  'x, y, z'
loop_
 _atom_site_type_symbol
 _atom_site_label
 _atom_site_symmetry_multiplicity
 _atom_site_fract_x
 _atom_site_fract_y
 _atom_site_fract_z
 _atom_site_occupancy
  Ho  Ho0  1  0.594794  0.591406  0.750000  1
  Er  Er1  1  0.403799  0.003148  0.250000  1
  Er  Er2  1  0.596906  0.599029  0.250000  1
  Er  Er3  1  0.000707  0.405283  0.750000  1
  Er  Er4  1  0.404726  0.996282  0.750000  1
  Pa  Pa5  1  0.999141  0.412050  0.250000  1
  Sn  Sn6  1  0.267396  0.260588  0.501063  1
  Sn  Sn7  1  0.267396  0.260588  0.998937  1
  Sn  Sn8  1  0.732427  0.992980  0.998377  1
  Sn  Sn9  1  0.000141  0.746731  0.500981  1
  Sn  Sn10  1  0.732427  0.992980  0.501623  1
  Sn  Sn11  1  0.000141  0.746731  0.999019  1
  Ir  Ir12  1  0.681301  0.335215  0.490782  1
  Ir  Ir13  1  0.681301  0.335215  0.009218  1
  Ir  Ir14  1  0.318324  0.654249  0.010853  1
  Ir  Ir15  1  0.318324  0.654249  0.489147  1
  Ir  Ir16  1  0.000883  0.001242  0.750000  1
  Ir  Ir17  1  0.999866  0.012034  0.250000  1
