# generated using pymatgen
data_Sm3Dy3YFeI12
_symmetry_space_group_name_H-M   'P 1'
_cell_length_a   9.85275675
_cell_length_b   9.78003869
_cell_length_c   9.82354462
_cell_angle_alpha   106.66114559
_cell_angle_beta   106.96683188
_cell_angle_gamma   107.25835500
_symmetry_Int_Tables_number   1
_chemical_formula_structural   Sm3Dy3YFeI12
_chemical_formula_sum   'Sm3 Dy3 Y1 Fe1 I12'
_cell_volume   789.13443329
_cell_formula_units_Z   1
loop_
 _symmetry_equiv_pos_site_id
 _symmetry_equiv_pos_as_xyz
  1  'x, y, z'
loop_
 _atom_site_type_symbol
 _atom_site_label
 _atom_site_symmetry_multiplicity
 _atom_site_fract_x
 _atom_site_fract_y
 _atom_site_fract_z
 _atom_site_occupancy
  Sm  Sm0  1  0.089540  0.282487  0.020389  1
  Sm  Sm1  1  0.297625  0.022318  0.094692  1
  Sm  Sm2  1  0.908678  0.716610  0.978370  1
  Dy  Dy3  1  0.710394  0.977802  0.906763  1
  Dy  Dy4  1  0.977261  0.906230  0.707895  1
  Dy  Dy5  1  0.498875  0.500756  0.500269  1
  Y  Y6  1  0.023015  0.093588  0.293566  1
  Fe  Fe7  1  0.000801  0.999334  0.999828  1
  I  I8  1  0.068707  0.221789  0.675387  1
  I  I9  1  0.385634  0.164050  0.467122  1
  I  I10  1  0.615334  0.839063  0.538384  1
  I  I11  1  0.225842  0.678914  0.072517  1
  I  I12  1  0.770261  0.314660  0.925999  1
  I  I13  1  0.682735  0.071719  0.224469  1
  I  I14  1  0.535257  0.616177  0.836550  1
  I  I15  1  0.835568  0.537576  0.612490  1
  I  I16  1  0.929156  0.777154  0.323518  1
  I  I17  1  0.318646  0.927240  0.769791  1
  I  I18  1  0.464977  0.390509  0.165128  1
  I  I19  1  0.161694  0.462024  0.386873  1
