# generated using pymatgen
data_AcSiAgPd2
_symmetry_space_group_name_H-M   'P 1'
_cell_length_a   4.20147900
_cell_length_b   4.20147900
_cell_length_c   11.25409500
_cell_angle_alpha   90.00000000
_cell_angle_beta   90.00000000
_cell_angle_gamma   90.00000000
_symmetry_Int_Tables_number   1
_chemical_formula_structural   AcSiAgPd2
_chemical_formula_sum   'Ac2 Si2 Ag2 Pd4'
_cell_volume   198.66207679
_cell_formula_units_Z   2
loop_
 _symmetry_equiv_pos_site_id
 _symmetry_equiv_pos_as_xyz
  1  'x, y, z'
loop_
 _atom_site_type_symbol
 _atom_site_label
 _atom_site_symmetry_multiplicity
 _atom_site_fract_x
 _atom_site_fract_y
 _atom_site_fract_z
 _atom_site_occupancy
  Ac  Ac0  1  0.500000  0.000000  0.245799  1
  Ac  Ac1  1  0.000000  0.500000  0.754201  1
  Si  Si2  1  0.000000  0.500000  0.113719  1
  Si  Si3  1  0.500000  0.000000  0.886281  1
  Ag  Ag4  1  0.000000  0.000000  0.500000  1
  Ag  Ag5  1  0.500000  0.500000  0.500000  1
  Pd  Pd6  1  0.000000  0.500000  0.329767  1
  Pd  Pd7  1  0.500000  0.000000  0.670233  1
  Pd  Pd8  1  0.000000  0.000000  0.000000  1
  Pd  Pd9  1  0.500000  0.500000  0.000000  1
