# generated using pymatgen
data_HoEr7SiPd24
_symmetry_space_group_name_H-M   'P 1'
_cell_length_a   8.30459600
_cell_length_b   8.30459600
_cell_length_c   8.30459600
_cell_angle_alpha   90.00049675
_cell_angle_beta   90.00049675
_cell_angle_gamma   90.00049675
_symmetry_Int_Tables_number   1
_chemical_formula_structural   HoEr7SiPd24
_chemical_formula_sum   'Ho1 Er7 Si1 Pd24'
_cell_volume   572.73738135
_cell_formula_units_Z   1
loop_
 _symmetry_equiv_pos_site_id
 _symmetry_equiv_pos_as_xyz
  1  'x, y, z'
loop_
 _atom_site_type_symbol
 _atom_site_label
 _atom_site_symmetry_multiplicity
 _atom_site_fract_x
 _atom_site_fract_y
 _atom_site_fract_z
 _atom_site_occupancy
  Ho  Ho0  1  0.253764  0.253764  0.253764  1
  Er  Er1  1  0.746201  0.746201  0.746201  1
  Er  Er2  1  0.746203  0.746203  0.253791  1
  Er  Er3  1  0.746203  0.253791  0.746203  1
  Er  Er4  1  0.253792  0.253792  0.746217  1
  Er  Er5  1  0.253792  0.746217  0.253792  1
  Er  Er6  1  0.253791  0.746203  0.746203  1
  Er  Er7  1  0.746217  0.253792  0.253792  1
  Si  Si8  1  0.000004  0.000004  0.000004  1
  Pd  Pd9  1  0.257254  0.500080  0.999916  1
  Pd  Pd10  1  0.742748  0.500002  0.999997  1
  Pd  Pd11  1  0.999916  0.257254  0.500080  1
  Pd  Pd12  1  0.500080  0.257254  0.999916  1
  Pd  Pd13  1  0.999997  0.742748  0.500002  1
  Pd  Pd14  1  0.500002  0.742748  0.999997  1
  Pd  Pd15  1  0.500080  0.999916  0.257254  1
  Pd  Pd16  1  0.257254  0.999916  0.500080  1
  Pd  Pd17  1  0.500002  0.999997  0.742748  1
  Pd  Pd18  1  0.742748  0.999997  0.500002  1
  Pd  Pd19  1  0.999916  0.500080  0.257254  1
  Pd  Pd20  1  0.999997  0.500002  0.742748  1
  Pd  Pd21  1  0.251974  0.500092  0.500092  1
  Pd  Pd22  1  0.748025  0.500005  0.500005  1
  Pd  Pd23  1  0.500092  0.251974  0.500092  1
  Pd  Pd24  1  0.500005  0.748025  0.500005  1
  Pd  Pd25  1  0.500092  0.500092  0.251974  1
  Pd  Pd26  1  0.500005  0.500005  0.748025  1
  Pd  Pd27  1  0.279725  0.999916  0.999916  1
  Pd  Pd28  1  0.720292  0.999999  0.999999  1
  Pd  Pd29  1  0.999916  0.279725  0.999916  1
  Pd  Pd30  1  0.999999  0.720292  0.999999  1
  Pd  Pd31  1  0.999916  0.999916  0.279725  1
  Pd  Pd32  1  0.999999  0.999999  0.720292  1
