# generated using pymatgen
data_Er10Si16B
_symmetry_space_group_name_H-M   'P 1'
_cell_length_a   6.52247623
_cell_length_b   8.26304407
_cell_length_c   10.79230788
_cell_angle_alpha   112.50853573
_cell_angle_beta   107.58868097
_cell_angle_gamma   89.99999522
_symmetry_Int_Tables_number   1
_chemical_formula_structural   Er10Si16B
_chemical_formula_sum   'Er10 Si16 B1'
_cell_volume   507.78827309
_cell_formula_units_Z   1
loop_
 _symmetry_equiv_pos_site_id
 _symmetry_equiv_pos_as_xyz
  1  'x, y, z'
loop_
 _atom_site_type_symbol
 _atom_site_label
 _atom_site_symmetry_multiplicity
 _atom_site_fract_x
 _atom_site_fract_y
 _atom_site_fract_z
 _atom_site_occupancy
  Er  Er0  1  0.236870  0.240830  0.000000  1
  Er  Er1  1  0.236870  0.759170  0.000000  1
  Er  Er2  1  0.829456  0.351002  0.198848  1
  Er  Er3  1  0.829456  0.847846  0.198848  1
  Er  Er4  1  0.436144  0.447029  0.397245  1
  Er  Er5  1  0.436144  0.950215  0.397245  1
  Er  Er6  1  0.038900  0.049785  0.602755  1
  Er  Er7  1  0.038900  0.552971  0.602755  1
  Er  Er8  1  0.630608  0.152154  0.801152  1
  Er  Er9  1  0.630608  0.648998  0.801152  1
  Si  Si10  1  0.883409  0.000000  0.000000  1
  Si  Si11  1  0.619382  0.500000  0.000000  1
  Si  Si12  1  0.114364  0.577802  0.155604  1
  Si  Si13  1  0.497150  0.600257  0.200514  1
  Si  Si14  1  0.502826  0.095288  0.190577  1
  Si  Si15  1  0.158031  0.115028  0.230056  1
  Si  Si16  1  0.825089  0.198463  0.396926  1
  Si  Si17  1  0.102486  0.699273  0.398548  1
  Si  Si18  1  0.754772  0.718173  0.436347  1
  Si  Si19  1  0.318425  0.281827  0.563653  1
  Si  Si20  1  0.703940  0.300727  0.601452  1
  Si  Si21  1  0.428161  0.801537  0.603073  1
  Si  Si22  1  0.927974  0.884972  0.769944  1
  Si  Si23  1  0.312249  0.904712  0.809423  1
  Si  Si24  1  0.296638  0.399743  0.799486  1
  Si  Si25  1  0.958758  0.422198  0.844396  1
  B  B26  1  0.563466  0.000000  0.000000  1
