# generated using pymatgen
data_Na2ZnF5
_symmetry_space_group_name_H-M   'P 1'
_cell_length_a   5.34119900
_cell_length_b   7.68067090
_cell_length_c   11.09277266
_cell_angle_alpha   71.98479463
_cell_angle_beta   90.00000000
_cell_angle_gamma   90.00000000
_symmetry_Int_Tables_number   1
_chemical_formula_structural   Na2ZnF5
_chemical_formula_sum   'Na8 Zn4 F20'
_cell_volume   432.75977745
_cell_formula_units_Z   4
loop_
 _symmetry_equiv_pos_site_id
 _symmetry_equiv_pos_as_xyz
  1  'x, y, z'
loop_
 _atom_site_type_symbol
 _atom_site_label
 _atom_site_symmetry_multiplicity
 _atom_site_fract_x
 _atom_site_fract_y
 _atom_site_fract_z
 _atom_site_occupancy
  Na  Na0  1  0.937672  0.344751  0.318871  1
  Na  Na1  1  0.437672  0.655249  0.181129  1
  Na  Na2  1  0.062328  0.655249  0.681129  1
  Na  Na3  1  0.562328  0.344751  0.818871  1
  Na  Na4  1  0.493395  0.148884  0.132498  1
  Na  Na5  1  0.993395  0.851116  0.367502  1
  Na  Na6  1  0.506605  0.851116  0.867502  1
  Na  Na7  1  0.006605  0.148884  0.632498  1
  Zn  Zn8  1  0.500000  0.500000  0.500000  1
  Zn  Zn9  1  0.000000  0.500000  0.000000  1
  Zn  Zn10  1  0.500000  0.000000  0.500000  1
  Zn  Zn11  1  0.000000  0.000000  0.000000  1
  F  F12  1  0.749711  0.486594  0.627477  1
  F  F13  1  0.249711  0.513406  0.872523  1
  F  F14  1  0.250289  0.513406  0.372523  1
  F  F15  1  0.750289  0.486594  0.127477  1
  F  F16  1  0.722791  0.615318  0.361603  1
  F  F17  1  0.222791  0.384682  0.138397  1
  F  F18  1  0.277209  0.384682  0.638397  1
  F  F19  1  0.777209  0.615318  0.861603  1
  F  F20  1  0.656070  0.249741  0.497830  1
  F  F21  1  0.156070  0.750259  0.002170  1
  F  F22  1  0.343930  0.750259  0.502170  1
  F  F23  1  0.843930  0.249741  0.997830  1
  F  F24  1  0.842028  0.052338  0.831206  1
  F  F25  1  0.342028  0.947662  0.668794  1
  F  F26  1  0.157972  0.947662  0.168794  1
  F  F27  1  0.657972  0.052338  0.331206  1
  F  F28  1  0.692511  0.892585  0.073139  1
  F  F29  1  0.192511  0.107415  0.426861  1
  F  F30  1  0.307489  0.107415  0.926861  1
  F  F31  1  0.807489  0.892585  0.573139  1
