# generated using pymatgen
data_La2AlGe3Pt2
_symmetry_space_group_name_H-M   'P 1'
_cell_length_a   9.12426699
_cell_length_b   9.12426732
_cell_length_c   4.37847800
_cell_angle_alpha   90.00000000
_cell_angle_beta   90.00000000
_cell_angle_gamma   28.01478409
_symmetry_Int_Tables_number   1
_chemical_formula_structural   La2AlGe3Pt2
_chemical_formula_sum   'La2 Al1 Ge3 Pt2'
_cell_volume   171.21394733
_cell_formula_units_Z   1
loop_
 _symmetry_equiv_pos_site_id
 _symmetry_equiv_pos_as_xyz
  1  'x, y, z'
loop_
 _atom_site_type_symbol
 _atom_site_label
 _atom_site_symmetry_multiplicity
 _atom_site_fract_x
 _atom_site_fract_y
 _atom_site_fract_z
 _atom_site_occupancy
  La  La0  1  0.107286  0.107286  0.250000  1
  La  La1  1  0.892500  0.892500  0.750000  1
  Al  Al2  1  0.751439  0.751439  0.250000  1
  Ge  Ge3  1  0.249524  0.249524  0.750000  1
  Ge  Ge4  1  0.462425  0.462425  0.250000  1
  Ge  Ge5  1  0.537040  0.537040  0.750000  1
  Pt  Pt6  1  0.322255  0.322255  0.250000  1
  Pt  Pt7  1  0.677533  0.677533  0.750000  1
