# generated using pymatgen
data_Pr8DyHoTl6
_symmetry_space_group_name_H-M   'P 1'
_cell_length_a   6.24938850
_cell_length_b   9.45134565
_cell_length_c   9.45134500
_cell_angle_alpha   83.72427902
_cell_angle_beta   70.63909888
_cell_angle_gamma   70.63910541
_symmetry_Int_Tables_number   1
_chemical_formula_structural   Pr8DyHoTl6
_chemical_formula_sum   'Pr8 Dy1 Ho1 Tl6'
_cell_volume   496.89160969
_cell_formula_units_Z   1
loop_
 _symmetry_equiv_pos_site_id
 _symmetry_equiv_pos_as_xyz
  1  'x, y, z'
loop_
 _atom_site_type_symbol
 _atom_site_label
 _atom_site_symmetry_multiplicity
 _atom_site_fract_x
 _atom_site_fract_y
 _atom_site_fract_z
 _atom_site_occupancy
  Pr  Pr0  1  0.722096  0.864911  0.691955  1
  Pr  Pr1  1  0.278280  0.135059  0.308066  1
  Pr  Pr2  1  0.777904  0.308045  0.135089  1
  Pr  Pr3  1  0.221720  0.691934  0.864941  1
  Pr  Pr4  1  0.586054  0.692135  0.135072  1
  Pr  Pr5  1  0.413406  0.307896  0.864950  1
  Pr  Pr6  1  0.086594  0.135050  0.692104  1
  Pr  Pr7  1  0.913946  0.864928  0.307865  1
  Dy  Dy8  1  0.750000  0.500013  0.499987  1
  Ho  Ho9  1  0.250000  0.499956  0.500044  1
  Tl  Tl10  1  0.157191  0.499891  0.186579  1
  Tl  Tl11  1  0.843361  0.500140  0.813375  1
  Tl  Tl12  1  0.342809  0.813421  0.500109  1
  Tl  Tl13  1  0.656639  0.186625  0.499860  1
  Tl  Tl14  1  0.250000  0.000002  0.999998  1
  Tl  Tl15  1  0.750000  0.999996  0.000004  1
