# generated using pymatgen
data_Th2Fe10P7Os2
_symmetry_space_group_name_H-M   'P 1'
_cell_length_a   9.08701953
_cell_length_b   9.09797424
_cell_length_c   3.75474700
_cell_angle_alpha   90.00000000
_cell_angle_beta   90.00000000
_cell_angle_gamma   120.20931038
_symmetry_Int_Tables_number   1
_chemical_formula_structural   Th2Fe10P7Os2
_chemical_formula_sum   'Th2 Fe10 P7 Os2'
_cell_volume   268.26104557
_cell_formula_units_Z   1
loop_
 _symmetry_equiv_pos_site_id
 _symmetry_equiv_pos_as_xyz
  1  'x, y, z'
loop_
 _atom_site_type_symbol
 _atom_site_label
 _atom_site_symmetry_multiplicity
 _atom_site_fract_x
 _atom_site_fract_y
 _atom_site_fract_z
 _atom_site_occupancy
  Th  Th0  1  0.331970  0.665520  0.000000  1
  Th  Th1  1  0.999503  0.998938  0.500000  1
  Fe  Fe2  1  0.031161  0.271754  0.000000  1
  Fe  Fe3  1  0.729155  0.761692  0.000000  1
  Fe  Fe4  1  0.239210  0.968125  0.000000  1
  Fe  Fe5  1  0.549095  0.062309  0.000000  1
  Fe  Fe6  1  0.938300  0.482300  0.000000  1
  Fe  Fe7  1  0.514841  0.453165  0.000000  1
  Fe  Fe8  1  0.614759  0.901073  0.500000  1
  Fe  Fe9  1  0.102844  0.714151  0.500000  1
  Fe  Fe10  1  0.283877  0.387225  0.500000  1
  Fe  Fe11  1  0.784142  0.237240  0.500000  1
  P  P12  1  0.768949  0.028649  0.000000  1
  P  P13  1  0.974497  0.740471  0.000000  1
  P  P14  1  0.257881  0.232373  0.000000  1
  P  P15  1  0.374855  0.932265  0.500000  1
  P  P16  1  0.061512  0.435345  0.500000  1
  P  P17  1  0.559453  0.629328  0.500000  1
  P  P18  1  0.667569  0.331837  0.000000  1
  Os  Os19  1  0.765117  0.549690  0.500000  1
  Os  Os20  1  0.451315  0.216544  0.500000  1
