# generated using pymatgen
data_Li3Eu3YAlPt4
_symmetry_space_group_name_H-M   'P 1'
_cell_length_a   4.16879400
_cell_length_b   7.25720882
_cell_length_c   8.41157598
_cell_angle_alpha   90.27957993
_cell_angle_beta   90.00000000
_cell_angle_gamma   90.00000000
_symmetry_Int_Tables_number   1
_chemical_formula_structural   Li3Eu3YAlPt4
_chemical_formula_sum   'Li3 Eu3 Y1 Al1 Pt4'
_cell_volume   254.47917980
_cell_formula_units_Z   1
loop_
 _symmetry_equiv_pos_site_id
 _symmetry_equiv_pos_as_xyz
  1  'x, y, z'
loop_
 _atom_site_type_symbol
 _atom_site_label
 _atom_site_symmetry_multiplicity
 _atom_site_fract_x
 _atom_site_fract_y
 _atom_site_fract_z
 _atom_site_occupancy
  Li  Li0  1  0.250000  0.135989  0.058233  1
  Li  Li1  1  0.250000  0.630863  0.440299  1
  Li  Li2  1  0.750000  0.868926  0.941180  1
  Eu  Eu3  1  0.250000  0.029380  0.686629  1
  Eu  Eu4  1  0.750000  0.962088  0.319126  1
  Eu  Eu5  1  0.750000  0.464212  0.180308  1
  Y  Y6  1  0.250000  0.537502  0.818087  1
  Al  Al7  1  0.750000  0.367532  0.561717  1
  Pt  Pt8  1  0.250000  0.272326  0.401103  1
  Pt  Pt9  1  0.250000  0.758714  0.108981  1
  Pt  Pt10  1  0.750000  0.714274  0.623926  1
  Pt  Pt11  1  0.750000  0.258192  0.860412  1
