# generated using pymatgen
data_Ba4ZnSi6Ag
_symmetry_space_group_name_H-M   'P 1'
_cell_length_a   12.56612348
_cell_length_b   10.95489299
_cell_length_c   8.67170707
_cell_angle_alpha   78.67788942
_cell_angle_beta   58.73920413
_cell_angle_gamma   42.58290726
_symmetry_Int_Tables_number   1
_chemical_formula_structural   Ba4ZnSi6Ag
_chemical_formula_sum   'Ba8 Zn2 Si12 Ag2'
_cell_volume   653.90503124
_cell_formula_units_Z   2
loop_
 _symmetry_equiv_pos_site_id
 _symmetry_equiv_pos_as_xyz
  1  'x, y, z'
loop_
 _atom_site_type_symbol
 _atom_site_label
 _atom_site_symmetry_multiplicity
 _atom_site_fract_x
 _atom_site_fract_y
 _atom_site_fract_z
 _atom_site_occupancy
  Ba  Ba0  1  0.125748  0.122705  0.874794  1
  Ba  Ba1  1  0.874795  0.876754  0.125747  1
  Ba  Ba2  1  0.127296  0.124253  0.373246  1
  Ba  Ba3  1  0.373247  0.375206  0.127295  1
  Ba  Ba4  1  0.623268  0.623231  0.376231  1
  Ba  Ba5  1  0.376231  0.377269  0.623268  1
  Ba  Ba6  1  0.626770  0.626732  0.872731  1
  Ba  Ba7  1  0.872732  0.873770  0.626769  1
  Zn  Zn8  1  0.082448  0.417552  0.082448  1
  Zn  Zn9  1  0.832448  0.167552  0.832448  1
  Si  Si10  1  0.913191  0.591029  0.425761  1
  Si  Si11  1  0.069806  0.423754  0.592126  1
  Si  Si12  1  0.425761  0.070020  0.913191  1
  Si  Si13  1  0.592126  0.914314  0.069806  1
  Si  Si14  1  0.335686  0.657874  0.826246  1
  Si  Si15  1  0.658971  0.336809  0.179980  1
  Si  Si16  1  0.826246  0.180194  0.335686  1
  Si  Si17  1  0.179980  0.824239  0.658971  1
  Si  Si18  1  0.911716  0.588285  0.911715  1
  Si  Si19  1  0.588059  0.911942  0.588058  1
  Si  Si20  1  0.338059  0.661942  0.338059  1
  Si  Si21  1  0.661715  0.338285  0.661715  1
  Ag  Ag22  1  0.166852  0.833148  0.166852  1
  Ag  Ag23  1  0.416852  0.083148  0.416852  1
