# generated using pymatgen
data_Pr3Ag(Rh2O7)2
_symmetry_space_group_name_H-M   'P 1'
_cell_length_a   7.46441474
_cell_length_b   7.26254511
_cell_length_c   7.46441400
_cell_angle_alpha   59.07617958
_cell_angle_beta   60.00000327
_cell_angle_gamma   59.07617845
_symmetry_Int_Tables_number   1
_chemical_formula_structural   Pr3Ag(Rh2O7)2
_chemical_formula_sum   'Pr3 Ag1 Rh4 O14'
_cell_volume   282.07055860
_cell_formula_units_Z   1
loop_
 _symmetry_equiv_pos_site_id
 _symmetry_equiv_pos_as_xyz
  1  'x, y, z'
loop_
 _atom_site_type_symbol
 _atom_site_label
 _atom_site_symmetry_multiplicity
 _atom_site_fract_x
 _atom_site_fract_y
 _atom_site_fract_z
 _atom_site_occupancy
  Pr  Pr0  1  0.125000  0.125000  0.125000  1
  Pr  Pr1  1  0.625000  0.125000  0.125000  1
  Pr  Pr2  1  0.125000  0.125000  0.625000  1
  Ag  Ag3  1  0.125000  0.625000  0.125000  1
  Rh  Rh4  1  0.625000  0.625000  0.625000  1
  Rh  Rh5  1  0.625000  0.625000  0.125000  1
  Rh  Rh6  1  0.125000  0.625000  0.625000  1
  Rh  Rh7  1  0.625000  0.125000  0.625000  1
  O  O8  1  0.242520  0.272440  0.242520  1
  O  O9  1  0.302220  0.700020  0.302220  1
  O  O10  1  0.956086  0.960831  0.541542  1
  O  O11  1  0.541542  0.960831  0.541542  1
  O  O12  1  0.695540  0.700020  0.302220  1
  O  O13  1  0.947780  0.549980  0.554460  1
  O  O14  1  0.708458  0.289169  0.708458  1
  O  O15  1  0.293914  0.289169  0.708458  1
  O  O16  1  0.708458  0.289169  0.293914  1
  O  O17  1  0.302220  0.700020  0.695540  1
  O  O18  1  0.947780  0.549980  0.947780  1
  O  O19  1  0.554460  0.549980  0.947780  1
  O  O20  1  0.007480  0.977560  0.007480  1
  O  O21  1  0.541542  0.960831  0.956086  1
