# generated using pymatgen
data_Ac(TcP)2
_symmetry_space_group_name_H-M   'P 1'
_cell_length_a   6.13892049
_cell_length_b   6.13891979
_cell_length_c   6.13892004
_cell_angle_alpha   139.82984883
_cell_angle_beta   139.82983447
_cell_angle_gamma   58.11174013
_symmetry_Int_Tables_number   1
_chemical_formula_structural   Ac(TcP)2
_chemical_formula_sum   'Ac1 Tc2 P2'
_cell_volume   95.40233889
_cell_formula_units_Z   1
loop_
 _symmetry_equiv_pos_site_id
 _symmetry_equiv_pos_as_xyz
  1  'x, y, z'
loop_
 _atom_site_type_symbol
 _atom_site_label
 _atom_site_symmetry_multiplicity
 _atom_site_fract_x
 _atom_site_fract_y
 _atom_site_fract_z
 _atom_site_occupancy
  Ac  Ac0  1  0.000000  0.000000  0.000000  1
  Tc  Tc1  1  0.750000  0.250000  0.500000  1
  Tc  Tc2  1  0.250000  0.750000  0.500000  1
  P  P3  1  0.650809  0.650809  0.000000  1
  P  P4  1  0.349191  0.349191  0.000000  1
