# generated using pymatgen
data_YbPdI26
_symmetry_space_group_name_H-M   'P 1'
_cell_length_a   12.75720831
_cell_length_b   11.33958152
_cell_length_c   15.00316049
_cell_angle_alpha   121.96338765
_cell_angle_beta   87.44377759
_cell_angle_gamma   104.88299626
_symmetry_Int_Tables_number   1
_chemical_formula_structural   YbPdI26
_chemical_formula_sum   'Yb1 Pd1 I26'
_cell_volume   1768.46414966
_cell_formula_units_Z   1
loop_
 _symmetry_equiv_pos_site_id
 _symmetry_equiv_pos_as_xyz
  1  'x, y, z'
loop_
 _atom_site_type_symbol
 _atom_site_label
 _atom_site_symmetry_multiplicity
 _atom_site_fract_x
 _atom_site_fract_y
 _atom_site_fract_z
 _atom_site_occupancy
  Yb  Yb0  1  0.322234  0.882262  0.948004  1
  Pd  Pd1  1  0.668020  0.124707  0.061370  1
  I  I2  1  0.384139  0.660922  0.984593  1
  I  I3  1  0.626778  0.319622  0.023967  1
  I  I4  1  0.593578  0.818078  0.408389  1
  I  I5  1  0.443707  0.199151  0.609759  1
  I  I6  1  0.727754  0.681551  0.999053  1
  I  I7  1  0.240781  0.299711  0.988232  1
  I  I8  1  0.707735  0.963051  0.137502  1
  I  I9  1  0.254520  0.021261  0.832338  1
  I  I10  1  0.474827  0.146385  0.150691  1
  I  I11  1  0.558271  0.896929  0.872567  1
  I  I12  1  0.240398  0.655958  0.705514  1
  I  I13  1  0.789014  0.337919  0.255955  1
  I  I14  1  0.097966  0.835895  0.025021  1
  I  I15  1  0.860266  0.118986  0.974292  1
  I  I16  1  0.064721  0.102712  0.225010  1
  I  I17  1  0.878516  0.860624  0.759435  1
  I  I18  1  0.281988  0.925313  0.469639  1
  I  I19  1  0.746518  0.098210  0.550169  1
  I  I20  1  0.343271  0.427400  0.651737  1
  I  I21  1  0.696654  0.585214  0.340226  1
  I  I22  1  0.879898  0.392327  0.705454  1
  I  I23  1  0.133148  0.641024  0.318812  1
  I  I24  1  0.950866  0.658627  0.573680  1
  I  I25  1  0.018730  0.340926  0.413393  1
  I  I26  1  0.252838  0.636158  0.140218  1
  I  I27  1  0.762862  0.369077  0.874981  1
