# generated using pymatgen
data_SmDy7(Tm3Sn4)4
_symmetry_space_group_name_H-M   'P 1'
_cell_length_a   7.99651743
_cell_length_b   8.11896133
_cell_length_c   15.32892600
_cell_angle_alpha   89.98369120
_cell_angle_beta   89.78666607
_cell_angle_gamma   90.00112485
_symmetry_Int_Tables_number   1
_chemical_formula_structural   SmDy7(Tm3Sn4)4
_chemical_formula_sum   'Sm1 Dy7 Tm12 Sn16'
_cell_volume   995.19929731
_cell_formula_units_Z   1
loop_
 _symmetry_equiv_pos_site_id
 _symmetry_equiv_pos_as_xyz
  1  'x, y, z'
loop_
 _atom_site_type_symbol
 _atom_site_label
 _atom_site_symmetry_multiplicity
 _atom_site_fract_x
 _atom_site_fract_y
 _atom_site_fract_z
 _atom_site_occupancy
  Sm  Sm0  1  0.517946  0.320336  0.903919  1
  Dy  Dy1  1  0.020931  0.177611  0.595898  1
  Dy  Dy2  1  0.478613  0.678582  0.402816  1
  Dy  Dy3  1  0.979564  0.821782  0.097101  1
  Dy  Dy4  1  0.479731  0.678884  0.097325  1
  Dy  Dy5  1  0.978570  0.821379  0.402807  1
  Dy  Dy6  1  0.522728  0.321118  0.597659  1
  Dy  Dy7  1  0.021777  0.178117  0.903373  1
  Tm  Tm8  1  0.365661  0.838283  0.877029  1
  Tm  Tm9  1  0.867066  0.661974  0.622926  1
  Tm  Tm10  1  0.633297  0.161860  0.377099  1
  Tm  Tm11  1  0.135085  0.337836  0.123717  1
  Tm  Tm12  1  0.634432  0.162406  0.123549  1
  Tm  Tm13  1  0.132740  0.337839  0.376764  1
  Tm  Tm14  1  0.366826  0.836587  0.622282  1
  Tm  Tm15  1  0.865315  0.663032  0.876619  1
  Tm  Tm16  1  0.197266  0.504297  0.749081  1
  Tm  Tm17  1  0.697052  0.996838  0.749340  1
  Tm  Tm18  1  0.802809  0.496325  0.250193  1
  Tm  Tm19  1  0.302544  0.003946  0.250598  1
  Sn  Sn20  1  0.295719  0.038886  0.041936  1
  Sn  Sn21  1  0.794311  0.461593  0.458281  1
  Sn  Sn22  1  0.705244  0.960972  0.541369  1
  Sn  Sn23  1  0.201224  0.541438  0.959249  1
  Sn  Sn24  1  0.705896  0.961341  0.958543  1
  Sn  Sn25  1  0.206298  0.536644  0.541388  1
  Sn  Sn26  1  0.294306  0.038231  0.458098  1
  Sn  Sn27  1  0.797808  0.462744  0.042655  1
  Sn  Sn28  1  0.563299  0.621678  0.750253  1
  Sn  Sn29  1  0.062797  0.879141  0.749690  1
  Sn  Sn30  1  0.437056  0.379810  0.250488  1
  Sn  Sn31  1  0.936782  0.120263  0.250050  1
  Sn  Sn32  1  0.327782  0.146760  0.748301  1
  Sn  Sn33  1  0.832418  0.351084  0.749809  1
  Sn  Sn34  1  0.669470  0.851295  0.249923  1
  Sn  Sn35  1  0.169639  0.649084  0.249872  1
