# generated using pymatgen
data_Th8Mn3Si12Hg
_symmetry_space_group_name_H-M   'P 1'
_cell_length_a   8.23878800
_cell_length_b   8.23878549
_cell_length_c   8.33725500
_cell_angle_alpha   90.00000000
_cell_angle_beta   90.00000000
_cell_angle_gamma   119.99993781
_symmetry_Int_Tables_number   1
_chemical_formula_structural   Th8Mn3Si12Hg
_chemical_formula_sum   'Th8 Mn3 Si12 Hg1'
_cell_volume   490.09527083
_cell_formula_units_Z   1
loop_
 _symmetry_equiv_pos_site_id
 _symmetry_equiv_pos_as_xyz
  1  'x, y, z'
loop_
 _atom_site_type_symbol
 _atom_site_label
 _atom_site_symmetry_multiplicity
 _atom_site_fract_x
 _atom_site_fract_y
 _atom_site_fract_z
 _atom_site_occupancy
  Th  Th0  1  0.492710  0.507277  0.758945  1
  Th  Th1  1  0.492879  0.507095  0.241053  1
  Th  Th2  1  0.014555  0.507276  0.758941  1
  Th  Th3  1  0.014212  0.507099  0.241058  1
  Th  Th4  1  0.492721  0.985440  0.758948  1
  Th  Th5  1  0.492886  0.985778  0.241050  1
  Th  Th6  1  0.999982  0.999983  0.753737  1
  Th  Th7  1  0.999986  0.999985  0.246243  1
  Mn  Mn8  1  0.666682  0.333377  0.999758  1
  Mn  Mn9  1  0.333431  0.666733  0.000433  1
  Mn  Mn10  1  0.333338  0.666649  0.499766  1
  Si  Si11  1  0.831217  0.168800  0.999911  1
  Si  Si12  1  0.169480  0.830531  0.000059  1
  Si  Si13  1  0.337617  0.168808  0.999909  1
  Si  Si14  1  0.171990  0.827982  0.499886  1
  Si  Si15  1  0.661093  0.830541  0.000063  1
  Si  Si16  1  0.842865  0.157103  0.500055  1
  Si  Si17  1  0.831211  0.662405  0.999912  1
  Si  Si18  1  0.655939  0.827968  0.499883  1
  Si  Si19  1  0.169485  0.338954  0.000059  1
  Si  Si20  1  0.314196  0.157092  0.500058  1
  Si  Si21  1  0.172007  0.344031  0.499887  1
  Si  Si22  1  0.842877  0.685767  0.500053  1
  Hg  Hg23  1  0.666640  0.333326  0.500334  1
