# generated using pymatgen
data_Ho6Zr2AlPd24
_symmetry_space_group_name_H-M   'P 1'
_cell_length_a   8.29506374
_cell_length_b   8.29506374
_cell_length_c   8.29506374
_cell_angle_alpha   89.73960721
_cell_angle_beta   89.73960721
_cell_angle_gamma   89.73960721
_symmetry_Int_Tables_number   1
_chemical_formula_structural   Ho6Zr2AlPd24
_chemical_formula_sum   'Ho6 Zr2 Al1 Pd24'
_cell_volume   570.74979898
_cell_formula_units_Z   1
loop_
 _symmetry_equiv_pos_site_id
 _symmetry_equiv_pos_as_xyz
  1  'x, y, z'
loop_
 _atom_site_type_symbol
 _atom_site_label
 _atom_site_symmetry_multiplicity
 _atom_site_fract_x
 _atom_site_fract_y
 _atom_site_fract_z
 _atom_site_occupancy
  Ho  Ho0  1  0.747799  0.747799  0.252053  1
  Ho  Ho1  1  0.747799  0.252053  0.747799  1
  Ho  Ho2  1  0.252201  0.252201  0.747947  1
  Ho  Ho3  1  0.252201  0.747947  0.252201  1
  Ho  Ho4  1  0.252053  0.747799  0.747799  1
  Ho  Ho5  1  0.747947  0.252201  0.252201  1
  Zr  Zr6  1  0.254608  0.254608  0.254608  1
  Zr  Zr7  1  0.745392  0.745392  0.745392  1
  Al  Al8  1  0.000000  0.000000  0.000000  1
  Pd  Pd9  1  0.259000  0.497682  0.003886  1
  Pd  Pd10  1  0.741000  0.502318  0.996114  1
  Pd  Pd11  1  0.003886  0.259000  0.497682  1
  Pd  Pd12  1  0.497682  0.259000  0.003886  1
  Pd  Pd13  1  0.996114  0.741000  0.502318  1
  Pd  Pd14  1  0.502318  0.741000  0.996114  1
  Pd  Pd15  1  0.497682  0.003886  0.259000  1
  Pd  Pd16  1  0.259000  0.003886  0.497682  1
  Pd  Pd17  1  0.502318  0.996114  0.741000  1
  Pd  Pd18  1  0.741000  0.996114  0.502318  1
  Pd  Pd19  1  0.003886  0.497682  0.259000  1
  Pd  Pd20  1  0.996114  0.502318  0.741000  1
  Pd  Pd21  1  0.252724  0.496975  0.496975  1
  Pd  Pd22  1  0.747276  0.503025  0.503025  1
  Pd  Pd23  1  0.496975  0.252724  0.496975  1
  Pd  Pd24  1  0.503025  0.747276  0.503025  1
  Pd  Pd25  1  0.496975  0.496975  0.252724  1
  Pd  Pd26  1  0.503025  0.503025  0.747276  1
  Pd  Pd27  1  0.287225  0.003099  0.003099  1
  Pd  Pd28  1  0.712775  0.996901  0.996901  1
  Pd  Pd29  1  0.003099  0.287225  0.003099  1
  Pd  Pd30  1  0.996901  0.712775  0.996901  1
  Pd  Pd31  1  0.003099  0.003099  0.287225  1
  Pd  Pd32  1  0.996901  0.996901  0.712775  1
