# generated using pymatgen
data_CaDyNi12As7
_symmetry_space_group_name_H-M   'P 1'
_cell_length_a   9.38780900
_cell_length_b   9.38780881
_cell_length_c   3.83261200
_cell_angle_alpha   90.00000000
_cell_angle_beta   90.00000000
_cell_angle_gamma   120.00001122
_symmetry_Int_Tables_number   1
_chemical_formula_structural   CaDyNi12As7
_chemical_formula_sum   'Ca1 Dy1 Ni12 As7'
_cell_volume   292.51889163
_cell_formula_units_Z   1
loop_
 _symmetry_equiv_pos_site_id
 _symmetry_equiv_pos_as_xyz
  1  'x, y, z'
loop_
 _atom_site_type_symbol
 _atom_site_label
 _atom_site_symmetry_multiplicity
 _atom_site_fract_x
 _atom_site_fract_y
 _atom_site_fract_z
 _atom_site_occupancy
  Ca  Ca0  1  0.666667  0.333333  0.500000  1
  Dy  Dy1  1  0.000000  0.000000  0.000000  1
  Ni  Ni2  1  0.386945  0.283308  0.000000  1
  Ni  Ni3  1  0.896362  0.613055  0.000000  1
  Ni  Ni4  1  0.716692  0.103638  0.000000  1
  Ni  Ni5  1  0.613298  0.795415  0.000000  1
  Ni  Ni6  1  0.182117  0.386702  0.000000  1
  Ni  Ni7  1  0.204585  0.817883  0.000000  1
  Ni  Ni8  1  0.758201  0.717338  0.500000  1
  Ni  Ni9  1  0.959138  0.241799  0.500000  1
  Ni  Ni10  1  0.282662  0.040862  0.500000  1
  Ni  Ni11  1  0.429604  0.553548  0.500000  1
  Ni  Ni12  1  0.123943  0.570396  0.500000  1
  Ni  Ni13  1  0.446452  0.876057  0.500000  1
  As  As14  1  0.619843  0.549940  0.000000  1
  As  As15  1  0.930097  0.380157  0.000000  1
  As  As16  1  0.450060  0.069903  0.000000  1
  As  As17  1  0.739276  0.965472  0.500000  1
  As  As18  1  0.226197  0.260724  0.500000  1
  As  As19  1  0.034528  0.773803  0.500000  1
  As  As20  1  0.333333  0.666667  0.000000  1
