# generated using pymatgen
data_TbPr7Nd8Cd3AgPt4
_symmetry_space_group_name_H-M   'P 1'
_cell_length_a   10.02282873
_cell_length_b   10.02282886
_cell_length_c   10.00047335
_cell_angle_alpha   60.23219000
_cell_angle_beta   60.23217701
_cell_angle_gamma   60.21876571
_symmetry_Int_Tables_number   1
_chemical_formula_structural   TbPr7Nd8Cd3AgPt4
_chemical_formula_sum   'Tb1 Pr7 Nd8 Cd3 Ag1 Pt4'
_cell_volume   714.03473678
_cell_formula_units_Z   1
loop_
 _symmetry_equiv_pos_site_id
 _symmetry_equiv_pos_as_xyz
  1  'x, y, z'
loop_
 _atom_site_type_symbol
 _atom_site_label
 _atom_site_symmetry_multiplicity
 _atom_site_fract_x
 _atom_site_fract_y
 _atom_site_fract_z
 _atom_site_occupancy
  Tb  Tb0  1  0.190343  0.190343  0.810944  1
  Pr  Pr1  1  0.809206  0.809206  0.189751  1
  Pr  Pr2  1  0.936589  0.561842  0.564506  1
  Pr  Pr3  1  0.559999  0.937432  0.935695  1
  Pr  Pr4  1  0.561842  0.936589  0.564506  1
  Pr  Pr5  1  0.937432  0.559999  0.935695  1
  Pr  Pr6  1  0.562434  0.562434  0.936086  1
  Pr  Pr7  1  0.935688  0.935688  0.561980  1
  Nd  Nd8  1  0.349153  0.349153  0.351776  1
  Nd  Nd9  1  0.351577  0.351577  0.943808  1
  Nd  Nd10  1  0.350545  0.946906  0.351684  1
  Nd  Nd11  1  0.946906  0.350545  0.351684  1
  Nd  Nd12  1  0.811658  0.191581  0.189203  1
  Nd  Nd13  1  0.190474  0.809933  0.809449  1
  Nd  Nd14  1  0.191581  0.811658  0.189203  1
  Nd  Nd15  1  0.809933  0.190474  0.809449  1
  Cd  Cd16  1  0.580417  0.580417  0.261244  1
  Cd  Cd17  1  0.579994  0.260570  0.580927  1
  Cd  Cd18  1  0.260570  0.579994  0.580927  1
  Ag  Ag19  1  0.582226  0.582226  0.582378  1
  Pt  Pt20  1  0.144811  0.144811  0.139335  1
  Pt  Pt21  1  0.143608  0.143608  0.573941  1
  Pt  Pt22  1  0.143651  0.569357  0.142910  1
  Pt  Pt23  1  0.569357  0.143651  0.142910  1
