# generated using pymatgen
data_TaAg4Te3O14
_symmetry_space_group_name_H-M   'P 1'
_cell_length_a   7.40248797
_cell_length_b   7.40248732
_cell_length_c   7.45013410
_cell_angle_alpha   120.30318045
_cell_angle_beta   117.87381553
_cell_angle_gamma   91.24007442
_symmetry_Int_Tables_number   1
_chemical_formula_structural   TaAg4Te3O14
_chemical_formula_sum   'Ta1 Ag4 Te3 O14'
_cell_volume   293.29518937
_cell_formula_units_Z   1
loop_
 _symmetry_equiv_pos_site_id
 _symmetry_equiv_pos_as_xyz
  1  'x, y, z'
loop_
 _atom_site_type_symbol
 _atom_site_label
 _atom_site_symmetry_multiplicity
 _atom_site_fract_x
 _atom_site_fract_y
 _atom_site_fract_z
 _atom_site_occupancy
  Ta  Ta0  1  0.500000  0.500000  0.500000  1
  Ag  Ag1  1  0.000000  0.500000  0.500000  1
  Ag  Ag2  1  0.500000  0.000000  0.500000  1
  Ag  Ag3  1  0.000000  0.500000  0.000000  1
  Ag  Ag4  1  0.000000  0.000000  0.500000  1
  Te  Te5  1  0.500000  0.500000  0.000000  1
  Te  Te6  1  0.000000  0.000000  0.000000  1
  Te  Te7  1  0.500000  0.000000  0.000000  1
  O  O8  1  0.540104  0.422648  0.731716  1
  O  O9  1  0.453860  0.177102  0.867317  1
  O  O10  1  0.809784  0.086543  0.132683  1
  O  O11  1  0.190932  0.308388  0.268284  1
  O  O12  1  0.459896  0.577352  0.268284  1
  O  O13  1  0.546140  0.822898  0.132683  1
  O  O14  1  0.190216  0.913457  0.867317  1
  O  O15  1  0.809068  0.691612  0.731716  1
  O  O16  1  0.584123  0.244972  0.329095  1
  O  O17  1  0.415877  0.755028  0.670905  1
  O  O18  1  0.188086  0.412319  0.781481  1
  O  O19  1  0.811914  0.587681  0.218519  1
  O  O20  1  0.869161  0.093395  0.781481  1
  O  O21  1  0.130839  0.906605  0.218519  1
