# generated using pymatgen
data_Er20Ir7Os4Pd
_symmetry_space_group_name_H-M   'P 1'
_cell_length_a   10.77807033
_cell_length_b   10.77807033
_cell_length_c   6.37882165
_cell_angle_alpha   90.05825035
_cell_angle_beta   90.05825035
_cell_angle_gamma   89.95202467
_symmetry_Int_Tables_number   1
_chemical_formula_structural   Er20Ir7Os4Pd
_chemical_formula_sum   'Er20 Ir7 Os4 Pd1'
_cell_volume   741.00627461
_cell_formula_units_Z   1
loop_
 _symmetry_equiv_pos_site_id
 _symmetry_equiv_pos_as_xyz
  1  'x, y, z'
loop_
 _atom_site_type_symbol
 _atom_site_label
 _atom_site_symmetry_multiplicity
 _atom_site_fract_x
 _atom_site_fract_y
 _atom_site_fract_z
 _atom_site_occupancy
  Er  Er0  1  0.293002  0.085589  0.376097  1
  Er  Er1  1  0.294131  0.913992  0.875538  1
  Er  Er2  1  0.703856  0.084389  0.869868  1
  Er  Er3  1  0.704408  0.909818  0.378429  1
  Er  Er4  1  0.585785  0.793302  0.876800  1
  Er  Er5  1  0.581292  0.206859  0.376857  1
  Er  Er6  1  0.413317  0.793349  0.376542  1
  Er  Er7  1  0.413704  0.206456  0.876901  1
  Er  Er8  1  0.206698  0.414215  0.623200  1
  Er  Er9  1  0.206651  0.586683  0.123458  1
  Er  Er10  1  0.793141  0.418708  0.123143  1
  Er  Er11  1  0.793544  0.586296  0.623099  1
  Er  Er12  1  0.914411  0.706998  0.123903  1
  Er  Er13  1  0.915611  0.296144  0.630132  1
  Er  Er14  1  0.086008  0.705869  0.624462  1
  Er  Er15  1  0.090182  0.295592  0.121571  1
  Er  Er16  1  0.001880  0.997569  0.501950  1
  Er  Er17  1  0.002431  0.998120  0.998050  1
  Er  Er18  1  0.499723  0.500035  0.999780  1
  Er  Er19  1  0.499965  0.500277  0.500220  1
  Ir  Ir20  1  0.848301  0.849191  0.750215  1
  Ir  Ir21  1  0.150809  0.151699  0.749785  1
  Ir  Ir22  1  0.152075  0.847925  0.250000  1
  Ir  Ir23  1  0.653010  0.346990  0.750000  1
  Ir  Ir24  1  0.652167  0.651930  0.250080  1
  Ir  Ir25  1  0.348070  0.347833  0.249920  1
  Ir  Ir26  1  0.347902  0.652098  0.750000  1
  Os  Os27  1  0.500653  0.000140  0.124296  1
  Os  Os28  1  0.500303  0.999844  0.622952  1
  Os  Os29  1  0.000156  0.499697  0.877048  1
  Os  Os30  1  0.999860  0.499347  0.375704  1
  Pd  Pd31  1  0.846953  0.153047  0.250000  1
