# generated using pymatgen
data_Dy3In4IrRh
_symmetry_space_group_name_H-M   'P 1'
_cell_length_a   7.94596000
_cell_length_b   7.94595945
_cell_length_c   3.77112400
_cell_angle_alpha   90.00000000
_cell_angle_beta   90.00000000
_cell_angle_gamma   120.00001063
_symmetry_Int_Tables_number   1
_chemical_formula_structural   Dy3In4IrRh
_chemical_formula_sum   'Dy3 In4 Ir1 Rh1'
_cell_volume   206.20259037
_cell_formula_units_Z   1
loop_
 _symmetry_equiv_pos_site_id
 _symmetry_equiv_pos_as_xyz
  1  'x, y, z'
loop_
 _atom_site_type_symbol
 _atom_site_label
 _atom_site_symmetry_multiplicity
 _atom_site_fract_x
 _atom_site_fract_y
 _atom_site_fract_z
 _atom_site_occupancy
  Dy  Dy0  1  0.045346  0.297072  0.500000  1
  Dy  Dy1  1  0.702928  0.748272  0.500000  1
  Dy  Dy2  1  0.251728  0.954654  0.500000  1
  In  In3  1  0.663165  0.076022  0.000000  1
  In  In4  1  0.923978  0.587145  0.000000  1
  In  In5  1  0.412855  0.336835  0.000000  1
  In  In6  1  0.333333  0.666667  0.000000  1
  Ir  Ir7  1  0.000000  0.000000  0.000000  1
  Rh  Rh8  1  0.666667  0.333333  0.500000  1
