# generated using pymatgen
data_Tb4HgIr
_symmetry_space_group_name_H-M   'P 1'
_cell_length_a   9.64418867
_cell_length_b   9.64418962
_cell_length_c   9.64418900
_cell_angle_alpha   59.99999871
_cell_angle_beta   59.99999543
_cell_angle_gamma   60.00000222
_symmetry_Int_Tables_number   1
_chemical_formula_structural   Tb4HgIr
_chemical_formula_sum   'Tb16 Hg4 Ir4'
_cell_volume   634.28164184
_cell_formula_units_Z   4
loop_
 _symmetry_equiv_pos_site_id
 _symmetry_equiv_pos_as_xyz
  1  'x, y, z'
loop_
 _atom_site_type_symbol
 _atom_site_label
 _atom_site_symmetry_multiplicity
 _atom_site_fract_x
 _atom_site_fract_y
 _atom_site_fract_z
 _atom_site_occupancy
  Tb  Tb0  1  0.600691  0.600691  0.600691  1
  Tb  Tb1  1  0.600691  0.600691  0.197929  1
  Tb  Tb2  1  0.600691  0.197929  0.600691  1
  Tb  Tb3  1  0.197929  0.600691  0.600691  1
  Tb  Tb4  1  0.059307  0.440693  0.440693  1
  Tb  Tb5  1  0.440693  0.059307  0.059307  1
  Tb  Tb6  1  0.440693  0.059307  0.440693  1
  Tb  Tb7  1  0.059307  0.440693  0.059307  1
  Tb  Tb8  1  0.440693  0.440693  0.059307  1
  Tb  Tb9  1  0.059307  0.059307  0.440693  1
  Tb  Tb10  1  0.189016  0.810984  0.810984  1
  Tb  Tb11  1  0.810984  0.189016  0.189016  1
  Tb  Tb12  1  0.810984  0.189016  0.810984  1
  Tb  Tb13  1  0.189016  0.810984  0.189016  1
  Tb  Tb14  1  0.810984  0.810984  0.189016  1
  Tb  Tb15  1  0.189016  0.189016  0.810984  1
  Hg  Hg16  1  0.835227  0.835227  0.835227  1
  Hg  Hg17  1  0.835227  0.835227  0.494320  1
  Hg  Hg18  1  0.835227  0.494320  0.835227  1
  Hg  Hg19  1  0.494320  0.835227  0.835227  1
  Ir  Ir20  1  0.391766  0.391766  0.391766  1
  Ir  Ir21  1  0.391766  0.391766  0.824701  1
  Ir  Ir22  1  0.391766  0.824701  0.391766  1
  Ir  Ir23  1  0.824701  0.391766  0.391766  1
