# generated using pymatgen
data_LuSc(IrO4)2
_symmetry_space_group_name_H-M   'P 1'
_cell_length_a   5.22426215
_cell_length_b   7.27653021
_cell_length_c   7.48495016
_cell_angle_alpha   80.68951343
_cell_angle_beta   86.96572836
_cell_angle_gamma   90.46666644
_symmetry_Int_Tables_number   1
_chemical_formula_structural   LuSc(IrO4)2
_chemical_formula_sum   'Lu2 Sc2 Ir4 O16'
_cell_volume   280.35423901
_cell_formula_units_Z   2
loop_
 _symmetry_equiv_pos_site_id
 _symmetry_equiv_pos_as_xyz
  1  'x, y, z'
loop_
 _atom_site_type_symbol
 _atom_site_label
 _atom_site_symmetry_multiplicity
 _atom_site_fract_x
 _atom_site_fract_y
 _atom_site_fract_z
 _atom_site_occupancy
  Lu  Lu0  1  0.753543  0.377239  0.373310  1
  Lu  Lu1  1  0.246457  0.622761  0.626690  1
  Sc  Sc2  1  0.715061  0.872400  0.333583  1
  Sc  Sc3  1  0.284939  0.127600  0.666417  1
  Ir  Ir4  1  0.777866  0.300866  0.839206  1
  Ir  Ir5  1  0.222134  0.699134  0.160794  1
  Ir  Ir6  1  0.252523  0.198622  0.168161  1
  Ir  Ir7  1  0.747477  0.801378  0.831839  1
  O  O8  1  0.897076  0.809725  0.065226  1
  O  O9  1  0.102924  0.190275  0.934774  1
  O  O10  1  0.379929  0.943682  0.176579  1
  O  O11  1  0.620071  0.056318  0.823421  1
  O  O12  1  0.094585  0.443120  0.174363  1
  O  O13  1  0.905415  0.556880  0.825637  1
  O  O14  1  0.582902  0.311849  0.063947  1
  O  O15  1  0.417098  0.688151  0.936053  1
  O  O16  1  0.996506  0.318093  0.604579  1
  O  O17  1  0.003494  0.681907  0.395421  1
  O  O18  1  0.425981  0.181146  0.402974  1
  O  O19  1  0.574019  0.818854  0.597026  1
  O  O20  1  0.495735  0.612859  0.326451  1
  O  O21  1  0.504265  0.387141  0.673549  1
  O  O22  1  0.928145  0.112017  0.297285  1
  O  O23  1  0.071855  0.887983  0.702715  1
