# generated using pymatgen
data_K3Ba3AlP4
_symmetry_space_group_name_H-M   'P 1'
_cell_length_a   10.22529300
_cell_length_b   10.22529368
_cell_length_c   7.85398200
_cell_angle_alpha   90.00000000
_cell_angle_beta   90.00000000
_cell_angle_gamma   120.00000102
_symmetry_Int_Tables_number   1
_chemical_formula_structural   K3Ba3AlP4
_chemical_formula_sum   'K6 Ba6 Al2 P8'
_cell_volume   711.16779333
_cell_formula_units_Z   2
loop_
 _symmetry_equiv_pos_site_id
 _symmetry_equiv_pos_as_xyz
  1  'x, y, z'
loop_
 _atom_site_type_symbol
 _atom_site_label
 _atom_site_symmetry_multiplicity
 _atom_site_fract_x
 _atom_site_fract_y
 _atom_site_fract_z
 _atom_site_occupancy
  K  K0  1  0.730693  0.865347  0.171543  1
  K  K1  1  0.865347  0.134653  0.671543  1
  K  K2  1  0.865347  0.730693  0.671543  1
  K  K3  1  0.134653  0.269307  0.171543  1
  K  K4  1  0.134653  0.865347  0.171543  1
  K  K5  1  0.269307  0.134653  0.671543  1
  Ba  Ba6  1  0.050147  0.525074  0.498485  1
  Ba  Ba7  1  0.474926  0.949853  0.498485  1
  Ba  Ba8  1  0.474926  0.525074  0.498485  1
  Ba  Ba9  1  0.525074  0.474926  0.998485  1
  Ba  Ba10  1  0.525074  0.050147  0.998485  1
  Ba  Ba11  1  0.949853  0.474926  0.998485  1
  Al  Al12  1  0.333333  0.666667  0.878792  1
  Al  Al13  1  0.666667  0.333333  0.378792  1
  P  P14  1  0.666667  0.333333  0.699371  1
  P  P15  1  0.596897  0.798449  0.780317  1
  P  P16  1  0.798449  0.201551  0.280317  1
  P  P17  1  0.798449  0.596897  0.280317  1
  P  P18  1  0.333333  0.666667  0.199371  1
  P  P19  1  0.201551  0.403103  0.780317  1
  P  P20  1  0.201551  0.798449  0.780317  1
  P  P21  1  0.403103  0.201551  0.280317  1
