# generated using pymatgen
data_Ti4B2MoSe
_symmetry_space_group_name_H-M   'P 1'
_cell_length_a   7.21473785
_cell_length_b   7.21473750
_cell_length_c   7.21473674
_cell_angle_alpha   130.30099611
_cell_angle_beta   130.30100049
_cell_angle_gamma   72.92603139
_symmetry_Int_Tables_number   1
_chemical_formula_structural   Ti4B2MoSe
_chemical_formula_sum   'Ti8 B4 Mo2 Se2'
_cell_volume   213.35091850
_cell_formula_units_Z   2
loop_
 _symmetry_equiv_pos_site_id
 _symmetry_equiv_pos_as_xyz
  1  'x, y, z'
loop_
 _atom_site_type_symbol
 _atom_site_label
 _atom_site_symmetry_multiplicity
 _atom_site_fract_x
 _atom_site_fract_y
 _atom_site_fract_z
 _atom_site_occupancy
  Ti  Ti0  1  0.804217  0.958636  0.500000  1
  Ti  Ti1  1  0.304217  0.804217  0.845581  1
  Ti  Ti2  1  0.195783  0.041364  0.500000  1
  Ti  Ti3  1  0.541364  0.695783  0.500000  1
  Ti  Ti4  1  0.041364  0.541364  0.845581  1
  Ti  Ti5  1  0.695783  0.195783  0.154419  1
  Ti  Ti6  1  0.958636  0.458636  0.154419  1
  Ti  Ti7  1  0.458636  0.304217  0.500000  1
  B  B8  1  0.389743  0.889743  0.279487  1
  B  B9  1  0.889743  0.610257  0.500000  1
  B  B10  1  0.610257  0.110257  0.720513  1
  B  B11  1  0.110257  0.389743  0.500000  1
  Mo  Mo12  1  0.000000  0.000000  0.000000  1
  Mo  Mo13  1  0.500000  0.500000  0.000000  1
  Se  Se14  1  0.750000  0.750000  0.000000  1
  Se  Se15  1  0.250000  0.250000  0.000000  1
