# generated using pymatgen
data_Cs5RbTi(VBr6)3
_symmetry_space_group_name_H-M   'P 1'
_cell_length_a   7.76498500
_cell_length_b   7.76498538
_cell_length_c   19.42675100
_cell_angle_alpha   90.00000000
_cell_angle_beta   90.00000000
_cell_angle_gamma   119.99999411
_symmetry_Int_Tables_number   1
_chemical_formula_structural   Cs5RbTi(VBr6)3
_chemical_formula_sum   'Cs5 Rb1 Ti1 V3 Br18'
_cell_volume   1014.40666678
_cell_formula_units_Z   1
loop_
 _symmetry_equiv_pos_site_id
 _symmetry_equiv_pos_as_xyz
  1  'x, y, z'
loop_
 _atom_site_type_symbol
 _atom_site_label
 _atom_site_symmetry_multiplicity
 _atom_site_fract_x
 _atom_site_fract_y
 _atom_site_fract_z
 _atom_site_occupancy
  Cs  Cs0  1  0.666667  0.333333  0.561897  1
  Cs  Cs1  1  0.333333  0.666667  0.067341  1
  Cs  Cs2  1  0.333333  0.666667  0.421316  1
  Cs  Cs3  1  0.666667  0.333333  0.936863  1
  Cs  Cs4  1  0.000000  0.000000  0.249945  1
  Rb  Rb5  1  0.000000  0.000000  0.762940  1
  Ti  Ti6  1  0.333333  0.666667  0.664241  1
  V  V7  1  0.666667  0.333333  0.334661  1
  V  V8  1  0.333333  0.666667  0.832928  1
  V  V9  1  0.666667  0.333333  0.167430  1
  Br  Br10  1  0.823293  0.646586  0.406531  1
  Br  Br11  1  0.176861  0.823139  0.594784  1
  Br  Br12  1  0.646278  0.823139  0.594784  1
  Br  Br13  1  0.823293  0.176707  0.406531  1
  Br  Br14  1  0.353414  0.176707  0.406531  1
  Br  Br15  1  0.176300  0.352600  0.903158  1
  Br  Br16  1  0.025665  0.512833  0.747857  1
  Br  Br17  1  0.647400  0.823700  0.903158  1
  Br  Br18  1  0.822621  0.645240  0.096391  1
  Br  Br19  1  0.176861  0.353722  0.594784  1
  Br  Br20  1  0.487167  0.974335  0.747857  1
  Br  Br21  1  0.514169  0.485831  0.251425  1
  Br  Br22  1  0.487167  0.512833  0.747857  1
  Br  Br23  1  0.176300  0.823700  0.903158  1
  Br  Br24  1  0.354760  0.177379  0.096391  1
  Br  Br25  1  0.971663  0.485831  0.251425  1
  Br  Br26  1  0.514169  0.028337  0.251425  1
  Br  Br27  1  0.822621  0.177379  0.096391  1
