# generated using pymatgen
data_Tm4Re7Mo
_symmetry_space_group_name_H-M   'P 1'
_cell_length_a   5.41398300
_cell_length_b   5.41398341
_cell_length_c   8.80960500
_cell_angle_alpha   90.00000000
_cell_angle_beta   90.00000000
_cell_angle_gamma   120.00000360
_symmetry_Int_Tables_number   1
_chemical_formula_structural   Tm4Re7Mo
_chemical_formula_sum   'Tm4 Re7 Mo1'
_cell_volume   223.62526110
_cell_formula_units_Z   1
loop_
 _symmetry_equiv_pos_site_id
 _symmetry_equiv_pos_as_xyz
  1  'x, y, z'
loop_
 _atom_site_type_symbol
 _atom_site_label
 _atom_site_symmetry_multiplicity
 _atom_site_fract_x
 _atom_site_fract_y
 _atom_site_fract_z
 _atom_site_occupancy
  Tm  Tm0  1  0.333333  0.666667  0.436485  1
  Tm  Tm1  1  0.666667  0.333333  0.563515  1
  Tm  Tm2  1  0.666667  0.333333  0.937508  1
  Tm  Tm3  1  0.333333  0.666667  0.062492  1
  Re  Re4  1  0.000000  0.000000  0.000000  1
  Re  Re5  1  0.827931  0.172069  0.248877  1
  Re  Re6  1  0.827931  0.655861  0.248877  1
  Re  Re7  1  0.344139  0.172069  0.248877  1
  Re  Re8  1  0.172069  0.827931  0.751123  1
  Re  Re9  1  0.172069  0.344139  0.751123  1
  Re  Re10  1  0.655861  0.827931  0.751123  1
  Mo  Mo11  1  0.000000  0.000000  0.500000  1
