# generated using pymatgen
data_Ho2TaMoO8
_symmetry_space_group_name_H-M   'P 1'
_cell_length_a   5.49778200
_cell_length_b   5.14748509
_cell_length_c   5.31870365
_cell_angle_alpha   83.48811089
_cell_angle_beta   90.00000000
_cell_angle_gamma   90.00000000
_symmetry_Int_Tables_number   1
_chemical_formula_structural   Ho2TaMoO8
_chemical_formula_sum   'Ho2 Ta1 Mo1 O8'
_cell_volume   149.54689798
_cell_formula_units_Z   1
loop_
 _symmetry_equiv_pos_site_id
 _symmetry_equiv_pos_as_xyz
  1  'x, y, z'
loop_
 _atom_site_type_symbol
 _atom_site_label
 _atom_site_symmetry_multiplicity
 _atom_site_fract_x
 _atom_site_fract_y
 _atom_site_fract_z
 _atom_site_occupancy
  Ho  Ho0  1  0.765776  0.000000  0.750000  1
  Ho  Ho1  1  0.236301  0.000000  0.250000  1
  Ta  Ta2  1  0.306781  0.500000  0.750000  1
  Mo  Mo3  1  0.696498  0.500000  0.250000  1
  O  O4  1  0.564779  0.265415  0.008690  1
  O  O5  1  0.564779  0.734585  0.491310  1
  O  O6  1  0.434736  0.732573  0.993778  1
  O  O7  1  0.434736  0.267427  0.506222  1
  O  O8  1  0.084888  0.751203  0.600544  1
  O  O9  1  0.084888  0.248797  0.899456  1
  O  O10  1  0.912918  0.242994  0.397535  1
  O  O11  1  0.912918  0.757006  0.102465  1
