# generated using pymatgen
data_PrLuFe4(CoB2)4
_symmetry_space_group_name_H-M   'P 1'
_cell_length_a   6.96688013
_cell_length_b   6.99571513
_cell_length_c   3.81569200
_cell_angle_alpha   90.00000000
_cell_angle_beta   90.00000000
_cell_angle_gamma   90.06526262
_symmetry_Int_Tables_number   1
_chemical_formula_structural   PrLuFe4(CoB2)4
_chemical_formula_sum   'Pr1 Lu1 Fe4 Co4 B8'
_cell_volume   185.97025421
_cell_formula_units_Z   1
loop_
 _symmetry_equiv_pos_site_id
 _symmetry_equiv_pos_as_xyz
  1  'x, y, z'
loop_
 _atom_site_type_symbol
 _atom_site_label
 _atom_site_symmetry_multiplicity
 _atom_site_fract_x
 _atom_site_fract_y
 _atom_site_fract_z
 _atom_site_occupancy
  Pr  Pr0  1  0.500000  0.500000  0.501077  1
  Lu  Lu1  1  0.000000  0.000000  0.002455  1
  Fe  Fe2  1  0.364057  0.113005  0.606632  1
  Fe  Fe3  1  0.635943  0.886995  0.606632  1
  Fe  Fe4  1  0.617266  0.130657  0.107025  1
  Fe  Fe5  1  0.382734  0.869343  0.107025  1
  Co  Co6  1  0.134247  0.380666  0.890492  1
  Co  Co7  1  0.865753  0.619334  0.890492  1
  Co  Co8  1  0.885887  0.358530  0.390232  1
  Co  Co9  1  0.114113  0.641470  0.390232  1
  B  B10  1  0.668359  0.807693  0.104931  1
  B  B11  1  0.331641  0.192307  0.104931  1
  B  B12  1  0.294061  0.837777  0.608515  1
  B  B13  1  0.705939  0.162223  0.608515  1
  B  B14  1  0.838884  0.709193  0.393885  1
  B  B15  1  0.161116  0.290807  0.393885  1
  B  B16  1  0.194053  0.667386  0.896521  1
  B  B17  1  0.805947  0.332614  0.896521  1
