# generated using pymatgen
data_La4Zn3Si3Ge2
_symmetry_space_group_name_H-M   'P 1'
_cell_length_a   4.24208600
_cell_length_b   4.24208629
_cell_length_c   17.40993400
_cell_angle_alpha   90.00000000
_cell_angle_beta   90.00000000
_cell_angle_gamma   120.00001332
_symmetry_Int_Tables_number   1
_chemical_formula_structural   La4Zn3Si3Ge2
_chemical_formula_sum   'La4 Zn3 Si3 Ge2'
_cell_volume   271.32303438
_cell_formula_units_Z   1
loop_
 _symmetry_equiv_pos_site_id
 _symmetry_equiv_pos_as_xyz
  1  'x, y, z'
loop_
 _atom_site_type_symbol
 _atom_site_label
 _atom_site_symmetry_multiplicity
 _atom_site_fract_x
 _atom_site_fract_y
 _atom_site_fract_z
 _atom_site_occupancy
  La  La0  1  0.333333  0.666667  0.119022  1
  La  La1  1  0.333333  0.666667  0.624936  1
  La  La2  1  0.333333  0.666667  0.375064  1
  La  La3  1  0.333333  0.666667  0.880978  1
  Zn  Zn4  1  0.666667  0.333333  0.500000  1
  Zn  Zn5  1  0.000000  0.000000  0.249368  1
  Zn  Zn6  1  0.000000  0.000000  0.750632  1
  Si  Si7  1  0.000000  0.000000  0.000000  1
  Si  Si8  1  0.000000  0.000000  0.500000  1
  Si  Si9  1  0.666667  0.333333  0.000000  1
  Ge  Ge10  1  0.666667  0.333333  0.250683  1
  Ge  Ge11  1  0.666667  0.333333  0.749317  1
