# generated using pymatgen
data_ErMn3VCoP3
_symmetry_space_group_name_H-M   'P 1'
_cell_length_a   3.59681900
_cell_length_b   10.57800300
_cell_length_c   12.22755500
_cell_angle_alpha   90.00000000
_cell_angle_beta   90.00000000
_cell_angle_gamma   90.00000000
_symmetry_Int_Tables_number   1
_chemical_formula_structural   ErMn3VCoP3
_chemical_formula_sum   'Er4 Mn12 V4 Co4 P12'
_cell_volume   465.22376806
_cell_formula_units_Z   4
loop_
 _symmetry_equiv_pos_site_id
 _symmetry_equiv_pos_as_xyz
  1  'x, y, z'
loop_
 _atom_site_type_symbol
 _atom_site_label
 _atom_site_symmetry_multiplicity
 _atom_site_fract_x
 _atom_site_fract_y
 _atom_site_fract_z
 _atom_site_occupancy
  Er  Er0  1  0.250000  0.583513  0.708664  1
  Er  Er1  1  0.250000  0.916487  0.208664  1
  Er  Er2  1  0.750000  0.416487  0.291336  1
  Er  Er3  1  0.750000  0.083513  0.791336  1
  Mn  Mn4  1  0.250000  0.408265  0.492247  1
  Mn  Mn5  1  0.250000  0.091735  0.992247  1
  Mn  Mn6  1  0.750000  0.591735  0.507753  1
  Mn  Mn7  1  0.750000  0.908265  0.007753  1
  Mn  Mn8  1  0.250000  0.216211  0.177860  1
  Mn  Mn9  1  0.250000  0.283789  0.677860  1
  Mn  Mn10  1  0.750000  0.783789  0.822140  1
  Mn  Mn11  1  0.750000  0.716211  0.322140  1
  Mn  Mn12  1  0.250000  0.879655  0.697075  1
  Mn  Mn13  1  0.250000  0.620345  0.197075  1
  Mn  Mn14  1  0.750000  0.120345  0.302925  1
  Mn  Mn15  1  0.750000  0.379655  0.802925  1
  V  V16  1  0.250000  0.704660  0.988317  1
  V  V17  1  0.250000  0.795340  0.488317  1
  V  V18  1  0.750000  0.295340  0.011683  1
  V  V19  1  0.750000  0.204660  0.511683  1
  Co  Co20  1  0.250000  0.464424  0.935391  1
  Co  Co21  1  0.250000  0.035576  0.435391  1
  Co  Co22  1  0.750000  0.535576  0.064609  1
  Co  Co23  1  0.750000  0.964424  0.564609  1
  P  P24  1  0.250000  0.420533  0.113620  1
  P  P25  1  0.250000  0.079467  0.613620  1
  P  P26  1  0.750000  0.579467  0.886380  1
  P  P27  1  0.750000  0.920533  0.386380  1
  P  P28  1  0.250000  0.264841  0.870208  1
  P  P29  1  0.250000  0.235159  0.370208  1
  P  P30  1  0.750000  0.735159  0.129792  1
  P  P31  1  0.750000  0.764841  0.629792  1
  P  P32  1  0.250000  0.593392  0.385993  1
  P  P33  1  0.250000  0.906608  0.885993  1
  P  P34  1  0.750000  0.406608  0.614007  1
  P  P35  1  0.750000  0.093392  0.114007  1
