# generated using pymatgen
data_Dy12Al3Zn9C4
_symmetry_space_group_name_H-M   'P 1'
_cell_length_a   9.17774361
_cell_length_b   9.17774419
_cell_length_c   9.20694712
_cell_angle_alpha   60.10487119
_cell_angle_beta   60.10486692
_cell_angle_gamma   60.00000324
_symmetry_Int_Tables_number   1
_chemical_formula_structural   Dy12Al3Zn9C4
_chemical_formula_sum   'Dy12 Al3 Zn9 C4'
_cell_volume   549.23614924
_cell_formula_units_Z   1
loop_
 _symmetry_equiv_pos_site_id
 _symmetry_equiv_pos_as_xyz
  1  'x, y, z'
loop_
 _atom_site_type_symbol
 _atom_site_label
 _atom_site_symmetry_multiplicity
 _atom_site_fract_x
 _atom_site_fract_y
 _atom_site_fract_z
 _atom_site_occupancy
  Dy  Dy0  1  0.446118  0.446118  0.054422  1
  Dy  Dy1  1  0.053342  0.446118  0.054422  1
  Dy  Dy2  1  0.446118  0.053342  0.054422  1
  Dy  Dy3  1  0.053898  0.053898  0.445768  1
  Dy  Dy4  1  0.446436  0.053898  0.445768  1
  Dy  Dy5  1  0.053898  0.446436  0.445768  1
  Dy  Dy6  1  0.803882  0.803882  0.195578  1
  Dy  Dy7  1  0.196658  0.803882  0.195578  1
  Dy  Dy8  1  0.803882  0.196658  0.195578  1
  Dy  Dy9  1  0.196102  0.196102  0.804232  1
  Dy  Dy10  1  0.803564  0.196102  0.804232  1
  Dy  Dy11  1  0.196102  0.803564  0.804232  1
  Al  Al12  1  0.625000  0.125000  0.625000  1
  Al  Al13  1  0.125000  0.625000  0.625000  1
  Al  Al14  1  0.625000  0.625000  0.625000  1
  Zn  Zn15  1  0.827484  0.827484  0.517549  1
  Zn  Zn16  1  0.825952  0.518916  0.829181  1
  Zn  Zn17  1  0.518916  0.825952  0.829181  1
  Zn  Zn18  1  0.825952  0.825952  0.829181  1
  Zn  Zn19  1  0.422516  0.422516  0.732451  1
  Zn  Zn20  1  0.424048  0.731084  0.420819  1
  Zn  Zn21  1  0.731084  0.424048  0.420819  1
  Zn  Zn22  1  0.424048  0.424048  0.420819  1
  Zn  Zn23  1  0.625000  0.625000  0.125000  1
  C  C24  1  0.125000  0.125000  0.625000  1
  C  C25  1  0.125000  0.625000  0.125000  1
  C  C26  1  0.625000  0.125000  0.125000  1
  C  C27  1  0.125000  0.125000  0.125000  1
