# generated using pymatgen
data_Y4UGa15
_symmetry_space_group_name_H-M   'P 1'
_cell_length_a   12.39352143
_cell_length_b   12.39352125
_cell_length_c   12.39352002
_cell_angle_alpha   28.69749441
_cell_angle_beta   28.69749834
_cell_angle_gamma   28.69749774
_symmetry_Int_Tables_number   1
_chemical_formula_structural   Y4UGa15
_chemical_formula_sum   'Y4 U1 Ga15'
_cell_volume   388.06724468
_cell_formula_units_Z   1
loop_
 _symmetry_equiv_pos_site_id
 _symmetry_equiv_pos_as_xyz
  1  'x, y, z'
loop_
 _atom_site_type_symbol
 _atom_site_label
 _atom_site_symmetry_multiplicity
 _atom_site_fract_x
 _atom_site_fract_y
 _atom_site_fract_z
 _atom_site_occupancy
  Y  Y0  1  0.000466  0.000466  0.000466  1
  Y  Y1  1  0.130282  0.130282  0.130282  1
  Y  Y2  1  0.599309  0.599309  0.599309  1
  Y  Y3  1  0.400674  0.400674  0.400674  1
  U  U4  1  0.870221  0.870221  0.870221  1
  Ga  Ga5  1  0.499625  0.499625  0.999810  1
  Ga  Ga6  1  0.999810  0.499625  0.499625  1
  Ga  Ga7  1  0.499625  0.999810  0.499625  1
  Ga  Ga8  1  0.364369  0.868726  0.364369  1
  Ga  Ga9  1  0.364369  0.364369  0.868726  1
  Ga  Ga10  1  0.868726  0.364369  0.364369  1
  Ga  Ga11  1  0.639980  0.123782  0.639980  1
  Ga  Ga12  1  0.639980  0.639980  0.123782  1
  Ga  Ga13  1  0.123782  0.639980  0.639980  1
  Ga  Ga14  1  0.117009  0.566887  0.117009  1
  Ga  Ga15  1  0.117009  0.117009  0.566887  1
  Ga  Ga16  1  0.566887  0.117009  0.117009  1
  Ga  Ga17  1  0.880049  0.437783  0.880049  1
  Ga  Ga18  1  0.880049  0.880049  0.437783  1
  Ga  Ga19  1  0.437783  0.880049  0.880049  1
