# generated using pymatgen
data_K4VFeF10
_symmetry_space_group_name_H-M   'P 1'
_cell_length_a   7.24826001
_cell_length_b   7.24825968
_cell_length_c   7.49420985
_cell_angle_alpha   64.72585153
_cell_angle_beta   64.72585430
_cell_angle_gamma   47.48927738
_symmetry_Int_Tables_number   1
_chemical_formula_structural   K4VFeF10
_chemical_formula_sum   'K4 V1 Fe1 F10'
_cell_volume   256.72910821
_cell_formula_units_Z   1
loop_
 _symmetry_equiv_pos_site_id
 _symmetry_equiv_pos_as_xyz
  1  'x, y, z'
loop_
 _atom_site_type_symbol
 _atom_site_label
 _atom_site_symmetry_multiplicity
 _atom_site_fract_x
 _atom_site_fract_y
 _atom_site_fract_z
 _atom_site_occupancy
  K  K0  1  0.476109  0.476109  0.248216  1
  K  K1  1  0.524574  0.524574  0.751217  1
  K  K2  1  0.166403  0.166403  0.226541  1
  K  K3  1  0.833152  0.833152  0.773432  1
  V  V4  1  0.189736  0.189736  0.714935  1
  Fe  Fe5  1  0.810681  0.810681  0.283702  1
  F  F6  1  0.998251  0.502053  0.499312  1
  F  F7  1  0.502053  0.998251  0.499312  1
  F  F8  1  0.056559  0.056559  0.669657  1
  F  F9  1  0.942804  0.942804  0.329471  1
  F  F10  1  0.344091  0.344091  0.688952  1
  F  F11  1  0.656731  0.656731  0.310358  1
  F  F12  1  0.896745  0.379949  0.917356  1
  F  F13  1  0.379949  0.896745  0.917356  1
  F  F14  1  0.100824  0.621338  0.085091  1
  F  F15  1  0.621338  0.100824  0.085091  1
