# generated using pymatgen
data_Dy8TaNb11Si16
_symmetry_space_group_name_H-M   'P 1'
_cell_length_a   7.07195661
_cell_length_b   7.07195664
_cell_length_c   13.05278625
_cell_angle_alpha   90.02094731
_cell_angle_beta   89.97905207
_cell_angle_gamma   90.03138829
_symmetry_Int_Tables_number   1
_chemical_formula_structural   Dy8TaNb11Si16
_chemical_formula_sum   'Dy8 Ta1 Nb11 Si16'
_cell_volume   652.80320744
_cell_formula_units_Z   1
loop_
 _symmetry_equiv_pos_site_id
 _symmetry_equiv_pos_as_xyz
  1  'x, y, z'
loop_
 _atom_site_type_symbol
 _atom_site_label
 _atom_site_symmetry_multiplicity
 _atom_site_fract_x
 _atom_site_fract_y
 _atom_site_fract_z
 _atom_site_occupancy
  Dy  Dy0  1  0.997326  0.657704  0.032629  1
  Dy  Dy1  1  0.002287  0.342343  0.532551  1
  Dy  Dy2  1  0.657704  0.997326  0.967371  1
  Dy  Dy3  1  0.157423  0.502576  0.782523  1
  Dy  Dy4  1  0.842625  0.497821  0.282270  1
  Dy  Dy5  1  0.502576  0.157423  0.217477  1
  Dy  Dy6  1  0.497821  0.842625  0.717730  1
  Dy  Dy7  1  0.342343  0.002287  0.467449  1
  Ta  Ta8  1  0.328056  0.328056  0.000000  1
  Nb  Nb9  1  0.347103  0.506992  0.375939  1
  Nb  Nb10  1  0.847174  0.992866  0.374020  1
  Nb  Nb11  1  0.007055  0.153206  0.125892  1
  Nb  Nb12  1  0.992866  0.847174  0.625980  1
  Nb  Nb13  1  0.506992  0.347103  0.624061  1
  Nb  Nb14  1  0.153206  0.007055  0.874108  1
  Nb  Nb15  1  0.671834  0.671834  0.500000  1
  Nb  Nb16  1  0.828031  0.172053  0.750221  1
  Nb  Nb17  1  0.172053  0.828031  0.249779  1
  Nb  Nb18  1  0.492731  0.653105  0.123834  1
  Nb  Nb19  1  0.653105  0.492731  0.876166  1
  Si  Si20  1  0.046571  0.706997  0.436290  1
  Si  Si21  1  0.954365  0.293094  0.936622  1
  Si  Si22  1  0.706997  0.046571  0.563710  1
  Si  Si23  1  0.207294  0.453068  0.185856  1
  Si  Si24  1  0.793022  0.546532  0.686460  1
  Si  Si25  1  0.453068  0.207294  0.814144  1
  Si  Si26  1  0.546532  0.793022  0.313540  1
  Si  Si27  1  0.293094  0.954365  0.063378  1
  Si  Si28  1  0.796126  0.866532  0.182443  1
  Si  Si29  1  0.296243  0.633690  0.567513  1
  Si  Si30  1  0.702640  0.365993  0.067174  1
  Si  Si31  1  0.633690  0.296243  0.432487  1
  Si  Si32  1  0.365993  0.702640  0.932826  1
  Si  Si33  1  0.133594  0.203926  0.317358  1
  Si  Si34  1  0.203926  0.133594  0.682642  1
  Si  Si35  1  0.866532  0.796126  0.817557  1
