# generated using pymatgen
data_Ho2HfZrIr2
_symmetry_space_group_name_H-M   'P 1'
_cell_length_a   4.55295600
_cell_length_b   7.11475900
_cell_length_c   8.33456600
_cell_angle_alpha   90.00000000
_cell_angle_beta   90.00000000
_cell_angle_gamma   90.00000000
_symmetry_Int_Tables_number   1
_chemical_formula_structural   Ho2HfZrIr2
_chemical_formula_sum   'Ho4 Hf2 Zr2 Ir4'
_cell_volume   269.98313565
_cell_formula_units_Z   2
loop_
 _symmetry_equiv_pos_site_id
 _symmetry_equiv_pos_as_xyz
  1  'x, y, z'
loop_
 _atom_site_type_symbol
 _atom_site_label
 _atom_site_symmetry_multiplicity
 _atom_site_fract_x
 _atom_site_fract_y
 _atom_site_fract_z
 _atom_site_occupancy
  Ho  Ho0  1  0.250000  0.015312  0.324480  1
  Ho  Ho1  1  0.250000  0.515312  0.175520  1
  Ho  Ho2  1  0.750000  0.982743  0.676901  1
  Ho  Ho3  1  0.750000  0.482743  0.823099  1
  Hf  Hf4  1  0.250000  0.142176  0.926469  1
  Hf  Hf5  1  0.250000  0.642176  0.573531  1
  Zr  Zr6  1  0.750000  0.857733  0.071978  1
  Zr  Zr7  1  0.750000  0.357733  0.428022  1
  Ir  Ir8  1  0.250000  0.268696  0.596960  1
  Ir  Ir9  1  0.250000  0.768696  0.903040  1
  Ir  Ir10  1  0.750000  0.733339  0.409977  1
  Ir  Ir11  1  0.750000  0.233339  0.090023  1
