# generated using pymatgen
data_CeEr(MgRh)2
_symmetry_space_group_name_H-M   'P 1'
_cell_length_a   3.99305700
_cell_length_b   7.14172689
_cell_length_c   8.78601813
_cell_angle_alpha   91.49588200
_cell_angle_beta   90.00000000
_cell_angle_gamma   90.00000000
_symmetry_Int_Tables_number   1
_chemical_formula_structural   CeEr(MgRh)2
_chemical_formula_sum   'Ce2 Er2 Mg4 Rh4'
_cell_volume   250.46832530
_cell_formula_units_Z   2
loop_
 _symmetry_equiv_pos_site_id
 _symmetry_equiv_pos_as_xyz
  1  'x, y, z'
loop_
 _atom_site_type_symbol
 _atom_site_label
 _atom_site_symmetry_multiplicity
 _atom_site_fract_x
 _atom_site_fract_y
 _atom_site_fract_z
 _atom_site_occupancy
  Ce  Ce0  1  0.250000  0.531843  0.186223  1
  Ce  Ce1  1  0.750000  0.468157  0.813777  1
  Er  Er2  1  0.750000  0.960988  0.673218  1
  Er  Er3  1  0.250000  0.039012  0.326782  1
  Mg  Mg4  1  0.250000  0.640189  0.553863  1
  Mg  Mg5  1  0.750000  0.359811  0.446137  1
  Mg  Mg6  1  0.750000  0.868767  0.060059  1
  Mg  Mg7  1  0.250000  0.131233  0.939941  1
  Rh  Rh8  1  0.250000  0.738957  0.864908  1
  Rh  Rh9  1  0.750000  0.261043  0.135092  1
  Rh  Rh10  1  0.750000  0.748775  0.360355  1
  Rh  Rh11  1  0.250000  0.251225  0.639645  1
