# generated using pymatgen
data_TaTi2Nb5O12
_symmetry_space_group_name_H-M   'P 1'
_cell_length_a   6.70918904
_cell_length_b   6.69755896
_cell_length_c   6.70398823
_cell_angle_alpha   73.35984741
_cell_angle_beta   73.19776026
_cell_angle_gamma   73.39484161
_symmetry_Int_Tables_number   1
_chemical_formula_structural   TaTi2Nb5O12
_chemical_formula_sum   'Ta1 Ti2 Nb5 O12'
_cell_volume   269.45541926
_cell_formula_units_Z   1
loop_
 _symmetry_equiv_pos_site_id
 _symmetry_equiv_pos_as_xyz
  1  'x, y, z'
loop_
 _atom_site_type_symbol
 _atom_site_label
 _atom_site_symmetry_multiplicity
 _atom_site_fract_x
 _atom_site_fract_y
 _atom_site_fract_z
 _atom_site_occupancy
  Ta  Ta0  1  0.944460  0.118268  0.704268  1
  Ti  Ti1  1  0.275630  0.273738  0.271408  1
  Ti  Ti2  1  0.726346  0.724349  0.727561  1
  Nb  Nb3  1  0.705040  0.943715  0.118739  1
  Nb  Nb4  1  0.117860  0.705379  0.944604  1
  Nb  Nb5  1  0.055647  0.881792  0.295624  1
  Nb  Nb6  1  0.295652  0.055542  0.882503  1
  Nb  Nb7  1  0.882986  0.294576  0.057322  1
  O  O8  1  0.172695  0.570058  0.258826  1
  O  O9  1  0.253944  0.172414  0.570009  1
  O  O10  1  0.570317  0.259486  0.173101  1
  O  O11  1  0.827969  0.426725  0.738711  1
  O  O12  1  0.741310  0.826879  0.430276  1
  O  O13  1  0.430666  0.740783  0.827152  1
  O  O14  1  0.650995  0.036531  0.795260  1
  O  O15  1  0.798873  0.648092  0.031995  1
  O  O16  1  0.963579  0.199863  0.357053  1
  O  O17  1  0.200537  0.351906  0.967755  1
  O  O18  1  0.352193  0.966263  0.200794  1
  O  O19  1  0.033301  0.803641  0.647038  1
