# generated using pymatgen
data_Dy2LuZn3Ge2Pt
_symmetry_space_group_name_H-M   'P 1'
_cell_length_a   6.90193380
_cell_length_b   6.90193491
_cell_length_c   4.26998600
_cell_angle_alpha   90.00000000
_cell_angle_beta   90.00000000
_cell_angle_gamma   119.85146196
_symmetry_Int_Tables_number   1
_chemical_formula_structural   Dy2LuZn3Ge2Pt
_chemical_formula_sum   'Dy2 Lu1 Zn3 Ge2 Pt1'
_cell_volume   176.41959693
_cell_formula_units_Z   1
loop_
 _symmetry_equiv_pos_site_id
 _symmetry_equiv_pos_as_xyz
  1  'x, y, z'
loop_
 _atom_site_type_symbol
 _atom_site_label
 _atom_site_symmetry_multiplicity
 _atom_site_fract_x
 _atom_site_fract_y
 _atom_site_fract_z
 _atom_site_occupancy
  Dy  Dy0  1  0.586434  0.999716  0.500000  1
  Dy  Dy1  1  0.999716  0.586434  0.500000  1
  Lu  Lu2  1  0.411924  0.411924  0.500000  1
  Zn  Zn3  1  0.762197  0.762197  0.000000  1
  Zn  Zn4  1  0.237321  0.001185  0.000000  1
  Zn  Zn5  1  0.001185  0.237321  0.000000  1
  Ge  Ge6  1  0.665076  0.333898  0.000000  1
  Ge  Ge7  1  0.333898  0.665076  0.000000  1
  Pt  Pt8  1  0.002249  0.002249  0.500000  1
