# generated using pymatgen
data_Tb5P12Ir5Rh14
_symmetry_space_group_name_H-M   'P 1'
_cell_length_a   12.72691096
_cell_length_b   12.71151358
_cell_length_c   3.93334200
_cell_angle_alpha   90.00000000
_cell_angle_beta   90.00000000
_cell_angle_gamma   119.96532392
_symmetry_Int_Tables_number   1
_chemical_formula_structural   Tb5P12Ir5Rh14
_chemical_formula_sum   'Tb5 P12 Ir5 Rh14'
_cell_volume   551.26987140
_cell_formula_units_Z   1
loop_
 _symmetry_equiv_pos_site_id
 _symmetry_equiv_pos_as_xyz
  1  'x, y, z'
loop_
 _atom_site_type_symbol
 _atom_site_label
 _atom_site_symmetry_multiplicity
 _atom_site_fract_x
 _atom_site_fract_y
 _atom_site_fract_z
 _atom_site_occupancy
  Tb  Tb0  1  0.333993  0.667160  0.500000  1
  Tb  Tb1  1  0.665987  0.333200  0.500000  1
  Tb  Tb2  1  0.186509  0.186506  0.000000  1
  Tb  Tb3  1  0.813664  0.000312  0.000000  1
  Tb  Tb4  1  0.000096  0.814572  0.000000  1
  P  P5  1  0.315031  0.831724  0.000000  1
  P  P6  1  0.169521  0.483351  0.000000  1
  P  P7  1  0.517268  0.685033  0.000000  1
  P  P8  1  0.831074  0.314174  0.000000  1
  P  P9  1  0.483102  0.167998  0.000000  1
  P  P10  1  0.684728  0.516351  0.000000  1
  P  P11  1  0.363223  0.363195  0.500000  1
  P  P12  1  0.636285  0.000080  0.500000  1
  P  P13  1  0.000270  0.637386  0.500000  1
  P  P14  1  0.820406  0.820647  0.500000  1
  P  P15  1  0.179601  0.999854  0.500000  1
  P  P16  1  0.000227  0.179968  0.500000  1
  Ir  Ir17  1  0.867941  0.509769  0.000000  1
  Ir  Ir18  1  0.717210  0.716442  0.000000  1
  Ir  Ir19  1  0.283189  0.999916  0.000000  1
  Ir  Ir20  1  0.000300  0.283865  0.000000  1
  Ir  Ir21  1  0.999962  0.000049  0.500000  1
  Rh  Rh22  1  0.195953  0.819167  0.500000  1
  Rh  Rh23  1  0.180362  0.376873  0.500000  1
  Rh  Rh24  1  0.624112  0.804072  0.500000  1
  Rh  Rh25  1  0.820136  0.196858  0.500000  1
  Rh  Rh26  1  0.376237  0.179975  0.500000  1
  Rh  Rh27  1  0.805201  0.624262  0.500000  1
  Rh  Rh28  1  0.131013  0.641157  0.000000  1
  Rh  Rh29  1  0.358180  0.489044  0.000000  1
  Rh  Rh30  1  0.510551  0.868390  0.000000  1
  Rh  Rh31  1  0.642380  0.131402  0.000000  1
  Rh  Rh32  1  0.489102  0.357719  0.000000  1
  Rh  Rh33  1  0.543786  0.544294  0.500000  1
  Rh  Rh34  1  0.454862  0.999119  0.500000  1
  Rh  Rh35  1  0.998539  0.456119  0.500000  1
