# generated using pymatgen
data_Cu5Mo12Pt3N4
_symmetry_space_group_name_H-M   'P 1'
_cell_length_a   6.78861647
_cell_length_b   6.78861647
_cell_length_c   6.78861647
_cell_angle_alpha   89.87210455
_cell_angle_beta   90.12789545
_cell_angle_gamma   89.87210455
_symmetry_Int_Tables_number   1
_chemical_formula_structural   Cu5Mo12Pt3N4
_chemical_formula_sum   'Cu5 Mo12 Pt3 N4'
_cell_volume   312.85317642
_cell_formula_units_Z   1
loop_
 _symmetry_equiv_pos_site_id
 _symmetry_equiv_pos_as_xyz
  1  'x, y, z'
loop_
 _atom_site_type_symbol
 _atom_site_label
 _atom_site_symmetry_multiplicity
 _atom_site_fract_x
 _atom_site_fract_y
 _atom_site_fract_z
 _atom_site_occupancy
  Cu  Cu0  1  0.192677  0.181104  0.175861  1
  Cu  Cu1  1  0.318896  0.824139  0.692677  1
  Cu  Cu2  1  0.431755  0.068245  0.931755  1
  Cu  Cu3  1  0.813528  0.686472  0.313528  1
  Cu  Cu4  1  0.675861  0.307323  0.818896  1
  Mo  Mo5  1  0.622882  0.700042  0.960191  1
  Mo  Mo6  1  0.460191  0.877118  0.299958  1
  Mo  Mo7  1  0.701780  0.959331  0.627905  1
  Mo  Mo8  1  0.540669  0.372095  0.201780  1
  Mo  Mo9  1  0.372909  0.198285  0.539187  1
  Mo  Mo10  1  0.195580  0.537462  0.373005  1
  Mo  Mo11  1  0.873005  0.304420  0.462538  1
  Mo  Mo12  1  0.039187  0.127091  0.801715  1
  Mo  Mo13  1  0.301715  0.460813  0.872909  1
  Mo  Mo14  1  0.127905  0.798220  0.040669  1
  Mo  Mo15  1  0.799958  0.039809  0.122882  1
  Mo  Mo16  1  0.962538  0.626995  0.695580  1
  Pt  Pt17  1  0.565020  0.567550  0.566532  1
  Pt  Pt18  1  0.066532  0.934980  0.432450  1
  Pt  Pt19  1  0.932450  0.433468  0.065020  1
  N  N20  1  0.373636  0.624800  0.128840  1
  N  N21  1  0.875200  0.871160  0.873636  1
  N  N22  1  0.127286  0.372714  0.627286  1
  N  N23  1  0.628840  0.126364  0.375200  1
