# generated using pymatgen
data_Sm3Ag5Rh
_symmetry_space_group_name_H-M   'P 1'
_cell_length_a   7.77985300
_cell_length_b   7.77985333
_cell_length_c   3.89509600
_cell_angle_alpha   90.00000000
_cell_angle_beta   90.00000000
_cell_angle_gamma   119.99999436
_symmetry_Int_Tables_number   1
_chemical_formula_structural   Sm3Ag5Rh
_chemical_formula_sum   'Sm3 Ag5 Rh1'
_cell_volume   204.16985607
_cell_formula_units_Z   1
loop_
 _symmetry_equiv_pos_site_id
 _symmetry_equiv_pos_as_xyz
  1  'x, y, z'
loop_
 _atom_site_type_symbol
 _atom_site_label
 _atom_site_symmetry_multiplicity
 _atom_site_fract_x
 _atom_site_fract_y
 _atom_site_fract_z
 _atom_site_occupancy
  Sm  Sm0  1  0.970784  0.389482  0.500000  1
  Sm  Sm1  1  0.610518  0.581302  0.500000  1
  Sm  Sm2  1  0.418698  0.029216  0.500000  1
  Ag  Ag3  1  0.259506  0.263983  0.000000  1
  Ag  Ag4  1  0.004476  0.740494  0.000000  1
  Ag  Ag5  1  0.736017  0.995524  0.000000  1
  Ag  Ag6  1  0.333333  0.666667  0.000000  1
  Ag  Ag7  1  0.000000  0.000000  0.500000  1
  Rh  Rh8  1  0.666667  0.333333  0.000000  1
