# generated using pymatgen
data_LiHo16TlCdInPd4
_symmetry_space_group_name_H-M   'P 1'
_cell_length_a   9.70058001
_cell_length_b   9.71380638
_cell_length_c   9.71380800
_cell_angle_alpha   59.72560598
_cell_angle_beta   59.75198811
_cell_angle_gamma   59.75198074
_symmetry_Int_Tables_number   1
_chemical_formula_structural   LiHo16TlCdInPd4
_chemical_formula_sum   'Li1 Ho16 Tl1 Cd1 In1 Pd4'
_cell_volume   643.45985685
_cell_formula_units_Z   1
loop_
 _symmetry_equiv_pos_site_id
 _symmetry_equiv_pos_as_xyz
  1  'x, y, z'
loop_
 _atom_site_type_symbol
 _atom_site_label
 _atom_site_symmetry_multiplicity
 _atom_site_fract_x
 _atom_site_fract_y
 _atom_site_fract_z
 _atom_site_occupancy
  Li  Li0  1  0.573298  0.574111  0.276123  1
  Ho  Ho1  1  0.351385  0.351423  0.351063  1
  Ho  Ho2  1  0.355657  0.355704  0.936435  1
  Ho  Ho3  1  0.353816  0.940196  0.355036  1
  Ho  Ho4  1  0.939379  0.353324  0.355607  1
  Ho  Ho5  1  0.811210  0.188445  0.188329  1
  Ho  Ho6  1  0.189217  0.810448  0.809465  1
  Ho  Ho7  1  0.187319  0.814021  0.185596  1
  Ho  Ho8  1  0.808719  0.190657  0.808477  1
  Ho  Ho9  1  0.191084  0.189985  0.808626  1
  Ho  Ho10  1  0.812554  0.812742  0.185192  1
  Ho  Ho11  1  0.937391  0.564911  0.566793  1
  Ho  Ho12  1  0.564577  0.934361  0.935622  1
  Ho  Ho13  1  0.565839  0.934480  0.566422  1
  Ho  Ho14  1  0.936400  0.563137  0.935899  1
  Ho  Ho15  1  0.567368  0.566419  0.935725  1
  Ho  Ho16  1  0.936906  0.932840  0.564363  1
  Tl  Tl17  1  0.584714  0.587197  0.581341  1
  Cd  Cd18  1  0.251274  0.583316  0.578466  1
  In  In19  1  0.582510  0.251557  0.579301  1
  Pd  Pd20  1  0.145129  0.145298  0.144129  1
  Pd  Pd21  1  0.143836  0.144268  0.566171  1
  Pd  Pd22  1  0.143845  0.566841  0.142670  1
  Pd  Pd23  1  0.566572  0.144316  0.143147  1
