# generated using pymatgen
data_RbCrP(OF)3
_symmetry_space_group_name_H-M   'P 1'
_cell_length_a   12.87399000
_cell_length_b   5.51792468
_cell_length_c   7.87984300
_cell_angle_alpha   65.76172610
_cell_angle_beta   90.00000000
_cell_angle_gamma   90.00000000
_symmetry_Int_Tables_number   1
_chemical_formula_structural   RbCrP(OF)3
_chemical_formula_sum   'Rb4 Cr4 P4 O12 F12'
_cell_volume   510.42041516
_cell_formula_units_Z   4
loop_
 _symmetry_equiv_pos_site_id
 _symmetry_equiv_pos_as_xyz
  1  'x, y, z'
loop_
 _atom_site_type_symbol
 _atom_site_label
 _atom_site_symmetry_multiplicity
 _atom_site_fract_x
 _atom_site_fract_y
 _atom_site_fract_z
 _atom_site_occupancy
  Rb  Rb0  1  0.200554  0.629601  0.819301  1
  Rb  Rb1  1  0.299446  0.629601  0.319301  1
  Rb  Rb2  1  0.799446  0.370399  0.180699  1
  Rb  Rb3  1  0.700554  0.370399  0.680699  1
  Cr  Cr4  1  0.000000  0.500000  0.500000  1
  Cr  Cr5  1  0.500000  0.500000  0.000000  1
  Cr  Cr6  1  0.000000  0.000000  0.000000  1
  Cr  Cr7  1  0.500000  0.000000  0.500000  1
  P  P8  1  0.101414  0.108585  0.323838  1
  P  P9  1  0.398586  0.108585  0.823838  1
  P  P10  1  0.898586  0.891415  0.676162  1
  P  P11  1  0.601414  0.891415  0.176162  1
  O  O12  1  0.101978  0.809243  0.449473  1
  O  O13  1  0.398022  0.809243  0.949473  1
  O  O14  1  0.898022  0.190757  0.550527  1
  O  O15  1  0.601978  0.190757  0.050527  1
  O  O16  1  0.025530  0.197127  0.161415  1
  O  O17  1  0.474470  0.197127  0.661415  1
  O  O18  1  0.974470  0.802873  0.838585  1
  O  O19  1  0.525530  0.802873  0.338585  1
  O  O20  1  0.102665  0.286565  0.429496  1
  O  O21  1  0.397335  0.286565  0.929496  1
  O  O22  1  0.897335  0.713435  0.570504  1
  O  O23  1  0.602665  0.713435  0.070504  1
  F  F24  1  0.046876  0.312960  0.762996  1
  F  F25  1  0.453124  0.312960  0.262996  1
  F  F26  1  0.953124  0.687040  0.237004  1
  F  F27  1  0.546876  0.687040  0.737004  1
  F  F28  1  0.138138  0.863513  0.045295  1
  F  F29  1  0.361862  0.863513  0.545295  1
  F  F30  1  0.861862  0.136487  0.954705  1
  F  F31  1  0.638138  0.136487  0.454705  1
  F  F32  1  0.214914  0.164981  0.232174  1
  F  F33  1  0.285086  0.164981  0.732174  1
  F  F34  1  0.785086  0.835019  0.767826  1
  F  F35  1  0.714914  0.835019  0.267826  1
