# generated using pymatgen
data_Li4TbTh3(Si2Pb)2
_symmetry_space_group_name_H-M   'P 1'
_cell_length_a   9.81626172
_cell_length_b   9.81626102
_cell_length_c   6.86057000
_cell_angle_alpha   90.00000000
_cell_angle_beta   90.00000000
_cell_angle_gamma   153.40076410
_symmetry_Int_Tables_number   1
_chemical_formula_structural   Li4TbTh3(Si2Pb)2
_chemical_formula_sum   'Li4 Tb1 Th3 Si4 Pb2'
_cell_volume   295.99561016
_cell_formula_units_Z   1
loop_
 _symmetry_equiv_pos_site_id
 _symmetry_equiv_pos_as_xyz
  1  'x, y, z'
loop_
 _atom_site_type_symbol
 _atom_site_label
 _atom_site_symmetry_multiplicity
 _atom_site_fract_x
 _atom_site_fract_y
 _atom_site_fract_z
 _atom_site_occupancy
  Li  Li0  1  0.182570  0.817430  0.061543  1
  Li  Li1  1  0.182570  0.817430  0.438457  1
  Li  Li2  1  0.818274  0.181726  0.943242  1
  Li  Li3  1  0.818274  0.181726  0.556758  1
  Tb  Tb4  1  0.354510  0.645490  0.250000  1
  Th  Th5  1  0.645588  0.354412  0.750000  1
  Th  Th6  1  0.545514  0.454486  0.250000  1
  Th  Th7  1  0.453363  0.546637  0.750000  1
  Si  Si8  1  0.057446  0.942554  0.930384  1
  Si  Si9  1  0.941837  0.058163  0.071138  1
  Si  Si10  1  0.941837  0.058163  0.428862  1
  Si  Si11  1  0.057446  0.942554  0.569616  1
  Pb  Pb12  1  0.722055  0.277945  0.250000  1
  Pb  Pb13  1  0.278714  0.721286  0.750000  1
