# generated using pymatgen
data_YErPa3O10
_symmetry_space_group_name_H-M   'P 1'
_cell_length_a   6.61145229
_cell_length_b   6.61145234
_cell_length_c   6.63270365
_cell_angle_alpha   99.67768448
_cell_angle_beta   99.51082458
_cell_angle_gamma   131.72755134
_symmetry_Int_Tables_number   1
_chemical_formula_structural   YErPa3O10
_chemical_formula_sum   'Y1 Er1 Pa3 O10'
_cell_volume   197.58565153
_cell_formula_units_Z   1
loop_
 _symmetry_equiv_pos_site_id
 _symmetry_equiv_pos_as_xyz
  1  'x, y, z'
loop_
 _atom_site_type_symbol
 _atom_site_label
 _atom_site_symmetry_multiplicity
 _atom_site_fract_x
 _atom_site_fract_y
 _atom_site_fract_z
 _atom_site_occupancy
  Y  Y0  1  0.001039  0.997765  0.998804  1
  Er  Er1  1  0.398954  0.202020  0.600974  1
  Pa  Pa2  1  0.795742  0.400968  0.196709  1
  Pa  Pa3  1  0.199412  0.600032  0.799445  1
  Pa  Pa4  1  0.604614  0.799507  0.404121  1
  O  O5  1  0.753684  0.250218  0.497753  1
  O  O6  1  0.153632  0.458677  0.103451  1
  O  O7  1  0.542983  0.650456  0.696572  1
  O  O8  1  0.943531  0.842136  0.301627  1
  O  O9  1  0.355511  0.047590  0.900571  1
  O  O10  1  0.852980  0.545059  0.900571  1
  O  O11  1  0.247535  0.744068  0.497753  1
  O  O12  1  0.644775  0.949820  0.103451  1
  O  O13  1  0.046117  0.153590  0.696572  1
  O  O14  1  0.459491  0.358095  0.301627  1
