# generated using pymatgen
data_Sr2ErTm(ZnSn)4
_symmetry_space_group_name_H-M   'P 1'
_cell_length_a   4.51435000
_cell_length_b   4.51434932
_cell_length_c   17.55492000
_cell_angle_alpha   90.00000000
_cell_angle_beta   90.00000000
_cell_angle_gamma   120.00000496
_symmetry_Int_Tables_number   1
_chemical_formula_structural   Sr2ErTm(ZnSn)4
_chemical_formula_sum   'Sr2 Er1 Tm1 Zn4 Sn4'
_cell_volume   309.82742231
_cell_formula_units_Z   1
loop_
 _symmetry_equiv_pos_site_id
 _symmetry_equiv_pos_as_xyz
  1  'x, y, z'
loop_
 _atom_site_type_symbol
 _atom_site_label
 _atom_site_symmetry_multiplicity
 _atom_site_fract_x
 _atom_site_fract_y
 _atom_site_fract_z
 _atom_site_occupancy
  Sr  Sr0  1  0.000000  0.000000  0.999665  1
  Sr  Sr1  1  0.000000  0.000000  0.500335  1
  Er  Er2  1  0.000000  0.000000  0.250000  1
  Tm  Tm3  1  0.000000  0.000000  0.750000  1
  Zn  Zn4  1  0.333333  0.666667  0.166241  1
  Zn  Zn5  1  0.666667  0.333333  0.832843  1
  Zn  Zn6  1  0.666667  0.333333  0.667157  1
  Zn  Zn7  1  0.333333  0.666667  0.333759  1
  Sn  Sn8  1  0.333333  0.666667  0.627695  1
  Sn  Sn9  1  0.666667  0.333333  0.372637  1
  Sn  Sn10  1  0.666667  0.333333  0.127363  1
  Sn  Sn11  1  0.333333  0.666667  0.872305  1
