# generated using pymatgen
data_Dy8Hf12Si15Au
_symmetry_space_group_name_H-M   'P 1'
_cell_length_a   7.28526542
_cell_length_b   7.32496153
_cell_length_c   13.41588001
_cell_angle_alpha   89.93665168
_cell_angle_beta   89.96254887
_cell_angle_gamma   89.98617990
_symmetry_Int_Tables_number   1
_chemical_formula_structural   Dy8Hf12Si15Au
_chemical_formula_sum   'Dy8 Hf12 Si15 Au1'
_cell_volume   715.92828624
_cell_formula_units_Z   1
loop_
 _symmetry_equiv_pos_site_id
 _symmetry_equiv_pos_as_xyz
  1  'x, y, z'
loop_
 _atom_site_type_symbol
 _atom_site_label
 _atom_site_symmetry_multiplicity
 _atom_site_fract_x
 _atom_site_fract_y
 _atom_site_fract_z
 _atom_site_occupancy
  Dy  Dy0  1  0.991648  0.346817  0.213991  1
  Dy  Dy1  1  0.004251  0.655373  0.715311  1
  Dy  Dy2  1  0.154708  0.498762  0.466883  1
  Dy  Dy3  1  0.504376  0.842860  0.033509  1
  Dy  Dy4  1  0.844001  0.502663  0.964866  1
  Dy  Dy5  1  0.497307  0.154151  0.537614  1
  Dy  Dy6  1  0.343137  0.997666  0.784900  1
  Dy  Dy7  1  0.662179  0.997098  0.283642  1
  Hf  Hf8  1  0.174966  0.176399  0.998892  1
  Hf  Hf9  1  0.826227  0.825120  0.500550  1
  Hf  Hf10  1  0.325327  0.680465  0.249194  1
  Hf  Hf11  1  0.675405  0.324560  0.750220  1
  Hf  Hf12  1  0.146690  0.996885  0.374757  1
  Hf  Hf13  1  0.851045  0.003679  0.874514  1
  Hf  Hf14  1  0.504648  0.650197  0.624914  1
  Hf  Hf15  1  0.351084  0.495410  0.874919  1
  Hf  Hf16  1  0.495184  0.350439  0.121776  1
  Hf  Hf17  1  0.652238  0.509865  0.380048  1
  Hf  Hf18  1  0.995908  0.148610  0.626524  1
  Hf  Hf19  1  0.001485  0.849411  0.123676  1
  Si  Si20  1  0.637482  0.705887  0.818080  1
  Si  Si21  1  0.204807  0.863091  0.567975  1
  Si  Si22  1  0.137625  0.795608  0.932102  1
  Si  Si23  1  0.795257  0.137370  0.066458  1
  Si  Si24  1  0.860470  0.200999  0.434958  1
  Si  Si25  1  0.295626  0.363040  0.682847  1
  Si  Si26  1  0.704508  0.638272  0.181738  1
  Si  Si27  1  0.292530  0.045064  0.181879  1
  Si  Si28  1  0.705215  0.950836  0.685806  1
  Si  Si29  1  0.448884  0.794957  0.435697  1
  Si  Si30  1  0.204652  0.549689  0.063799  1
  Si  Si31  1  0.548584  0.204570  0.934592  1
  Si  Si32  1  0.794809  0.450051  0.566603  1
  Si  Si33  1  0.048013  0.295689  0.814977  1
  Si  Si34  1  0.951692  0.704417  0.313557  1
  Au  Au35  1  0.368034  0.294030  0.318232  1
