# generated using pymatgen
data_Zn22OsAu2
_symmetry_space_group_name_H-M   'P 1'
_cell_length_a   7.86894344
_cell_length_b   7.86894331
_cell_length_c   7.88146797
_cell_angle_alpha   72.01470708
_cell_angle_beta   72.01471092
_cell_angle_gamma   58.56755538
_symmetry_Int_Tables_number   1
_chemical_formula_structural   Zn22OsAu2
_chemical_formula_sum   'Zn22 Os1 Au2'
_cell_volume   389.44168800
_cell_formula_units_Z   1
loop_
 _symmetry_equiv_pos_site_id
 _symmetry_equiv_pos_as_xyz
  1  'x, y, z'
loop_
 _atom_site_type_symbol
 _atom_site_label
 _atom_site_symmetry_multiplicity
 _atom_site_fract_x
 _atom_site_fract_y
 _atom_site_fract_z
 _atom_site_occupancy
  Zn  Zn0  1  0.337808  0.738373  0.318602  1
  Zn  Zn1  1  0.662192  0.261627  0.681398  1
  Zn  Zn2  1  0.261627  0.662192  0.681398  1
  Zn  Zn3  1  0.738373  0.337808  0.318602  1
  Zn  Zn4  1  0.688939  0.311061  0.000000  1
  Zn  Zn5  1  0.311061  0.688939  0.000000  1
  Zn  Zn6  1  0.832668  0.832668  0.778427  1
  Zn  Zn7  1  0.167332  0.167332  0.221573  1
  Zn  Zn8  1  0.977475  0.977475  0.173978  1
  Zn  Zn9  1  0.022525  0.022525  0.826022  1
  Zn  Zn10  1  0.363177  0.363177  0.274901  1
  Zn  Zn11  1  0.636823  0.636823  0.725099  1
  Zn  Zn12  1  0.684276  0.684276  0.386401  1
  Zn  Zn13  1  0.315724  0.315724  0.613599  1
  Zn  Zn14  1  0.659811  0.020614  0.461715  1
  Zn  Zn15  1  0.340189  0.979386  0.538285  1
  Zn  Zn16  1  0.979386  0.340189  0.538285  1
  Zn  Zn17  1  0.020614  0.659811  0.461715  1
  Zn  Zn18  1  0.625651  0.999576  0.117820  1
  Zn  Zn19  1  0.374349  0.000424  0.882180  1
  Zn  Zn20  1  0.000424  0.374349  0.882180  1
  Zn  Zn21  1  0.999576  0.625651  0.117820  1
  Os  Os22  1  0.000000  0.000000  0.500000  1
  Au  Au23  1  0.659389  0.659389  0.055782  1
  Au  Au24  1  0.340611  0.340611  0.944218  1
