# generated using pymatgen
data_Tb5HoGaNiOs
_symmetry_space_group_name_H-M   'P 1'
_cell_length_a   8.38997492
_cell_length_b   8.39841300
_cell_length_c   8.38997469
_cell_angle_alpha   113.01959658
_cell_angle_beta   110.05025367
_cell_angle_gamma   105.39366063
_symmetry_Int_Tables_number   1
_chemical_formula_structural   Tb5HoGaNiOs
_chemical_formula_sum   'Tb10 Ho2 Ga2 Ni2 Os2'
_cell_volume   453.28428000
_cell_formula_units_Z   2
loop_
 _symmetry_equiv_pos_site_id
 _symmetry_equiv_pos_as_xyz
  1  'x, y, z'
loop_
 _atom_site_type_symbol
 _atom_site_label
 _atom_site_symmetry_multiplicity
 _atom_site_fract_x
 _atom_site_fract_y
 _atom_site_fract_z
 _atom_site_occupancy
  Tb  Tb0  1  0.434721  0.241170  0.192399  1
  Tb  Tb1  1  0.565279  0.758830  0.807601  1
  Tb  Tb2  1  0.048771  0.241170  0.806449  1
  Tb  Tb3  1  0.951229  0.758830  0.193551  1
  Tb  Tb4  1  0.179719  0.277719  0.458269  1
  Tb  Tb5  1  0.820281  0.722281  0.541731  1
  Tb  Tb6  1  0.180550  0.722281  0.901999  1
  Tb  Tb7  1  0.819450  0.277719  0.098001  1
  Tb  Tb8  1  0.330824  0.643550  0.312727  1
  Tb  Tb9  1  0.669176  0.356450  0.687273  1
  Ho  Ho10  1  0.330886  0.017177  0.686292  1
  Ho  Ho11  1  0.669114  0.982823  0.313708  1
  Ga  Ga12  1  0.500000  0.500000  0.000000  1
  Ga  Ga13  1  0.000000  0.000000  0.000000  1
  Ni  Ni14  1  0.116790  0.617091  0.500301  1
  Ni  Ni15  1  0.883210  0.382909  0.499699  1
  Os  Os16  1  0.330118  0.000000  0.330118  1
  Os  Os17  1  0.669882  0.000000  0.669882  1
