# generated using pymatgen
data_Nd4Ho(InBi)2
_symmetry_space_group_name_H-M   'P 1'
_cell_length_a   8.32528600
_cell_length_b   8.41216200
_cell_length_c   16.08990500
_cell_angle_alpha   90.00000000
_cell_angle_beta   90.00000000
_cell_angle_gamma   90.00000000
_symmetry_Int_Tables_number   1
_chemical_formula_structural   Nd4Ho(InBi)2
_chemical_formula_sum   'Nd16 Ho4 In8 Bi8'
_cell_volume   1126.83484816
_cell_formula_units_Z   4
loop_
 _symmetry_equiv_pos_site_id
 _symmetry_equiv_pos_as_xyz
  1  'x, y, z'
loop_
 _atom_site_type_symbol
 _atom_site_label
 _atom_site_symmetry_multiplicity
 _atom_site_fract_x
 _atom_site_fract_y
 _atom_site_fract_z
 _atom_site_occupancy
  Nd  Nd0  1  0.044643  0.176958  0.394602  1
  Nd  Nd1  1  0.387694  0.835980  0.120626  1
  Nd  Nd2  1  0.112306  0.335980  0.620626  1
  Nd  Nd3  1  0.455357  0.676958  0.894602  1
  Nd  Nd4  1  0.887694  0.664020  0.120626  1
  Nd  Nd5  1  0.112306  0.335980  0.879374  1
  Nd  Nd6  1  0.455357  0.676958  0.605398  1
  Nd  Nd7  1  0.612306  0.164020  0.620626  1
  Nd  Nd8  1  0.887694  0.664020  0.379374  1
  Nd  Nd9  1  0.044643  0.176958  0.105398  1
  Nd  Nd10  1  0.955357  0.823042  0.894602  1
  Nd  Nd11  1  0.612306  0.164020  0.879374  1
  Nd  Nd12  1  0.544643  0.323042  0.105398  1
  Nd  Nd13  1  0.387694  0.835980  0.379374  1
  Nd  Nd14  1  0.955357  0.823042  0.605398  1
  Nd  Nd15  1  0.544643  0.323042  0.394602  1
  Ho  Ho16  1  0.218492  0.499729  0.250000  1
  Ho  Ho17  1  0.718492  0.000271  0.250000  1
  Ho  Ho18  1  0.281508  0.999729  0.750000  1
  Ho  Ho19  1  0.781508  0.500271  0.750000  1
  In  In20  1  0.656928  0.861996  0.750000  1
  In  In21  1  0.843072  0.361996  0.250000  1
  In  In22  1  0.586814  0.616641  0.250000  1
  In  In23  1  0.413186  0.383359  0.750000  1
  In  In24  1  0.156928  0.638004  0.750000  1
  In  In25  1  0.913186  0.116641  0.750000  1
  In  In26  1  0.343072  0.138004  0.250000  1
  In  In27  1  0.086814  0.883359  0.250000  1
  Bi  Bi28  1  0.773332  0.478426  0.546647  1
  Bi  Bi29  1  0.726668  0.978426  0.453353  1
  Bi  Bi30  1  0.226668  0.521574  0.453353  1
  Bi  Bi31  1  0.273332  0.021574  0.953353  1
  Bi  Bi32  1  0.773332  0.478426  0.953353  1
  Bi  Bi33  1  0.226668  0.521574  0.046647  1
  Bi  Bi34  1  0.273332  0.021574  0.546647  1
  Bi  Bi35  1  0.726668  0.978426  0.046647  1
