# generated using pymatgen
data_PrZn2Ga4Cu7
_symmetry_space_group_name_H-M   'P 1'
_cell_length_a   8.38983377
_cell_length_b   8.38983205
_cell_length_c   8.38983200
_cell_angle_alpha   121.83404709
_cell_angle_beta   119.69065355
_cell_angle_gamma   88.69482764
_symmetry_Int_Tables_number   1
_chemical_formula_structural   PrZn2Ga4Cu7
_chemical_formula_sum   'Pr2 Zn4 Ga8 Cu14'
_cell_volume   412.47135062
_cell_formula_units_Z   2
loop_
 _symmetry_equiv_pos_site_id
 _symmetry_equiv_pos_as_xyz
  1  'x, y, z'
loop_
 _atom_site_type_symbol
 _atom_site_label
 _atom_site_symmetry_multiplicity
 _atom_site_fract_x
 _atom_site_fract_y
 _atom_site_fract_z
 _atom_site_occupancy
  Pr  Pr0  1  0.749998  0.749998  0.000000  1
  Pr  Pr1  1  0.250002  0.250002  0.000000  1
  Zn  Zn2  1  0.057202  0.189867  0.247070  1
  Zn  Zn3  1  0.942798  0.810133  0.752930  1
  Zn  Zn4  1  0.557191  0.310136  0.867327  1
  Zn  Zn5  1  0.442809  0.689864  0.132673  1
  Ga  Ga6  1  0.053622  0.546490  0.856614  1
  Ga  Ga7  1  0.689877  0.197008  0.143386  1
  Ga  Ga8  1  0.553619  0.696997  0.507129  1
  Ga  Ga9  1  0.189867  0.046489  0.492871  1
  Ga  Ga10  1  0.946378  0.453510  0.143386  1
  Ga  Ga11  1  0.310123  0.802992  0.856614  1
  Ga  Ga12  1  0.446381  0.303003  0.492871  1
  Ga  Ga13  1  0.810133  0.953511  0.507129  1
  Cu  Cu14  1  0.788440  0.070059  0.858499  1
  Cu  Cu15  1  0.211560  0.929941  0.141501  1
  Cu  Cu16  1  0.711575  0.570106  0.281684  1
  Cu  Cu17  1  0.288425  0.429894  0.718316  1
  Cu  Cu18  1  0.436972  0.944144  0.734098  1
  Cu  Cu19  1  0.210046  0.702873  0.265902  1
  Cu  Cu20  1  0.936953  0.202920  0.492850  1
  Cu  Cu21  1  0.710069  0.444102  0.507150  1
  Cu  Cu22  1  0.563028  0.055856  0.265902  1
  Cu  Cu23  1  0.789954  0.297127  0.734098  1
  Cu  Cu24  1  0.063047  0.797080  0.507150  1
  Cu  Cu25  1  0.289931  0.555898  0.492850  1
  Cu  Cu26  1  0.000000  0.500000  0.500000  1
  Cu  Cu27  1  0.500000  0.000000  0.500000  1
