# generated using pymatgen
data_Ta(NbB2)2
_symmetry_space_group_name_H-M   'P 1'
_cell_length_a   7.43263133
_cell_length_b   7.43263181
_cell_length_c   7.43263176
_cell_angle_alpha   154.20590439
_cell_angle_beta   35.85997590
_cell_angle_gamma   155.51743353
_symmetry_Int_Tables_number   1
_chemical_formula_structural   Ta(NbB2)2
_chemical_formula_sum   'Ta1 Nb2 B4'
_cell_volume   73.95294154
_cell_formula_units_Z   1
loop_
 _symmetry_equiv_pos_site_id
 _symmetry_equiv_pos_as_xyz
  1  'x, y, z'
loop_
 _atom_site_type_symbol
 _atom_site_label
 _atom_site_symmetry_multiplicity
 _atom_site_fract_x
 _atom_site_fract_y
 _atom_site_fract_z
 _atom_site_occupancy
  Ta  Ta0  1  0.815322  0.000000  0.815322  1
  Nb  Nb1  1  0.500070  0.499999  0.000071  1
  Nb  Nb2  1  0.184647  0.000000  0.184647  1
  B  B3  1  0.935555  0.499999  0.435555  1
  B  B4  1  0.064538  0.500002  0.564541  1
  B  B5  1  0.366695  0.000000  0.366695  1
  B  B6  1  0.633173  0.000000  0.633173  1
