# generated using pymatgen
data_SmLu(NiAs)2
_symmetry_space_group_name_H-M   'P 1'
_cell_length_a   4.03818200
_cell_length_b   4.03818233
_cell_length_c   15.54500000
_cell_angle_alpha   90.00000000
_cell_angle_beta   90.00000000
_cell_angle_gamma   120.00001369
_symmetry_Int_Tables_number   1
_chemical_formula_structural   SmLu(NiAs)2
_chemical_formula_sum   'Sm2 Lu2 Ni4 As4'
_cell_volume   219.52961250
_cell_formula_units_Z   2
loop_
 _symmetry_equiv_pos_site_id
 _symmetry_equiv_pos_as_xyz
  1  'x, y, z'
loop_
 _atom_site_type_symbol
 _atom_site_label
 _atom_site_symmetry_multiplicity
 _atom_site_fract_x
 _atom_site_fract_y
 _atom_site_fract_z
 _atom_site_occupancy
  Sm  Sm0  1  0.000000  0.000000  0.500000  1
  Sm  Sm1  1  0.000000  0.000000  0.000000  1
  Lu  Lu2  1  0.000000  0.000000  0.250000  1
  Lu  Lu3  1  0.000000  0.000000  0.750000  1
  Ni  Ni4  1  0.333333  0.666667  0.362352  1
  Ni  Ni5  1  0.666667  0.333333  0.637648  1
  Ni  Ni6  1  0.666667  0.333333  0.862352  1
  Ni  Ni7  1  0.333333  0.666667  0.137648  1
  As  As8  1  0.333333  0.666667  0.874824  1
  As  As9  1  0.666667  0.333333  0.125176  1
  As  As10  1  0.666667  0.333333  0.374824  1
  As  As11  1  0.333333  0.666667  0.625176  1
