# generated using pymatgen
data_NaY9(Bi3C)2
_symmetry_space_group_name_H-M   'P 1'
_cell_length_a   9.15104400
_cell_length_b   9.15100537
_cell_length_c   6.53450000
_cell_angle_alpha   89.99982810
_cell_angle_beta   90.00020538
_cell_angle_gamma   119.99350205
_symmetry_Int_Tables_number   1
_chemical_formula_structural   NaY9(Bi3C)2
_chemical_formula_sum   'Na1 Y9 Bi6 C2'
_cell_volume   473.92637705
_cell_formula_units_Z   1
loop_
 _symmetry_equiv_pos_site_id
 _symmetry_equiv_pos_as_xyz
  1  'x, y, z'
loop_
 _atom_site_type_symbol
 _atom_site_label
 _atom_site_symmetry_multiplicity
 _atom_site_fract_x
 _atom_site_fract_y
 _atom_site_fract_z
 _atom_site_occupancy
  Na  Na0  1  0.666602  0.333401  0.500001  1
  Y  Y1  1  0.333383  0.666615  0.500002  1
  Y  Y2  1  0.333389  0.666614  0.000000  1
  Y  Y3  1  0.666612  0.333389  0.000001  1
  Y  Y4  1  0.790866  0.791102  0.249888  1
  Y  Y5  1  0.208745  0.999661  0.249888  1
  Y  Y6  1  0.000134  0.208978  0.249884  1
  Y  Y7  1  0.208898  0.209135  0.750110  1
  Y  Y8  1  0.791018  0.999867  0.750115  1
  Y  Y9  1  0.000344  0.791259  0.750109  1
  Bi  Bi10  1  0.401975  0.402114  0.249949  1
  Bi  Bi11  1  0.597654  0.999878  0.249951  1
  Bi  Bi12  1  0.000175  0.597798  0.249946  1
  Bi  Bi13  1  0.597888  0.598026  0.750052  1
  Bi  Bi14  1  0.402201  0.999826  0.750058  1
  Bi  Bi15  1  0.000122  0.402349  0.750054  1
  C  C16  1  0.000000  0.999995  0.499997  1
  C  C17  1  0.999996  0.999996  0.999994  1
