# generated using pymatgen
data_SmNi3Pt2
_symmetry_space_group_name_H-M   'P 1'
_cell_length_a   5.09263070
_cell_length_b   5.37949720
_cell_length_c   4.05520400
_cell_angle_alpha   90.00000000
_cell_angle_beta   90.00000000
_cell_angle_gamma   121.88154281
_symmetry_Int_Tables_number   1
_chemical_formula_structural   SmNi3Pt2
_chemical_formula_sum   'Sm1 Ni3 Pt2'
_cell_volume   94.33586462
_cell_formula_units_Z   1
loop_
 _symmetry_equiv_pos_site_id
 _symmetry_equiv_pos_as_xyz
  1  'x, y, z'
loop_
 _atom_site_type_symbol
 _atom_site_label
 _atom_site_symmetry_multiplicity
 _atom_site_fract_x
 _atom_site_fract_y
 _atom_site_fract_z
 _atom_site_occupancy
  Sm  Sm0  1  0.000000  0.000000  0.000000  1
  Ni  Ni1  1  0.308221  0.654111  0.000000  1
  Ni  Ni2  1  0.691779  0.345889  0.000000  1
  Ni  Ni3  1  0.000000  0.500000  0.500000  1
  Pt  Pt4  1  0.500000  0.000000  0.500000  1
  Pt  Pt5  1  0.500000  0.500000  0.500000  1
