# generated using pymatgen
data_Zr4Ta3Nb3Ge8
_symmetry_space_group_name_H-M   'P 1'
_cell_length_a   6.85898100
_cell_length_b   6.98020400
_cell_length_c   13.33615801
_cell_angle_alpha   89.99678007
_cell_angle_beta   90.00000000
_cell_angle_gamma   90.00000000
_symmetry_Int_Tables_number   1
_chemical_formula_structural   Zr4Ta3Nb3Ge8
_chemical_formula_sum   'Zr8 Ta6 Nb6 Ge16'
_cell_volume   638.49639113
_cell_formula_units_Z   2
loop_
 _symmetry_equiv_pos_site_id
 _symmetry_equiv_pos_as_xyz
  1  'x, y, z'
loop_
 _atom_site_type_symbol
 _atom_site_label
 _atom_site_symmetry_multiplicity
 _atom_site_fract_x
 _atom_site_fract_y
 _atom_site_fract_z
 _atom_site_occupancy
  Zr  Zr0  1  0.489250  0.673457  0.591804  1
  Zr  Zr1  1  0.989250  0.826543  0.908196  1
  Zr  Zr2  1  0.510504  0.325941  0.091452  1
  Zr  Zr3  1  0.010504  0.174059  0.408548  1
  Zr  Zr4  1  0.510587  0.325663  0.408175  1
  Zr  Zr5  1  0.010587  0.174337  0.091825  1
  Zr  Zr6  1  0.489332  0.673862  0.908181  1
  Zr  Zr7  1  0.989332  0.826138  0.591819  1
  Ta  Ta8  1  0.659351  0.165405  0.874921  1
  Ta  Ta9  1  0.159351  0.334595  0.625079  1
  Ta  Ta10  1  0.836035  0.490318  0.749901  1
  Ta  Ta11  1  0.336035  0.009682  0.750099  1
  Ta  Ta12  1  0.164190  0.509146  0.249949  1
  Ta  Ta13  1  0.664190  0.990854  0.250051  1
  Nb  Nb14  1  0.659555  0.165040  0.624738  1
  Nb  Nb15  1  0.159555  0.334960  0.875262  1
  Nb  Nb16  1  0.340692  0.834808  0.124780  1
  Nb  Nb17  1  0.840692  0.665192  0.375220  1
  Nb  Nb18  1  0.340497  0.834832  0.375296  1
  Nb  Nb19  1  0.840497  0.665168  0.124704  1
  Ge  Ge20  1  0.681522  0.960879  0.459604  1
  Ge  Ge21  1  0.181522  0.539121  0.040396  1
  Ge  Ge22  1  0.318704  0.039029  0.959710  1
  Ge  Ge23  1  0.818704  0.460971  0.540290  1
  Ge  Ge24  1  0.318169  0.039257  0.540219  1
  Ge  Ge25  1  0.818169  0.460743  0.959781  1
  Ge  Ge26  1  0.681689  0.960810  0.040182  1
  Ge  Ge27  1  0.181689  0.539190  0.459818  1
  Ge  Ge28  1  0.461957  0.386862  0.749913  1
  Ge  Ge29  1  0.961957  0.113138  0.750087  1
  Ge  Ge30  1  0.538021  0.613240  0.249985  1
  Ge  Ge31  1  0.038021  0.886760  0.250015  1
  Ge  Ge32  1  0.692677  0.849738  0.750018  1
  Ge  Ge33  1  0.192677  0.650262  0.749982  1
  Ge  Ge34  1  0.307266  0.150172  0.249991  1
  Ge  Ge35  1  0.807266  0.349828  0.250009  1
