# generated using pymatgen
data_Er3PuHf4F28
_symmetry_space_group_name_H-M   'P 1'
_cell_length_a   5.71392339
_cell_length_b   9.04232273
_cell_length_c   12.14451500
_cell_angle_alpha   62.36940257
_cell_angle_beta   89.97882214
_cell_angle_gamma   90.02063744
_symmetry_Int_Tables_number   1
_chemical_formula_structural   Er3PuHf4F28
_chemical_formula_sum   'Er3 Pu1 Hf4 F28'
_cell_volume   555.91277961
_cell_formula_units_Z   1
loop_
 _symmetry_equiv_pos_site_id
 _symmetry_equiv_pos_as_xyz
  1  'x, y, z'
loop_
 _atom_site_type_symbol
 _atom_site_label
 _atom_site_symmetry_multiplicity
 _atom_site_fract_x
 _atom_site_fract_y
 _atom_site_fract_z
 _atom_site_occupancy
  Er  Er0  1  0.743939  0.817291  0.266123  1
  Er  Er1  1  0.243403  0.186086  0.233577  1
  Er  Er2  1  0.257488  0.191877  0.733143  1
  Pu  Pu3  1  0.758279  0.818352  0.765163  1
  Hf  Hf4  1  0.743099  0.278691  0.452026  1
  Hf  Hf5  1  0.243544  0.725553  0.050554  1
  Hf  Hf6  1  0.255607  0.725936  0.539187  1
  Hf  Hf7  1  0.755556  0.268813  0.957552  1
  F  F8  1  0.456880  0.707517  0.927811  1
  F  F9  1  0.964577  0.288925  0.576367  1
  F  F10  1  0.533332  0.287028  0.078299  1
  F  F11  1  0.033131  0.709383  0.418272  1
  F  F12  1  0.456103  0.282383  0.548027  1
  F  F13  1  0.954889  0.712674  0.961455  1
  F  F14  1  0.547743  0.718610  0.448279  1
  F  F15  1  0.043433  0.278152  0.051306  1
  F  F16  1  0.772567  0.515950  0.860212  1
  F  F17  1  0.267278  0.475894  0.638661  1
  F  F18  1  0.235441  0.474809  0.144590  1
  F  F19  1  0.732769  0.526797  0.356317  1
  F  F20  1  0.759292  0.019979  0.058803  1
  F  F21  1  0.259057  0.975235  0.440880  1
  F  F22  1  0.240650  0.973863  0.944280  1
  F  F23  1  0.739293  0.028955  0.550894  1
  F  F24  1  0.983665  0.730846  0.640297  1
  F  F25  1  0.485600  0.266823  0.852112  1
  F  F26  1  0.010196  0.266154  0.348874  1
  F  F27  1  0.513301  0.734518  0.153256  1
  F  F28  1  0.033266  0.746710  0.176183  1
  F  F29  1  0.530777  0.255231  0.327477  1
  F  F30  1  0.966173  0.250719  0.829719  1
  F  F31  1  0.453278  0.739113  0.671069  1
  F  F32  1  0.432181  0.976024  0.235744  1
  F  F33  1  0.933001  0.025682  0.264639  1
  F  F34  1  0.571907  0.041376  0.764813  1
  F  F35  1  0.089306  0.978043  0.734034  1
