# generated using pymatgen
data_Pr4B20IrOs
_symmetry_space_group_name_H-M   'P 1'
_cell_length_a   4.24115100
_cell_length_b   5.77962143
_cell_length_c   11.50563984
_cell_angle_alpha   89.71827080
_cell_angle_beta   90.00000000
_cell_angle_gamma   90.00000000
_symmetry_Int_Tables_number   1
_chemical_formula_structural   Pr4B20IrOs
_chemical_formula_sum   'Pr4 B20 Ir1 Os1'
_cell_volume   282.02567879
_cell_formula_units_Z   1
loop_
 _symmetry_equiv_pos_site_id
 _symmetry_equiv_pos_as_xyz
  1  'x, y, z'
loop_
 _atom_site_type_symbol
 _atom_site_label
 _atom_site_symmetry_multiplicity
 _atom_site_fract_x
 _atom_site_fract_y
 _atom_site_fract_z
 _atom_site_occupancy
  Pr  Pr0  1  0.500000  0.208794  0.364815  1
  Pr  Pr1  1  0.500000  0.791206  0.635185  1
  Pr  Pr2  1  0.500000  0.284590  0.870116  1
  Pr  Pr3  1  0.500000  0.715410  0.129884  1
  B  B4  1  0.000000  0.379245  0.042908  1
  B  B5  1  0.000000  0.620755  0.957092  1
  B  B6  1  0.000000  0.119923  0.542800  1
  B  B7  1  0.000000  0.880077  0.457200  1
  B  B8  1  0.000000  0.361589  0.197730  1
  B  B9  1  0.000000  0.638411  0.802270  1
  B  B10  1  0.000000  0.138986  0.696636  1
  B  B11  1  0.000000  0.861014  0.303364  1
  B  B12  1  0.000000  0.054898  0.192477  1
  B  B13  1  0.000000  0.945102  0.807523  1
  B  B14  1  0.000000  0.444151  0.692420  1
  B  B15  1  0.000000  0.555849  0.307580  1
  B  B16  1  0.299170  0.218808  0.118321  1
  B  B17  1  0.700830  0.781192  0.881679  1
  B  B18  1  0.299170  0.781192  0.881679  1
  B  B19  1  0.700212  0.281169  0.617891  1
  B  B20  1  0.700830  0.218808  0.118321  1
  B  B21  1  0.299788  0.718831  0.382109  1
  B  B22  1  0.700212  0.718831  0.382109  1
  B  B23  1  0.299788  0.281169  0.617891  1
  Ir  Ir24  1  0.000000  0.500000  0.500000  1
  Os  Os25  1  0.000000  0.000000  0.000000  1
