# generated using pymatgen
data_Sc8Zn(Si5Tc4)3
_symmetry_space_group_name_H-M   'P 1'
_cell_length_a   6.65630614
_cell_length_b   6.65928282
_cell_length_c   12.36539600
_cell_angle_alpha   89.81173780
_cell_angle_beta   90.18618583
_cell_angle_gamma   90.31597892
_symmetry_Int_Tables_number   1
_chemical_formula_structural   Sc8Zn(Si5Tc4)3
_chemical_formula_sum   'Sc8 Zn1 Si15 Tc12'
_cell_volume   548.09717193
_cell_formula_units_Z   1
loop_
 _symmetry_equiv_pos_site_id
 _symmetry_equiv_pos_as_xyz
  1  'x, y, z'
loop_
 _atom_site_type_symbol
 _atom_site_label
 _atom_site_symmetry_multiplicity
 _atom_site_fract_x
 _atom_site_fract_y
 _atom_site_fract_z
 _atom_site_occupancy
  Sc  Sc0  1  0.001609  0.653416  0.029934  1
  Sc  Sc1  1  0.840559  0.503478  0.279490  1
  Sc  Sc2  1  0.157343  0.495008  0.781560  1
  Sc  Sc3  1  0.503153  0.840811  0.720321  1
  Sc  Sc4  1  0.496334  0.159937  0.221037  1
  Sc  Sc5  1  0.996768  0.342466  0.530215  1
  Sc  Sc6  1  0.655818  0.001971  0.969739  1
  Sc  Sc7  1  0.341656  0.996069  0.469338  1
  Zn  Zn8  1  0.279095  0.969841  0.067154  1
  Si  Si9  1  0.529212  0.784027  0.314793  1
  Si  Si10  1  0.471981  0.219030  0.814337  1
  Si  Si11  1  0.783509  0.529589  0.684663  1
  Si  Si12  1  0.215958  0.472488  0.184561  1
  Si  Si13  1  0.717109  0.029565  0.565862  1
  Si  Si14  1  0.974334  0.274264  0.936017  1
  Si  Si15  1  0.028525  0.716797  0.434800  1
  Si  Si16  1  0.691638  0.371483  0.065663  1
  Si  Si17  1  0.125004  0.193705  0.316469  1
  Si  Si18  1  0.877874  0.805646  0.816104  1
  Si  Si19  1  0.195415  0.125075  0.681291  1
  Si  Si20  1  0.807562  0.876710  0.182671  1
  Si  Si21  1  0.306235  0.624287  0.566084  1
  Si  Si22  1  0.376595  0.697897  0.934476  1
  Si  Si23  1  0.624765  0.306064  0.433956  1
  Tc  Tc24  1  0.328582  0.341941  0.995649  1
  Tc  Tc25  1  0.164635  0.828667  0.257480  1
  Tc  Tc26  1  0.830425  0.168033  0.749324  1
  Tc  Tc27  1  0.668976  0.669950  0.500330  1
  Tc  Tc28  1  0.977723  0.182968  0.132308  1
  Tc  Tc29  1  0.325963  0.479180  0.379683  1
  Tc  Tc30  1  0.677817  0.520067  0.878449  1
  Tc  Tc31  1  0.480201  0.324567  0.619465  1
  Tc  Tc32  1  0.523041  0.666565  0.124375  1
  Tc  Tc33  1  0.021299  0.824581  0.627701  1
  Tc  Tc34  1  0.181233  0.982674  0.862652  1
  Tc  Tc35  1  0.822049  0.021181  0.372043  1
