# generated using pymatgen
data_PaTiNb5Sn6
_symmetry_space_group_name_H-M   'P 1'
_cell_length_a   5.80090312
_cell_length_b   5.79885274
_cell_length_c   9.57161000
_cell_angle_alpha   90.00000000
_cell_angle_beta   90.00000000
_cell_angle_gamma   119.98830135
_symmetry_Int_Tables_number   1
_chemical_formula_structural   PaTiNb5Sn6
_chemical_formula_sum   'Pa1 Ti1 Nb5 Sn6'
_cell_volume   278.87173788
_cell_formula_units_Z   1
loop_
 _symmetry_equiv_pos_site_id
 _symmetry_equiv_pos_as_xyz
  1  'x, y, z'
loop_
 _atom_site_type_symbol
 _atom_site_label
 _atom_site_symmetry_multiplicity
 _atom_site_fract_x
 _atom_site_fract_y
 _atom_site_fract_z
 _atom_site_occupancy
  Pa  Pa0  1  0.000000  0.000000  0.999788  1
  Ti  Ti1  1  0.000000  0.500000  0.753119  1
  Nb  Nb2  1  0.500000  0.500000  0.752200  1
  Nb  Nb3  1  0.500000  0.000000  0.752200  1
  Nb  Nb4  1  0.000000  0.500000  0.248499  1
  Nb  Nb5  1  0.500000  0.500000  0.247458  1
  Nb  Nb6  1  0.500000  0.000000  0.247458  1
  Sn  Sn7  1  0.667795  0.333897  0.500573  1
  Sn  Sn8  1  0.332205  0.666103  0.500573  1
  Sn  Sn9  1  0.667945  0.333972  0.998679  1
  Sn  Sn10  1  0.332055  0.666028  0.998679  1
  Sn  Sn11  1  0.000000  0.000000  0.662123  1
  Sn  Sn12  1  0.000000  0.000000  0.338650  1
