# generated using pymatgen
data_YTmTh3Si3C
_symmetry_space_group_name_H-M   'P 1'
_cell_length_a   8.74548000
_cell_length_b   8.74548063
_cell_length_c   6.36702200
_cell_angle_alpha   90.00000000
_cell_angle_beta   90.00000000
_cell_angle_gamma   120.00000518
_symmetry_Int_Tables_number   1
_chemical_formula_structural   YTmTh3Si3C
_chemical_formula_sum   'Y2 Tm2 Th6 Si6 C2'
_cell_volume   421.72980274
_cell_formula_units_Z   2
loop_
 _symmetry_equiv_pos_site_id
 _symmetry_equiv_pos_as_xyz
  1  'x, y, z'
loop_
 _atom_site_type_symbol
 _atom_site_label
 _atom_site_symmetry_multiplicity
 _atom_site_fract_x
 _atom_site_fract_y
 _atom_site_fract_z
 _atom_site_occupancy
  Y  Y0  1  0.333333  0.666667  0.500000  1
  Y  Y1  1  0.666667  0.333333  0.500000  1
  Tm  Tm2  1  0.666667  0.333333  0.000000  1
  Tm  Tm3  1  0.333333  0.666667  0.000000  1
  Th  Th4  1  0.766544  0.766544  0.750654  1
  Th  Th5  1  0.233456  0.000000  0.750654  1
  Th  Th6  1  0.000000  0.233456  0.750654  1
  Th  Th7  1  0.233456  0.233456  0.249346  1
  Th  Th8  1  0.766544  0.000000  0.249346  1
  Th  Th9  1  0.000000  0.766544  0.249346  1
  Si  Si10  1  0.402662  0.402662  0.754105  1
  Si  Si11  1  0.597338  0.000000  0.754105  1
  Si  Si12  1  0.000000  0.597338  0.754105  1
  Si  Si13  1  0.597338  0.597338  0.245895  1
  Si  Si14  1  0.402662  0.000000  0.245895  1
  Si  Si15  1  0.000000  0.402662  0.245895  1
  C  C16  1  0.000000  0.000000  0.000000  1
  C  C17  1  0.000000  0.000000  0.500000  1
