# generated using pymatgen
data_PuVB4
_symmetry_space_group_name_H-M   'P 1'
_cell_length_a   3.50758700
_cell_length_b   5.95226300
_cell_length_c   11.53743400
_cell_angle_alpha   90.00000000
_cell_angle_beta   90.00000000
_cell_angle_gamma   90.00000000
_symmetry_Int_Tables_number   1
_chemical_formula_structural   PuVB4
_chemical_formula_sum   'Pu4 V4 B16'
_cell_volume   240.87947373
_cell_formula_units_Z   4
loop_
 _symmetry_equiv_pos_site_id
 _symmetry_equiv_pos_as_xyz
  1  'x, y, z'
loop_
 _atom_site_type_symbol
 _atom_site_label
 _atom_site_symmetry_multiplicity
 _atom_site_fract_x
 _atom_site_fract_y
 _atom_site_fract_z
 _atom_site_occupancy
  Pu  Pu0  1  0.000000  0.625514  0.348952  1
  Pu  Pu1  1  0.000000  0.374486  0.651048  1
  Pu  Pu2  1  0.000000  0.125514  0.151048  1
  Pu  Pu3  1  0.000000  0.874486  0.848952  1
  V  V4  1  0.000000  0.627979  0.083643  1
  V  V5  1  0.000000  0.372021  0.916357  1
  V  V6  1  0.000000  0.127979  0.416357  1
  V  V7  1  0.000000  0.872021  0.583643  1
  B  B8  1  0.500000  0.784137  0.185908  1
  B  B9  1  0.500000  0.215863  0.814092  1
  B  B10  1  0.500000  0.284137  0.314092  1
  B  B11  1  0.500000  0.715863  0.685908  1
  B  B12  1  0.500000  0.865463  0.032749  1
  B  B13  1  0.500000  0.134537  0.967251  1
  B  B14  1  0.500000  0.365463  0.467251  1
  B  B15  1  0.500000  0.634537  0.532749  1
  B  B16  1  0.500000  0.885366  0.453079  1
  B  B17  1  0.500000  0.114634  0.546921  1
  B  B18  1  0.500000  0.385366  0.046921  1
  B  B19  1  0.500000  0.614634  0.953079  1
  B  B20  1  0.500000  0.974424  0.307805  1
  B  B21  1  0.500000  0.025576  0.692195  1
  B  B22  1  0.500000  0.474424  0.192195  1
  B  B23  1  0.500000  0.525576  0.807805  1
