# generated using pymatgen
data_Fe9(Re7B3)2
_symmetry_space_group_name_H-M   'P 1'
_cell_length_a   7.90110729
_cell_length_b   7.90110684
_cell_length_c   7.90110800
_cell_angle_alpha   60.00000350
_cell_angle_beta   60.00000539
_cell_angle_gamma   60.00000412
_symmetry_Int_Tables_number   1
_chemical_formula_structural   Fe9(Re7B3)2
_chemical_formula_sum   'Fe9 Re14 B6'
_cell_volume   348.77788213
_cell_formula_units_Z   1
loop_
 _symmetry_equiv_pos_site_id
 _symmetry_equiv_pos_as_xyz
  1  'x, y, z'
loop_
 _atom_site_type_symbol
 _atom_site_label
 _atom_site_symmetry_multiplicity
 _atom_site_fract_x
 _atom_site_fract_y
 _atom_site_fract_z
 _atom_site_occupancy
  Fe  Fe0  1  0.000000  0.000000  0.000000  1
  Fe  Fe1  1  0.614984  0.155050  0.614984  1
  Fe  Fe2  1  0.385016  0.385016  0.844950  1
  Fe  Fe3  1  0.844950  0.385016  0.385016  1
  Fe  Fe4  1  0.385016  0.385016  0.385016  1
  Fe  Fe5  1  0.155050  0.614984  0.614984  1
  Fe  Fe6  1  0.614984  0.614984  0.614984  1
  Fe  Fe7  1  0.614984  0.614984  0.155050  1
  Fe  Fe8  1  0.385016  0.844950  0.385016  1
  Re  Re9  1  0.750000  0.750000  0.750000  1
  Re  Re10  1  0.250000  0.250000  0.250000  1
  Re  Re11  1  0.659231  0.340769  0.000000  1
  Re  Re12  1  0.000000  0.340769  0.659231  1
  Re  Re13  1  0.659231  0.000000  0.000000  1
  Re  Re14  1  0.000000  0.000000  0.340769  1
  Re  Re15  1  0.000000  0.000000  0.659231  1
  Re  Re16  1  0.000000  0.340769  0.000000  1
  Re  Re17  1  0.659231  0.000000  0.340769  1
  Re  Re18  1  0.340769  0.000000  0.000000  1
  Re  Re19  1  0.000000  0.659231  0.000000  1
  Re  Re20  1  0.340769  0.000000  0.659231  1
  Re  Re21  1  0.000000  0.659231  0.340769  1
  Re  Re22  1  0.340769  0.659231  0.000000  1
  B  B23  1  0.282480  0.282480  0.717520  1
  B  B24  1  0.282480  0.717520  0.717520  1
  B  B25  1  0.717520  0.282480  0.282480  1
  B  B26  1  0.282480  0.717520  0.282480  1
  B  B27  1  0.717520  0.282480  0.717520  1
  B  B28  1  0.717520  0.717520  0.282480  1
