# generated using pymatgen
data_Sm2Ti3P7Rh9
_symmetry_space_group_name_H-M   'P 1'
_cell_length_a   3.85841000
_cell_length_b   9.69655059
_cell_length_c   9.70138999
_cell_angle_alpha   119.95543059
_cell_angle_beta   89.99908190
_cell_angle_gamma   90.00192781
_symmetry_Int_Tables_number   1
_chemical_formula_structural   Sm2Ti3P7Rh9
_chemical_formula_sum   'Sm2 Ti3 P7 Rh9'
_cell_volume   314.47426326
_cell_formula_units_Z   1
loop_
 _symmetry_equiv_pos_site_id
 _symmetry_equiv_pos_as_xyz
  1  'x, y, z'
loop_
 _atom_site_type_symbol
 _atom_site_label
 _atom_site_symmetry_multiplicity
 _atom_site_fract_x
 _atom_site_fract_y
 _atom_site_fract_z
 _atom_site_occupancy
  Sm  Sm0  1  0.261787  0.666675  0.333323  1
  Sm  Sm1  1  0.761829  0.333407  0.666656  1
  Ti  Ti2  1  0.762002  0.100300  0.879770  1
  Ti  Ti3  1  0.762007  0.120191  0.220530  1
  Ti  Ti4  1  0.762011  0.779396  0.899675  1
  P  P5  1  0.262227  0.000035  0.000078  1
  P  P6  1  0.761826  0.879275  0.591435  1
  P  P7  1  0.761834  0.408524  0.287720  1
  P  P8  1  0.761811  0.712132  0.120802  1
  P  P9  1  0.261841  0.114740  0.415107  1
  P  P10  1  0.261876  0.584947  0.699567  1
  P  P11  1  0.261856  0.300425  0.885333  1
  Rh  Rh12  1  0.261854  0.884639  0.159269  1
  Rh  Rh13  1  0.261923  0.840733  0.725381  1
  Rh  Rh14  1  0.261875  0.274457  0.115247  1
  Rh  Rh15  1  0.761929  0.610240  0.560332  1
  Rh  Rh16  1  0.761889  0.439706  0.049874  1
  Rh  Rh17  1  0.761843  0.950090  0.389811  1
  Rh  Rh18  1  0.262004  0.365507  0.434963  1
  Rh  Rh19  1  0.261935  0.565018  0.930592  1
  Rh  Rh20  1  0.261842  0.069561  0.634535  1
