# generated using pymatgen
data_Lu16In3Hg(IrRh)2
_symmetry_space_group_name_H-M   'P 1'
_cell_length_a   9.44922294
_cell_length_b   9.44922338
_cell_length_c   9.46429613
_cell_angle_alpha   59.94955883
_cell_angle_beta   59.94955811
_cell_angle_gamma   59.90882971
_symmetry_Int_Tables_number   1
_chemical_formula_structural   Lu16In3Hg(IrRh)2
_chemical_formula_sum   'Lu16 In3 Hg1 Ir2 Rh2'
_cell_volume   596.67016418
_cell_formula_units_Z   1
loop_
 _symmetry_equiv_pos_site_id
 _symmetry_equiv_pos_as_xyz
  1  'x, y, z'
loop_
 _atom_site_type_symbol
 _atom_site_label
 _atom_site_symmetry_multiplicity
 _atom_site_fract_x
 _atom_site_fract_y
 _atom_site_fract_z
 _atom_site_occupancy
  Lu  Lu0  1  0.597847  0.597847  0.598656  1
  Lu  Lu1  1  0.601883  0.601883  0.197419  1
  Lu  Lu2  1  0.601714  0.197584  0.602082  1
  Lu  Lu3  1  0.197584  0.601714  0.602082  1
  Lu  Lu4  1  0.058895  0.440268  0.440405  1
  Lu  Lu5  1  0.438617  0.060296  0.060009  1
  Lu  Lu6  1  0.440268  0.058895  0.440405  1
  Lu  Lu7  1  0.060296  0.438617  0.060009  1
  Lu  Lu8  1  0.440564  0.440564  0.058461  1
  Lu  Lu9  1  0.060380  0.060380  0.438487  1
  Lu  Lu10  1  0.185629  0.811906  0.813018  1
  Lu  Lu11  1  0.810421  0.189177  0.189223  1
  Lu  Lu12  1  0.811906  0.185629  0.813018  1
  Lu  Lu13  1  0.189177  0.810421  0.189223  1
  Lu  Lu14  1  0.813027  0.813027  0.185058  1
  Lu  Lu15  1  0.189930  0.189930  0.810448  1
  In  In16  1  0.832963  0.832963  0.501105  1
  In  In17  1  0.832974  0.501032  0.832992  1
  In  In18  1  0.501032  0.832974  0.832992  1
  Hg  Hg19  1  0.837118  0.837118  0.837220  1
  Ir  Ir20  1  0.392625  0.392625  0.392444  1
  Ir  Ir21  1  0.390621  0.390621  0.824066  1
  Rh  Rh22  1  0.390708  0.823821  0.390588  1
  Rh  Rh23  1  0.823821  0.390708  0.390588  1
