# generated using pymatgen
data_Tb11ErInCo4Ir
_symmetry_space_group_name_H-M   'P 1'
_cell_length_a   8.35270691
_cell_length_b   8.34637809
_cell_length_c   8.34637874
_cell_angle_alpha   111.11763446
_cell_angle_beta   110.54328107
_cell_angle_gamma   106.75720121
_symmetry_Int_Tables_number   1
_chemical_formula_structural   Tb11ErInCo4Ir
_chemical_formula_sum   'Tb11 Er1 In1 Co4 Ir1'
_cell_volume   447.32809709
_cell_formula_units_Z   1
loop_
 _symmetry_equiv_pos_site_id
 _symmetry_equiv_pos_as_xyz
  1  'x, y, z'
loop_
 _atom_site_type_symbol
 _atom_site_label
 _atom_site_symmetry_multiplicity
 _atom_site_fract_x
 _atom_site_fract_y
 _atom_site_fract_z
 _atom_site_occupancy
  Tb  Tb0  1  0.182921  0.287311  0.470867  1
  Tb  Tb1  1  0.816384  0.711305  0.527006  1
  Tb  Tb2  1  0.182921  0.712054  0.895610  1
  Tb  Tb3  1  0.816384  0.289378  0.105079  1
  Tb  Tb4  1  0.314912  0.621692  0.305383  1
  Tb  Tb5  1  0.685698  0.379415  0.695197  1
  Tb  Tb6  1  0.314912  0.009528  0.693220  1
  Tb  Tb7  1  0.685698  0.990502  0.306283  1
  Tb  Tb8  1  0.408615  0.214339  0.194276  1
  Tb  Tb9  1  0.592575  0.785547  0.807028  1
  Tb  Tb10  1  0.020930  0.214185  0.806745  1
  Er  Er11  1  0.980161  0.785856  0.194304  1
  In  In12  1  0.501302  0.500813  0.000489  1
  Co  Co13  1  0.109704  0.611123  0.498581  1
  Co  Co14  1  0.888259  0.388305  0.499954  1
  Co  Co15  1  0.377504  0.999622  0.377881  1
  Co  Co16  1  0.620490  0.000347  0.620143  1
  Ir  Ir17  1  0.000631  0.998677  0.001954  1
