# generated using pymatgen
data_Dy4Sc4B24MoIr3
_symmetry_space_group_name_H-M   'P 1'
_cell_length_a   3.56192100
_cell_length_b   9.02003709
_cell_length_c   11.41853767
_cell_angle_alpha   90.13300907
_cell_angle_beta   90.00000000
_cell_angle_gamma   90.00000000
_symmetry_Int_Tables_number   1
_chemical_formula_structural   Dy4Sc4B24MoIr3
_chemical_formula_sum   'Dy4 Sc4 B24 Mo1 Ir3'
_cell_volume   366.86132077
_cell_formula_units_Z   1
loop_
 _symmetry_equiv_pos_site_id
 _symmetry_equiv_pos_as_xyz
  1  'x, y, z'
loop_
 _atom_site_type_symbol
 _atom_site_label
 _atom_site_symmetry_multiplicity
 _atom_site_fract_x
 _atom_site_fract_y
 _atom_site_fract_z
 _atom_site_occupancy
  Dy  Dy0  1  0.500000  0.317975  0.411590  1
  Dy  Dy1  1  0.500000  0.680087  0.585296  1
  Dy  Dy2  1  0.500000  0.179989  0.916415  1
  Dy  Dy3  1  0.500000  0.821719  0.086644  1
  Sc  Sc4  1  0.500000  0.443663  0.123875  1
  Sc  Sc5  1  0.500000  0.555199  0.875758  1
  Sc  Sc6  1  0.500000  0.054664  0.625064  1
  Sc  Sc7  1  0.500000  0.947848  0.374681  1
  B  B8  1  0.000000  0.099733  0.474737  1
  B  B9  1  0.000000  0.899604  0.527693  1
  B  B10  1  0.000000  0.401479  0.971746  1
  B  B11  1  0.000000  0.600656  0.026377  1
  B  B12  1  0.000000  0.129796  0.318936  1
  B  B13  1  0.000000  0.869710  0.681264  1
  B  B14  1  0.000000  0.370656  0.818684  1
  B  B15  1  0.000000  0.629436  0.182181  1
  B  B16  1  0.000000  0.052969  0.064787  1
  B  B17  1  0.000000  0.944937  0.932904  1
  B  B18  1  0.000000  0.444630  0.566283  1
  B  B19  1  0.000000  0.554822  0.433437  1
  B  B20  1  0.000000  0.482381  0.285709  1
  B  B21  1  0.000000  0.517993  0.715012  1
  B  B22  1  0.000000  0.017865  0.784859  1
  B  B23  1  0.000000  0.978856  0.215485  1
  B  B24  1  0.000000  0.255483  0.079661  1
  B  B25  1  0.000000  0.746127  0.919520  1
  B  B26  1  0.000000  0.245726  0.580373  1
  B  B27  1  0.000000  0.754291  0.419560  1
  B  B28  1  0.000000  0.297633  0.235607  1
  B  B29  1  0.000000  0.704745  0.764732  1
  B  B30  1  0.000000  0.205628  0.735468  1
  B  B31  1  0.000000  0.794271  0.266119  1
  Mo  Mo32  1  0.500000  0.140032  0.181094  1
  Ir  Ir33  1  0.500000  0.858729  0.818138  1
  Ir  Ir34  1  0.500000  0.359680  0.681060  1
  Ir  Ir35  1  0.500000  0.640985  0.319249  1
