# generated using pymatgen
data_La8Yb5Er7Si16
_symmetry_space_group_name_H-M   'P 1'
_cell_length_a   7.86345701
_cell_length_b   7.85971793
_cell_length_c   14.40205045
_cell_angle_alpha   89.84566621
_cell_angle_beta   89.99443882
_cell_angle_gamma   89.99594435
_symmetry_Int_Tables_number   1
_chemical_formula_structural   La8Yb5Er7Si16
_chemical_formula_sum   'La8 Yb5 Er7 Si16'
_cell_volume   890.10907083
_cell_formula_units_Z   1
loop_
 _symmetry_equiv_pos_site_id
 _symmetry_equiv_pos_as_xyz
  1  'x, y, z'
loop_
 _atom_site_type_symbol
 _atom_site_label
 _atom_site_symmetry_multiplicity
 _atom_site_fract_x
 _atom_site_fract_y
 _atom_site_fract_z
 _atom_site_occupancy
  La  La0  1  0.992373  0.638748  0.041369  1
  La  La1  1  0.006599  0.362850  0.542385  1
  La  La2  1  0.639737  0.992677  0.958597  1
  La  La3  1  0.139974  0.508492  0.791327  1
  La  La4  1  0.860458  0.491281  0.290836  1
  La  La5  1  0.506251  0.139432  0.207281  1
  La  La6  1  0.492531  0.860689  0.709363  1
  La  La7  1  0.360785  0.009943  0.459562  1
  Yb  Yb8  1  0.363594  0.492200  0.377067  1
  Yb  Yb9  1  0.681097  0.683301  0.498746  1
  Yb  Yb10  1  0.814803  0.185056  0.750555  1
  Yb  Yb11  1  0.187691  0.809760  0.251253  1
  Yb  Yb12  1  0.315943  0.315649  0.999143  1
  Er  Er13  1  0.865091  0.005581  0.373694  1
  Er  Er14  1  0.995728  0.134775  0.124575  1
  Er  Er15  1  0.004743  0.865115  0.628023  1
  Er  Er16  1  0.635166  0.505046  0.876570  1
  Er  Er17  1  0.495598  0.364752  0.624850  1
  Er  Er18  1  0.507084  0.636352  0.122012  1
  Er  Er19  1  0.135383  0.995307  0.873248  1
  Si  Si20  1  0.069093  0.715162  0.444450  1
  Si  Si21  1  0.926841  0.289019  0.940975  1
  Si  Si22  1  0.712640  0.072331  0.559355  1
  Si  Si23  1  0.207557  0.424716  0.189019  1
  Si  Si24  1  0.787773  0.574168  0.691900  1
  Si  Si25  1  0.426887  0.211618  0.808301  1
  Si  Si26  1  0.577291  0.792463  0.306064  1
  Si  Si27  1  0.288042  0.925811  0.057866  1
  Si  Si28  1  0.849380  0.788208  0.813514  1
  Si  Si29  1  0.149666  0.205508  0.308628  1
  Si  Si30  1  0.789749  0.851049  0.186394  1
  Si  Si31  1  0.286308  0.653762  0.565669  1
  Si  Si32  1  0.710427  0.348635  0.062104  1
  Si  Si33  1  0.657585  0.287031  0.440730  1
  Si  Si34  1  0.349041  0.711489  0.937225  1
  Si  Si35  1  0.211093  0.152024  0.687351  1
