# generated using pymatgen
data_LaPr2Tl2InRh3
_symmetry_space_group_name_H-M   'P 1'
_cell_length_a   7.71609653
_cell_length_b   7.87970998
_cell_length_c   4.07550900
_cell_angle_alpha   90.00000000
_cell_angle_beta   90.00000000
_cell_angle_gamma   120.51598137
_symmetry_Int_Tables_number   1
_chemical_formula_structural   LaPr2Tl2InRh3
_chemical_formula_sum   'La1 Pr2 Tl2 In1 Rh3'
_cell_volume   213.47093499
_cell_formula_units_Z   1
loop_
 _symmetry_equiv_pos_site_id
 _symmetry_equiv_pos_as_xyz
  1  'x, y, z'
loop_
 _atom_site_type_symbol
 _atom_site_label
 _atom_site_symmetry_multiplicity
 _atom_site_fract_x
 _atom_site_fract_y
 _atom_site_fract_z
 _atom_site_occupancy
  La  La0  1  0.001495  0.587694  0.500000  1
  Pr  Pr1  1  0.410423  0.405994  0.500000  1
  Pr  Pr2  1  0.589091  0.998496  0.500000  1
  Tl  Tl3  1  0.743004  0.746418  0.000000  1
  Tl  Tl4  1  0.000360  0.249324  0.000000  1
  In  In5  1  0.256672  0.003730  0.000000  1
  Rh  Rh6  1  0.322421  0.673073  0.000000  1
  Rh  Rh7  1  0.009749  0.998590  0.500000  1
  Rh  Rh8  1  0.666786  0.336681  0.000000  1
