# generated using pymatgen
data_Er3Tm(ZrCo)4
_symmetry_space_group_name_H-M   'P 1'
_cell_length_a   4.48982400
_cell_length_b   6.79998119
_cell_length_c   8.03639445
_cell_angle_alpha   89.96738098
_cell_angle_beta   90.00000000
_cell_angle_gamma   90.00000000
_symmetry_Int_Tables_number   1
_chemical_formula_structural   Er3Tm(ZrCo)4
_chemical_formula_sum   'Er3 Tm1 Zr4 Co4'
_cell_volume   245.35685883
_cell_formula_units_Z   1
loop_
 _symmetry_equiv_pos_site_id
 _symmetry_equiv_pos_as_xyz
  1  'x, y, z'
loop_
 _atom_site_type_symbol
 _atom_site_label
 _atom_site_symmetry_multiplicity
 _atom_site_fract_x
 _atom_site_fract_y
 _atom_site_fract_z
 _atom_site_occupancy
  Er  Er0  1  0.250000  0.017177  0.825679  1
  Er  Er1  1  0.750000  0.982523  0.174100  1
  Er  Er2  1  0.750000  0.482848  0.326138  1
  Tm  Tm3  1  0.250000  0.517861  0.674189  1
  Zr  Zr4  1  0.750000  0.359676  0.921144  1
  Zr  Zr5  1  0.250000  0.140920  0.422461  1
  Zr  Zr6  1  0.250000  0.640045  0.077570  1
  Zr  Zr7  1  0.750000  0.858861  0.578353  1
  Co  Co8  1  0.750000  0.229749  0.586961  1
  Co  Co9  1  0.250000  0.770591  0.413993  1
  Co  Co10  1  0.750000  0.729273  0.913231  1
  Co  Co11  1  0.250000  0.270477  0.086181  1
