# generated using pymatgen
data_CaGaBIr3
_symmetry_space_group_name_H-M   'P 1'
_cell_length_a   5.59399000
_cell_length_b   5.59398911
_cell_length_c   6.96360500
_cell_angle_alpha   90.00000000
_cell_angle_beta   90.00000000
_cell_angle_gamma   119.99999343
_symmetry_Int_Tables_number   1
_chemical_formula_structural   CaGaBIr3
_chemical_formula_sum   'Ca2 Ga2 B2 Ir6'
_cell_volume   188.71572562
_cell_formula_units_Z   2
loop_
 _symmetry_equiv_pos_site_id
 _symmetry_equiv_pos_as_xyz
  1  'x, y, z'
loop_
 _atom_site_type_symbol
 _atom_site_label
 _atom_site_symmetry_multiplicity
 _atom_site_fract_x
 _atom_site_fract_y
 _atom_site_fract_z
 _atom_site_occupancy
  Ca  Ca0  1  0.000000  0.000000  0.500000  1
  Ca  Ca1  1  0.000000  0.000000  0.000000  1
  Ga  Ga2  1  0.333333  0.666667  0.500000  1
  Ga  Ga3  1  0.666667  0.333333  0.500000  1
  B  B4  1  0.666667  0.333333  0.000000  1
  B  B5  1  0.333333  0.666667  0.000000  1
  Ir  Ir6  1  0.500000  0.500000  0.790801  1
  Ir  Ir7  1  0.000000  0.500000  0.790801  1
  Ir  Ir8  1  0.500000  0.000000  0.790801  1
  Ir  Ir9  1  0.000000  0.500000  0.209199  1
  Ir  Ir10  1  0.500000  0.500000  0.209199  1
  Ir  Ir11  1  0.500000  0.000000  0.209199  1
