# generated using pymatgen
data_SrTa2P2O11
_symmetry_space_group_name_H-M   'P 1'
_cell_length_a   9.49005038
_cell_length_b   9.49004988
_cell_length_c   5.32895655
_cell_angle_alpha   88.15209033
_cell_angle_beta   88.15208379
_cell_angle_gamma   73.16650550
_symmetry_Int_Tables_number   1
_chemical_formula_structural   SrTa2P2O11
_chemical_formula_sum   'Sr2 Ta4 P4 O22'
_cell_volume   458.99599293
_cell_formula_units_Z   2
loop_
 _symmetry_equiv_pos_site_id
 _symmetry_equiv_pos_as_xyz
  1  'x, y, z'
loop_
 _atom_site_type_symbol
 _atom_site_label
 _atom_site_symmetry_multiplicity
 _atom_site_fract_x
 _atom_site_fract_y
 _atom_site_fract_z
 _atom_site_occupancy
  Sr  Sr0  1  0.612873  0.387127  0.250000  1
  Sr  Sr1  1  0.387127  0.612873  0.750000  1
  Ta  Ta2  1  0.007809  0.244714  0.263266  1
  Ta  Ta3  1  0.244714  0.007809  0.763266  1
  Ta  Ta4  1  0.755286  0.992191  0.236734  1
  Ta  Ta5  1  0.992191  0.755286  0.736734  1
  P  P6  1  0.179215  0.526170  0.244216  1
  P  P7  1  0.820785  0.473830  0.755784  1
  P  P8  1  0.473830  0.820785  0.255784  1
  P  P9  1  0.526170  0.179215  0.744216  1
  O  O10  1  0.628475  0.088532  0.536481  1
  O  O11  1  0.105582  0.139617  0.551716  1
  O  O12  1  0.088532  0.628475  0.036481  1
  O  O13  1  0.847437  0.391672  0.501720  1
  O  O14  1  0.851121  0.148879  0.250000  1
  O  O15  1  0.391672  0.847437  0.001720  1
  O  O16  1  0.608328  0.152563  0.998280  1
  O  O17  1  0.386299  0.126488  0.779751  1
  O  O18  1  0.894418  0.860383  0.448284  1
  O  O19  1  0.139617  0.105582  0.051716  1
  O  O20  1  0.911468  0.371525  0.963519  1
  O  O21  1  0.515162  0.659060  0.335558  1
  O  O22  1  0.340940  0.484838  0.164442  1
  O  O23  1  0.873512  0.613701  0.720249  1
  O  O24  1  0.148879  0.851121  0.750000  1
  O  O25  1  0.860383  0.894418  0.948284  1
  O  O26  1  0.152563  0.608328  0.498280  1
  O  O27  1  0.613701  0.873512  0.220249  1
  O  O28  1  0.659060  0.515162  0.835558  1
  O  O29  1  0.371525  0.911468  0.463519  1
  O  O30  1  0.484838  0.340940  0.664442  1
  O  O31  1  0.126488  0.386299  0.279751  1
