# generated using pymatgen
data_La2CdRhAu
_symmetry_space_group_name_H-M   'P 1'
_cell_length_a   7.97761400
_cell_length_b   8.00320900
_cell_length_c   4.01207600
_cell_angle_alpha   90.00000000
_cell_angle_beta   90.00000000
_cell_angle_gamma   90.00000000
_symmetry_Int_Tables_number   1
_chemical_formula_structural   La2CdRhAu
_chemical_formula_sum   'La4 Cd2 Rh2 Au2'
_cell_volume   256.15705913
_cell_formula_units_Z   2
loop_
 _symmetry_equiv_pos_site_id
 _symmetry_equiv_pos_as_xyz
  1  'x, y, z'
loop_
 _atom_site_type_symbol
 _atom_site_label
 _atom_site_symmetry_multiplicity
 _atom_site_fract_x
 _atom_site_fract_y
 _atom_site_fract_z
 _atom_site_occupancy
  La  La0  1  0.823126  0.687766  0.500000  1
  La  La1  1  0.323126  0.812234  0.500000  1
  La  La2  1  0.672936  0.146539  0.500000  1
  La  La3  1  0.172936  0.353461  0.500000  1
  Cd  Cd4  1  0.000308  0.995241  0.000000  1
  Cd  Cd5  1  0.500308  0.504759  0.000000  1
  Rh  Rh6  1  0.640796  0.873250  0.000000  1
  Rh  Rh7  1  0.140796  0.626750  0.000000  1
  Au  Au8  1  0.862833  0.378596  0.000000  1
  Au  Au9  1  0.362833  0.121404  0.000000  1
