# generated using pymatgen
data_Tm16MgGa(AgRh2)2
_symmetry_space_group_name_H-M   'P 1'
_cell_length_a   9.47446926
_cell_length_b   9.47289907
_cell_length_c   9.47289790
_cell_angle_alpha   59.58126635
_cell_angle_beta   59.59979475
_cell_angle_gamma   59.59979308
_symmetry_Int_Tables_number   1
_chemical_formula_structural   Tm16MgGa(AgRh2)2
_chemical_formula_sum   'Tm16 Mg1 Ga1 Ag2 Rh4'
_cell_volume   595.62844610
_cell_formula_units_Z   1
loop_
 _symmetry_equiv_pos_site_id
 _symmetry_equiv_pos_as_xyz
  1  'x, y, z'
loop_
 _atom_site_type_symbol
 _atom_site_label
 _atom_site_symmetry_multiplicity
 _atom_site_fract_x
 _atom_site_fract_y
 _atom_site_fract_z
 _atom_site_occupancy
  Tm  Tm0  1  0.597466  0.597497  0.597497  1
  Tm  Tm1  1  0.603919  0.601798  0.198046  1
  Tm  Tm2  1  0.603919  0.198046  0.601798  1
  Tm  Tm3  1  0.184389  0.606921  0.606921  1
  Tm  Tm4  1  0.059317  0.438628  0.438628  1
  Tm  Tm5  1  0.440975  0.059914  0.059914  1
  Tm  Tm6  1  0.435503  0.061655  0.437246  1
  Tm  Tm7  1  0.058385  0.441953  0.058454  1
  Tm  Tm8  1  0.435503  0.437246  0.061655  1
  Tm  Tm9  1  0.058385  0.058454  0.441953  1
  Tm  Tm10  1  0.180642  0.816743  0.816743  1
  Tm  Tm11  1  0.812100  0.187384  0.187384  1
  Tm  Tm12  1  0.814930  0.186728  0.817026  1
  Tm  Tm13  1  0.185898  0.812766  0.189255  1
  Tm  Tm14  1  0.814930  0.817026  0.186728  1
  Tm  Tm15  1  0.185898  0.189255  0.812766  1
  Mg  Mg16  1  0.537217  0.819292  0.819292  1
  Ga  Ga17  1  0.835169  0.833582  0.833582  1
  Ag  Ag18  1  0.832412  0.834714  0.499134  1
  Ag  Ag19  1  0.832412  0.499134  0.834714  1
  Rh  Rh20  1  0.389347  0.395433  0.395433  1
  Rh  Rh21  1  0.389563  0.393655  0.820292  1
  Rh  Rh22  1  0.389563  0.820292  0.393655  1
  Rh  Rh23  1  0.822154  0.391885  0.391885  1
