# generated using pymatgen
data_ScAl7Pt16
_symmetry_space_group_name_H-M   'P 1'
_cell_length_a   3.99514400
_cell_length_b   5.52795400
_cell_length_c   16.45571200
_cell_angle_alpha   90.00000000
_cell_angle_beta   90.00000000
_cell_angle_gamma   90.00000000
_symmetry_Int_Tables_number   1
_chemical_formula_structural   ScAl7Pt16
_chemical_formula_sum   'Sc1 Al7 Pt16'
_cell_volume   363.42394296
_cell_formula_units_Z   1
loop_
 _symmetry_equiv_pos_site_id
 _symmetry_equiv_pos_as_xyz
  1  'x, y, z'
loop_
 _atom_site_type_symbol
 _atom_site_label
 _atom_site_symmetry_multiplicity
 _atom_site_fract_x
 _atom_site_fract_y
 _atom_site_fract_z
 _atom_site_occupancy
  Sc  Sc0  1  0.000000  0.200517  0.750000  1
  Al  Al1  1  0.000000  0.797147  0.250000  1
  Al  Al2  1  0.000000  0.688482  0.590844  1
  Al  Al3  1  0.000000  0.312699  0.408030  1
  Al  Al4  1  0.000000  0.688482  0.909156  1
  Al  Al5  1  0.000000  0.312699  0.091970  1
  Al  Al6  1  0.500000  0.000288  0.499578  1
  Al  Al7  1  0.500000  0.000288  0.000422  1
  Pt  Pt8  1  0.500000  0.053933  0.343501  1
  Pt  Pt9  1  0.500000  0.946443  0.656376  1
  Pt  Pt10  1  0.500000  0.558372  0.167633  1
  Pt  Pt11  1  0.500000  0.446704  0.834320  1
  Pt  Pt12  1  0.500000  0.558372  0.332367  1
  Pt  Pt13  1  0.500000  0.446704  0.665680  1
  Pt  Pt14  1  0.000000  0.276556  0.250000  1
  Pt  Pt15  1  0.000000  0.710366  0.750000  1
  Pt  Pt16  1  0.500000  0.946443  0.843624  1
  Pt  Pt17  1  0.500000  0.053933  0.156499  1
  Pt  Pt18  1  0.500000  0.501188  0.499269  1
  Pt  Pt19  1  0.500000  0.501188  0.000731  1
  Pt  Pt20  1  0.000000  0.200654  0.568194  1
  Pt  Pt21  1  0.000000  0.798943  0.430988  1
  Pt  Pt22  1  0.000000  0.200654  0.931806  1
  Pt  Pt23  1  0.000000  0.798943  0.069012  1
