# generated using pymatgen
data_CaTbNi7
_symmetry_space_group_name_H-M   'P 1'
_cell_length_a   4.92323823
_cell_length_b   4.92323680
_cell_length_c   12.37842718
_cell_angle_alpha   78.52948551
_cell_angle_beta   78.52948896
_cell_angle_gamma   59.99999789
_symmetry_Int_Tables_number   1
_chemical_formula_structural   CaTbNi7
_chemical_formula_sum   'Ca2 Tb2 Ni14'
_cell_volume   252.89182674
_cell_formula_units_Z   2
loop_
 _symmetry_equiv_pos_site_id
 _symmetry_equiv_pos_as_xyz
  1  'x, y, z'
loop_
 _atom_site_type_symbol
 _atom_site_label
 _atom_site_symmetry_multiplicity
 _atom_site_fract_x
 _atom_site_fract_y
 _atom_site_fract_z
 _atom_site_occupancy
  Ca  Ca0  1  0.851210  0.851210  0.446372  1
  Ca  Ca1  1  0.148790  0.148790  0.553628  1
  Tb  Tb2  1  0.948135  0.948135  0.155595  1
  Tb  Tb3  1  0.051865  0.051865  0.844405  1
  Ni  Ni4  1  0.500000  0.500000  0.500000  1
  Ni  Ni5  1  0.721529  0.721529  0.835411  1
  Ni  Ni6  1  0.278471  0.278471  0.164589  1
  Ni  Ni7  1  0.612265  0.612265  0.163204  1
  Ni  Ni8  1  0.387735  0.387735  0.836796  1
  Ni  Ni9  1  0.000000  0.500000  0.000000  1
  Ni  Ni10  1  0.500000  0.000000  0.000000  1
  Ni  Ni11  1  0.500000  0.500000  0.000000  1
  Ni  Ni12  1  0.391731  0.391731  0.326474  1
  Ni  Ni13  1  0.890064  0.391731  0.326474  1
  Ni  Ni14  1  0.391731  0.890064  0.326474  1
  Ni  Ni15  1  0.608269  0.608269  0.673526  1
  Ni  Ni16  1  0.109936  0.608269  0.673526  1
  Ni  Ni17  1  0.608269  0.109936  0.673526  1
