# generated using pymatgen
data_Ho3Er2FeBi2
_symmetry_space_group_name_H-M   'P 1'
_cell_length_a   7.91717400
_cell_length_b   8.90264200
_cell_length_c   12.36282300
_cell_angle_alpha   90.00000000
_cell_angle_beta   90.00000000
_cell_angle_gamma   90.00000000
_symmetry_Int_Tables_number   1
_chemical_formula_structural   Ho3Er2FeBi2
_chemical_formula_sum   'Ho12 Er8 Fe4 Bi8'
_cell_volume   871.37832063
_cell_formula_units_Z   4
loop_
 _symmetry_equiv_pos_site_id
 _symmetry_equiv_pos_as_xyz
  1  'x, y, z'
loop_
 _atom_site_type_symbol
 _atom_site_label
 _atom_site_symmetry_multiplicity
 _atom_site_fract_x
 _atom_site_fract_y
 _atom_site_fract_z
 _atom_site_occupancy
  Ho  Ho0  1  0.347975  0.750000  0.700372  1
  Ho  Ho1  1  0.652025  0.250000  0.299628  1
  Ho  Ho2  1  0.847975  0.250000  0.799628  1
  Ho  Ho3  1  0.152025  0.750000  0.200372  1
  Ho  Ho4  1  0.885672  0.750000  0.812965  1
  Ho  Ho5  1  0.114328  0.250000  0.187035  1
  Ho  Ho6  1  0.385672  0.250000  0.687035  1
  Ho  Ho7  1  0.614328  0.750000  0.312965  1
  Ho  Ho8  1  0.055789  0.750000  0.495489  1
  Ho  Ho9  1  0.944211  0.250000  0.504511  1
  Ho  Ho10  1  0.555789  0.250000  0.004511  1
  Ho  Ho11  1  0.444211  0.750000  0.995489  1
  Er  Er12  1  0.673188  0.536504  0.562506  1
  Er  Er13  1  0.326812  0.463496  0.437494  1
  Er  Er14  1  0.173188  0.463496  0.937494  1
  Er  Er15  1  0.326812  0.036504  0.437494  1
  Er  Er16  1  0.826812  0.536504  0.062506  1
  Er  Er17  1  0.673188  0.963496  0.562506  1
  Er  Er18  1  0.826812  0.963496  0.062506  1
  Er  Er19  1  0.173188  0.036504  0.937494  1
  Fe  Fe20  1  0.069408  0.750000  0.991708  1
  Fe  Fe21  1  0.930592  0.250000  0.008292  1
  Fe  Fe22  1  0.569408  0.250000  0.508292  1
  Fe  Fe23  1  0.430592  0.750000  0.491708  1
  Bi  Bi24  1  0.570993  0.507819  0.826884  1
  Bi  Bi25  1  0.429007  0.492181  0.173116  1
  Bi  Bi26  1  0.070993  0.492181  0.673116  1
  Bi  Bi27  1  0.429007  0.007819  0.173116  1
  Bi  Bi28  1  0.929007  0.507819  0.326884  1
  Bi  Bi29  1  0.570993  0.992181  0.826884  1
  Bi  Bi30  1  0.929007  0.992181  0.326884  1
  Bi  Bi31  1  0.070993  0.007819  0.673116  1
