# generated using pymatgen
data_Lu8Fe(B8W)3
_symmetry_space_group_name_H-M   'P 1'
_cell_length_a   3.51793900
_cell_length_b   9.16545446
_cell_length_c   11.54043720
_cell_angle_alpha   90.17316655
_cell_angle_beta   90.00000000
_cell_angle_gamma   90.00000000
_symmetry_Int_Tables_number   1
_chemical_formula_structural   Lu8Fe(B8W)3
_chemical_formula_sum   'Lu8 Fe1 B24 W3'
_cell_volume   372.10249926
_cell_formula_units_Z   1
loop_
 _symmetry_equiv_pos_site_id
 _symmetry_equiv_pos_as_xyz
  1  'x, y, z'
loop_
 _atom_site_type_symbol
 _atom_site_label
 _atom_site_symmetry_multiplicity
 _atom_site_fract_x
 _atom_site_fract_y
 _atom_site_fract_z
 _atom_site_occupancy
  Lu  Lu0  1  0.000000  0.820057  0.086518  1
  Lu  Lu1  1  0.000000  0.178424  0.914266  1
  Lu  Lu2  1  0.000000  0.321206  0.415964  1
  Lu  Lu3  1  0.000000  0.677927  0.586788  1
  Lu  Lu4  1  0.000000  0.443902  0.126266  1
  Lu  Lu5  1  0.000000  0.552118  0.867639  1
  Lu  Lu6  1  0.000000  0.945993  0.374149  1
  Lu  Lu7  1  0.000000  0.062594  0.629627  1
  Fe  Fe8  1  0.000000  0.360744  0.679757  1
  B  B9  1  0.500000  0.050119  0.064374  1
  B  B10  1  0.500000  0.948014  0.935018  1
  B  B11  1  0.500000  0.549574  0.438350  1
  B  B12  1  0.500000  0.443887  0.569023  1
  B  B13  1  0.500000  0.251702  0.076242  1
  B  B14  1  0.500000  0.745709  0.921159  1
  B  B15  1  0.500000  0.754001  0.424075  1
  B  B16  1  0.500000  0.253835  0.583128  1
  B  B17  1  0.500000  0.296190  0.236229  1
  B  B18  1  0.500000  0.702101  0.760538  1
  B  B19  1  0.500000  0.795605  0.263929  1
  B  B20  1  0.500000  0.211319  0.734432  1
  B  B21  1  0.500000  0.132796  0.318936  1
  B  B22  1  0.500000  0.869772  0.680600  1
  B  B23  1  0.500000  0.630555  0.182167  1
  B  B24  1  0.500000  0.368357  0.812947  1
  B  B25  1  0.500000  0.476915  0.287627  1
  B  B26  1  0.500000  0.512983  0.710586  1
  B  B27  1  0.500000  0.977081  0.213653  1
  B  B28  1  0.500000  0.024628  0.787487  1
  B  B29  1  0.500000  0.105206  0.473888  1
  B  B30  1  0.500000  0.902328  0.528881  1
  B  B31  1  0.500000  0.599822  0.026274  1
  B  B32  1  0.500000  0.396963  0.968956  1
  W  W33  1  0.000000  0.138958  0.179759  1
  W  W34  1  0.000000  0.859980  0.818553  1
  W  W35  1  0.000000  0.638636  0.322214  1
