# generated using pymatgen
data_P2Pb(O3F)2
_symmetry_space_group_name_H-M   'P 1'
_cell_length_a   5.23742500
_cell_length_b   5.23742380
_cell_length_c   6.71550400
_cell_angle_alpha   90.00000000
_cell_angle_beta   90.00000000
_cell_angle_gamma   120.00000128
_symmetry_Int_Tables_number   1
_chemical_formula_structural   P2Pb(O3F)2
_chemical_formula_sum   'P2 Pb1 O6 F2'
_cell_volume   159.53088420
_cell_formula_units_Z   1
loop_
 _symmetry_equiv_pos_site_id
 _symmetry_equiv_pos_as_xyz
  1  'x, y, z'
loop_
 _atom_site_type_symbol
 _atom_site_label
 _atom_site_symmetry_multiplicity
 _atom_site_fract_x
 _atom_site_fract_y
 _atom_site_fract_z
 _atom_site_occupancy
  P  P0  1  0.333333  0.666666  0.241469  1
  P  P1  1  0.666667  0.333334  0.758531  1
  Pb  Pb2  1  0.000000  0.000000  0.000000  1
  O  O3  1  0.303002  0.369693  0.183885  1
  O  O4  1  0.066690  0.696998  0.183885  1
  O  O5  1  0.630308  0.933310  0.183885  1
  O  O6  1  0.369693  0.066690  0.816115  1
  O  O7  1  0.933310  0.303002  0.816115  1
  O  O8  1  0.696998  0.630307  0.816115  1
  F  F9  1  0.666667  0.333334  0.525838  1
  F  F10  1  0.333333  0.666666  0.474162  1
