# generated using pymatgen
data_Li7La4Er4ZnSn8
_symmetry_space_group_name_H-M   'P 1'
_cell_length_a   9.46454304
_cell_length_b   9.48815128
_cell_length_c   7.61454988
_cell_angle_alpha   90.13008734
_cell_angle_beta   90.05570826
_cell_angle_gamma   119.92911759
_symmetry_Int_Tables_number   1
_chemical_formula_structural   Li7La4Er4ZnSn8
_chemical_formula_sum   'Li7 La4 Er4 Zn1 Sn8'
_cell_volume   592.60249209
_cell_formula_units_Z   1
loop_
 _symmetry_equiv_pos_site_id
 _symmetry_equiv_pos_as_xyz
  1  'x, y, z'
loop_
 _atom_site_type_symbol
 _atom_site_label
 _atom_site_symmetry_multiplicity
 _atom_site_fract_x
 _atom_site_fract_y
 _atom_site_fract_z
 _atom_site_occupancy
  Li  Li0  1  0.164060  0.832749  0.277482  1
  Li  Li1  1  0.668626  0.832783  0.277412  1
  Li  Li2  1  0.667080  0.334221  0.337858  1
  Li  Li3  1  0.832756  0.665385  0.684079  1
  Li  Li4  1  0.336153  0.167109  0.685263  1
  Li  Li5  1  0.831068  0.167119  0.685208  1
  Li  Li6  1  0.333947  0.667711  0.777929  1
  La  La7  1  0.001538  0.003101  0.999977  1
  La  La8  1  0.507037  0.014331  0.000311  1
  La  La9  1  0.504552  0.491204  0.002583  1
  La  La10  1  0.986698  0.491403  0.002410  1
  Er  Er11  1  0.999695  0.999271  0.500990  1
  Er  Er12  1  0.490432  0.980800  0.507778  1
  Er  Er13  1  0.017177  0.509808  0.503769  1
  Er  Er14  1  0.492694  0.509822  0.503812  1
  Zn  Zn15  1  0.166285  0.332683  0.295677  1
  Sn  Sn16  1  0.334086  0.668199  0.243725  1
  Sn  Sn17  1  0.832194  0.664502  0.276827  1
  Sn  Sn18  1  0.335629  0.166303  0.275045  1
  Sn  Sn19  1  0.830645  0.166336  0.275041  1
  Sn  Sn20  1  0.667313  0.334623  0.726979  1
  Sn  Sn21  1  0.166464  0.332937  0.734452  1
  Sn  Sn22  1  0.165426  0.833789  0.741726  1
  Sn  Sn23  1  0.668442  0.833814  0.741651  1
