# generated using pymatgen
data_DyEr3(ZnRh)4
_symmetry_space_group_name_H-M   'P 1'
_cell_length_a   4.07197300
_cell_length_b   6.89870656
_cell_length_c   8.05708481
_cell_angle_alpha   89.92305454
_cell_angle_beta   90.00000000
_cell_angle_gamma   90.00000000
_symmetry_Int_Tables_number   1
_chemical_formula_structural   DyEr3(ZnRh)4
_chemical_formula_sum   'Dy1 Er3 Zn4 Rh4'
_cell_volume   226.33415990
_cell_formula_units_Z   1
loop_
 _symmetry_equiv_pos_site_id
 _symmetry_equiv_pos_as_xyz
  1  'x, y, z'
loop_
 _atom_site_type_symbol
 _atom_site_label
 _atom_site_symmetry_multiplicity
 _atom_site_fract_x
 _atom_site_fract_y
 _atom_site_fract_z
 _atom_site_occupancy
  Dy  Dy0  1  0.250000  0.532892  0.184073  1
  Er  Er1  1  0.750000  0.466787  0.815458  1
  Er  Er2  1  0.750000  0.966846  0.683720  1
  Er  Er3  1  0.250000  0.033049  0.316452  1
  Zn  Zn4  1  0.250000  0.640976  0.564895  1
  Zn  Zn5  1  0.750000  0.358516  0.436168  1
  Zn  Zn6  1  0.750000  0.859811  0.063886  1
  Zn  Zn7  1  0.250000  0.140399  0.935233  1
  Rh  Rh8  1  0.250000  0.757810  0.876768  1
  Rh  Rh9  1  0.750000  0.241297  0.121974  1
  Rh  Rh10  1  0.750000  0.744337  0.379119  1
  Rh  Rh11  1  0.250000  0.257279  0.622254  1
