# generated using pymatgen
data_LiLaPr3Zn3Rh4
_symmetry_space_group_name_H-M   'P 1'
_cell_length_a   4.11912200
_cell_length_b   7.28648822
_cell_length_c   16.53156151
_cell_angle_alpha   89.97153416
_cell_angle_beta   90.00000000
_cell_angle_gamma   90.00000000
_symmetry_Int_Tables_number   1
_chemical_formula_structural   LiLaPr3Zn3Rh4
_chemical_formula_sum   'Li2 La2 Pr6 Zn6 Rh8'
_cell_volume   496.17713401
_cell_formula_units_Z   2
loop_
 _symmetry_equiv_pos_site_id
 _symmetry_equiv_pos_as_xyz
  1  'x, y, z'
loop_
 _atom_site_type_symbol
 _atom_site_label
 _atom_site_symmetry_multiplicity
 _atom_site_fract_x
 _atom_site_fract_y
 _atom_site_fract_z
 _atom_site_occupancy
  Li  Li0  1  0.250000  0.993244  0.440282  1
  Li  Li1  1  0.750000  0.506927  0.939448  1
  La  La2  1  0.750000  0.454407  0.217205  1
  La  La3  1  0.750000  0.954627  0.283047  1
  Pr  Pr4  1  0.750000  0.832327  0.059692  1
  Pr  Pr5  1  0.250000  0.044508  0.717478  1
  Pr  Pr6  1  0.250000  0.164852  0.940085  1
  Pr  Pr7  1  0.250000  0.544842  0.782373  1
  Pr  Pr8  1  0.750000  0.335673  0.441359  1
  Pr  Pr9  1  0.250000  0.667893  0.560772  1
  Zn  Zn10  1  0.750000  0.002243  0.559132  1
  Zn  Zn11  1  0.250000  0.629249  0.352602  1
  Zn  Zn12  1  0.750000  0.373221  0.649236  1
  Zn  Zn13  1  0.750000  0.870455  0.851235  1
  Zn  Zn14  1  0.250000  0.498011  0.057926  1
  Zn  Zn15  1  0.250000  0.126178  0.147821  1
  Rh  Rh16  1  0.250000  0.244971  0.565625  1
  Rh  Rh17  1  0.750000  0.257434  0.067060  1
  Rh  Rh18  1  0.250000  0.248776  0.310779  1
  Rh  Rh19  1  0.750000  0.249469  0.811673  1
  Rh  Rh20  1  0.250000  0.751761  0.935816  1
  Rh  Rh21  1  0.750000  0.750707  0.686813  1
  Rh  Rh22  1  0.750000  0.750569  0.434860  1
  Rh  Rh23  1  0.250000  0.747657  0.187677  1
