# generated using pymatgen
data_Nd3Sm5(Si3Ni)4
_symmetry_space_group_name_H-M   'P 1'
_cell_length_a   8.02299600
_cell_length_b   8.01946394
_cell_length_c   8.39699400
_cell_angle_alpha   90.00000000
_cell_angle_beta   90.00000000
_cell_angle_gamma   120.01457883
_symmetry_Int_Tables_number   1
_chemical_formula_structural   Nd3Sm5(Si3Ni)4
_chemical_formula_sum   'Nd3 Sm5 Si12 Ni4'
_cell_volume   467.81330555
_cell_formula_units_Z   1
loop_
 _symmetry_equiv_pos_site_id
 _symmetry_equiv_pos_as_xyz
  1  'x, y, z'
loop_
 _atom_site_type_symbol
 _atom_site_label
 _atom_site_symmetry_multiplicity
 _atom_site_fract_x
 _atom_site_fract_y
 _atom_site_fract_z
 _atom_site_occupancy
  Nd  Nd0  1  0.500659  0.001317  0.250000  1
  Nd  Nd1  1  0.999992  0.999984  0.750000  1
  Nd  Nd2  1  0.999995  0.999990  0.250000  1
  Sm  Sm3  1  0.499374  0.500627  0.750000  1
  Sm  Sm4  1  0.500557  0.499475  0.250000  1
  Sm  Sm5  1  0.001253  0.500627  0.750000  1
  Sm  Sm6  1  0.998919  0.499476  0.250000  1
  Sm  Sm7  1  0.499369  0.998738  0.750000  1
  Si  Si8  1  0.829035  0.171848  0.998219  1
  Si  Si9  1  0.170970  0.828154  0.999895  1
  Si  Si10  1  0.342813  0.171848  0.998219  1
  Si  Si11  1  0.170970  0.828154  0.500105  1
  Si  Si12  1  0.657184  0.828154  0.999895  1
  Si  Si13  1  0.829035  0.171848  0.501781  1
  Si  Si14  1  0.828533  0.657066  0.999154  1
  Si  Si15  1  0.657184  0.828154  0.500105  1
  Si  Si16  1  0.171439  0.342878  0.000750  1
  Si  Si17  1  0.342813  0.171848  0.501781  1
  Si  Si18  1  0.171439  0.342878  0.499250  1
  Si  Si19  1  0.828533  0.657066  0.500846  1
  Ni  Ni20  1  0.666930  0.333859  0.996094  1
  Ni  Ni21  1  0.333036  0.666073  0.000417  1
  Ni  Ni22  1  0.333036  0.666073  0.499583  1
  Ni  Ni23  1  0.666930  0.333859  0.503906  1
