# generated using pymatgen
data_YHo7Sc11Si16Ru
_symmetry_space_group_name_H-M   'P 1'
_cell_length_a   6.99208301
_cell_length_b   7.34722356
_cell_length_c   13.86983203
_cell_angle_alpha   90.00625569
_cell_angle_beta   90.00316797
_cell_angle_gamma   90.09412230
_symmetry_Int_Tables_number   1
_chemical_formula_structural   YHo7Sc11Si16Ru
_chemical_formula_sum   'Y1 Ho7 Sc11 Si16 Ru1'
_cell_volume   712.52555089
_cell_formula_units_Z   1
loop_
 _symmetry_equiv_pos_site_id
 _symmetry_equiv_pos_as_xyz
  1  'x, y, z'
loop_
 _atom_site_type_symbol
 _atom_site_label
 _atom_site_symmetry_multiplicity
 _atom_site_fract_x
 _atom_site_fract_y
 _atom_site_fract_z
 _atom_site_occupancy
  Y  Y0  1  0.011986  0.178077  0.093218  1
  Ho  Ho1  1  0.992506  0.817940  0.901014  1
  Ho  Ho2  1  0.488629  0.673182  0.902388  1
  Ho  Ho3  1  0.992529  0.817989  0.598936  1
  Ho  Ho4  1  0.511259  0.323465  0.094826  1
  Ho  Ho5  1  0.012093  0.178300  0.406599  1
  Ho  Ho6  1  0.511280  0.323391  0.405206  1
  Ho  Ho7  1  0.488602  0.673196  0.597602  1
  Sc  Sc8  1  0.841266  0.496059  0.250061  1
  Sc  Sc9  1  0.342023  0.003446  0.250052  1
  Sc  Sc10  1  0.657409  0.995941  0.749996  1
  Sc  Sc11  1  0.325913  0.177036  0.627133  1
  Sc  Sc12  1  0.672150  0.824703  0.374401  1
  Sc  Sc13  1  0.172842  0.673974  0.376596  1
  Sc  Sc14  1  0.672062  0.824614  0.125642  1
  Sc  Sc15  1  0.826016  0.330943  0.628284  1
  Sc  Sc16  1  0.325923  0.177026  0.872845  1
  Sc  Sc17  1  0.825966  0.331016  0.871657  1
  Sc  Sc18  1  0.172836  0.673922  0.123413  1
  Si  Si19  1  0.028923  0.116424  0.749997  1
  Si  Si20  1  0.973020  0.885665  0.250107  1
  Si  Si21  1  0.469145  0.615200  0.250015  1
  Si  Si22  1  0.515738  0.395484  0.749999  1
  Si  Si23  1  0.284795  0.863260  0.750003  1
  Si  Si24  1  0.716404  0.129626  0.250129  1
  Si  Si25  1  0.215205  0.370984  0.250188  1
  Si  Si26  1  0.794368  0.629597  0.749995  1
  Si  Si27  1  0.157033  0.465456  0.547042  1
  Si  Si28  1  0.843042  0.535783  0.463336  1
  Si  Si29  1  0.344921  0.964818  0.463104  1
  Si  Si30  1  0.842932  0.536148  0.036603  1
  Si  Si31  1  0.658982  0.034419  0.539814  1
  Si  Si32  1  0.157095  0.465717  0.952854  1
  Si  Si33  1  0.658861  0.034346  0.960136  1
  Si  Si34  1  0.345368  0.964550  0.036831  1
  Ru  Ru35  1  0.150877  0.498306  0.749982  1
