# generated using pymatgen
data_Ba6LiMo3O14
_symmetry_space_group_name_H-M   'P 1'
_cell_length_a   11.43583929
_cell_length_b   11.43583946
_cell_length_c   5.81863300
_cell_angle_alpha   90.00000000
_cell_angle_beta   90.00000000
_cell_angle_gamma   150.46475966
_symmetry_Int_Tables_number   1
_chemical_formula_structural   Ba6LiMo3O14
_chemical_formula_sum   'Ba6 Li1 Mo3 O14'
_cell_volume   375.11779976
_cell_formula_units_Z   1
loop_
 _symmetry_equiv_pos_site_id
 _symmetry_equiv_pos_as_xyz
  1  'x, y, z'
loop_
 _atom_site_type_symbol
 _atom_site_label
 _atom_site_symmetry_multiplicity
 _atom_site_fract_x
 _atom_site_fract_y
 _atom_site_fract_z
 _atom_site_occupancy
  Ba  Ba0  1  0.493875  0.506125  0.000000  1
  Ba  Ba1  1  0.994627  0.005373  0.500000  1
  Ba  Ba2  1  0.685630  0.314370  0.000000  1
  Ba  Ba3  1  0.187869  0.812131  0.500000  1
  Ba  Ba4  1  0.819745  0.180255  0.500000  1
  Ba  Ba5  1  0.317346  0.682654  0.000000  1
  Li  Li6  1  0.393173  0.606827  0.500000  1
  Mo  Mo7  1  0.904400  0.095600  0.000000  1
  Mo  Mo8  1  0.096686  0.903314  0.000000  1
  Mo  Mo9  1  0.595449  0.404551  0.500000  1
  O  O10  1  0.672152  0.859994  0.765073  1
  O  O11  1  0.140006  0.327848  0.234927  1
  O  O12  1  0.140006  0.327848  0.765073  1
  O  O13  1  0.672152  0.859994  0.234927  1
  O  O14  1  0.845185  0.652222  0.752601  1
  O  O15  1  0.347778  0.154815  0.247399  1
  O  O16  1  0.347778  0.154815  0.752601  1
  O  O17  1  0.845185  0.652222  0.247399  1
  O  O18  1  0.814111  0.185889  0.000000  1
  O  O19  1  0.300724  0.699276  0.500000  1
  O  O20  1  0.685557  0.314443  0.500000  1
  O  O21  1  0.191929  0.808071  0.000000  1
  O  O22  1  0.511166  0.488834  0.500000  1
  O  O23  1  0.997474  0.002526  0.000000  1
