# generated using pymatgen
data_Tb6Y2Re3B24Os
_symmetry_space_group_name_H-M   'P 1'
_cell_length_a   3.69033900
_cell_length_b   9.19859673
_cell_length_c   11.59117900
_cell_angle_alpha   89.92162522
_cell_angle_beta   90.00000000
_cell_angle_gamma   90.00000000
_symmetry_Int_Tables_number   1
_chemical_formula_structural   Tb6Y2Re3B24Os
_chemical_formula_sum   'Tb6 Y2 Re3 B24 Os1'
_cell_volume   393.47310180
_cell_formula_units_Z   1
loop_
 _symmetry_equiv_pos_site_id
 _symmetry_equiv_pos_as_xyz
  1  'x, y, z'
loop_
 _atom_site_type_symbol
 _atom_site_label
 _atom_site_symmetry_multiplicity
 _atom_site_fract_x
 _atom_site_fract_y
 _atom_site_fract_z
 _atom_site_occupancy
  Tb  Tb0  1  0.000000  0.822060  0.085763  1
  Tb  Tb1  1  0.000000  0.177257  0.912498  1
  Tb  Tb2  1  0.000000  0.324523  0.415571  1
  Tb  Tb3  1  0.000000  0.676627  0.586294  1
  Tb  Tb4  1  0.000000  0.442139  0.130266  1
  Tb  Tb5  1  0.000000  0.556973  0.870368  1
  Y  Y6  1  0.000000  0.942375  0.370182  1
  Y  Y7  1  0.000000  0.057268  0.629174  1
  Re  Re8  1  0.000000  0.862588  0.821900  1
  Re  Re9  1  0.000000  0.638583  0.320546  1
  Re  Re10  1  0.000000  0.361634  0.678961  1
  B  B11  1  0.500000  0.053729  0.067520  1
  B  B12  1  0.500000  0.947097  0.932826  1
  B  B13  1  0.500000  0.553159  0.432864  1
  B  B14  1  0.500000  0.446870  0.567344  1
  B  B15  1  0.500000  0.247678  0.082008  1
  B  B16  1  0.500000  0.751644  0.918334  1
  B  B17  1  0.500000  0.748510  0.418326  1
  B  B18  1  0.500000  0.251906  0.581619  1
  B  B19  1  0.500000  0.289887  0.234332  1
  B  B20  1  0.500000  0.709151  0.765762  1
  B  B21  1  0.500000  0.791050  0.265308  1
  B  B22  1  0.500000  0.208708  0.734114  1
  B  B23  1  0.500000  0.130981  0.313788  1
  B  B24  1  0.500000  0.869633  0.686253  1
  B  B25  1  0.500000  0.631013  0.185658  1
  B  B26  1  0.500000  0.368881  0.813866  1
  B  B27  1  0.500000  0.482858  0.288308  1
  B  B28  1  0.500000  0.517277  0.712034  1
  B  B29  1  0.500000  0.983440  0.211758  1
  B  B30  1  0.500000  0.017973  0.788071  1
  B  B31  1  0.500000  0.101834  0.471090  1
  B  B32  1  0.500000  0.898361  0.528145  1
  B  B33  1  0.500000  0.601252  0.028656  1
  B  B34  1  0.500000  0.397432  0.971672  1
  Os  Os35  1  0.000000  0.137653  0.178821  1
