# generated using pymatgen
data_LiHoTh7(Si4Rh)3
_symmetry_space_group_name_H-M   'P 1'
_cell_length_a   8.24744503
_cell_length_b   8.23096451
_cell_length_c   8.35969989
_cell_angle_alpha   89.99999913
_cell_angle_beta   89.93355894
_cell_angle_gamma   119.93393394
_symmetry_Int_Tables_number   1
_chemical_formula_structural   LiHoTh7(Si4Rh)3
_chemical_formula_sum   'Li1 Ho1 Th7 Si12 Rh3'
_cell_volume   491.79014852
_cell_formula_units_Z   1
loop_
 _symmetry_equiv_pos_site_id
 _symmetry_equiv_pos_as_xyz
  1  'x, y, z'
loop_
 _atom_site_type_symbol
 _atom_site_label
 _atom_site_symmetry_multiplicity
 _atom_site_fract_x
 _atom_site_fract_y
 _atom_site_fract_z
 _atom_site_occupancy
  Li  Li0  1  0.333480  0.666740  0.503389  1
  Ho  Ho1  1  0.995613  0.497806  0.751075  1
  Th  Th2  1  0.999584  0.999792  0.251996  1
  Th  Th3  1  0.000396  0.000199  0.747742  1
  Th  Th4  1  0.503557  0.496463  0.249501  1
  Th  Th5  1  0.503557  0.007095  0.249501  1
  Th  Th6  1  0.992188  0.496094  0.249215  1
  Th  Th7  1  0.503917  0.496387  0.750685  1
  Th  Th8  1  0.503917  0.007530  0.750685  1
  Si  Si9  1  0.167653  0.831111  0.500762  1
  Si  Si10  1  0.167653  0.336541  0.500762  1
  Si  Si11  1  0.665102  0.832550  0.498605  1
  Si  Si12  1  0.834611  0.168083  0.502696  1
  Si  Si13  1  0.834611  0.666529  0.502696  1
  Si  Si14  1  0.330700  0.165351  0.499813  1
  Si  Si15  1  0.835000  0.168303  0.996539  1
  Si  Si16  1  0.835000  0.666697  0.996539  1
  Si  Si17  1  0.328499  0.164250  0.000399  1
  Si  Si18  1  0.166196  0.831400  0.998472  1
  Si  Si19  1  0.166196  0.334795  0.998472  1
  Si  Si20  1  0.668440  0.834220  0.001613  1
  Rh  Rh21  1  0.665456  0.332728  0.504136  1
  Rh  Rh22  1  0.663854  0.331926  0.997813  1
  Rh  Rh23  1  0.334815  0.667408  0.996892  1
