# generated using pymatgen
data_AcSm2(ZnPt)4
_symmetry_space_group_name_H-M   'P 1'
_cell_length_a   8.34096457
_cell_length_b   8.34096534
_cell_length_c   8.34096500
_cell_angle_alpha   151.44519813
_cell_angle_beta   126.46568291
_cell_angle_gamma   61.79019930
_symmetry_Int_Tables_number   1
_chemical_formula_structural   AcSm2(ZnPt)4
_chemical_formula_sum   'Ac1 Sm2 Zn4 Pt4'
_cell_volume   221.22761218
_cell_formula_units_Z   1
loop_
 _symmetry_equiv_pos_site_id
 _symmetry_equiv_pos_as_xyz
  1  'x, y, z'
loop_
 _atom_site_type_symbol
 _atom_site_label
 _atom_site_symmetry_multiplicity
 _atom_site_fract_x
 _atom_site_fract_y
 _atom_site_fract_z
 _atom_site_occupancy
  Ac  Ac0  1  0.500000  0.000000  0.500000  1
  Sm  Sm1  1  0.872872  0.872872  0.000000  1
  Sm  Sm2  1  0.127128  0.127128  0.000000  1
  Zn  Zn3  1  0.478464  0.674934  0.803531  1
  Zn  Zn4  1  0.871403  0.674934  0.196469  1
  Zn  Zn5  1  0.128597  0.325066  0.803531  1
  Zn  Zn6  1  0.521536  0.325066  0.196469  1
  Pt  Pt7  1  0.277952  0.777952  0.500000  1
  Pt  Pt8  1  0.722048  0.222048  0.500000  1
  Pt  Pt9  1  0.809269  0.500000  0.309269  1
  Pt  Pt10  1  0.190731  0.500000  0.690731  1
