# generated using pymatgen
data_Ti2ZnB2Ir4Ru
_symmetry_space_group_name_H-M   'P 1'
_cell_length_a   9.30370400
_cell_length_b   2.98216600
_cell_length_c   9.30366700
_cell_angle_alpha   89.99999384
_cell_angle_beta   90.00274664
_cell_angle_gamma   89.99999384
_symmetry_Int_Tables_number   1
_chemical_formula_structural   Ti2ZnB2Ir4Ru
_chemical_formula_sum   'Ti4 Zn2 B4 Ir8 Ru2'
_cell_volume   258.13200607
_cell_formula_units_Z   2
loop_
 _symmetry_equiv_pos_site_id
 _symmetry_equiv_pos_as_xyz
  1  'x, y, z'
loop_
 _atom_site_type_symbol
 _atom_site_label
 _atom_site_symmetry_multiplicity
 _atom_site_fract_x
 _atom_site_fract_y
 _atom_site_fract_z
 _atom_site_occupancy
  Ti  Ti0  1  0.673709  0.000000  0.173708  1
  Ti  Ti1  1  0.173709  0.999999  0.326290  1
  Ti  Ti2  1  0.826290  0.999999  0.673709  1
  Ti  Ti3  1  0.326291  0.000000  0.826291  1
  Zn  Zn4  1  0.999998  0.999999  0.999998  1
  Zn  Zn5  1  0.499999  0.999999  0.499999  1
  B  B6  1  0.375484  0.000000  0.124517  1
  B  B7  1  0.875475  0.999999  0.375474  1
  B  B8  1  0.124516  0.999999  0.624515  1
  B  B9  1  0.624514  0.999999  0.875488  1
  Ir  Ir10  1  0.214853  0.499999  0.072407  1
  Ir  Ir11  1  0.927543  0.499999  0.214842  1
  Ir  Ir12  1  0.427607  0.499999  0.285142  1
  Ir  Ir13  1  0.714837  0.499999  0.427541  1
  Ir  Ir14  1  0.285149  0.499999  0.572434  1
  Ir  Ir15  1  0.572405  0.499999  0.714854  1
  Ir  Ir16  1  0.072438  0.499999  0.785154  1
  Ir  Ir17  1  0.785141  0.499999  0.927609  1
  Ru  Ru18  1  0.500036  0.500010  0.000028  1
  Ru  Ru19  1  0.000006  0.499999  0.500002  1
