# generated using pymatgen
data_YErZr3Si4
_symmetry_space_group_name_H-M   'P 1'
_cell_length_a   7.36014979
_cell_length_b   7.15137745
_cell_length_c   7.32987800
_cell_angle_alpha   71.85312379
_cell_angle_beta   89.73656840
_cell_angle_gamma   90.25571441
_symmetry_Int_Tables_number   1
_chemical_formula_structural   YErZr3Si4
_chemical_formula_sum   'Y2 Er2 Zr6 Si8'
_cell_volume   366.60903655
_cell_formula_units_Z   2
loop_
 _symmetry_equiv_pos_site_id
 _symmetry_equiv_pos_as_xyz
  1  'x, y, z'
loop_
 _atom_site_type_symbol
 _atom_site_label
 _atom_site_symmetry_multiplicity
 _atom_site_fract_x
 _atom_site_fract_y
 _atom_site_fract_z
 _atom_site_occupancy
  Y  Y0  1  0.171705  0.574389  0.308293  1
  Y  Y1  1  0.828295  0.425611  0.691707  1
  Er  Er2  1  0.672466  0.925238  0.693176  1
  Er  Er3  1  0.327534  0.074762  0.306824  1
  Zr  Zr4  1  0.680567  0.750619  0.247952  1
  Zr  Zr5  1  0.319433  0.249381  0.752048  1
  Zr  Zr6  1  0.181832  0.750988  0.751836  1
  Zr  Zr7  1  0.818168  0.249012  0.248164  1
  Zr  Zr8  1  0.000000  0.000000  0.000000  1
  Zr  Zr9  1  0.500000  0.500000  0.000000  1
  Si  Si10  1  0.968645  0.871829  0.418858  1
  Si  Si11  1  0.031355  0.128171  0.581142  1
  Si  Si12  1  0.469530  0.629169  0.582116  1
  Si  Si13  1  0.530470  0.370831  0.417884  1
  Si  Si14  1  0.876974  0.627971  0.990742  1
  Si  Si15  1  0.123026  0.372029  0.009258  1
  Si  Si16  1  0.377926  0.872578  0.008836  1
  Si  Si17  1  0.622074  0.127422  0.991164  1
