# generated using pymatgen
data_Pu4Re5TcB12
_symmetry_space_group_name_H-M   'P 1'
_cell_length_a   6.24174797
_cell_length_b   6.24174840
_cell_length_c   7.44319362
_cell_angle_alpha   89.61358959
_cell_angle_beta   89.61360074
_cell_angle_gamma   114.22584770
_symmetry_Int_Tables_number   1
_chemical_formula_structural   Pu4Re5TcB12
_chemical_formula_sum   'Pu4 Re5 Tc1 B12'
_cell_volume   264.42482986
_cell_formula_units_Z   1
loop_
 _symmetry_equiv_pos_site_id
 _symmetry_equiv_pos_as_xyz
  1  'x, y, z'
loop_
 _atom_site_type_symbol
 _atom_site_label
 _atom_site_symmetry_multiplicity
 _atom_site_fract_x
 _atom_site_fract_y
 _atom_site_fract_z
 _atom_site_occupancy
  Pu  Pu0  1  0.899566  0.547030  0.332558  1
  Pu  Pu1  1  0.452970  0.100434  0.167442  1
  Pu  Pu2  1  0.099835  0.452724  0.666974  1
  Pu  Pu3  1  0.547276  0.900165  0.833026  1
  Re  Re4  1  0.590028  0.409972  0.750000  1
  Re  Re5  1  0.010937  0.193280  0.088516  1
  Re  Re6  1  0.806720  0.989063  0.411484  1
  Re  Re7  1  0.989326  0.806649  0.911733  1
  Re  Re8  1  0.193351  0.010674  0.588267  1
  Tc  Tc9  1  0.409674  0.590326  0.250000  1
  B  B10  1  0.754830  0.842063  0.134662  1
  B  B11  1  0.157937  0.245170  0.365338  1
  B  B12  1  0.246578  0.157523  0.866144  1
  B  B13  1  0.842477  0.753422  0.633856  1
  B  B14  1  0.414397  0.842301  0.482822  1
  B  B15  1  0.157699  0.585603  0.017178  1
  B  B16  1  0.587598  0.159962  0.519457  1
  B  B17  1  0.840038  0.412402  0.980543  1
  B  B18  1  0.553142  0.650000  0.536574  1
  B  B19  1  0.350000  0.446858  0.963426  1
  B  B20  1  0.445744  0.350124  0.462200  1
  B  B21  1  0.649876  0.554256  0.037800  1
