# generated using pymatgen
data_Pr3Th2SnBi2Br
_symmetry_space_group_name_H-M   'P 1'
_cell_length_a   9.70944900
_cell_length_b   9.63995467
_cell_length_c   6.75141900
_cell_angle_alpha   90.00000000
_cell_angle_beta   90.00000000
_cell_angle_gamma   120.23875590
_symmetry_Int_Tables_number   1
_chemical_formula_structural   Pr3Th2SnBi2Br
_chemical_formula_sum   'Pr6 Th4 Sn2 Bi4 Br2'
_cell_volume   545.94058598
_cell_formula_units_Z   2
loop_
 _symmetry_equiv_pos_site_id
 _symmetry_equiv_pos_as_xyz
  1  'x, y, z'
loop_
 _atom_site_type_symbol
 _atom_site_label
 _atom_site_symmetry_multiplicity
 _atom_site_fract_x
 _atom_site_fract_y
 _atom_site_fract_z
 _atom_site_occupancy
  Pr  Pr0  1  0.278059  0.000000  0.750000  1
  Pr  Pr1  1  0.721941  0.000000  0.250000  1
  Pr  Pr2  1  0.995184  0.271010  0.750000  1
  Pr  Pr3  1  0.004816  0.728990  0.250000  1
  Pr  Pr4  1  0.724174  0.728990  0.750000  1
  Pr  Pr5  1  0.275826  0.271010  0.250000  1
  Th  Th6  1  0.336798  0.673596  0.500000  1
  Th  Th7  1  0.663202  0.326404  0.500000  1
  Th  Th8  1  0.663202  0.326404  0.000000  1
  Th  Th9  1  0.336798  0.673596  0.000000  1
  Sn  Sn10  1  0.616182  0.000000  0.750000  1
  Sn  Sn11  1  0.383818  0.000000  0.250000  1
  Bi  Bi12  1  0.999547  0.617027  0.750000  1
  Bi  Bi13  1  0.000453  0.382973  0.250000  1
  Bi  Bi14  1  0.382519  0.382973  0.750000  1
  Bi  Bi15  1  0.617481  0.617027  0.250000  1
  Br  Br16  1  0.000000  0.000000  0.500000  1
  Br  Br17  1  0.000000  0.000000  0.000000  1
