# generated using pymatgen
data_Rb8Ti6BeBr20
_symmetry_space_group_name_H-M   'P 1'
_cell_length_a   11.98911684
_cell_length_b   11.98911620
_cell_length_c   11.98911500
_cell_angle_alpha   60.00000055
_cell_angle_beta   60.00000233
_cell_angle_gamma   59.99999500
_symmetry_Int_Tables_number   1
_chemical_formula_structural   Rb8Ti6BeBr20
_chemical_formula_sum   'Rb8 Ti6 Be1 Br20'
_cell_volume   1218.55878075
_cell_formula_units_Z   1
loop_
 _symmetry_equiv_pos_site_id
 _symmetry_equiv_pos_as_xyz
  1  'x, y, z'
loop_
 _atom_site_type_symbol
 _atom_site_label
 _atom_site_symmetry_multiplicity
 _atom_site_fract_x
 _atom_site_fract_y
 _atom_site_fract_z
 _atom_site_occupancy
  Rb  Rb0  1  0.361577  0.361577  0.361577  1
  Rb  Rb1  1  0.638423  0.638423  0.638423  1
  Rb  Rb2  1  0.361577  0.361577  0.915269  1
  Rb  Rb3  1  0.361577  0.915269  0.361577  1
  Rb  Rb4  1  0.638423  0.638423  0.084731  1
  Rb  Rb5  1  0.638423  0.084731  0.638423  1
  Rb  Rb6  1  0.915269  0.361577  0.361577  1
  Rb  Rb7  1  0.084731  0.638423  0.638423  1
  Ti  Ti8  1  0.866614  0.133386  0.133386  1
  Ti  Ti9  1  0.133386  0.866614  0.866614  1
  Ti  Ti10  1  0.133386  0.866614  0.133386  1
  Ti  Ti11  1  0.866614  0.133386  0.866614  1
  Ti  Ti12  1  0.133386  0.133386  0.866614  1
  Ti  Ti13  1  0.866614  0.866614  0.133386  1
  Be  Be14  1  0.000000  0.000000  0.000000  1
  Br  Br15  1  0.304224  0.000000  0.000000  1
  Br  Br16  1  0.695776  0.000000  0.000000  1
  Br  Br17  1  0.000000  0.304224  0.695776  1
  Br  Br18  1  0.000000  0.695776  0.304224  1
  Br  Br19  1  0.000000  0.304224  0.000000  1
  Br  Br20  1  0.695776  0.000000  0.304224  1
  Br  Br21  1  0.000000  0.695776  0.000000  1
  Br  Br22  1  0.304224  0.000000  0.695776  1
  Br  Br23  1  0.000000  0.000000  0.304224  1
  Br  Br24  1  0.000000  0.000000  0.695776  1
  Br  Br25  1  0.695776  0.304224  0.000000  1
  Br  Br26  1  0.304224  0.695776  0.000000  1
  Br  Br27  1  0.697500  0.302500  0.302500  1
  Br  Br28  1  0.302500  0.697500  0.697500  1
  Br  Br29  1  0.302500  0.697500  0.302500  1
  Br  Br30  1  0.697500  0.302500  0.697500  1
  Br  Br31  1  0.302500  0.302500  0.697500  1
  Br  Br32  1  0.697500  0.697500  0.302500  1
  Br  Br33  1  0.250000  0.250000  0.250000  1
  Br  Br34  1  0.750000  0.750000  0.750000  1
