# generated using pymatgen
data_Y4U4Re3TcB24
_symmetry_space_group_name_H-M   'P 1'
_cell_length_a   3.63764600
_cell_length_b   9.30675892
_cell_length_c   11.42283501
_cell_angle_alpha   90.02359316
_cell_angle_beta   90.00000000
_cell_angle_gamma   90.00000000
_symmetry_Int_Tables_number   1
_chemical_formula_structural   Y4U4Re3TcB24
_chemical_formula_sum   'Y4 U4 Re3 Tc1 B24'
_cell_volume   386.71655521
_cell_formula_units_Z   1
loop_
 _symmetry_equiv_pos_site_id
 _symmetry_equiv_pos_as_xyz
  1  'x, y, z'
loop_
 _atom_site_type_symbol
 _atom_site_label
 _atom_site_symmetry_multiplicity
 _atom_site_fract_x
 _atom_site_fract_y
 _atom_site_fract_z
 _atom_site_occupancy
  Y  Y0  1  0.000000  0.336924  0.407555  1
  Y  Y1  1  0.000000  0.663165  0.592438  1
  Y  Y2  1  0.000000  0.836896  0.092434  1
  Y  Y3  1  0.000000  0.163360  0.907534  1
  U  U4  1  0.000000  0.956262  0.396227  1
  U  U5  1  0.000000  0.043435  0.603581  1
  U  U6  1  0.000000  0.456453  0.103764  1
  U  U7  1  0.000000  0.543626  0.896416  1
  Re  Re8  1  0.000000  0.354169  0.681780  1
  Re  Re9  1  0.000000  0.145729  0.181739  1
  Re  Re10  1  0.000000  0.854324  0.818238  1
  Tc  Tc11  1  0.000000  0.645659  0.318276  1
  B  B12  1  0.500000  0.552000  0.430698  1
  B  B13  1  0.500000  0.448120  0.569116  1
  B  B14  1  0.500000  0.051969  0.069159  1
  B  B15  1  0.500000  0.948097  0.930817  1
  B  B16  1  0.500000  0.742884  0.423057  1
  B  B17  1  0.500000  0.256853  0.576808  1
  B  B18  1  0.500000  0.243204  0.076902  1
  B  B19  1  0.500000  0.756888  0.923177  1
  B  B20  1  0.500000  0.801739  0.275420  1
  B  B21  1  0.500000  0.198171  0.724531  1
  B  B22  1  0.500000  0.301839  0.224665  1
  B  B23  1  0.500000  0.698182  0.775446  1
  B  B24  1  0.500000  0.643820  0.188766  1
  B  B25  1  0.500000  0.356244  0.811427  1
  B  B26  1  0.500000  0.143716  0.311332  1
  B  B27  1  0.500000  0.856164  0.688576  1
  B  B28  1  0.500000  0.988902  0.219653  1
  B  B29  1  0.500000  0.010951  0.780183  1
  B  B30  1  0.500000  0.489176  0.280367  1
  B  B31  1  0.500000  0.510994  0.719738  1
  B  B32  1  0.500000  0.640056  0.039074  1
  B  B33  1  0.500000  0.360430  0.961255  1
  B  B34  1  0.500000  0.139731  0.461103  1
  B  B35  1  0.500000  0.859867  0.538752  1
