# generated using pymatgen
data_Sm4Mg3Au10
_symmetry_space_group_name_H-M   'P 1'
_cell_length_a   8.62427150
_cell_length_b   8.62427094
_cell_length_c   10.28726100
_cell_angle_alpha   90.00000000
_cell_angle_beta   90.00000000
_cell_angle_gamma   107.91403974
_symmetry_Int_Tables_number   1
_chemical_formula_structural   Sm4Mg3Au10
_chemical_formula_sum   'Sm8 Mg6 Au20'
_cell_volume   728.05143626
_cell_formula_units_Z   2
loop_
 _symmetry_equiv_pos_site_id
 _symmetry_equiv_pos_as_xyz
  1  'x, y, z'
loop_
 _atom_site_type_symbol
 _atom_site_label
 _atom_site_symmetry_multiplicity
 _atom_site_fract_x
 _atom_site_fract_y
 _atom_site_fract_z
 _atom_site_occupancy
  Sm  Sm0  1  0.698086  0.301914  0.000000  1
  Sm  Sm1  1  0.301914  0.698086  0.000000  1
  Sm  Sm2  1  0.801914  0.198086  0.500000  1
  Sm  Sm3  1  0.198086  0.801914  0.500000  1
  Sm  Sm4  1  0.303881  0.303881  0.202591  1
  Sm  Sm5  1  0.696119  0.696119  0.797409  1
  Sm  Sm6  1  0.196119  0.196119  0.702591  1
  Sm  Sm7  1  0.803881  0.803881  0.297409  1
  Mg  Mg8  1  0.012948  0.512948  0.250000  1
  Mg  Mg9  1  0.987052  0.487052  0.750000  1
  Mg  Mg10  1  0.487052  0.987052  0.750000  1
  Mg  Mg11  1  0.512948  0.012948  0.250000  1
  Mg  Mg12  1  0.000000  0.000000  0.000000  1
  Mg  Mg13  1  0.500000  0.500000  0.500000  1
  Au  Au14  1  0.098531  0.098531  0.402903  1
  Au  Au15  1  0.901469  0.901469  0.597097  1
  Au  Au16  1  0.401469  0.401469  0.902903  1
  Au  Au17  1  0.598531  0.598531  0.097097  1
  Au  Au18  1  0.878066  0.162783  0.206102  1
  Au  Au19  1  0.121934  0.837217  0.793898  1
  Au  Au20  1  0.621934  0.337217  0.706102  1
  Au  Au21  1  0.662783  0.378066  0.293898  1
  Au  Au22  1  0.378066  0.662783  0.293898  1
  Au  Au23  1  0.337217  0.621934  0.706102  1
  Au  Au24  1  0.837217  0.121934  0.793898  1
  Au  Au25  1  0.162783  0.878066  0.206102  1
  Au  Au26  1  0.934460  0.652943  0.016829  1
  Au  Au27  1  0.065540  0.347057  0.983171  1
  Au  Au28  1  0.565540  0.847057  0.516829  1
  Au  Au29  1  0.152943  0.434460  0.483171  1
  Au  Au30  1  0.434460  0.152943  0.483171  1
  Au  Au31  1  0.847057  0.565540  0.516829  1
  Au  Au32  1  0.347057  0.065540  0.983171  1
  Au  Au33  1  0.652943  0.934460  0.016829  1
