# generated using pymatgen
data_Ti6AlCdC4
_symmetry_space_group_name_H-M   'P 1'
_cell_length_a   3.09623900
_cell_length_b   3.09623784
_cell_length_c   19.02890200
_cell_angle_alpha   90.00000000
_cell_angle_beta   90.00000000
_cell_angle_gamma   120.00002310
_symmetry_Int_Tables_number   1
_chemical_formula_structural   Ti6AlCdC4
_chemical_formula_sum   'Ti6 Al1 Cd1 C4'
_cell_volume   157.98397998
_cell_formula_units_Z   1
loop_
 _symmetry_equiv_pos_site_id
 _symmetry_equiv_pos_as_xyz
  1  'x, y, z'
loop_
 _atom_site_type_symbol
 _atom_site_label
 _atom_site_symmetry_multiplicity
 _atom_site_fract_x
 _atom_site_fract_y
 _atom_site_fract_z
 _atom_site_occupancy
  Ti  Ti0  1  0.666667  0.333333  0.370653  1
  Ti  Ti1  1  0.333333  0.666667  0.881016  1
  Ti  Ti2  1  0.333333  0.666667  0.618984  1
  Ti  Ti3  1  0.666667  0.333333  0.129347  1
  Ti  Ti4  1  0.000000  0.000000  0.494979  1
  Ti  Ti5  1  0.000000  0.000000  0.005021  1
  Al  Al6  1  0.000000  0.000000  0.250000  1
  Cd  Cd7  1  0.000000  0.000000  0.750000  1
  C  C8  1  0.333333  0.666667  0.427327  1
  C  C9  1  0.666667  0.333333  0.936284  1
  C  C10  1  0.333333  0.666667  0.072673  1
  C  C11  1  0.666667  0.333333  0.563716  1
