# generated using pymatgen
data_La5Th(TiSb5)2
_symmetry_space_group_name_H-M   'P 1'
_cell_length_a   9.57901600
_cell_length_b   9.55778096
_cell_length_c   6.31855600
_cell_angle_alpha   90.00000000
_cell_angle_beta   90.00000000
_cell_angle_gamma   120.07352229
_symmetry_Int_Tables_number   1
_chemical_formula_structural   La5Th(TiSb5)2
_chemical_formula_sum   'La5 Th1 Ti2 Sb10'
_cell_volume   500.61541058
_cell_formula_units_Z   1
loop_
 _symmetry_equiv_pos_site_id
 _symmetry_equiv_pos_as_xyz
  1  'x, y, z'
loop_
 _atom_site_type_symbol
 _atom_site_label
 _atom_site_symmetry_multiplicity
 _atom_site_fract_x
 _atom_site_fract_y
 _atom_site_fract_z
 _atom_site_occupancy
  La  La0  1  0.384168  0.385629  0.250000  1
  La  La1  1  0.998540  0.614371  0.250000  1
  La  La2  1  0.000544  0.382296  0.750000  1
  La  La3  1  0.618248  0.617704  0.750000  1
  La  La4  1  0.617864  0.000000  0.250000  1
  Th  Th5  1  0.382186  0.000000  0.750000  1
  Ti  Ti6  1  0.998959  0.000000  0.002530  1
  Ti  Ti7  1  0.998959  0.000000  0.497470  1
  Sb  Sb8  1  0.663080  0.329363  0.502441  1
  Sb  Sb9  1  0.333716  0.670637  0.997559  1
  Sb  Sb10  1  0.746754  0.000000  0.750000  1
  Sb  Sb11  1  0.749128  0.748045  0.250000  1
  Sb  Sb12  1  0.333716  0.670637  0.502441  1
  Sb  Sb13  1  0.663080  0.329363  0.997559  1
  Sb  Sb14  1  0.254622  0.000000  0.250000  1
  Sb  Sb15  1  0.252414  0.249474  0.750000  1
  Sb  Sb16  1  0.002940  0.750526  0.750000  1
  Sb  Sb17  1  0.001083  0.251955  0.250000  1
