# generated using pymatgen
data_Li2Ta3Co9As7
_symmetry_space_group_name_H-M   'P 1'
_cell_length_a   9.56438900
_cell_length_b   9.56438902
_cell_length_c   3.63526800
_cell_angle_alpha   90.00000000
_cell_angle_beta   90.00000000
_cell_angle_gamma   120.00000432
_symmetry_Int_Tables_number   1
_chemical_formula_structural   Li2Ta3Co9As7
_chemical_formula_sum   'Li2 Ta3 Co9 As7'
_cell_volume   287.99272005
_cell_formula_units_Z   1
loop_
 _symmetry_equiv_pos_site_id
 _symmetry_equiv_pos_as_xyz
  1  'x, y, z'
loop_
 _atom_site_type_symbol
 _atom_site_label
 _atom_site_symmetry_multiplicity
 _atom_site_fract_x
 _atom_site_fract_y
 _atom_site_fract_z
 _atom_site_occupancy
  Li  Li0  1  0.333333  0.666667  0.000000  1
  Li  Li1  1  0.000000  0.000000  0.500000  1
  Ta  Ta2  1  0.767548  0.567478  0.500000  1
  Ta  Ta3  1  0.432522  0.200071  0.500000  1
  Ta  Ta4  1  0.799929  0.232452  0.500000  1
  Co  Co5  1  0.279164  0.381639  0.500000  1
  Co  Co6  1  0.618361  0.897525  0.500000  1
  Co  Co7  1  0.102475  0.720836  0.500000  1
  Co  Co8  1  0.505115  0.448427  0.000000  1
  Co  Co9  1  0.551573  0.056688  0.000000  1
  Co  Co10  1  0.943312  0.494885  0.000000  1
  Co  Co11  1  0.726110  0.752012  0.000000  1
  Co  Co12  1  0.247988  0.974098  0.000000  1
  Co  Co13  1  0.025902  0.273890  0.000000  1
  As  As14  1  0.980626  0.769834  0.000000  1
  As  As15  1  0.230166  0.210792  0.000000  1
  As  As16  1  0.789208  0.019374  0.000000  1
  As  As17  1  0.666667  0.333333  0.000000  1
  As  As18  1  0.521261  0.624341  0.500000  1
  As  As19  1  0.375659  0.896920  0.500000  1
  As  As20  1  0.103080  0.478739  0.500000  1
