# generated using pymatgen
data_Cd3GaP7N12
_symmetry_space_group_name_H-M   'P 1'
_cell_length_a   7.28353089
_cell_length_b   7.34513059
_cell_length_c   7.34513125
_cell_angle_alpha   109.64047817
_cell_angle_beta   109.30142140
_cell_angle_gamma   109.30143445
_symmetry_Int_Tables_number   1
_chemical_formula_structural   Cd3GaP7N12
_chemical_formula_sum   'Cd3 Ga1 P7 N12'
_cell_volume   303.12721011
_cell_formula_units_Z   1
loop_
 _symmetry_equiv_pos_site_id
 _symmetry_equiv_pos_as_xyz
  1  'x, y, z'
loop_
 _atom_site_type_symbol
 _atom_site_label
 _atom_site_symmetry_multiplicity
 _atom_site_fract_x
 _atom_site_fract_y
 _atom_site_fract_z
 _atom_site_occupancy
  Cd  Cd0  1  0.000327  0.000000  0.686106  1
  Cd  Cd1  1  0.000327  0.686106  0.000000  1
  Cd  Cd2  1  0.314221  0.313894  0.313894  1
  Ga  Ga3  1  0.634252  0.000000  0.000000  1
  P  P4  1  0.255720  0.748234  0.501915  1
  P  P5  1  0.753805  0.246319  0.498085  1
  P  P6  1  0.753805  0.498085  0.246319  1
  P  P7  1  0.255720  0.501915  0.748234  1
  P  P8  1  0.507486  0.753681  0.251766  1
  P  P9  1  0.507486  0.251766  0.753681  1
  P  P10  1  0.953134  0.000000  0.000000  1
  N  N11  1  0.704691  0.268257  0.268257  1
  N  N12  1  0.290875  0.721384  0.287728  1
  N  N13  1  0.304169  0.576686  0.576686  1
  N  N14  1  0.569490  0.566344  0.278616  1
  N  N15  1  0.436434  0.731743  0.000000  1
  N  N16  1  0.003146  0.712272  0.433656  1
  N  N17  1  0.569490  0.278616  0.566344  1
  N  N18  1  0.727483  0.000000  0.423314  1
  N  N19  1  0.436434  0.000000  0.731743  1
  N  N20  1  0.727483  0.423314  0.000000  1
  N  N21  1  0.290875  0.287728  0.721384  1
  N  N22  1  0.003146  0.433656  0.712272  1
