# generated using pymatgen
data_La3Dy(MoO4)6
_symmetry_space_group_name_H-M   'P 1'
_cell_length_a   7.67228569
_cell_length_b   7.67228569
_cell_length_c   10.99051034
_cell_angle_alpha   89.82271117
_cell_angle_beta   90.17728883
_cell_angle_gamma   89.71668648
_symmetry_Int_Tables_number   1
_chemical_formula_structural   La3Dy(MoO4)6
_chemical_formula_sum   'La3 Dy1 Mo6 O24'
_cell_volume   646.93091149
_cell_formula_units_Z   1
loop_
 _symmetry_equiv_pos_site_id
 _symmetry_equiv_pos_as_xyz
  1  'x, y, z'
loop_
 _atom_site_type_symbol
 _atom_site_label
 _atom_site_symmetry_multiplicity
 _atom_site_fract_x
 _atom_site_fract_y
 _atom_site_fract_z
 _atom_site_occupancy
  La  La0  1  0.190803  0.690317  0.738656  1
  La  La1  1  0.809683  0.309197  0.738656  1
  La  La2  1  0.685970  0.814030  0.259844  1
  Dy  Dy3  1  0.306821  0.193179  0.265455  1
  Mo  Mo4  1  0.210018  0.706923  0.352732  1
  Mo  Mo5  1  0.793077  0.289982  0.352732  1
  Mo  Mo6  1  0.708608  0.791392  0.645179  1
  Mo  Mo7  1  0.290617  0.209383  0.636499  1
  Mo  Mo8  1  0.007917  0.006416  0.005192  1
  Mo  Mo9  1  0.493584  0.492083  0.005192  1
  O  O10  1  0.002509  0.221561  0.297911  1
  O  O11  1  0.001193  0.766131  0.294755  1
  O  O12  1  0.226397  0.003310  0.696160  1
  O  O13  1  0.503485  0.725525  0.704886  1
  O  O14  1  0.774475  0.996515  0.704886  1
  O  O15  1  0.496690  0.273603  0.696160  1
  O  O16  1  0.278439  0.497491  0.297911  1
  O  O17  1  0.733869  0.498807  0.294755  1
  O  O18  1  0.187147  0.053654  0.104888  1
  O  O19  1  0.816707  0.962298  0.093286  1
  O  O20  1  0.056841  0.821066  0.912113  1
  O  O21  1  0.310890  0.533700  0.907351  1
  O  O22  1  0.966300  0.189110  0.907351  1
  O  O23  1  0.678934  0.443159  0.912113  1
  O  O24  1  0.446346  0.312853  0.104888  1
  O  O25  1  0.537702  0.683293  0.093286  1
  O  O26  1  0.621649  0.136018  0.307715  1
  O  O27  1  0.363982  0.878351  0.307715  1
  O  O28  1  0.128817  0.371183  0.683467  1
  O  O29  1  0.871389  0.628611  0.691144  1
  O  O30  1  0.198824  0.697270  0.514646  1
  O  O31  1  0.802730  0.301176  0.514646  1
  O  O32  1  0.695138  0.804862  0.483542  1
  O  O33  1  0.302448  0.197552  0.474287  1
