# generated using pymatgen
data_Er4MnCoC8
_symmetry_space_group_name_H-M   'P 1'
_cell_length_a   6.54521388
_cell_length_b   6.54521464
_cell_length_c   6.54521380
_cell_angle_alpha   135.01194281
_cell_angle_beta   110.41234813
_cell_angle_gamma   86.78814955
_symmetry_Int_Tables_number   1
_chemical_formula_structural   Er4MnCoC8
_chemical_formula_sum   'Er4 Mn1 Co1 C8'
_cell_volume   177.92440108
_cell_formula_units_Z   1
loop_
 _symmetry_equiv_pos_site_id
 _symmetry_equiv_pos_as_xyz
  1  'x, y, z'
loop_
 _atom_site_type_symbol
 _atom_site_label
 _atom_site_symmetry_multiplicity
 _atom_site_fract_x
 _atom_site_fract_y
 _atom_site_fract_z
 _atom_site_occupancy
  Er  Er0  1  0.511927  0.357373  0.157779  1
  Er  Er1  1  0.488073  0.645853  0.845446  1
  Er  Er2  1  0.199594  0.854147  0.342221  1
  Er  Er3  1  0.800406  0.142627  0.654554  1
  Mn  Mn4  1  0.000000  0.750000  0.750000  1
  Co  Co5  1  0.000000  0.250000  0.250000  1
  C  C6  1  0.247371  0.064326  0.152830  1
  C  C7  1  0.752629  0.905457  0.816953  1
  C  C8  1  0.911496  0.594543  0.347170  1
  C  C9  1  0.088504  0.435674  0.683047  1
  C  C10  1  0.469113  0.135148  0.345476  1
  C  C11  1  0.530887  0.876364  0.666036  1
  C  C12  1  0.789673  0.623636  0.154524  1
  C  C13  1  0.210327  0.364852  0.833964  1
