# generated using pymatgen
data_Th2Pa(GaRh)3
_symmetry_space_group_name_H-M   'P 1'
_cell_length_a   7.27159586
_cell_length_b   7.30370799
_cell_length_c   3.98648000
_cell_angle_alpha   90.00000000
_cell_angle_beta   90.00000000
_cell_angle_gamma   120.14618766
_symmetry_Int_Tables_number   1
_chemical_formula_structural   Th2Pa(GaRh)3
_chemical_formula_sum   'Th2 Pa1 Ga3 Rh3'
_cell_volume   183.08455855
_cell_formula_units_Z   1
loop_
 _symmetry_equiv_pos_site_id
 _symmetry_equiv_pos_as_xyz
  1  'x, y, z'
loop_
 _atom_site_type_symbol
 _atom_site_label
 _atom_site_symmetry_multiplicity
 _atom_site_fract_x
 _atom_site_fract_y
 _atom_site_fract_z
 _atom_site_occupancy
  Th  Th0  1  0.590515  0.588174  0.500000  1
  Th  Th1  1  0.409485  0.997659  0.500000  1
  Pa  Pa2  1  0.000000  0.411116  0.500000  1
  Ga  Ga3  1  0.000000  0.758541  0.000000  1
  Ga  Ga4  1  0.245909  0.244674  0.000000  1
  Ga  Ga5  1  0.754091  0.998764  0.000000  1
  Rh  Rh6  1  0.311045  0.647553  0.000000  1
  Rh  Rh7  1  0.688955  0.336508  0.000000  1
  Rh  Rh8  1  0.000000  0.017011  0.500000  1
