# generated using pymatgen
data_Ac9Nd7(HoPb4)4
_symmetry_space_group_name_H-M   'P 1'
_cell_length_a   8.61652380
_cell_length_b   16.61927333
_cell_length_c   8.68101825
_cell_angle_alpha   90.04393192
_cell_angle_beta   90.35498981
_cell_angle_gamma   90.19463143
_symmetry_Int_Tables_number   1
_chemical_formula_structural   Ac9Nd7(HoPb4)4
_chemical_formula_sum   'Ac9 Nd7 Ho4 Pb16'
_cell_volume   1243.09355672
_cell_formula_units_Z   1
loop_
 _symmetry_equiv_pos_site_id
 _symmetry_equiv_pos_as_xyz
  1  'x, y, z'
loop_
 _atom_site_type_symbol
 _atom_site_label
 _atom_site_symmetry_multiplicity
 _atom_site_fract_x
 _atom_site_fract_y
 _atom_site_fract_z
 _atom_site_occupancy
  Ac  Ac0  1  0.127328  0.617518  0.343565  1
  Ac  Ac1  1  0.469547  0.598229  0.679411  1
  Ac  Ac2  1  0.971298  0.903870  0.822260  1
  Ac  Ac3  1  0.528369  0.098134  0.322253  1
  Ac  Ac4  1  0.030873  0.399296  0.176359  1
  Ac  Ac5  1  0.529297  0.400471  0.321983  1
  Ac  Ac6  1  0.028703  0.098490  0.177526  1
  Ac  Ac7  1  0.471741  0.903043  0.678511  1
  Ac  Ac8  1  0.969430  0.598566  0.822852  1
  Nd  Nd9  1  0.629261  0.620505  0.155193  1
  Nd  Nd10  1  0.129541  0.879755  0.344756  1
  Nd  Nd11  1  0.369860  0.120300  0.845853  1
  Nd  Nd12  1  0.871370  0.378845  0.654276  1
  Nd  Nd13  1  0.373975  0.377302  0.846531  1
  Nd  Nd14  1  0.870897  0.121103  0.655544  1
  Nd  Nd15  1  0.629610  0.881820  0.153855  1
  Ho  Ho16  1  0.789436  0.751254  0.495512  1
  Ho  Ho17  1  0.292664  0.751211  0.004941  1
  Ho  Ho18  1  0.209193  0.248740  0.505058  1
  Ho  Ho19  1  0.709611  0.249844  0.994782  1
  Pb  Pb20  1  0.711019  0.452198  0.960897  1
  Pb  Pb21  1  0.207451  0.047832  0.539369  1
  Pb  Pb22  1  0.291657  0.953188  0.040540  1
  Pb  Pb23  1  0.780463  0.546574  0.465116  1
  Pb  Pb24  1  0.296279  0.545737  0.030512  1
  Pb  Pb25  1  0.792394  0.952762  0.460760  1
  Pb  Pb26  1  0.708267  0.048442  0.959587  1
  Pb  Pb27  1  0.209980  0.446956  0.543039  1
  Pb  Pb28  1  0.437019  0.753322  0.365654  1
  Pb  Pb29  1  0.928111  0.753083  0.127491  1
  Pb  Pb30  1  0.567431  0.249576  0.633988  1
  Pb  Pb31  1  0.067855  0.249855  0.866431  1
  Pb  Pb32  1  0.659811  0.750916  0.853809  1
  Pb  Pb33  1  0.160506  0.752425  0.651726  1
  Pb  Pb34  1  0.339916  0.249291  0.146997  1
  Pb  Pb35  1  0.839841  0.249548  0.353061  1
