# generated using pymatgen
data_Sr8V5Ga3O20
_symmetry_space_group_name_H-M   'P 1'
_cell_length_a   5.60651735
_cell_length_b   5.83539540
_cell_length_c   15.45439400
_cell_angle_alpha   90.00000000
_cell_angle_beta   90.00000000
_cell_angle_gamma   90.04155653
_symmetry_Int_Tables_number   1
_chemical_formula_structural   Sr8V5Ga3O20
_chemical_formula_sum   'Sr8 V5 Ga3 O20'
_cell_volume   505.60961630
_cell_formula_units_Z   1
loop_
 _symmetry_equiv_pos_site_id
 _symmetry_equiv_pos_as_xyz
  1  'x, y, z'
loop_
 _atom_site_type_symbol
 _atom_site_label
 _atom_site_symmetry_multiplicity
 _atom_site_fract_x
 _atom_site_fract_y
 _atom_site_fract_z
 _atom_site_occupancy
  Sr  Sr0  1  0.002937  0.521892  0.108394  1
  Sr  Sr1  1  0.002937  0.521892  0.391606  1
  Sr  Sr2  1  0.503568  0.976203  0.108325  1
  Sr  Sr3  1  0.503568  0.976203  0.391675  1
  Sr  Sr4  1  0.493003  0.022170  0.611777  1
  Sr  Sr5  1  0.493003  0.022170  0.888223  1
  Sr  Sr6  1  0.992599  0.480466  0.611755  1
  Sr  Sr7  1  0.992599  0.480466  0.888245  1
  V  V8  1  0.497980  0.500659  0.998611  1
  V  V9  1  0.497980  0.500659  0.501389  1
  V  V10  1  0.998415  0.001160  0.501403  1
  V  V11  1  0.998415  0.001160  0.998597  1
  V  V12  1  0.535941  0.428180  0.250000  1
  Ga  Ga13  1  0.468994  0.571837  0.750000  1
  Ga  Ga14  1  0.969340  0.930489  0.750000  1
  Ga  Ga15  1  0.035895  0.068818  0.250000  1
  O  O16  1  0.478427  0.556009  0.137893  1
  O  O17  1  0.478427  0.556009  0.362107  1
  O  O18  1  0.138323  0.648445  0.750000  1
  O  O19  1  0.248041  0.751171  0.512337  1
  O  O20  1  0.248041  0.751171  0.987663  1
  O  O21  1  0.748713  0.751214  0.512033  1
  O  O22  1  0.748713  0.751214  0.987967  1
  O  O23  1  0.638543  0.853865  0.750000  1
  O  O24  1  0.975162  0.939658  0.142470  1
  O  O25  1  0.975162  0.939658  0.357530  1
  O  O26  1  0.024113  0.063576  0.643247  1
  O  O27  1  0.024113  0.063576  0.856753  1
  O  O28  1  0.370525  0.133587  0.250000  1
  O  O29  1  0.247601  0.250499  0.009368  1
  O  O30  1  0.247601  0.250499  0.490632  1
  O  O31  1  0.747623  0.249686  0.009336  1
  O  O32  1  0.747623  0.249686  0.490664  1
  O  O33  1  0.878508  0.357758  0.250000  1
  O  O34  1  0.523782  0.439145  0.643223  1
  O  O35  1  0.523782  0.439145  0.856777  1
