# generated using pymatgen
data_Er8Sc12Si15Ni
_symmetry_space_group_name_H-M   'P 1'
_cell_length_a   7.03230454
_cell_length_b   7.41252368
_cell_length_c   13.90029600
_cell_angle_alpha   90.00000000
_cell_angle_beta   90.00000000
_cell_angle_gamma   89.95304432
_symmetry_Int_Tables_number   1
_chemical_formula_structural   Er8Sc12Si15Ni
_chemical_formula_sum   'Er8 Sc12 Si15 Ni1'
_cell_volume   724.58220870
_cell_formula_units_Z   1
loop_
 _symmetry_equiv_pos_site_id
 _symmetry_equiv_pos_as_xyz
  1  'x, y, z'
loop_
 _atom_site_type_symbol
 _atom_site_label
 _atom_site_symmetry_multiplicity
 _atom_site_fract_x
 _atom_site_fract_y
 _atom_site_fract_z
 _atom_site_occupancy
  Er  Er0  1  0.010869  0.178904  0.095768  1
  Er  Er1  1  0.989767  0.823681  0.904975  1
  Er  Er2  1  0.489724  0.678181  0.904426  1
  Er  Er3  1  0.989767  0.823681  0.595025  1
  Er  Er4  1  0.511017  0.322387  0.095561  1
  Er  Er5  1  0.010869  0.178904  0.404232  1
  Er  Er6  1  0.511017  0.322387  0.404439  1
  Er  Er7  1  0.489724  0.678181  0.595574  1
  Sc  Sc8  1  0.163510  0.509174  0.750000  1
  Sc  Sc9  1  0.838821  0.497198  0.250000  1
  Sc  Sc10  1  0.338823  0.005774  0.250000  1
  Sc  Sc11  1  0.670948  0.998436  0.750000  1
  Sc  Sc12  1  0.316139  0.172119  0.627828  1
  Sc  Sc13  1  0.671297  0.826218  0.374360  1
  Sc  Sc14  1  0.170437  0.677068  0.374160  1
  Sc  Sc15  1  0.671297  0.826218  0.125640  1
  Sc  Sc16  1  0.837010  0.319162  0.627897  1
  Sc  Sc17  1  0.316139  0.172119  0.872172  1
  Sc  Sc18  1  0.837010  0.319162  0.872103  1
  Sc  Sc19  1  0.170437  0.677068  0.125840  1
  Si  Si20  1  0.969225  0.886913  0.250000  1
  Si  Si21  1  0.469654  0.614142  0.250000  1
  Si  Si22  1  0.532538  0.385948  0.750000  1
  Si  Si23  1  0.282782  0.872938  0.750000  1
  Si  Si24  1  0.713226  0.132289  0.250000  1
  Si  Si25  1  0.213125  0.370510  0.250000  1
  Si  Si26  1  0.782366  0.626260  0.750000  1
  Si  Si27  1  0.160288  0.466585  0.538563  1
  Si  Si28  1  0.840632  0.535244  0.462487  1
  Si  Si29  1  0.342727  0.965762  0.461359  1
  Si  Si30  1  0.840632  0.535244  0.037513  1
  Si  Si31  1  0.658048  0.034695  0.540019  1
  Si  Si32  1  0.160288  0.466585  0.961437  1
  Si  Si33  1  0.658048  0.034695  0.959981  1
  Si  Si34  1  0.342727  0.965762  0.038641  1
  Ni  Ni35  1  0.029073  0.100409  0.750000  1
