# generated using pymatgen
data_Ho2TiCo16
_symmetry_space_group_name_H-M   'P 1'
_cell_length_a   6.29510226
_cell_length_b   6.29510170
_cell_length_c   6.29510108
_cell_angle_alpha   82.97136781
_cell_angle_beta   82.97136883
_cell_angle_gamma   82.97137913
_symmetry_Int_Tables_number   1
_chemical_formula_structural   Ho2TiCo16
_chemical_formula_sum   'Ho2 Ti1 Co16'
_cell_volume   244.26414568
_cell_formula_units_Z   1
loop_
 _symmetry_equiv_pos_site_id
 _symmetry_equiv_pos_as_xyz
  1  'x, y, z'
loop_
 _atom_site_type_symbol
 _atom_site_label
 _atom_site_symmetry_multiplicity
 _atom_site_fract_x
 _atom_site_fract_y
 _atom_site_fract_z
 _atom_site_occupancy
  Ho  Ho0  1  0.656208  0.656208  0.656208  1
  Ho  Ho1  1  0.351944  0.351944  0.351944  1
  Ti  Ti2  1  0.092315  0.092315  0.092315  1
  Co  Co3  1  0.292888  0.706516  0.997842  1
  Co  Co4  1  0.706516  0.997842  0.292888  1
  Co  Co5  1  0.997842  0.292888  0.706516  1
  Co  Co6  1  0.292888  0.997842  0.706516  1
  Co  Co7  1  0.997842  0.706516  0.292888  1
  Co  Co8  1  0.706516  0.292888  0.997842  1
  Co  Co9  1  0.998648  0.998648  0.504645  1
  Co  Co10  1  0.998648  0.504645  0.998648  1
  Co  Co11  1  0.504645  0.998648  0.998648  1
  Co  Co12  1  0.348111  0.348111  0.847811  1
  Co  Co13  1  0.348111  0.847811  0.348111  1
  Co  Co14  1  0.847811  0.348111  0.348111  1
  Co  Co15  1  0.654440  0.654440  0.150403  1
  Co  Co16  1  0.654440  0.150403  0.654440  1
  Co  Co17  1  0.150403  0.654440  0.654440  1
  Co  Co18  1  0.899779  0.899779  0.899779  1
