# generated using pymatgen
data_Dy4Ho2NiBr10
_symmetry_space_group_name_H-M   'P 1'
_cell_length_a   7.30354596
_cell_length_b   9.14655625
_cell_length_c   9.18353125
_cell_angle_alpha   107.25388181
_cell_angle_beta   96.87302375
_cell_angle_gamma   104.72850237
_symmetry_Int_Tables_number   1
_chemical_formula_structural   Dy4Ho2NiBr10
_chemical_formula_sum   'Dy4 Ho2 Ni1 Br10'
_cell_volume   553.84051861
_cell_formula_units_Z   1
loop_
 _symmetry_equiv_pos_site_id
 _symmetry_equiv_pos_as_xyz
  1  'x, y, z'
loop_
 _atom_site_type_symbol
 _atom_site_label
 _atom_site_symmetry_multiplicity
 _atom_site_fract_x
 _atom_site_fract_y
 _atom_site_fract_z
 _atom_site_occupancy
  Dy  Dy0  1  0.967152  0.291688  0.088547  1
  Dy  Dy1  1  0.032848  0.708312  0.911453  1
  Dy  Dy2  1  0.879241  0.955292  0.244081  1
  Dy  Dy3  1  0.120759  0.044708  0.755919  1
  Ho  Ho4  1  0.351036  0.127924  0.171071  1
  Ho  Ho5  1  0.648964  0.872076  0.828929  1
  Ni  Ni6  1  0.000000  0.000000  0.000000  1
  Br  Br7  1  0.347282  0.447190  0.269646  1
  Br  Br8  1  0.652718  0.552810  0.730354  1
  Br  Br9  1  0.774601  0.253046  0.341701  1
  Br  Br10  1  0.225399  0.746954  0.658299  1
  Br  Br11  1  0.544534  0.179487  0.910600  1
  Br  Br12  1  0.455466  0.820513  0.089400  1
  Br  Br13  1  0.746764  0.915276  0.541949  1
  Br  Br14  1  0.253236  0.084724  0.458051  1
  Br  Br15  1  0.915684  0.629167  0.177380  1
  Br  Br16  1  0.084316  0.370833  0.822620  1
