# generated using pymatgen
data_Er8Co3Si12Ni
_symmetry_space_group_name_H-M   'P 1'
_cell_length_a   7.94174600
_cell_length_b   7.94174618
_cell_length_c   7.79052200
_cell_angle_alpha   90.00000000
_cell_angle_beta   90.00000000
_cell_angle_gamma   119.99999923
_symmetry_Int_Tables_number   1
_chemical_formula_structural   Er8Co3Si12Ni
_chemical_formula_sum   'Er8 Co3 Si12 Ni1'
_cell_volume   425.52902609
_cell_formula_units_Z   1
loop_
 _symmetry_equiv_pos_site_id
 _symmetry_equiv_pos_as_xyz
  1  'x, y, z'
loop_
 _atom_site_type_symbol
 _atom_site_label
 _atom_site_symmetry_multiplicity
 _atom_site_fract_x
 _atom_site_fract_y
 _atom_site_fract_z
 _atom_site_occupancy
  Er  Er0  1  0.984851  0.492426  0.248009  1
  Er  Er1  1  0.507574  0.492426  0.248009  1
  Er  Er2  1  0.495430  0.990859  0.751582  1
  Er  Er3  1  0.009141  0.504570  0.751582  1
  Er  Er4  1  0.495430  0.504570  0.751582  1
  Er  Er5  1  0.507574  0.015149  0.248009  1
  Er  Er6  1  0.000000  0.000000  0.750957  1
  Er  Er7  1  0.000000  0.000000  0.250691  1
  Co  Co8  1  0.333333  0.666667  0.030876  1
  Co  Co9  1  0.666667  0.333333  0.964758  1
  Co  Co10  1  0.666667  0.333333  0.537699  1
  Si  Si11  1  0.169890  0.830110  0.499760  1
  Si  Si12  1  0.169890  0.339781  0.499760  1
  Si  Si13  1  0.660219  0.830110  0.499760  1
  Si  Si14  1  0.342715  0.171358  0.999151  1
  Si  Si15  1  0.827851  0.655704  0.499887  1
  Si  Si16  1  0.828642  0.171358  0.999151  1
  Si  Si17  1  0.828642  0.657285  0.999151  1
  Si  Si18  1  0.171608  0.343216  0.001525  1
  Si  Si19  1  0.656784  0.828392  0.001525  1
  Si  Si20  1  0.344296  0.172149  0.499887  1
  Si  Si21  1  0.827851  0.172149  0.499887  1
  Si  Si22  1  0.171608  0.828392  0.001525  1
  Ni  Ni23  1  0.333333  0.666667  0.465278  1
