# generated using pymatgen
data_Tb20CoBi8Os3
_symmetry_space_group_name_H-M   'P 1'
_cell_length_a   8.02034223
_cell_length_b   9.03178500
_cell_length_c   12.52161132
_cell_angle_alpha   90.00000000
_cell_angle_beta   90.27711290
_cell_angle_gamma   90.00000000
_symmetry_Int_Tables_number   1
_chemical_formula_structural   Tb20CoBi8Os3
_chemical_formula_sum   'Tb20 Co1 Bi8 Os3'
_cell_volume   907.02995493
_cell_formula_units_Z   1
loop_
 _symmetry_equiv_pos_site_id
 _symmetry_equiv_pos_as_xyz
  1  'x, y, z'
loop_
 _atom_site_type_symbol
 _atom_site_label
 _atom_site_symmetry_multiplicity
 _atom_site_fract_x
 _atom_site_fract_y
 _atom_site_fract_z
 _atom_site_occupancy
  Tb  Tb0  1  0.845168  0.750000  0.799392  1
  Tb  Tb1  1  0.156392  0.250000  0.206026  1
  Tb  Tb2  1  0.343779  0.250000  0.707139  1
  Tb  Tb3  1  0.655071  0.750000  0.294312  1
  Tb  Tb4  1  0.376811  0.750000  0.694981  1
  Tb  Tb5  1  0.621812  0.250000  0.305663  1
  Tb  Tb6  1  0.876933  0.250000  0.806693  1
  Tb  Tb7  1  0.120119  0.750000  0.189188  1
  Tb  Tb8  1  0.943461  0.750000  0.504735  1
  Tb  Tb9  1  0.056003  0.250000  0.495846  1
  Tb  Tb10  1  0.447144  0.250000  0.996606  1
  Tb  Tb11  1  0.551231  0.750000  0.003624  1
  Tb  Tb12  1  0.675668  0.041103  0.563937  1
  Tb  Tb13  1  0.323511  0.957957  0.435981  1
  Tb  Tb14  1  0.177019  0.958577  0.935858  1
  Tb  Tb15  1  0.323511  0.542043  0.435981  1
  Tb  Tb16  1  0.824643  0.036874  0.062760  1
  Tb  Tb17  1  0.675668  0.458897  0.563937  1
  Tb  Tb18  1  0.824643  0.463126  0.062760  1
  Tb  Tb19  1  0.177019  0.541423  0.935858  1
  Co  Co20  1  0.931861  0.750000  0.009668  1
  Bi  Bi21  1  0.572093  0.492495  0.827828  1
  Bi  Bi22  1  0.428990  0.507957  0.172058  1
  Bi  Bi23  1  0.070117  0.507857  0.673179  1
  Bi  Bi24  1  0.428990  0.992043  0.172058  1
  Bi  Bi25  1  0.929242  0.492930  0.326545  1
  Bi  Bi26  1  0.572093  0.007505  0.827828  1
  Bi  Bi27  1  0.929242  0.007070  0.326545  1
  Bi  Bi28  1  0.070117  0.992143  0.673179  1
  Os  Os29  1  0.574727  0.750000  0.511767  1
  Os  Os30  1  0.424037  0.250000  0.488765  1
  Os  Os31  1  0.072883  0.250000  0.989301  1
