# generated using pymatgen
data_Y7Sn23RuRh5
_symmetry_space_group_name_H-M   'P 1'
_cell_length_a   9.88919600
_cell_length_b   9.88884313
_cell_length_c   10.08682366
_cell_angle_alpha   89.80275630
_cell_angle_beta   90.00000000
_cell_angle_gamma   120.00118040
_symmetry_Int_Tables_number   1
_chemical_formula_structural   Y7Sn23RuRh5
_chemical_formula_sum   'Y7 Sn23 Ru1 Rh5'
_cell_volume   854.24596348
_cell_formula_units_Z   1
loop_
 _symmetry_equiv_pos_site_id
 _symmetry_equiv_pos_as_xyz
  1  'x, y, z'
loop_
 _atom_site_type_symbol
 _atom_site_label
 _atom_site_symmetry_multiplicity
 _atom_site_fract_x
 _atom_site_fract_y
 _atom_site_fract_z
 _atom_site_occupancy
  Y  Y0  1  0.998121  0.996241  0.002278  1
  Y  Y1  1  0.040587  0.520850  0.307481  1
  Y  Y2  1  0.479335  0.958672  0.307512  1
  Y  Y3  1  0.480262  0.520850  0.307481  1
  Y  Y4  1  0.957939  0.479218  0.692296  1
  Y  Y5  1  0.520425  0.040852  0.692442  1
  Y  Y6  1  0.521280  0.479218  0.692296  1
  Sn  Sn7  1  0.999965  0.999932  0.501318  1
  Sn  Sn8  1  0.117193  0.881322  0.280075  1
  Sn  Sn9  1  0.764128  0.881322  0.280075  1
  Sn  Sn10  1  0.118960  0.237921  0.281538  1
  Sn  Sn11  1  0.881818  0.119044  0.718185  1
  Sn  Sn12  1  0.237227  0.119044  0.718185  1
  Sn  Sn13  1  0.880867  0.761732  0.718615  1
  Sn  Sn14  1  0.351444  0.999623  0.000087  1
  Sn  Sn15  1  0.650647  0.648929  0.000232  1
  Sn  Sn16  1  0.000552  0.351930  0.000187  1
  Sn  Sn17  1  0.351379  0.351930  0.000187  1
  Sn  Sn18  1  0.998282  0.648929  0.000232  1
  Sn  Sn19  1  0.648179  0.999623  0.000087  1
  Sn  Sn20  1  0.778972  0.557942  0.454423  1
  Sn  Sn21  1  0.777701  0.221898  0.454793  1
  Sn  Sn22  1  0.444196  0.221898  0.454793  1
  Sn  Sn23  1  0.222168  0.444336  0.545546  1
  Sn  Sn24  1  0.221853  0.778159  0.544515  1
  Sn  Sn25  1  0.556305  0.778159  0.544515  1
  Sn  Sn26  1  0.667790  0.335578  0.180367  1
  Sn  Sn27  1  0.333450  0.666902  0.820461  1
  Sn  Sn28  1  0.665862  0.331723  0.877501  1
  Sn  Sn29  1  0.333017  0.666034  0.121480  1
  Ru  Ru30  1  0.831970  0.663940  0.198383  1
  Rh  Rh31  1  0.168480  0.831851  0.801891  1
  Rh  Rh32  1  0.663371  0.831851  0.801891  1
  Rh  Rh33  1  0.168459  0.336918  0.802213  1
  Rh  Rh34  1  0.831040  0.167818  0.198219  1
  Rh  Rh35  1  0.336778  0.167818  0.198219  1
