# generated using pymatgen
data_Tb3CeIn2Ir3
_symmetry_space_group_name_H-M   'P 1'
_cell_length_a   7.55733381
_cell_length_b   7.43452927
_cell_length_c   4.17305000
_cell_angle_alpha   90.00000000
_cell_angle_beta   90.00000000
_cell_angle_gamma   119.46390136
_symmetry_Int_Tables_number   1
_chemical_formula_structural   Tb3CeIn2Ir3
_chemical_formula_sum   'Tb3 Ce1 In2 Ir3'
_cell_volume   204.13954393
_cell_formula_units_Z   1
loop_
 _symmetry_equiv_pos_site_id
 _symmetry_equiv_pos_as_xyz
  1  'x, y, z'
loop_
 _atom_site_type_symbol
 _atom_site_label
 _atom_site_symmetry_multiplicity
 _atom_site_fract_x
 _atom_site_fract_y
 _atom_site_fract_z
 _atom_site_occupancy
  Tb  Tb0  1  0.436396  0.407771  0.000000  1
  Tb  Tb1  1  0.563604  0.971374  0.000000  1
  Tb  Tb2  1  0.000000  0.620948  0.000000  1
  Ce  Ce3  1  0.000000  0.259107  0.500000  1
  In  In4  1  0.741145  0.746552  0.500000  1
  In  In5  1  0.258855  0.005407  0.500000  1
  Ir  Ir6  1  0.000000  0.004454  0.000000  1
  Ir  Ir7  1  0.323752  0.654070  0.500000  1
  Ir  Ir8  1  0.676248  0.330317  0.500000  1
