# generated using pymatgen
data_Dy5Ta3Co16(As3P)3
_symmetry_space_group_name_H-M   'P 1'
_cell_length_a   12.50574600
_cell_length_b   12.50574660
_cell_length_c   3.79599400
_cell_angle_alpha   90.00000000
_cell_angle_beta   90.00000000
_cell_angle_gamma   119.99999312
_symmetry_Int_Tables_number   1
_chemical_formula_structural   Dy5Ta3Co16(As3P)3
_chemical_formula_sum   'Dy5 Ta3 Co16 As9 P3'
_cell_volume   514.13291351
_cell_formula_units_Z   1
loop_
 _symmetry_equiv_pos_site_id
 _symmetry_equiv_pos_as_xyz
  1  'x, y, z'
loop_
 _atom_site_type_symbol
 _atom_site_label
 _atom_site_symmetry_multiplicity
 _atom_site_fract_x
 _atom_site_fract_y
 _atom_site_fract_z
 _atom_site_occupancy
  Dy  Dy0  1  0.666667  0.333333  0.000000  1
  Dy  Dy1  1  0.333333  0.666667  0.000000  1
  Dy  Dy2  1  0.178267  0.178267  0.500000  1
  Dy  Dy3  1  0.821733  0.000000  0.500000  1
  Dy  Dy4  1  0.000000  0.821733  0.500000  1
  Ta  Ta5  1  0.559373  0.559373  0.000000  1
  Ta  Ta6  1  0.440627  0.000000  0.000000  1
  Ta  Ta7  1  0.000000  0.440627  0.000000  1
  Co  Co8  1  0.829684  0.196994  0.000000  1
  Co  Co9  1  0.803006  0.632689  0.000000  1
  Co  Co10  1  0.367311  0.170316  0.000000  1
  Co  Co11  1  0.196994  0.829684  0.000000  1
  Co  Co12  1  0.632689  0.803006  0.000000  1
  Co  Co13  1  0.170316  0.367311  0.000000  1
  Co  Co14  1  0.643412  0.123591  0.500000  1
  Co  Co15  1  0.876409  0.519820  0.500000  1
  Co  Co16  1  0.480180  0.356588  0.500000  1
  Co  Co17  1  0.123591  0.643412  0.500000  1
  Co  Co18  1  0.519820  0.876409  0.500000  1
  Co  Co19  1  0.356588  0.480180  0.500000  1
  Co  Co20  1  0.725893  0.725893  0.500000  1
  Co  Co21  1  0.274107  0.000000  0.500000  1
  Co  Co22  1  0.000000  0.274107  0.500000  1
  Co  Co23  1  0.000000  0.000000  0.000000  1
  As  As24  1  0.353047  0.353047  0.000000  1
  As  As25  1  0.646953  0.000000  0.000000  1
  As  As26  1  0.000000  0.646953  0.000000  1
  As  As27  1  0.831122  0.310893  0.500000  1
  As  As28  1  0.689107  0.520229  0.500000  1
  As  As29  1  0.479771  0.168878  0.500000  1
  As  As30  1  0.310893  0.831122  0.500000  1
  As  As31  1  0.520229  0.689107  0.500000  1
  As  As32  1  0.168878  0.479771  0.500000  1
  P  P33  1  0.824200  0.824200  0.000000  1
  P  P34  1  0.175800  0.000000  0.000000  1
  P  P35  1  0.000000  0.175800  0.000000  1
