# generated using pymatgen
data_DyU3(TaN2)4
_symmetry_space_group_name_H-M   'P 1'
_cell_length_a   3.25405100
_cell_length_b   5.67196701
_cell_length_c   10.96076001
_cell_angle_alpha   89.99460656
_cell_angle_beta   90.00000000
_cell_angle_gamma   90.00000000
_symmetry_Int_Tables_number   1
_chemical_formula_structural   DyU3(TaN2)4
_chemical_formula_sum   'Dy1 U3 Ta4 N8'
_cell_volume   202.30132075
_cell_formula_units_Z   1
loop_
 _symmetry_equiv_pos_site_id
 _symmetry_equiv_pos_as_xyz
  1  'x, y, z'
loop_
 _atom_site_type_symbol
 _atom_site_label
 _atom_site_symmetry_multiplicity
 _atom_site_fract_x
 _atom_site_fract_y
 _atom_site_fract_z
 _atom_site_occupancy
  Dy  Dy0  1  0.250000  0.579375  0.856282  1
  U  U1  1  0.750000  0.422568  0.139784  1
  U  U2  1  0.750000  0.922194  0.357684  1
  U  U3  1  0.250000  0.079820  0.643044  1
  Ta  Ta4  1  0.250000  0.921973  0.103168  1
  Ta  Ta5  1  0.750000  0.074053  0.899273  1
  Ta  Ta6  1  0.750000  0.577352  0.603512  1
  Ta  Ta7  1  0.250000  0.423913  0.397541  1
  N  N8  1  0.250000  0.661535  0.245571  1
  N  N9  1  0.750000  0.332655  0.752643  1
  N  N10  1  0.750000  0.842392  0.743526  1
  N  N11  1  0.250000  0.162146  0.255421  1
  N  N12  1  0.250000  0.757841  0.505893  1
  N  N13  1  0.750000  0.241835  0.495266  1
  N  N14  1  0.750000  0.740806  0.004954  1
  N  N15  1  0.250000  0.259542  0.996439  1
