# generated using pymatgen
data_Rb5(CdAg2)2
_symmetry_space_group_name_H-M   'P 1'
_cell_length_a   17.64470728
_cell_length_b   17.64470765
_cell_length_c   5.47295900
_cell_angle_alpha   90.00000000
_cell_angle_beta   90.00000000
_cell_angle_gamma   164.20964187
_symmetry_Int_Tables_number   1
_chemical_formula_structural   Rb5(CdAg2)2
_chemical_formula_sum   'Rb5 Cd2 Ag4'
_cell_volume   463.66989494
_cell_formula_units_Z   1
loop_
 _symmetry_equiv_pos_site_id
 _symmetry_equiv_pos_as_xyz
  1  'x, y, z'
loop_
 _atom_site_type_symbol
 _atom_site_label
 _atom_site_symmetry_multiplicity
 _atom_site_fract_x
 _atom_site_fract_y
 _atom_site_fract_z
 _atom_site_occupancy
  Rb  Rb0  1  0.005029  0.994971  0.000000  1
  Rb  Rb1  1  0.609737  0.390261  0.000000  1
  Rb  Rb2  1  0.387223  0.612775  0.000000  1
  Rb  Rb3  1  0.805415  0.194583  0.500001  1
  Rb  Rb4  1  0.190713  0.809285  0.500001  1
  Cd  Cd5  1  0.728902  0.271096  0.000000  1
  Cd  Cd6  1  0.922121  0.077878  0.500001  1
  Ag  Ag7  1  0.269086  0.730912  0.000000  1
  Ag  Ag8  1  0.542596  0.457402  0.500001  1
  Ag  Ag9  1  0.461546  0.538452  0.500001  1
  Ag  Ag10  1  0.077623  0.922376  0.500001  1
