# generated using pymatgen
data_Ba2Sn2PtO8
_symmetry_space_group_name_H-M   'P 1'
_cell_length_a   6.79613285
_cell_length_b   6.79613197
_cell_length_c   5.53194500
_cell_angle_alpha   72.08680006
_cell_angle_beta   72.08681134
_cell_angle_gamma   57.20327441
_symmetry_Int_Tables_number   1
_chemical_formula_structural   Ba2Sn2PtO8
_chemical_formula_sum   'Ba2 Sn2 Pt1 O8'
_cell_volume   201.16695683
_cell_formula_units_Z   1
loop_
 _symmetry_equiv_pos_site_id
 _symmetry_equiv_pos_as_xyz
  1  'x, y, z'
loop_
 _atom_site_type_symbol
 _atom_site_label
 _atom_site_symmetry_multiplicity
 _atom_site_fract_x
 _atom_site_fract_y
 _atom_site_fract_z
 _atom_site_occupancy
  Ba  Ba0  1  0.714109  0.714109  0.333539  1
  Ba  Ba1  1  0.285891  0.285891  0.666461  1
  Sn  Sn2  1  0.741063  0.258937  0.000000  1
  Sn  Sn3  1  0.258937  0.741063  0.000000  1
  Pt  Pt4  1  0.000000  0.000000  0.500000  1
  O  O5  1  0.384105  0.384105  0.010767  1
  O  O6  1  0.615895  0.615895  0.989233  1
  O  O7  1  0.905623  0.905623  0.888263  1
  O  O8  1  0.094377  0.094377  0.111737  1
  O  O9  1  0.306835  0.881684  0.615285  1
  O  O10  1  0.881684  0.306835  0.615285  1
  O  O11  1  0.118316  0.693165  0.384715  1
  O  O12  1  0.693165  0.118316  0.384715  1
