# generated using pymatgen
data_Tb4AlGa3Ru4
_symmetry_space_group_name_H-M   'P 1'
_cell_length_a   4.52352600
_cell_length_b   7.24360430
_cell_length_c   7.10601977
_cell_angle_alpha   90.50736099
_cell_angle_beta   90.00000000
_cell_angle_gamma   90.00000000
_symmetry_Int_Tables_number   1
_chemical_formula_structural   Tb4AlGa3Ru4
_chemical_formula_sum   'Tb4 Al1 Ga3 Ru4'
_cell_volume   232.83120866
_cell_formula_units_Z   1
loop_
 _symmetry_equiv_pos_site_id
 _symmetry_equiv_pos_as_xyz
  1  'x, y, z'
loop_
 _atom_site_type_symbol
 _atom_site_label
 _atom_site_symmetry_multiplicity
 _atom_site_fract_x
 _atom_site_fract_y
 _atom_site_fract_z
 _atom_site_occupancy
  Tb  Tb0  1  0.250000  0.978740  0.806559  1
  Tb  Tb1  1  0.750000  0.018255  0.195515  1
  Tb  Tb2  1  0.250000  0.480653  0.696084  1
  Tb  Tb3  1  0.750000  0.521041  0.302203  1
  Al  Al4  1  0.750000  0.191695  0.607541  1
  Ga  Ga5  1  0.250000  0.303085  0.105753  1
  Ga  Ga6  1  0.750000  0.696258  0.892452  1
  Ga  Ga7  1  0.250000  0.805673  0.394495  1
  Ru  Ru8  1  0.750000  0.844429  0.562822  1
  Ru  Ru9  1  0.250000  0.160792  0.438735  1
  Ru  Ru10  1  0.750000  0.341557  0.935051  1
  Ru  Ru11  1  0.250000  0.657823  0.062791  1
