# generated using pymatgen
data_Np2Al20FeRe3
_symmetry_space_group_name_H-M   'P 1'
_cell_length_a   7.01824797
_cell_length_b   6.98761472
_cell_length_c   9.34560100
_cell_angle_alpha   90.21932395
_cell_angle_beta   90.03018168
_cell_angle_gamma   97.71920441
_symmetry_Int_Tables_number   1
_chemical_formula_structural   Np2Al20FeRe3
_chemical_formula_sum   'Np2 Al20 Fe1 Re3'
_cell_volume   454.15914045
_cell_formula_units_Z   1
loop_
 _symmetry_equiv_pos_site_id
 _symmetry_equiv_pos_as_xyz
  1  'x, y, z'
loop_
 _atom_site_type_symbol
 _atom_site_label
 _atom_site_symmetry_multiplicity
 _atom_site_fract_x
 _atom_site_fract_y
 _atom_site_fract_z
 _atom_site_occupancy
  Np  Np0  1  0.866167  0.122132  0.747359  1
  Np  Np1  1  0.133833  0.877868  0.252641  1
  Al  Al2  1  0.625360  0.375929  0.543563  1
  Al  Al3  1  0.374640  0.624071  0.456437  1
  Al  Al4  1  0.370880  0.622871  0.043277  1
  Al  Al5  1  0.629120  0.377129  0.956723  1
  Al  Al6  1  0.222966  0.223914  0.498545  1
  Al  Al7  1  0.777034  0.776086  0.501455  1
  Al  Al8  1  0.779479  0.771907  0.002942  1
  Al  Al9  1  0.220521  0.228093  0.997058  1
  Al  Al10  1  0.848114  0.159565  0.096520  1
  Al  Al11  1  0.151886  0.840435  0.903480  1
  Al  Al12  1  0.155179  0.844678  0.600075  1
  Al  Al13  1  0.844821  0.155322  0.399925  1
  Al  Al14  1  0.862419  0.587167  0.754740  1
  Al  Al15  1  0.137581  0.412833  0.245260  1
  Al  Al16  1  0.408249  0.138423  0.750281  1
  Al  Al17  1  0.591751  0.861577  0.249719  1
  Al  Al18  1  0.210484  0.474333  0.751988  1
  Al  Al19  1  0.789516  0.525667  0.248012  1
  Al  Al20  1  0.522041  0.783119  0.751359  1
  Al  Al21  1  0.477959  0.216881  0.248641  1
  Fe  Fe22  1  0.000000  0.500000  0.000000  1
  Re  Re23  1  0.000000  0.500000  0.500000  1
  Re  Re24  1  0.500000  0.000000  0.000000  1
  Re  Re25  1  0.500000  0.000000  0.500000  1
