# generated using pymatgen
data_Y2CrPtF14
_symmetry_space_group_name_H-M   'P 1'
_cell_length_a   5.52801267
_cell_length_b   8.85296724
_cell_length_c   11.87717459
_cell_angle_alpha   62.66774917
_cell_angle_beta   90.02204222
_cell_angle_gamma   90.10863338
_symmetry_Int_Tables_number   1
_chemical_formula_structural   Y2CrPtF14
_chemical_formula_sum   'Y4 Cr2 Pt2 F28'
_cell_volume   516.36720589
_cell_formula_units_Z   2
loop_
 _symmetry_equiv_pos_site_id
 _symmetry_equiv_pos_as_xyz
  1  'x, y, z'
loop_
 _atom_site_type_symbol
 _atom_site_label
 _atom_site_symmetry_multiplicity
 _atom_site_fract_x
 _atom_site_fract_y
 _atom_site_fract_z
 _atom_site_occupancy
  Y  Y0  1  0.260180  0.813527  0.260943  1
  Y  Y1  1  0.739820  0.186473  0.739057  1
  Y  Y2  1  0.764228  0.188729  0.231893  1
  Y  Y3  1  0.235772  0.811271  0.768107  1
  Cr  Cr4  1  0.756123  0.725905  0.043089  1
  Cr  Cr5  1  0.243877  0.274095  0.956911  1
  Pt  Pt6  1  0.260114  0.273233  0.456040  1
  Pt  Pt7  1  0.739886  0.726767  0.543960  1
  F  F8  1  0.929519  0.702046  0.413642  1
  F  F9  1  0.070481  0.297954  0.586358  1
  F  F10  1  0.442544  0.291665  0.075871  1
  F  F11  1  0.557456  0.708335  0.924129  1
  F  F12  1  0.482911  0.733490  0.133744  1
  F  F13  1  0.517089  0.266510  0.866256  1
  F  F14  1  0.963935  0.278452  0.362010  1
  F  F15  1  0.036065  0.721548  0.637990  1
  F  F16  1  0.953375  0.746027  0.164076  1
  F  F17  1  0.046625  0.253973  0.835924  1
  F  F18  1  0.445903  0.257690  0.320090  1
  F  F19  1  0.554097  0.742310  0.679910  1
  F  F20  1  0.767638  0.492325  0.135916  1
  F  F21  1  0.232362  0.507675  0.864084  1
  F  F22  1  0.273476  0.522355  0.355587  1
  F  F23  1  0.726524  0.477645  0.644413  1
  F  F24  1  0.961970  0.282242  0.044336  1
  F  F25  1  0.038030  0.717758  0.955664  1
  F  F26  1  0.437325  0.721716  0.457626  1
  F  F27  1  0.562675  0.278284  0.542374  1
  F  F28  1  0.742557  0.975935  0.449892  1
  F  F29  1  0.257443  0.024065  0.550108  1
  F  F30  1  0.240641  0.040798  0.046761  1
  F  F31  1  0.759359  0.959202  0.953239  1
  F  F32  1  0.588290  0.970921  0.228368  1
  F  F33  1  0.411710  0.029079  0.771632  1
  F  F34  1  0.087405  0.028396  0.270308  1
  F  F35  1  0.912595  0.971604  0.729692  1
