# generated using pymatgen
data_La2Ho3Zr3(Co4P3)4
_symmetry_space_group_name_H-M   'P 1'
_cell_length_a   12.43779400
_cell_length_b   12.43779351
_cell_length_c   3.73029100
_cell_angle_alpha   90.00000000
_cell_angle_beta   90.00000000
_cell_angle_gamma   120.00000132
_symmetry_Int_Tables_number   1
_chemical_formula_structural   La2Ho3Zr3(Co4P3)4
_chemical_formula_sum   'La2 Ho3 Zr3 Co16 P12'
_cell_volume   499.75832834
_cell_formula_units_Z   1
loop_
 _symmetry_equiv_pos_site_id
 _symmetry_equiv_pos_as_xyz
  1  'x, y, z'
loop_
 _atom_site_type_symbol
 _atom_site_label
 _atom_site_symmetry_multiplicity
 _atom_site_fract_x
 _atom_site_fract_y
 _atom_site_fract_z
 _atom_site_occupancy
  La  La0  1  0.666667  0.333333  0.000000  1
  La  La1  1  0.333333  0.666667  0.000000  1
  Ho  Ho2  1  0.818109  0.818109  0.500000  1
  Ho  Ho3  1  0.181891  0.000000  0.500000  1
  Ho  Ho4  1  0.000000  0.181891  0.500000  1
  Zr  Zr5  1  0.441075  0.441075  0.000000  1
  Zr  Zr6  1  0.558925  0.000000  0.000000  1
  Zr  Zr7  1  0.000000  0.558925  0.000000  1
  Co  Co8  1  0.879070  0.352145  0.500000  1
  Co  Co9  1  0.647855  0.526925  0.500000  1
  Co  Co10  1  0.473075  0.120930  0.500000  1
  Co  Co11  1  0.352145  0.879070  0.500000  1
  Co  Co12  1  0.526925  0.647855  0.500000  1
  Co  Co13  1  0.120930  0.473075  0.500000  1
  Co  Co14  1  0.808142  0.175653  0.000000  1
  Co  Co15  1  0.824347  0.632488  0.000000  1
  Co  Co16  1  0.367512  0.191858  0.000000  1
  Co  Co17  1  0.175653  0.808142  0.000000  1
  Co  Co18  1  0.632488  0.824347  0.000000  1
  Co  Co19  1  0.191858  0.367512  0.000000  1
  Co  Co20  1  0.273486  0.273486  0.500000  1
  Co  Co21  1  0.726514  0.000000  0.500000  1
  Co  Co22  1  0.000000  0.726514  0.500000  1
  Co  Co23  1  0.000000  0.000000  0.000000  1
  P  P24  1  0.699191  0.167957  0.500000  1
  P  P25  1  0.832043  0.531235  0.500000  1
  P  P26  1  0.468765  0.300809  0.500000  1
  P  P27  1  0.167957  0.699191  0.500000  1
  P  P28  1  0.531235  0.832043  0.500000  1
  P  P29  1  0.300809  0.468765  0.500000  1
  P  P30  1  0.175322  0.175322  0.000000  1
  P  P31  1  0.824678  0.000000  0.000000  1
  P  P32  1  0.000000  0.824678  0.000000  1
  P  P33  1  0.649414  0.649414  0.000000  1
  P  P34  1  0.350586  0.000000  0.000000  1
  P  P35  1  0.000000  0.350586  0.000000  1
