# generated using pymatgen
data_Ca9Nd(Sn3H)2
_symmetry_space_group_name_H-M   'P 1'
_cell_length_a   9.45769333
_cell_length_b   9.45769317
_cell_length_c   9.46449849
_cell_angle_alpha   128.65042778
_cell_angle_beta   128.65042254
_cell_angle_gamma   75.51239502
_symmetry_Int_Tables_number   1
_chemical_formula_structural   Ca9Nd(Sn3H)2
_chemical_formula_sum   'Ca9 Nd1 Sn6 H2'
_cell_volume   502.57314971
_cell_formula_units_Z   1
loop_
 _symmetry_equiv_pos_site_id
 _symmetry_equiv_pos_as_xyz
  1  'x, y, z'
loop_
 _atom_site_type_symbol
 _atom_site_label
 _atom_site_symmetry_multiplicity
 _atom_site_fract_x
 _atom_site_fract_y
 _atom_site_fract_z
 _atom_site_occupancy
  Ca  Ca0  1  0.499759  0.501375  0.000200  1
  Ca  Ca1  1  0.001375  0.999759  0.000200  1
  Ca  Ca2  1  0.186221  0.686221  0.175426  1
  Ca  Ca3  1  0.009843  0.186222  0.499994  1
  Ca  Ca4  1  0.686222  0.509843  0.499994  1
  Ca  Ca5  1  0.490643  0.990643  0.180220  1
  Ca  Ca6  1  0.812047  0.312047  0.821935  1
  Ca  Ca7  1  0.988122  0.812670  0.498561  1
  Ca  Ca8  1  0.312670  0.488122  0.498561  1
  Nd  Nd9  1  0.514156  0.014156  0.826884  1
  Sn  Sn10  1  0.251452  0.247661  0.996995  1
  Sn  Sn11  1  0.747661  0.751452  0.996995  1
  Sn  Sn12  1  0.871836  0.371836  0.245085  1
  Sn  Sn13  1  0.127057  0.627057  0.753451  1
  Sn  Sn14  1  0.371756  0.128200  0.502063  1
  Sn  Sn15  1  0.628200  0.871756  0.502063  1
  H  H16  1  0.250983  0.750983  0.500912  1
  H  H17  1  0.749998  0.249998  0.500462  1
