# generated using pymatgen
data_Pr5NdAl24Ru5Pt3
_symmetry_space_group_name_H-M   'P 1'
_cell_length_a   8.92929095
_cell_length_b   8.94321375
_cell_length_c   9.65403633
_cell_angle_alpha   90.07501812
_cell_angle_beta   89.96799120
_cell_angle_gamma   120.04816301
_symmetry_Int_Tables_number   1
_chemical_formula_structural   Pr5NdAl24Ru5Pt3
_chemical_formula_sum   'Pr5 Nd1 Al24 Ru5 Pt3'
_cell_volume   667.32714808
_cell_formula_units_Z   1
loop_
 _symmetry_equiv_pos_site_id
 _symmetry_equiv_pos_as_xyz
  1  'x, y, z'
loop_
 _atom_site_type_symbol
 _atom_site_label
 _atom_site_symmetry_multiplicity
 _atom_site_fract_x
 _atom_site_fract_y
 _atom_site_fract_z
 _atom_site_occupancy
  Pr  Pr0  1  0.192600  0.381506  0.251182  1
  Pr  Pr1  1  0.807417  0.618379  0.748824  1
  Pr  Pr2  1  0.618134  0.807877  0.249823  1
  Pr  Pr3  1  0.381991  0.192113  0.750183  1
  Pr  Pr4  1  0.191214  0.810687  0.249121  1
  Nd  Nd5  1  0.808653  0.189342  0.750848  1
  Al  Al6  1  0.336402  0.663973  0.020796  1
  Al  Al7  1  0.663705  0.335914  0.978988  1
  Al  Al8  1  0.661506  0.330456  0.520388  1
  Al  Al9  1  0.338613  0.669441  0.479825  1
  Al  Al10  1  0.168199  0.326013  0.575619  1
  Al  Al11  1  0.831606  0.673913  0.424481  1
  Al  Al12  1  0.672254  0.836261  0.575621  1
  Al  Al13  1  0.831716  0.674783  0.076473  1
  Al  Al14  1  0.327837  0.163960  0.424494  1
  Al  Al15  1  0.168092  0.325150  0.923421  1
  Al  Al16  1  0.167689  0.842952  0.576068  1
  Al  Al17  1  0.326093  0.168664  0.077676  1
  Al  Al18  1  0.832288  0.157056  0.424154  1
  Al  Al19  1  0.673974  0.831520  0.922222  1
  Al  Al20  1  0.838554  0.161974  0.078728  1
  Al  Al21  1  0.161422  0.838040  0.921068  1
  Al  Al22  1  0.563432  0.126824  0.253511  1
  Al  Al23  1  0.436896  0.873460  0.746504  1
  Al  Al24  1  0.870946  0.435600  0.249941  1
  Al  Al25  1  0.128797  0.564101  0.750053  1
  Al  Al26  1  0.561871  0.438142  0.249594  1
  Al  Al27  1  0.438132  0.561864  0.750407  1
  Al  Al28  1  0.002168  0.000500  0.250227  1
  Al  Al29  1  0.997691  0.999655  0.749776  1
  Ru  Ru30  1  0.500186  0.000116  0.500113  1
  Ru  Ru31  1  0.500021  0.499971  0.999988  1
  Ru  Ru32  1  0.500015  0.499974  0.500022  1
  Ru  Ru33  1  0.999951  0.000034  0.999950  1
  Ru  Ru34  1  0.999965  0.000034  0.500045  1
  Pt  Pt35  1  0.500159  0.000088  0.999880  1
  Pt  Pt36  1  0.999899  0.499818  0.999878  1
  Pt  Pt37  1  0.999911  0.499846  0.500107  1
