# generated using pymatgen
data_Yb4Ho5TmIr4
_symmetry_space_group_name_H-M   'P 1'
_cell_length_a   6.49810309
_cell_length_b   7.27641387
_cell_length_c   8.46359527
_cell_angle_alpha   97.19704546
_cell_angle_beta   112.57457784
_cell_angle_gamma   89.99999473
_symmetry_Int_Tables_number   1
_chemical_formula_structural   Yb4Ho5TmIr4
_chemical_formula_sum   'Yb4 Ho5 Tm1 Ir4'
_cell_volume   366.10449191
_cell_formula_units_Z   1
loop_
 _symmetry_equiv_pos_site_id
 _symmetry_equiv_pos_as_xyz
  1  'x, y, z'
loop_
 _atom_site_type_symbol
 _atom_site_label
 _atom_site_symmetry_multiplicity
 _atom_site_fract_x
 _atom_site_fract_y
 _atom_site_fract_z
 _atom_site_occupancy
  Yb  Yb0  1  0.974146  0.920939  0.183037  1
  Yb  Yb1  1  0.791109  0.579061  0.816963  1
  Yb  Yb2  1  0.025817  0.079315  0.817001  1
  Yb  Yb3  1  0.208816  0.420685  0.182999  1
  Ho  Ho4  1  0.647625  0.818549  0.439832  1
  Ho  Ho5  1  0.207793  0.681451  0.560168  1
  Ho  Ho6  1  0.352544  0.181586  0.560365  1
  Ho  Ho7  1  0.792179  0.318414  0.439635  1
  Ho  Ho8  1  0.431343  0.750000  0.000000  1
  Tm  Tm9  1  0.568186  0.250000  0.000000  1
  Ir  Ir10  1  0.812969  0.572913  0.227247  1
  Ir  Ir11  1  0.585721  0.927087  0.772753  1
  Ir  Ir12  1  0.187224  0.426306  0.772696  1
  Ir  Ir13  1  0.414527  0.073694  0.227304  1
