# generated using pymatgen
data_LiTb16Cd3Co3Ir
_symmetry_space_group_name_H-M   'P 1'
_cell_length_a   9.61187076
_cell_length_b   9.57052902
_cell_length_c   9.57052916
_cell_angle_alpha   59.85904122
_cell_angle_beta   60.04843064
_cell_angle_gamma   60.04843708
_symmetry_Int_Tables_number   1
_chemical_formula_structural   LiTb16Cd3Co3Ir
_chemical_formula_sum   'Li1 Tb16 Cd3 Co3 Ir1'
_cell_volume   622.32451133
_cell_formula_units_Z   1
loop_
 _symmetry_equiv_pos_site_id
 _symmetry_equiv_pos_as_xyz
  1  'x, y, z'
loop_
 _atom_site_type_symbol
 _atom_site_label
 _atom_site_symmetry_multiplicity
 _atom_site_fract_x
 _atom_site_fract_y
 _atom_site_fract_z
 _atom_site_occupancy
  Li  Li0  1  0.821583  0.821283  0.821283  1
  Tb  Tb1  1  0.591589  0.600857  0.600857  1
  Tb  Tb2  1  0.589997  0.599910  0.211084  1
  Tb  Tb3  1  0.589997  0.211084  0.599910  1
  Tb  Tb4  1  0.215775  0.595424  0.595424  1
  Tb  Tb5  1  0.066402  0.439453  0.439453  1
  Tb  Tb6  1  0.435823  0.063325  0.063325  1
  Tb  Tb7  1  0.439875  0.061350  0.437955  1
  Tb  Tb8  1  0.068409  0.434580  0.058159  1
  Tb  Tb9  1  0.439875  0.437955  0.061350  1
  Tb  Tb10  1  0.068409  0.058159  0.434580  1
  Tb  Tb11  1  0.187437  0.812220  0.812220  1
  Tb  Tb12  1  0.812982  0.187927  0.187927  1
  Tb  Tb13  1  0.812428  0.189287  0.808335  1
  Tb  Tb14  1  0.185556  0.813183  0.186618  1
  Tb  Tb15  1  0.812428  0.808335  0.189287  1
  Tb  Tb16  1  0.185556  0.186618  0.813183  1
  Cd  Cd17  1  0.832775  0.831982  0.507762  1
  Cd  Cd18  1  0.832775  0.507762  0.831982  1
  Cd  Cd19  1  0.506748  0.832523  0.832523  1
  Co  Co20  1  0.391101  0.391652  0.391652  1
  Co  Co21  1  0.392727  0.393819  0.827954  1
  Co  Co22  1  0.392727  0.827954  0.393819  1
  Ir  Ir23  1  0.827033  0.393366  0.393366  1
