# generated using pymatgen
data_Zr10Tl6ZnAs
_symmetry_space_group_name_H-M   'P 1'
_cell_length_a   8.78950600
_cell_length_b   8.78950558
_cell_length_c   5.91852700
_cell_angle_alpha   90.00000000
_cell_angle_beta   90.00000000
_cell_angle_gamma   120.00000157
_symmetry_Int_Tables_number   1
_chemical_formula_structural   Zr10Tl6ZnAs
_chemical_formula_sum   'Zr10 Tl6 Zn1 As1'
_cell_volume   395.97992697
_cell_formula_units_Z   1
loop_
 _symmetry_equiv_pos_site_id
 _symmetry_equiv_pos_as_xyz
  1  'x, y, z'
loop_
 _atom_site_type_symbol
 _atom_site_label
 _atom_site_symmetry_multiplicity
 _atom_site_fract_x
 _atom_site_fract_y
 _atom_site_fract_z
 _atom_site_occupancy
  Zr  Zr0  1  0.739925  0.739925  0.253826  1
  Zr  Zr1  1  0.260075  0.000000  0.253826  1
  Zr  Zr2  1  0.000000  0.260075  0.253826  1
  Zr  Zr3  1  0.260075  0.260075  0.746174  1
  Zr  Zr4  1  0.739925  0.000000  0.746174  1
  Zr  Zr5  1  0.000000  0.739925  0.746174  1
  Zr  Zr6  1  0.666667  0.333333  0.500000  1
  Zr  Zr7  1  0.333333  0.666667  0.500000  1
  Zr  Zr8  1  0.333333  0.666667  0.000000  1
  Zr  Zr9  1  0.666667  0.333333  0.000000  1
  Tl  Tl10  1  0.388260  0.388260  0.246190  1
  Tl  Tl11  1  0.611740  0.000000  0.246190  1
  Tl  Tl12  1  0.000000  0.611740  0.246190  1
  Tl  Tl13  1  0.611740  0.611740  0.753810  1
  Tl  Tl14  1  0.388260  0.000000  0.753810  1
  Tl  Tl15  1  0.000000  0.388260  0.753810  1
  Zn  Zn16  1  0.000000  0.000000  0.000000  1
  As  As17  1  0.000000  0.000000  0.500000  1
