# generated using pymatgen
data_Tb5In3
_symmetry_space_group_name_H-M   'P 1'
_cell_length_a   6.01403618
_cell_length_b   9.23665690
_cell_length_c   9.23665685
_cell_angle_alpha   83.91610833
_cell_angle_beta   71.00094155
_cell_angle_gamma   71.00093980
_symmetry_Int_Tables_number   1
_chemical_formula_structural   Tb5In3
_chemical_formula_sum   'Tb10 In6'
_cell_volume   458.71263080
_cell_formula_units_Z   2
loop_
 _symmetry_equiv_pos_site_id
 _symmetry_equiv_pos_as_xyz
  1  'x, y, z'
loop_
 _atom_site_type_symbol
 _atom_site_label
 _atom_site_symmetry_multiplicity
 _atom_site_fract_x
 _atom_site_fract_y
 _atom_site_fract_z
 _atom_site_occupancy
  Tb  Tb0  1  0.719617  0.863311  0.697455  1
  Tb  Tb1  1  0.280383  0.136689  0.302545  1
  Tb  Tb2  1  0.780383  0.302545  0.136689  1
  Tb  Tb3  1  0.219617  0.697455  0.863311  1
  Tb  Tb4  1  0.582928  0.697455  0.136689  1
  Tb  Tb5  1  0.417072  0.302545  0.863311  1
  Tb  Tb6  1  0.082928  0.136689  0.697455  1
  Tb  Tb7  1  0.917072  0.863311  0.302545  1
  Tb  Tb8  1  0.750000  0.500000  0.500000  1
  Tb  Tb9  1  0.250000  0.500000  0.500000  1
  In  In10  1  0.161975  0.500000  0.176051  1
  In  In11  1  0.838025  0.500000  0.823949  1
  In  In12  1  0.338025  0.823949  0.500000  1
  In  In13  1  0.661975  0.176051  0.500000  1
  In  In14  1  0.250000  0.000000  0.000000  1
  In  In15  1  0.750000  0.000000  0.000000  1
