# generated using pymatgen
data_Tb3Sn3IrPtRh
_symmetry_space_group_name_H-M   'P 1'
_cell_length_a   7.59597900
_cell_length_b   7.59597807
_cell_length_c   3.89505900
_cell_angle_alpha   90.00000000
_cell_angle_beta   90.00000000
_cell_angle_gamma   119.99999968
_symmetry_Int_Tables_number   1
_chemical_formula_structural   Tb3Sn3IrPtRh
_chemical_formula_sum   'Tb3 Sn3 Ir1 Pt1 Rh1'
_cell_volume   194.63105263
_cell_formula_units_Z   1
loop_
 _symmetry_equiv_pos_site_id
 _symmetry_equiv_pos_as_xyz
  1  'x, y, z'
loop_
 _atom_site_type_symbol
 _atom_site_label
 _atom_site_symmetry_multiplicity
 _atom_site_fract_x
 _atom_site_fract_y
 _atom_site_fract_z
 _atom_site_occupancy
  Tb  Tb0  1  0.411306  0.007194  0.500000  1
  Tb  Tb1  1  0.992806  0.404113  0.500000  1
  Tb  Tb2  1  0.595887  0.588694  0.500000  1
  Sn  Sn3  1  0.742908  0.001552  0.000000  1
  Sn  Sn4  1  0.998448  0.741356  0.000000  1
  Sn  Sn5  1  0.258644  0.257092  0.000000  1
  Ir  Ir6  1  0.666667  0.333333  0.000000  1
  Pt  Pt7  1  0.333333  0.666667  0.000000  1
  Rh  Rh8  1  0.000000  0.000000  0.500000  1
