# generated using pymatgen
data_Na2DyTm(InBr3)4
_symmetry_space_group_name_H-M   'P 1'
_cell_length_a   8.19559215
_cell_length_b   7.65207120
_cell_length_c   13.26618224
_cell_angle_alpha   56.31996267
_cell_angle_beta   90.01389092
_cell_angle_gamma   89.99322045
_symmetry_Int_Tables_number   1
_chemical_formula_structural   Na2DyTm(InBr3)4
_chemical_formula_sum   'Na2 Dy1 Tm1 In4 Br12'
_cell_volume   692.31783608
_cell_formula_units_Z   1
loop_
 _symmetry_equiv_pos_site_id
 _symmetry_equiv_pos_as_xyz
  1  'x, y, z'
loop_
 _atom_site_type_symbol
 _atom_site_label
 _atom_site_symmetry_multiplicity
 _atom_site_fract_x
 _atom_site_fract_y
 _atom_site_fract_z
 _atom_site_occupancy
  Na  Na0  1  0.500000  0.500000  0.000000  1
  Na  Na1  1  0.000000  0.500000  0.500000  1
  Dy  Dy2  1  0.500000  0.000000  0.500000  1
  Tm  Tm3  1  0.000000  0.000000  0.000000  1
  In  In4  1  0.075851  0.713726  0.759553  1
  In  In5  1  0.924149  0.286274  0.240447  1
  In  In6  1  0.575998  0.285972  0.740630  1
  In  In7  1  0.424002  0.714028  0.259370  1
  Br  Br8  1  0.785181  0.756319  0.560352  1
  Br  Br9  1  0.214819  0.243681  0.439648  1
  Br  Br10  1  0.281990  0.240958  0.940268  1
  Br  Br11  1  0.718010  0.759042  0.059732  1
  Br  Br12  1  0.462426  0.868283  0.743530  1
  Br  Br13  1  0.537574  0.131717  0.256470  1
  Br  Br14  1  0.962764  0.130155  0.759229  1
  Br  Br15  1  0.037236  0.869845  0.240771  1
  Br  Br16  1  0.313766  0.654726  0.544901  1
  Br  Br17  1  0.686234  0.345274  0.455099  1
  Br  Br18  1  0.815922  0.341352  0.955595  1
  Br  Br19  1  0.184078  0.658648  0.044405  1
