# generated using pymatgen
data_CaCePa(SnRh)3
_symmetry_space_group_name_H-M   'P 1'
_cell_length_a   7.54000867
_cell_length_b   7.61646945
_cell_length_c   3.98424600
_cell_angle_alpha   90.00000000
_cell_angle_beta   90.00000000
_cell_angle_gamma   120.67417613
_symmetry_Int_Tables_number   1
_chemical_formula_structural   CaCePa(SnRh)3
_chemical_formula_sum   'Ca1 Ce1 Pa1 Sn3 Rh3'
_cell_volume   196.79393117
_cell_formula_units_Z   1
loop_
 _symmetry_equiv_pos_site_id
 _symmetry_equiv_pos_as_xyz
  1  'x, y, z'
loop_
 _atom_site_type_symbol
 _atom_site_label
 _atom_site_symmetry_multiplicity
 _atom_site_fract_x
 _atom_site_fract_y
 _atom_site_fract_z
 _atom_site_occupancy
  Ca  Ca0  1  0.594084  0.592094  0.000000  1
  Ce  Ce1  1  0.412138  0.999135  0.000000  1
  Pa  Pa2  1  0.999980  0.414415  0.000000  1
  Sn  Sn3  1  0.269433  0.261132  0.500000  1
  Sn  Sn4  1  0.993903  0.754758  0.500000  1
  Sn  Sn5  1  0.734949  0.984428  0.500000  1
  Rh  Rh6  1  0.697638  0.325719  0.500000  1
  Rh  Rh7  1  0.293342  0.644745  0.500000  1
  Rh  Rh8  1  0.004532  0.023574  0.000000  1
