# generated using pymatgen
data_Zr8TaNb11Ge16
_symmetry_space_group_name_H-M   'P 1'
_cell_length_a   6.86103709
_cell_length_b   6.99943709
_cell_length_c   13.36128400
_cell_angle_alpha   90.00000000
_cell_angle_beta   90.00000000
_cell_angle_gamma   89.98182786
_symmetry_Int_Tables_number   1
_chemical_formula_structural   Zr8TaNb11Ge16
_chemical_formula_sum   'Zr8 Ta1 Nb11 Ge16'
_cell_volume   641.65421962
_cell_formula_units_Z   1
loop_
 _symmetry_equiv_pos_site_id
 _symmetry_equiv_pos_as_xyz
  1  'x, y, z'
loop_
 _atom_site_type_symbol
 _atom_site_label
 _atom_site_symmetry_multiplicity
 _atom_site_fract_x
 _atom_site_fract_y
 _atom_site_fract_z
 _atom_site_occupancy
  Zr  Zr0  1  0.490469  0.674617  0.591783  1
  Zr  Zr1  1  0.990117  0.825613  0.908318  1
  Zr  Zr2  1  0.509903  0.325493  0.092145  1
  Zr  Zr3  1  0.009596  0.174475  0.408062  1
  Zr  Zr4  1  0.509903  0.325493  0.407855  1
  Zr  Zr5  1  0.009596  0.174475  0.091938  1
  Zr  Zr6  1  0.490469  0.674617  0.908217  1
  Zr  Zr7  1  0.990117  0.825613  0.591682  1
  Ta  Ta8  1  0.663727  0.990744  0.250000  1
  Nb  Nb9  1  0.660149  0.164962  0.624793  1
  Nb  Nb10  1  0.159585  0.334724  0.875231  1
  Nb  Nb11  1  0.340414  0.835181  0.124902  1
  Nb  Nb12  1  0.839793  0.665448  0.375061  1
  Nb  Nb13  1  0.340414  0.835181  0.375098  1
  Nb  Nb14  1  0.839793  0.665448  0.124939  1
  Nb  Nb15  1  0.660149  0.164962  0.875207  1
  Nb  Nb16  1  0.159585  0.334724  0.624769  1
  Nb  Nb17  1  0.835907  0.491589  0.750000  1
  Nb  Nb18  1  0.336349  0.008285  0.750000  1
  Nb  Nb19  1  0.163907  0.508241  0.250000  1
  Ge  Ge20  1  0.681617  0.960802  0.459849  1
  Ge  Ge21  1  0.181534  0.539581  0.040076  1
  Ge  Ge22  1  0.318388  0.039655  0.959912  1
  Ge  Ge23  1  0.818401  0.460490  0.540105  1
  Ge  Ge24  1  0.318388  0.039655  0.540088  1
  Ge  Ge25  1  0.818401  0.460490  0.959895  1
  Ge  Ge26  1  0.681617  0.960802  0.040151  1
  Ge  Ge27  1  0.181534  0.539581  0.459924  1
  Ge  Ge28  1  0.462199  0.386547  0.750000  1
  Ge  Ge29  1  0.962499  0.113252  0.750000  1
  Ge  Ge30  1  0.537223  0.613108  0.250000  1
  Ge  Ge31  1  0.037912  0.886548  0.250000  1
  Ge  Ge32  1  0.693533  0.850569  0.750000  1
  Ge  Ge33  1  0.193508  0.649319  0.750000  1
  Ge  Ge34  1  0.306751  0.149486  0.250000  1
  Ge  Ge35  1  0.806553  0.350230  0.250000  1
