# generated using pymatgen
data_Li12La5Dy7(WO6)8
_symmetry_space_group_name_H-M   'P 1'
_cell_length_a   10.82545674
_cell_length_b   10.85156637
_cell_length_c   10.83958330
_cell_angle_alpha   109.54177877
_cell_angle_beta   109.26636226
_cell_angle_gamma   109.48870504
_symmetry_Int_Tables_number   1
_chemical_formula_structural   Li12La5Dy7(WO6)8
_chemical_formula_sum   'Li12 La5 Dy7 W8 O48'
_cell_volume   981.63892043
_cell_formula_units_Z   1
loop_
 _symmetry_equiv_pos_site_id
 _symmetry_equiv_pos_as_xyz
  1  'x, y, z'
loop_
 _atom_site_type_symbol
 _atom_site_label
 _atom_site_symmetry_multiplicity
 _atom_site_fract_x
 _atom_site_fract_y
 _atom_site_fract_z
 _atom_site_occupancy
  Li  Li0  1  0.749486  0.377064  0.126974  1
  Li  Li1  1  0.878154  0.750255  0.127126  1
  Li  Li2  1  0.126028  0.376434  0.250329  1
  Li  Li3  1  0.624521  0.874168  0.250754  1
  Li  Li4  1  0.624634  0.250894  0.374645  1
  Li  Li5  1  0.249141  0.121730  0.372999  1
  Li  Li6  1  0.372910  0.750804  0.622493  1
  Li  Li7  1  0.749159  0.872045  0.622104  1
  Li  Li8  1  0.374009  0.123675  0.749904  1
  Li  Li9  1  0.876761  0.626110  0.750357  1
  Li  Li10  1  0.126554  0.250364  0.875696  1
  Li  Li11  1  0.248377  0.626656  0.876549  1
  La  La12  1  0.245680  0.373109  0.622712  1
  La  La13  1  0.625981  0.374101  0.748161  1
  La  La14  1  0.125076  0.875551  0.750583  1
  La  La15  1  0.625885  0.752286  0.878130  1
  La  La16  1  0.753944  0.126681  0.877132  1
  Dy  Dy17  1  0.252546  0.876100  0.128205  1
  Dy  Dy18  1  0.376334  0.252866  0.128233  1
  Dy  Dy19  1  0.874215  0.125832  0.252002  1
  Dy  Dy20  1  0.375106  0.624274  0.249442  1
  Dy  Dy21  1  0.124439  0.747331  0.371028  1
  Dy  Dy22  1  0.746408  0.622990  0.371626  1
  Dy  Dy23  1  0.874005  0.246870  0.620751  1
  W  W24  1  0.006074  0.002494  0.008320  1
  W  W25  1  0.502260  0.006158  0.008113  1
  W  W26  1  0.499435  0.499824  0.004747  1
  W  W27  1  0.005659  0.504031  0.001162  1
  W  W28  1  0.498811  0.995256  0.494820  1
  W  W29  1  0.993133  0.497183  0.494724  1
  W  W30  1  0.995029  0.994641  0.493032  1
  W  W31  1  0.499528  0.500250  0.494928  1
  O  O32  1  0.327483  0.408732  0.031415  1
  O  O33  1  0.204258  0.623122  0.030867  1
  O  O34  1  0.887495  0.912839  0.088819  1
  O  O35  1  0.701272  0.176469  0.089456  1
  O  O36  1  0.622080  0.927793  0.099666  1
  O  O37  1  0.977334  0.172161  0.099420  1
  O  O38  1  0.031095  0.701853  0.121537  1
  O  O39  1  0.591448  0.420033  0.122721  1
  O  O40  1  0.204705  0.081198  0.175217  1
  O  O41  1  0.470410  0.094174  0.175791  1
  O  O42  1  0.121645  0.528193  0.199307  1
  O  O43  1  0.580458  0.672334  0.203066  1
  O  O44  1  0.327538  0.419631  0.297043  1
  O  O45  1  0.469857  0.876645  0.296109  1
  O  O46  1  0.918589  0.796340  0.325397  1
  O  O47  1  0.904777  0.527313  0.326036  1
  O  O48  1  0.580246  0.408383  0.376914  1
  O  O49  1  0.301171  0.971398  0.378408  1
  O  O50  1  0.826517  0.026843  0.404849  1
  O  O51  1  0.071560  0.378161  0.401275  1
  O  O52  1  0.085752  0.111803  0.411720  1
  O  O53  1  0.826000  0.297427  0.419389  1
  O  O54  1  0.590927  0.671911  0.468506  1
  O  O55  1  0.379207  0.797765  0.469219  1
  O  O56  1  0.620485  0.193070  0.521934  1
  O  O57  1  0.407541  0.326378  0.517581  1
  O  O58  1  0.168384  0.692046  0.572214  1
  O  O59  1  0.901522  0.877155  0.571712  1
  O  O60  1  0.172008  0.975883  0.585755  1
  O  O61  1  0.910593  0.612107  0.585100  1
  O  O62  1  0.418111  0.592155  0.610152  1
  O  O63  1  0.697505  0.021965  0.610455  1
  O  O64  1  0.071740  0.190611  0.668233  1
  O  O65  1  0.086242  0.476822  0.671388  1
  O  O66  1  0.672791  0.580842  0.690694  1
  O  O67  1  0.518781  0.109466  0.689940  1
  O  O68  1  0.889475  0.478124  0.803600  1
  O  O69  1  0.418467  0.326695  0.808690  1
  O  O70  1  0.518967  0.910182  0.829961  1
  O  O71  1  0.811856  0.920393  0.829941  1
  O  O72  1  0.978330  0.306614  0.879683  1
  O  O73  1  0.407320  0.581170  0.890067  1
  O  O74  1  0.388817  0.089308  0.916296  1
  O  O75  1  0.027694  0.827059  0.916257  1
  O  O76  1  0.122268  0.097811  0.928447  1
  O  O77  1  0.306570  0.831221  0.928517  1
  O  O78  1  0.810155  0.390202  0.981692  1
  O  O79  1  0.673269  0.592172  0.981758  1
