# generated using pymatgen
data_TbDy3Y2NiI10
_symmetry_space_group_name_H-M   'P 1'
_cell_length_a   7.71351457
_cell_length_b   9.68691390
_cell_length_c   9.71543618
_cell_angle_alpha   106.95472039
_cell_angle_beta   96.83779012
_cell_angle_gamma   104.41589652
_symmetry_Int_Tables_number   1
_chemical_formula_structural   TbDy3Y2NiI10
_chemical_formula_sum   'Tb1 Dy3 Y2 Ni1 I10'
_cell_volume   657.97352985
_cell_formula_units_Z   1
loop_
 _symmetry_equiv_pos_site_id
 _symmetry_equiv_pos_as_xyz
  1  'x, y, z'
loop_
 _atom_site_type_symbol
 _atom_site_label
 _atom_site_symmetry_multiplicity
 _atom_site_fract_x
 _atom_site_fract_y
 _atom_site_fract_z
 _atom_site_occupancy
  Tb  Tb0  1  0.967494  0.279686  0.083147  1
  Dy  Dy1  1  0.887096  0.958850  0.234889  1
  Dy  Dy2  1  0.112571  0.041065  0.765039  1
  Dy  Dy3  1  0.032321  0.721636  0.917095  1
  Y  Y4  1  0.659689  0.879722  0.838291  1
  Y  Y5  1  0.340206  0.120002  0.161663  1
  Ni  Ni6  1  0.000026  0.999850  0.000050  1
  I  I7  1  0.651917  0.550610  0.728671  1
  I  I8  1  0.349254  0.449464  0.271781  1
  I  I9  1  0.744134  0.913295  0.538041  1
  I  I10  1  0.255667  0.086386  0.461773  1
  I  I11  1  0.085739  0.372495  0.818983  1
  I  I12  1  0.914638  0.627522  0.180509  1
  I  I13  1  0.454486  0.813974  0.093218  1
  I  I14  1  0.544989  0.185702  0.906470  1
  I  I15  1  0.227346  0.745120  0.656177  1
  I  I16  1  0.772426  0.254622  0.344203  1
