# generated using pymatgen
data_Tm12In2TcOs2
_symmetry_space_group_name_H-M   'P 1'
_cell_length_a   8.35722221
_cell_length_b   8.35722232
_cell_length_c   8.35722306
_cell_angle_alpha   109.50176625
_cell_angle_beta   109.50177067
_cell_angle_gamma   109.41014829
_symmetry_Int_Tables_number   1
_chemical_formula_structural   Tm12In2TcOs2
_chemical_formula_sum   'Tm12 In2 Tc1 Os2'
_cell_volume   449.32812762
_cell_formula_units_Z   1
loop_
 _symmetry_equiv_pos_site_id
 _symmetry_equiv_pos_as_xyz
  1  'x, y, z'
loop_
 _atom_site_type_symbol
 _atom_site_label
 _atom_site_symmetry_multiplicity
 _atom_site_fract_x
 _atom_site_fract_y
 _atom_site_fract_z
 _atom_site_occupancy
  Tm  Tm0  1  0.185993  0.428105  0.242112  1
  Tm  Tm1  1  0.814007  0.571895  0.757888  1
  Tm  Tm2  1  0.185993  0.943881  0.757888  1
  Tm  Tm3  1  0.943881  0.185993  0.757888  1
  Tm  Tm4  1  0.814007  0.056119  0.242112  1
  Tm  Tm5  1  0.056119  0.814007  0.242112  1
  Tm  Tm6  1  0.428105  0.185993  0.242112  1
  Tm  Tm7  1  0.571895  0.814007  0.757888  1
  Tm  Tm8  1  0.317895  0.317895  0.635790  1
  Tm  Tm9  1  0.682105  0.682105  0.364210  1
  Tm  Tm10  1  0.682105  0.317895  0.000000  1
  Tm  Tm11  1  0.317895  0.682105  0.000000  1
  In  In12  1  0.000000  0.500000  0.500000  1
  In  In13  1  0.500000  0.000000  0.500000  1
  Tc  Tc14  1  0.000000  0.000000  0.000000  1
  Os  Os15  1  0.344784  0.344784  0.000000  1
  Os  Os16  1  0.655216  0.655216  0.000000  1
