# generated using pymatgen
data_Nd6Th2ZnPd24
_symmetry_space_group_name_H-M   'P 1'
_cell_length_a   8.49959466
_cell_length_b   8.49959466
_cell_length_c   8.49959466
_cell_angle_alpha   89.76503826
_cell_angle_beta   89.76503826
_cell_angle_gamma   89.76503826
_symmetry_Int_Tables_number   1
_chemical_formula_structural   Nd6Th2ZnPd24
_chemical_formula_sum   'Nd6 Th2 Zn1 Pd24'
_cell_volume   614.02169991
_cell_formula_units_Z   1
loop_
 _symmetry_equiv_pos_site_id
 _symmetry_equiv_pos_as_xyz
  1  'x, y, z'
loop_
 _atom_site_type_symbol
 _atom_site_label
 _atom_site_symmetry_multiplicity
 _atom_site_fract_x
 _atom_site_fract_y
 _atom_site_fract_z
 _atom_site_occupancy
  Nd  Nd0  1  0.749180  0.749180  0.250066  1
  Nd  Nd1  1  0.749180  0.250066  0.749180  1
  Nd  Nd2  1  0.250820  0.250820  0.749934  1
  Nd  Nd3  1  0.250820  0.749934  0.250820  1
  Nd  Nd4  1  0.250066  0.749180  0.749180  1
  Nd  Nd5  1  0.749934  0.250820  0.250820  1
  Th  Th6  1  0.252048  0.252048  0.252048  1
  Th  Th7  1  0.747952  0.747952  0.747952  1
  Zn  Zn8  1  0.000000  0.000000  0.000000  1
  Pd  Pd9  1  0.260777  0.499111  0.002484  1
  Pd  Pd10  1  0.739223  0.500889  0.997516  1
  Pd  Pd11  1  0.002484  0.260777  0.499111  1
  Pd  Pd12  1  0.499111  0.260777  0.002484  1
  Pd  Pd13  1  0.997516  0.739223  0.500889  1
  Pd  Pd14  1  0.500889  0.739223  0.997516  1
  Pd  Pd15  1  0.499111  0.002484  0.260777  1
  Pd  Pd16  1  0.260777  0.002484  0.499111  1
  Pd  Pd17  1  0.500889  0.997516  0.739223  1
  Pd  Pd18  1  0.739223  0.997516  0.500889  1
  Pd  Pd19  1  0.002484  0.499111  0.260777  1
  Pd  Pd20  1  0.997516  0.500889  0.739223  1
  Pd  Pd21  1  0.253418  0.498708  0.498708  1
  Pd  Pd22  1  0.746582  0.501292  0.501292  1
  Pd  Pd23  1  0.498708  0.253418  0.498708  1
  Pd  Pd24  1  0.501292  0.746582  0.501292  1
  Pd  Pd25  1  0.498708  0.498708  0.253418  1
  Pd  Pd26  1  0.501292  0.501292  0.746582  1
  Pd  Pd27  1  0.294258  0.001867  0.001867  1
  Pd  Pd28  1  0.705742  0.998133  0.998133  1
  Pd  Pd29  1  0.001867  0.294258  0.001867  1
  Pd  Pd30  1  0.998133  0.705742  0.998133  1
  Pd  Pd31  1  0.001867  0.001867  0.294258  1
  Pd  Pd32  1  0.998133  0.998133  0.705742  1
