# generated using pymatgen
data_Re3Tc(MoSe4)2
_symmetry_space_group_name_H-M   'P 1'
_cell_length_a   6.76047830
_cell_length_b   6.76062093
_cell_length_c   6.77873674
_cell_angle_alpha   92.70620435
_cell_angle_beta   93.22419079
_cell_angle_gamma   93.12137368
_symmetry_Int_Tables_number   1
_chemical_formula_structural   Re3Tc(MoSe4)2
_chemical_formula_sum   'Re3 Tc1 Mo2 Se8'
_cell_volume   308.48000465
_cell_formula_units_Z   1
loop_
 _symmetry_equiv_pos_site_id
 _symmetry_equiv_pos_as_xyz
  1  'x, y, z'
loop_
 _atom_site_type_symbol
 _atom_site_label
 _atom_site_symmetry_multiplicity
 _atom_site_fract_x
 _atom_site_fract_y
 _atom_site_fract_z
 _atom_site_occupancy
  Re  Re0  1  0.450535  0.585569  0.761711  1
  Re  Re1  1  0.761466  0.452293  0.585725  1
  Re  Re2  1  0.583501  0.762208  0.449999  1
  Tc  Tc3  1  0.549210  0.414537  0.238117  1
  Mo  Mo4  1  0.235890  0.546504  0.413571  1
  Mo  Mo5  1  0.414025  0.237253  0.550146  1
  Se  Se6  1  0.780679  0.782080  0.779942  1
  Se  Se7  1  0.221362  0.216753  0.215659  1
  Se  Se8  1  0.271513  0.873690  0.625069  1
  Se  Se9  1  0.627581  0.272615  0.877672  1
  Se  Se10  1  0.870434  0.626817  0.270596  1
  Se  Se11  1  0.736076  0.127547  0.372084  1
  Se  Se12  1  0.373757  0.729694  0.123270  1
  Se  Se13  1  0.123971  0.372443  0.736441  1
