# generated using pymatgen
data_Tm18Hf2(Ir3Rh)3
_symmetry_space_group_name_H-M   'P 1'
_cell_length_a   10.70971702
_cell_length_b   10.71014202
_cell_length_c   6.27581300
_cell_angle_alpha   90.00000000
_cell_angle_beta   90.00000000
_cell_angle_gamma   90.00767159
_symmetry_Int_Tables_number   1
_chemical_formula_structural   Tm18Hf2(Ir3Rh)3
_chemical_formula_sum   'Tm18 Hf2 Ir9 Rh3'
_cell_volume   719.85200129
_cell_formula_units_Z   1
loop_
 _symmetry_equiv_pos_site_id
 _symmetry_equiv_pos_as_xyz
  1  'x, y, z'
loop_
 _atom_site_type_symbol
 _atom_site_label
 _atom_site_symmetry_multiplicity
 _atom_site_fract_x
 _atom_site_fract_y
 _atom_site_fract_z
 _atom_site_occupancy
  Tm  Tm0  1  0.288642  0.086086  0.376472  1
  Tm  Tm1  1  0.288557  0.913566  0.876406  1
  Tm  Tm2  1  0.711443  0.086434  0.876406  1
  Tm  Tm3  1  0.711358  0.913914  0.376472  1
  Tm  Tm4  1  0.587721  0.791831  0.875839  1
  Tm  Tm5  1  0.587329  0.208070  0.375860  1
  Tm  Tm6  1  0.412671  0.791930  0.375860  1
  Tm  Tm7  1  0.412279  0.208169  0.875839  1
  Tm  Tm8  1  0.207383  0.412550  0.622870  1
  Tm  Tm9  1  0.207889  0.587766  0.124932  1
  Tm  Tm10  1  0.792111  0.412234  0.124932  1
  Tm  Tm11  1  0.792617  0.587450  0.622870  1
  Tm  Tm12  1  0.913603  0.711286  0.124553  1
  Tm  Tm13  1  0.913735  0.289146  0.622345  1
  Tm  Tm14  1  0.086265  0.710854  0.622345  1
  Tm  Tm15  1  0.086397  0.288714  0.124553  1
  Tm  Tm16  1  0.500000  0.500000  0.999855  1
  Tm  Tm17  1  0.500000  0.500000  0.500106  1
  Hf  Hf18  1  0.000000  0.000000  0.500268  1
  Hf  Hf19  1  0.000000  0.000000  0.999975  1
  Ir  Ir20  1  0.854971  0.144135  0.249978  1
  Ir  Ir21  1  0.855109  0.855453  0.750068  1
  Ir  Ir22  1  0.144891  0.144547  0.750068  1
  Ir  Ir23  1  0.145029  0.855865  0.249978  1
  Ir  Ir24  1  0.654784  0.344745  0.750023  1
  Ir  Ir25  1  0.654388  0.655501  0.249996  1
  Ir  Ir26  1  0.345612  0.344499  0.249996  1
  Ir  Ir27  1  0.345216  0.655255  0.750023  1
  Ir  Ir28  1  0.000000  0.500000  0.375543  1
  Rh  Rh29  1  0.500000  0.000000  0.124226  1
  Rh  Rh30  1  0.500000  0.000000  0.624475  1
  Rh  Rh31  1  0.000000  0.500000  0.876868  1
