# generated using pymatgen
data_DyPa7(ZnRh)8
_symmetry_space_group_name_H-M   'P 1'
_cell_length_a   3.81296300
_cell_length_b   7.39487196
_cell_length_c   16.34615079
_cell_angle_alpha   90.35973526
_cell_angle_beta   90.00000000
_cell_angle_gamma   90.00000000
_symmetry_Int_Tables_number   1
_chemical_formula_structural   DyPa7(ZnRh)8
_chemical_formula_sum   'Dy1 Pa7 Zn8 Rh8'
_cell_volume   460.89308361
_cell_formula_units_Z   1
loop_
 _symmetry_equiv_pos_site_id
 _symmetry_equiv_pos_as_xyz
  1  'x, y, z'
loop_
 _atom_site_type_symbol
 _atom_site_label
 _atom_site_symmetry_multiplicity
 _atom_site_fract_x
 _atom_site_fract_y
 _atom_site_fract_z
 _atom_site_occupancy
  Dy  Dy0  1  0.250000  0.554653  0.786881  1
  Pa  Pa1  1  0.250000  0.168831  0.938900  1
  Pa  Pa2  1  0.250000  0.675770  0.561329  1
  Pa  Pa3  1  0.750000  0.336665  0.439647  1
  Pa  Pa4  1  0.750000  0.941686  0.285079  1
  Pa  Pa5  1  0.750000  0.829126  0.061330  1
  Pa  Pa6  1  0.750000  0.440062  0.215566  1
  Pa  Pa7  1  0.250000  0.054290  0.715374  1
  Zn  Zn8  1  0.750000  0.013978  0.557204  1
  Zn  Zn9  1  0.250000  0.612665  0.343751  1
  Zn  Zn10  1  0.750000  0.392219  0.658836  1
  Zn  Zn11  1  0.250000  0.492183  0.062155  1
  Zn  Zn12  1  0.750000  0.503680  0.937442  1
  Zn  Zn13  1  0.250000  0.997601  0.438559  1
  Zn  Zn14  1  0.250000  0.113519  0.155981  1
  Zn  Zn15  1  0.750000  0.871492  0.844106  1
  Rh  Rh16  1  0.750000  0.737059  0.440594  1
  Rh  Rh17  1  0.250000  0.241051  0.314377  1
  Rh  Rh18  1  0.750000  0.229495  0.815738  1
  Rh  Rh19  1  0.750000  0.776603  0.677705  1
  Rh  Rh20  1  0.250000  0.272963  0.557631  1
  Rh  Rh21  1  0.250000  0.742423  0.187047  1
  Rh  Rh22  1  0.750000  0.234252  0.057227  1
  Rh  Rh23  1  0.250000  0.767734  0.947538  1
