# generated using pymatgen
data_Hf5Zr7Ti4(Pt2N)4
_symmetry_space_group_name_H-M   'P 1'
_cell_length_a   8.69964649
_cell_length_b   8.68273038
_cell_length_c   8.68273051
_cell_angle_alpha   59.96187836
_cell_angle_beta   59.93553139
_cell_angle_gamma   59.93553164
_symmetry_Int_Tables_number   1
_chemical_formula_structural   Hf5Zr7Ti4(Pt2N)4
_chemical_formula_sum   'Hf5 Zr7 Ti4 Pt8 N4'
_cell_volume   463.18056474
_cell_formula_units_Z   1
loop_
 _symmetry_equiv_pos_site_id
 _symmetry_equiv_pos_as_xyz
  1  'x, y, z'
loop_
 _atom_site_type_symbol
 _atom_site_label
 _atom_site_symmetry_multiplicity
 _atom_site_fract_x
 _atom_site_fract_y
 _atom_site_fract_z
 _atom_site_occupancy
  Hf  Hf0  1  0.815270  0.815305  0.184991  1
  Hf  Hf1  1  0.184434  0.184991  0.815305  1
  Hf  Hf2  1  0.815270  0.184991  0.815305  1
  Hf  Hf3  1  0.184434  0.815305  0.184991  1
  Hf  Hf4  1  0.184198  0.815802  0.815802  1
  Zr  Zr5  1  0.814589  0.185411  0.185411  1
  Zr  Zr6  1  0.435662  0.435657  0.063920  1
  Zr  Zr7  1  0.064762  0.063920  0.435657  1
  Zr  Zr8  1  0.435662  0.063920  0.435657  1
  Zr  Zr9  1  0.064762  0.435657  0.063920  1
  Zr  Zr10  1  0.064684  0.435316  0.435316  1
  Zr  Zr11  1  0.437194  0.062806  0.062806  1
  Ti  Ti12  1  0.123884  0.625625  0.625625  1
  Ti  Ti13  1  0.625421  0.123291  0.625866  1
  Ti  Ti14  1  0.625421  0.625866  0.123291  1
  Ti  Ti15  1  0.624867  0.625625  0.625625  1
  Pt  Pt16  1  0.763375  0.412929  0.412929  1
  Pt  Pt17  1  0.412255  0.762638  0.412851  1
  Pt  Pt18  1  0.412255  0.412851  0.762638  1
  Pt  Pt19  1  0.410767  0.412929  0.412929  1
  Pt  Pt20  1  0.476859  0.840777  0.840777  1
  Pt  Pt21  1  0.840898  0.482198  0.836007  1
  Pt  Pt22  1  0.840898  0.836007  0.482198  1
  Pt  Pt23  1  0.841587  0.840777  0.840777  1
  N  N24  1  0.629023  0.122331  0.122331  1
  N  N25  1  0.122628  0.631741  0.123002  1
  N  N26  1  0.122628  0.123002  0.631741  1
  N  N27  1  0.126315  0.122331  0.122331  1
