# generated using pymatgen
data_BaInSiRh3
_symmetry_space_group_name_H-M   'P 1'
_cell_length_a   5.96514925
_cell_length_b   7.11165704
_cell_length_c   7.11165686
_cell_angle_alpha   64.48491029
_cell_angle_beta   65.22041320
_cell_angle_gamma   65.22040953
_symmetry_Int_Tables_number   1
_chemical_formula_structural   BaInSiRh3
_chemical_formula_sum   'Ba2 In2 Si2 Rh6'
_cell_volume   236.48757927
_cell_formula_units_Z   2
loop_
 _symmetry_equiv_pos_site_id
 _symmetry_equiv_pos_as_xyz
  1  'x, y, z'
loop_
 _atom_site_type_symbol
 _atom_site_label
 _atom_site_symmetry_multiplicity
 _atom_site_fract_x
 _atom_site_fract_y
 _atom_site_fract_z
 _atom_site_occupancy
  Ba  Ba0  1  0.496647  0.755031  0.755031  1
  Ba  Ba1  1  0.503353  0.244969  0.244969  1
  In  In2  1  0.186157  0.566014  0.566014  1
  In  In3  1  0.813843  0.433986  0.433986  1
  Si  Si4  1  0.149281  0.100056  0.100056  1
  Si  Si5  1  0.850719  0.899944  0.899944  1
  Rh  Rh6  1  0.500000  0.203159  0.796841  1
  Rh  Rh7  1  0.000000  0.796165  0.203835  1
  Rh  Rh8  1  0.500000  0.796841  0.203159  1
  Rh  Rh9  1  0.000000  0.203835  0.796165  1
  Rh  Rh10  1  0.000000  0.500000  0.000000  1
  Rh  Rh11  1  0.000000  0.000000  0.500000  1
