# generated using pymatgen
data_NdHo3(Si5Pt3)2
_symmetry_space_group_name_H-M   'P 1'
_cell_length_a   8.16422685
_cell_length_b   8.17074212
_cell_length_c   8.17074165
_cell_angle_alpha   136.36575873
_cell_angle_beta   104.62932557
_cell_angle_gamma   91.36928440
_symmetry_Int_Tables_number   1
_chemical_formula_structural   NdHo3(Si5Pt3)2
_chemical_formula_sum   'Nd1 Ho3 Si10 Pt6'
_cell_volume   346.04408554
_cell_formula_units_Z   1
loop_
 _symmetry_equiv_pos_site_id
 _symmetry_equiv_pos_as_xyz
  1  'x, y, z'
loop_
 _atom_site_type_symbol
 _atom_site_label
 _atom_site_symmetry_multiplicity
 _atom_site_fract_x
 _atom_site_fract_y
 _atom_site_fract_z
 _atom_site_occupancy
  Nd  Nd0  1  0.898941  0.129248  0.769692  1
  Ho  Ho1  1  0.642154  0.370254  0.271900  1
  Ho  Ho2  1  0.358344  0.629840  0.728504  1
  Ho  Ho3  1  0.098937  0.870232  0.228706  1
  Si  Si4  1  0.272885  0.522170  0.250629  1
  Si  Si5  1  0.728279  0.478184  0.749692  1
  Si  Si6  1  0.728279  0.978587  0.250095  1
  Si  Si7  1  0.272885  0.022257  0.750715  1
  Si  Si8  1  0.460739  0.111582  0.349156  1
  Si  Si9  1  0.536581  0.886051  0.650530  1
  Si  Si10  1  0.763188  0.611735  0.151453  1
  Si  Si11  1  0.238070  0.389705  0.848367  1
  Si  Si12  1  0.000129  0.248997  0.249553  1
  Si  Si13  1  0.000129  0.750575  0.751132  1
  Pt  Pt14  1  0.251514  0.137798  0.113714  1
  Pt  Pt15  1  0.747872  0.860741  0.887131  1
  Pt  Pt16  1  0.025938  0.637595  0.388343  1
  Pt  Pt17  1  0.976711  0.364829  0.611882  1
  Pt  Pt18  1  0.499213  0.250533  0.750127  1
  Pt  Pt19  1  0.499213  0.749087  0.248680  1
