# generated using pymatgen
data_LaTh5Cd23Se
_symmetry_space_group_name_H-M   'P 1'
_cell_length_a   10.14344472
_cell_length_b   10.14411560
_cell_length_c   10.14411600
_cell_angle_alpha   59.99562237
_cell_angle_beta   60.00219385
_cell_angle_gamma   60.00219111
_symmetry_Int_Tables_number   1
_chemical_formula_structural   LaTh5Cd23Se
_chemical_formula_sum   'La1 Th5 Cd23 Se1'
_cell_volume   738.07226481
_cell_formula_units_Z   1
loop_
 _symmetry_equiv_pos_site_id
 _symmetry_equiv_pos_as_xyz
  1  'x, y, z'
loop_
 _atom_site_type_symbol
 _atom_site_label
 _atom_site_symmetry_multiplicity
 _atom_site_fract_x
 _atom_site_fract_y
 _atom_site_fract_z
 _atom_site_occupancy
  La  La0  1  0.212027  0.787973  0.787973  1
  Th  Th1  1  0.790732  0.793141  0.209268  1
  Th  Th2  1  0.206859  0.793141  0.209268  1
  Th  Th3  1  0.791778  0.208222  0.208222  1
  Th  Th4  1  0.206859  0.209268  0.793141  1
  Th  Th5  1  0.790732  0.209268  0.793141  1
  Cd  Cd6  1  0.836360  0.838619  0.488663  1
  Cd  Cd7  1  0.836360  0.488663  0.838619  1
  Cd  Cd8  1  0.489193  0.837473  0.837473  1
  Cd  Cd9  1  0.835861  0.837473  0.837473  1
  Cd  Cd10  1  0.162527  0.164139  0.510807  1
  Cd  Cd11  1  0.162527  0.510807  0.164139  1
  Cd  Cd12  1  0.511337  0.163640  0.163640  1
  Cd  Cd13  1  0.161381  0.163640  0.163640  1
  Cd  Cd14  1  0.622546  0.622163  0.132745  1
  Cd  Cd15  1  0.622546  0.132745  0.622163  1
  Cd  Cd16  1  0.132269  0.620752  0.620752  1
  Cd  Cd17  1  0.626227  0.620752  0.620752  1
  Cd  Cd18  1  0.379248  0.373773  0.867731  1
  Cd  Cd19  1  0.379248  0.867731  0.373773  1
  Cd  Cd20  1  0.867255  0.377454  0.377454  1
  Cd  Cd21  1  0.377837  0.377454  0.377454  1
  Cd  Cd22  1  0.000110  0.999890  0.500595  1
  Cd  Cd23  1  0.499405  0.999890  0.500595  1
  Cd  Cd24  1  0.999399  0.500601  0.500601  1
  Cd  Cd25  1  0.499405  0.500595  0.999890  1
  Cd  Cd26  1  0.000110  0.500595  0.999890  1
  Cd  Cd27  1  0.499399  0.000601  0.000601  1
  Cd  Cd28  1  0.500487  0.499513  0.499513  1
  Se  Se29  1  0.999978  0.000022  0.000022  1
