# generated using pymatgen
data_Gd16Zr4Ir11Rh
_symmetry_space_group_name_H-M   'P 1'
_cell_length_a   10.80905100
_cell_length_b   10.80905100
_cell_length_c   6.25196000
_cell_angle_alpha   90.00000000
_cell_angle_beta   90.00000000
_cell_angle_gamma   90.00000000
_symmetry_Int_Tables_number   1
_chemical_formula_structural   Gd16Zr4Ir11Rh
_chemical_formula_sum   'Gd16 Zr4 Ir11 Rh1'
_cell_volume   730.45139475
_cell_formula_units_Z   1
loop_
 _symmetry_equiv_pos_site_id
 _symmetry_equiv_pos_as_xyz
  1  'x, y, z'
loop_
 _atom_site_type_symbol
 _atom_site_label
 _atom_site_symmetry_multiplicity
 _atom_site_fract_x
 _atom_site_fract_y
 _atom_site_fract_z
 _atom_site_occupancy
  Gd  Gd0  1  0.288818  0.087202  0.373261  1
  Gd  Gd1  1  0.288030  0.912377  0.871423  1
  Gd  Gd2  1  0.711970  0.087623  0.871423  1
  Gd  Gd3  1  0.711182  0.912798  0.373261  1
  Gd  Gd4  1  0.587623  0.788030  0.871423  1
  Gd  Gd5  1  0.587202  0.211182  0.373261  1
  Gd  Gd6  1  0.412798  0.788818  0.373261  1
  Gd  Gd7  1  0.412377  0.211970  0.871423  1
  Gd  Gd8  1  0.211358  0.412425  0.627662  1
  Gd  Gd9  1  0.211439  0.587816  0.127915  1
  Gd  Gd10  1  0.788561  0.412184  0.127915  1
  Gd  Gd11  1  0.788642  0.587575  0.627662  1
  Gd  Gd12  1  0.912184  0.711439  0.127915  1
  Gd  Gd13  1  0.912425  0.288642  0.627662  1
  Gd  Gd14  1  0.087575  0.711358  0.627662  1
  Gd  Gd15  1  0.087816  0.288561  0.127915  1
  Zr  Zr16  1  0.000000  0.000000  0.499924  1
  Zr  Zr17  1  0.000000  0.000000  0.999853  1
  Zr  Zr18  1  0.500000  0.500000  0.999853  1
  Zr  Zr19  1  0.500000  0.500000  0.499924  1
  Ir  Ir20  1  0.854478  0.143965  0.249723  1
  Ir  Ir21  1  0.854944  0.855503  0.749301  1
  Ir  Ir22  1  0.145056  0.144497  0.749301  1
  Ir  Ir23  1  0.145522  0.856035  0.249723  1
  Ir  Ir24  1  0.644497  0.354944  0.749301  1
  Ir  Ir25  1  0.643965  0.645522  0.249723  1
  Ir  Ir26  1  0.356035  0.354478  0.249723  1
  Ir  Ir27  1  0.355503  0.645056  0.749301  1
  Ir  Ir28  1  0.500000  0.000000  0.620544  1
  Ir  Ir29  1  0.000000  0.500000  0.882238  1
  Ir  Ir30  1  0.000000  0.500000  0.381598  1
  Rh  Rh31  1  0.500000  0.000000  0.118927  1
