# generated using pymatgen
data_Yb6Si4Ni3Pd
_symmetry_space_group_name_H-M   'P 1'
_cell_length_a   5.50809880
_cell_length_b   7.86313568
_cell_length_c   12.66593451
_cell_angle_alpha   90.01578065
_cell_angle_beta   89.35529975
_cell_angle_gamma   89.72616368
_symmetry_Int_Tables_number   1
_chemical_formula_structural   Yb6Si4Ni3Pd
_chemical_formula_sum   'Yb12 Si8 Ni6 Pd2'
_cell_volume   548.53235797
_cell_formula_units_Z   2
loop_
 _symmetry_equiv_pos_site_id
 _symmetry_equiv_pos_as_xyz
  1  'x, y, z'
loop_
 _atom_site_type_symbol
 _atom_site_label
 _atom_site_symmetry_multiplicity
 _atom_site_fract_x
 _atom_site_fract_y
 _atom_site_fract_z
 _atom_site_occupancy
  Yb  Yb0  1  0.659930  0.243380  0.254878  1
  Yb  Yb1  1  0.340070  0.756620  0.745122  1
  Yb  Yb2  1  0.348525  0.742765  0.253817  1
  Yb  Yb3  1  0.651475  0.257235  0.746183  1
  Yb  Yb4  1  0.140688  0.386009  0.104042  1
  Yb  Yb5  1  0.859312  0.613991  0.895958  1
  Yb  Yb6  1  0.853507  0.610678  0.597153  1
  Yb  Yb7  1  0.859126  0.895767  0.401852  1
  Yb  Yb8  1  0.146493  0.389322  0.402847  1
  Yb  Yb9  1  0.140874  0.104233  0.598148  1
  Yb  Yb10  1  0.141436  0.106583  0.897016  1
  Yb  Yb11  1  0.858564  0.893417  0.102984  1
  Si  Si12  1  0.183095  0.092330  0.252096  1
  Si  Si13  1  0.816905  0.907670  0.747904  1
  Si  Si14  1  0.836706  0.596164  0.260080  1
  Si  Si15  1  0.163294  0.403836  0.739920  1
  Si  Si16  1  0.618609  0.235724  0.000604  1
  Si  Si17  1  0.381391  0.764276  0.999396  1
  Si  Si18  1  0.389404  0.751044  0.499609  1
  Si  Si19  1  0.610596  0.248956  0.500391  1
  Ni  Ni20  1  0.380724  0.028257  0.088067  1
  Ni  Ni21  1  0.619276  0.971743  0.911933  1
  Ni  Ni22  1  0.617076  0.974467  0.586209  1
  Ni  Ni23  1  0.620665  0.524961  0.415778  1
  Ni  Ni24  1  0.382924  0.025533  0.413791  1
  Ni  Ni25  1  0.379335  0.475039  0.584222  1
  Pd  Pd26  1  0.371384  0.472693  0.907725  1
  Pd  Pd27  1  0.628616  0.527307  0.092275  1
