# generated using pymatgen
data_Sc6TcBi2
_symmetry_space_group_name_H-M   'P 1'
_cell_length_a   7.78347100
_cell_length_b   7.78347072
_cell_length_c   4.08134400
_cell_angle_alpha   90.00000000
_cell_angle_beta   90.00000000
_cell_angle_gamma   120.00000545
_symmetry_Int_Tables_number   1
_chemical_formula_structural   Sc6TcBi2
_chemical_formula_sum   'Sc6 Tc1 Bi2'
_cell_volume   214.13142964
_cell_formula_units_Z   1
loop_
 _symmetry_equiv_pos_site_id
 _symmetry_equiv_pos_as_xyz
  1  'x, y, z'
loop_
 _atom_site_type_symbol
 _atom_site_label
 _atom_site_symmetry_multiplicity
 _atom_site_fract_x
 _atom_site_fract_y
 _atom_site_fract_z
 _atom_site_occupancy
  Sc  Sc0  1  0.614668  0.000000  0.000000  1
  Sc  Sc1  1  0.385333  0.385332  0.000000  1
  Sc  Sc2  1  0.000000  0.614669  0.000000  1
  Sc  Sc3  1  0.230346  0.000000  0.500000  1
  Sc  Sc4  1  0.000000  0.230347  0.500000  1
  Sc  Sc5  1  0.769654  0.769654  0.500000  1
  Tc  Tc6  1  0.000000  0.000000  0.000000  1
  Bi  Bi7  1  0.666667  0.333334  0.500000  1
  Bi  Bi8  1  0.333334  0.666667  0.500000  1
