# generated using pymatgen
data_Tm5Lu3ReOs3C8
_symmetry_space_group_name_H-M   'P 1'
_cell_length_a   5.01188300
_cell_length_b   6.43264924
_cell_length_c   9.63129315
_cell_angle_alpha   89.99051889
_cell_angle_beta   90.00000000
_cell_angle_gamma   90.00000000
_symmetry_Int_Tables_number   1
_chemical_formula_structural   Tm5Lu3ReOs3C8
_chemical_formula_sum   'Tm5 Lu3 Re1 Os3 C8'
_cell_volume   310.50985657
_cell_formula_units_Z   1
loop_
 _symmetry_equiv_pos_site_id
 _symmetry_equiv_pos_as_xyz
  1  'x, y, z'
loop_
 _atom_site_type_symbol
 _atom_site_label
 _atom_site_symmetry_multiplicity
 _atom_site_fract_x
 _atom_site_fract_y
 _atom_site_fract_z
 _atom_site_occupancy
  Tm  Tm0  1  0.750000  0.679416  0.444836  1
  Tm  Tm1  1  0.250000  0.469559  0.216666  1
  Tm  Tm2  1  0.250000  0.968375  0.281205  1
  Tm  Tm3  1  0.750000  0.530669  0.786246  1
  Tm  Tm4  1  0.750000  0.030734  0.715855  1
  Lu  Lu5  1  0.250000  0.825749  0.945386  1
  Lu  Lu6  1  0.250000  0.325327  0.554900  1
  Lu  Lu7  1  0.750000  0.175458  0.054805  1
  Re  Re8  1  0.750000  0.219669  0.368654  1
  Os  Os9  1  0.250000  0.280769  0.867402  1
  Os  Os10  1  0.250000  0.780872  0.633369  1
  Os  Os11  1  0.750000  0.719901  0.130019  1
  C  C12  1  0.250000  0.046649  0.741087  1
  C  C13  1  0.250000  0.546297  0.758979  1
  C  C14  1  0.750000  0.952738  0.259561  1
  C  C15  1  0.750000  0.452944  0.240194  1
  C  C16  1  0.250000  0.669525  0.444489  1
  C  C17  1  0.250000  0.168236  0.056063  1
  C  C18  1  0.750000  0.327083  0.557458  1
  C  C19  1  0.750000  0.830029  0.942823  1
