# generated using pymatgen
data_Li4TbGd3Pt4
_symmetry_space_group_name_H-M   'P 1'
_cell_length_a   3.86709900
_cell_length_b   7.24207708
_cell_length_c   8.49117300
_cell_angle_alpha   90.45770957
_cell_angle_beta   90.00000000
_cell_angle_gamma   90.00000000
_symmetry_Int_Tables_number   1
_chemical_formula_structural   Li4TbGd3Pt4
_chemical_formula_sum   'Li4 Tb1 Gd3 Pt4'
_cell_volume   237.79475155
_cell_formula_units_Z   1
loop_
 _symmetry_equiv_pos_site_id
 _symmetry_equiv_pos_as_xyz
  1  'x, y, z'
loop_
 _atom_site_type_symbol
 _atom_site_label
 _atom_site_symmetry_multiplicity
 _atom_site_fract_x
 _atom_site_fract_y
 _atom_site_fract_z
 _atom_site_occupancy
  Li  Li0  1  0.250000  0.122952  0.057810  1
  Li  Li1  1  0.250000  0.622823  0.441853  1
  Li  Li2  1  0.750000  0.876325  0.942680  1
  Li  Li3  1  0.750000  0.375526  0.557404  1
  Tb  Tb4  1  0.750000  0.450896  0.181594  1
  Gd  Gd5  1  0.250000  0.047821  0.682769  1
  Gd  Gd6  1  0.250000  0.548764  0.818593  1
  Gd  Gd7  1  0.750000  0.953504  0.316546  1
  Pt  Pt8  1  0.250000  0.248117  0.376554  1
  Pt  Pt9  1  0.250000  0.744381  0.123300  1
  Pt  Pt10  1  0.750000  0.753934  0.623031  1
  Pt  Pt11  1  0.750000  0.254960  0.877865  1
