# generated using pymatgen
data_TcSn14Rh5
_symmetry_space_group_name_H-M   'P 1'
_cell_length_a   8.24084177
_cell_length_b   8.24084142
_cell_length_c   8.24084207
_cell_angle_alpha   109.33203532
_cell_angle_beta   109.74994781
_cell_angle_gamma   109.33203533
_symmetry_Int_Tables_number   1
_chemical_formula_structural   TcSn14Rh5
_chemical_formula_sum   'Tc1 Sn14 Rh5'
_cell_volume   430.80936847
_cell_formula_units_Z   1
loop_
 _symmetry_equiv_pos_site_id
 _symmetry_equiv_pos_as_xyz
  1  'x, y, z'
loop_
 _atom_site_type_symbol
 _atom_site_label
 _atom_site_symmetry_multiplicity
 _atom_site_fract_x
 _atom_site_fract_y
 _atom_site_fract_z
 _atom_site_occupancy
  Tc  Tc0  1  0.651825  0.000000  0.651825  1
  Sn  Sn1  1  0.997203  0.000000  0.673009  1
  Sn  Sn2  1  0.326591  0.000000  0.999938  1
  Sn  Sn3  1  0.673009  0.675806  0.673009  1
  Sn  Sn4  1  0.997203  0.324194  0.997203  1
  Sn  Sn5  1  0.326591  0.326654  0.326591  1
  Sn  Sn6  1  0.999938  0.673346  0.999938  1
  Sn  Sn7  1  0.254156  0.750337  0.503819  1
  Sn  Sn8  1  0.753481  0.249663  0.503819  1
  Sn  Sn9  1  0.750451  0.500000  0.250451  1
  Sn  Sn10  1  0.250451  0.500000  0.750451  1
  Sn  Sn11  1  0.503819  0.750337  0.254156  1
  Sn  Sn12  1  0.503819  0.249663  0.753481  1
  Sn  Sn13  1  0.999938  0.000000  0.326591  1
  Sn  Sn14  1  0.673009  0.000000  0.997203  1
  Rh  Rh15  1  0.654984  0.655208  0.999776  1
  Rh  Rh16  1  0.344567  0.344792  0.999776  1
  Rh  Rh17  1  0.999776  0.655208  0.654984  1
  Rh  Rh18  1  0.999776  0.344792  0.344567  1
  Rh  Rh19  1  0.339417  0.000000  0.339417  1
