# generated using pymatgen
data_Li4TaNi6P7Ru3
_symmetry_space_group_name_H-M   'P 1'
_cell_length_a   9.36838900
_cell_length_b   9.33036956
_cell_length_c   3.66229400
_cell_angle_alpha   90.00000000
_cell_angle_beta   90.00000000
_cell_angle_gamma   120.38286432
_symmetry_Int_Tables_number   1
_chemical_formula_structural   Li4TaNi6P7Ru3
_chemical_formula_sum   'Li4 Ta1 Ni6 P7 Ru3'
_cell_volume   276.15895527
_cell_formula_units_Z   1
loop_
 _symmetry_equiv_pos_site_id
 _symmetry_equiv_pos_as_xyz
  1  'x, y, z'
loop_
 _atom_site_type_symbol
 _atom_site_label
 _atom_site_symmetry_multiplicity
 _atom_site_fract_x
 _atom_site_fract_y
 _atom_site_fract_z
 _atom_site_occupancy
  Li  Li0  1  0.901996  0.124445  0.500000  1
  Li  Li1  1  0.218473  0.098839  0.500000  1
  Li  Li2  1  0.326759  0.661781  0.000000  1
  Li  Li3  1  0.666742  0.331652  0.500000  1
  Ta  Ta4  1  0.877787  0.784370  0.500000  1
  Ni  Ni5  1  0.717240  0.881256  0.000000  1
  Ni  Ni6  1  0.159037  0.280413  0.000000  1
  Ni  Ni7  1  0.122932  0.843963  0.000000  1
  Ni  Ni8  1  0.639133  0.569562  0.000000  1
  Ni  Ni9  1  0.933500  0.362622  0.000000  1
  Ni  Ni10  1  0.427855  0.063428  0.000000  1
  P  P11  1  0.584840  0.714526  0.500000  1
  P  P12  1  0.128860  0.408964  0.500000  1
  P  P13  1  0.287349  0.879111  0.500000  1
  P  P14  1  0.999816  0.000171  0.000000  1
  P  P15  1  0.884651  0.575572  0.000000  1
  P  P16  1  0.692848  0.121047  0.000000  1
  P  P17  1  0.419948  0.300817  0.000000  1
  Ru  Ru18  1  0.561816  0.953140  0.500000  1
  Ru  Ru19  1  0.394875  0.435451  0.500000  1
  Ru  Ru20  1  0.053539  0.608868  0.500000  1
