# generated using pymatgen
data_PrSm2BiO7
_symmetry_space_group_name_H-M   'P 1'
_cell_length_a   6.72553634
_cell_length_b   6.72889120
_cell_length_c   7.90057218
_cell_angle_alpha   106.93575452
_cell_angle_beta   89.86959045
_cell_angle_gamma   98.71208035
_symmetry_Int_Tables_number   1
_chemical_formula_structural   PrSm2BiO7
_chemical_formula_sum   'Pr2 Sm4 Bi2 O14'
_cell_volume   337.75994848
_cell_formula_units_Z   2
loop_
 _symmetry_equiv_pos_site_id
 _symmetry_equiv_pos_as_xyz
  1  'x, y, z'
loop_
 _atom_site_type_symbol
 _atom_site_label
 _atom_site_symmetry_multiplicity
 _atom_site_fract_x
 _atom_site_fract_y
 _atom_site_fract_z
 _atom_site_occupancy
  Pr  Pr0  1  0.740281  0.481283  0.617447  1
  Pr  Pr1  1  0.259719  0.518717  0.382553  1
  Sm  Sm2  1  0.462222  0.004510  0.251771  1
  Sm  Sm3  1  0.537778  0.995490  0.748229  1
  Sm  Sm4  1  0.269936  0.536898  0.883635  1
  Sm  Sm5  1  0.730064  0.463102  0.116365  1
  Bi  Bi6  1  0.000000  0.000000  0.500000  1
  Bi  Bi7  1  0.000000  0.000000  0.000000  1
  O  O8  1  0.446357  0.647238  0.163152  1
  O  O9  1  0.553643  0.352762  0.836848  1
  O  O10  1  0.298042  0.925982  0.953967  1
  O  O11  1  0.701958  0.074018  0.046033  1
  O  O12  1  0.295420  0.928275  0.511711  1
  O  O13  1  0.704580  0.071725  0.488289  1
  O  O14  1  0.549571  0.361301  0.341332  1
  O  O15  1  0.450429  0.638699  0.658668  1
  O  O16  1  0.926281  0.671135  0.957046  1
  O  O17  1  0.073719  0.328865  0.042954  1
  O  O18  1  0.075117  0.338194  0.619082  1
  O  O19  1  0.924883  0.661806  0.380918  1
  O  O20  1  0.883163  0.911065  0.727125  1
  O  O21  1  0.116837  0.088935  0.272875  1
