# generated using pymatgen
data_Nd12Co3RhBr12
_symmetry_space_group_name_H-M   'P 1'
_cell_length_a   10.37267031
_cell_length_b   10.37267035
_cell_length_c   10.37267145
_cell_angle_alpha   109.57907745
_cell_angle_beta   109.57908064
_cell_angle_gamma   109.57907334
_symmetry_Int_Tables_number   1
_chemical_formula_structural   Nd12Co3RhBr12
_chemical_formula_sum   'Nd12 Co3 Rh1 Br12'
_cell_volume   855.66432128
_cell_formula_units_Z   1
loop_
 _symmetry_equiv_pos_site_id
 _symmetry_equiv_pos_as_xyz
  1  'x, y, z'
loop_
 _atom_site_type_symbol
 _atom_site_label
 _atom_site_symmetry_multiplicity
 _atom_site_fract_x
 _atom_site_fract_y
 _atom_site_fract_z
 _atom_site_occupancy
  Nd  Nd0  1  0.467401  0.487492  0.229610  1
  Nd  Nd1  1  0.750000  0.230911  0.269089  1
  Nd  Nd2  1  0.750000  0.018234  0.481766  1
  Nd  Nd3  1  0.229610  0.467401  0.487492  1
  Nd  Nd4  1  0.269089  0.750000  0.230911  1
  Nd  Nd5  1  0.032599  0.270390  0.012508  1
  Nd  Nd6  1  0.012508  0.032599  0.270390  1
  Nd  Nd7  1  0.481766  0.750000  0.018234  1
  Nd  Nd8  1  0.487492  0.229610  0.467401  1
  Nd  Nd9  1  0.018234  0.481766  0.750000  1
  Nd  Nd10  1  0.270390  0.012508  0.032599  1
  Nd  Nd11  1  0.230911  0.269089  0.750000  1
  Co  Co12  1  0.499790  0.000210  0.250000  1
  Co  Co13  1  0.000210  0.250000  0.499790  1
  Co  Co14  1  0.250000  0.499790  0.000210  1
  Rh  Rh15  1  0.250000  0.250000  0.250000  1
  Br  Br16  1  0.250000  0.756685  0.743315  1
  Br  Br17  1  0.512273  0.506717  0.756577  1
  Br  Br18  1  0.987727  0.743423  0.993283  1
  Br  Br19  1  0.743315  0.250000  0.756685  1
  Br  Br20  1  0.993283  0.987727  0.743423  1
  Br  Br21  1  0.250000  0.993876  0.506124  1
  Br  Br22  1  0.756577  0.512273  0.506717  1
  Br  Br23  1  0.506124  0.250000  0.993876  1
  Br  Br24  1  0.756685  0.743315  0.250000  1
  Br  Br25  1  0.743423  0.993283  0.987727  1
  Br  Br26  1  0.993876  0.506124  0.250000  1
  Br  Br27  1  0.506717  0.756577  0.512273  1
