# generated using pymatgen
data_La2Dy3Ho(RuO7)2
_symmetry_space_group_name_H-M   'P 1'
_cell_length_a   6.47695330
_cell_length_b   6.47608823
_cell_length_c   7.53421900
_cell_angle_alpha   90.00000000
_cell_angle_beta   90.00000000
_cell_angle_gamma   110.05224974
_symmetry_Int_Tables_number   1
_chemical_formula_structural   La2Dy3Ho(RuO7)2
_chemical_formula_sum   'La2 Dy3 Ho1 Ru2 O14'
_cell_volume   296.86788986
_cell_formula_units_Z   1
loop_
 _symmetry_equiv_pos_site_id
 _symmetry_equiv_pos_as_xyz
  1  'x, y, z'
loop_
 _atom_site_type_symbol
 _atom_site_label
 _atom_site_symmetry_multiplicity
 _atom_site_fract_x
 _atom_site_fract_y
 _atom_site_fract_z
 _atom_site_occupancy
  La  La0  1  0.000029  0.999883  0.500168  1
  La  La1  1  0.000029  0.999883  0.999832  1
  Dy  Dy2  1  0.519720  0.072415  0.250000  1
  Dy  Dy3  1  0.927741  0.480283  0.750000  1
  Dy  Dy4  1  0.072489  0.519790  0.250000  1
  Ho  Ho5  1  0.480701  0.928788  0.750000  1
  Ru  Ru6  1  0.499883  0.499955  0.500232  1
  Ru  Ru7  1  0.499883  0.499955  0.999768  1
  O  O8  1  0.589994  0.590730  0.750000  1
  O  O9  1  0.409933  0.409826  0.250000  1
  O  O10  1  0.834294  0.115906  0.750000  1
  O  O11  1  0.164228  0.883471  0.250000  1
  O  O12  1  0.118330  0.835679  0.750000  1
  O  O13  1  0.883517  0.164265  0.250000  1
  O  O14  1  0.444014  0.183138  0.961613  1
  O  O15  1  0.555763  0.816723  0.462943  1
  O  O16  1  0.183109  0.443504  0.962069  1
  O  O17  1  0.816731  0.556220  0.462145  1
  O  O18  1  0.444014  0.183138  0.538387  1
  O  O19  1  0.555763  0.816723  0.037057  1
  O  O20  1  0.816731  0.556220  0.037855  1
  O  O21  1  0.183109  0.443504  0.537931  1
