# generated using pymatgen
data_DyHo2(Co3P2)3
_symmetry_space_group_name_H-M   'P 1'
_cell_length_a   3.69817500
_cell_length_b   10.52128800
_cell_length_c   12.17493200
_cell_angle_alpha   90.00000000
_cell_angle_beta   90.00000000
_cell_angle_gamma   90.00000000
_symmetry_Int_Tables_number   1
_chemical_formula_structural   DyHo2(Co3P2)3
_chemical_formula_sum   'Dy2 Ho4 Co18 P12'
_cell_volume   473.72129889
_cell_formula_units_Z   2
loop_
 _symmetry_equiv_pos_site_id
 _symmetry_equiv_pos_as_xyz
  1  'x, y, z'
loop_
 _atom_site_type_symbol
 _atom_site_label
 _atom_site_symmetry_multiplicity
 _atom_site_fract_x
 _atom_site_fract_y
 _atom_site_fract_z
 _atom_site_occupancy
  Dy  Dy0  1  0.000000  0.500000  0.522879  1
  Dy  Dy1  1  0.500000  0.000000  0.477121  1
  Ho  Ho2  1  0.500000  0.816985  0.205753  1
  Ho  Ho3  1  0.500000  0.183015  0.205753  1
  Ho  Ho4  1  0.000000  0.683015  0.794247  1
  Ho  Ho5  1  0.000000  0.316985  0.794247  1
  Co  Co6  1  0.500000  0.500000  0.159059  1
  Co  Co7  1  0.000000  0.000000  0.840941  1
  Co  Co8  1  0.500000  0.500000  0.703433  1
  Co  Co9  1  0.000000  0.000000  0.296567  1
  Co  Co10  1  0.000000  0.500000  0.985814  1
  Co  Co11  1  0.500000  0.000000  0.014186  1
  Co  Co12  1  0.500000  0.333321  0.994437  1
  Co  Co13  1  0.500000  0.666679  0.994437  1
  Co  Co14  1  0.000000  0.166679  0.005563  1
  Co  Co15  1  0.000000  0.833321  0.005563  1
  Co  Co16  1  0.500000  0.297135  0.430647  1
  Co  Co17  1  0.500000  0.702865  0.430647  1
  Co  Co18  1  0.000000  0.202865  0.569353  1
  Co  Co19  1  0.000000  0.797135  0.569353  1
  Co  Co20  1  0.500000  0.879302  0.709490  1
  Co  Co21  1  0.500000  0.120698  0.709490  1
  Co  Co22  1  0.000000  0.620698  0.290510  1
  Co  Co23  1  0.000000  0.379302  0.290510  1
  P  P24  1  0.500000  0.500000  0.882288  1
  P  P25  1  0.000000  0.000000  0.117712  1
  P  P26  1  0.500000  0.500000  0.344144  1
  P  P27  1  0.000000  0.000000  0.655856  1
  P  P28  1  0.500000  0.310452  0.616377  1
  P  P29  1  0.500000  0.689548  0.616377  1
  P  P30  1  0.000000  0.189548  0.383623  1
  P  P31  1  0.000000  0.810452  0.383623  1
  P  P32  1  0.500000  0.847694  0.893020  1
  P  P33  1  0.500000  0.152306  0.893020  1
  P  P34  1  0.000000  0.652306  0.106980  1
  P  P35  1  0.000000  0.347694  0.106980  1
