# generated using pymatgen
data_Zr6Mn8Fe8Si7
_symmetry_space_group_name_H-M   'P 1'
_cell_length_a   8.18256511
_cell_length_b   8.18256495
_cell_length_c   8.18256500
_cell_angle_alpha   59.99999577
_cell_angle_beta   59.99999641
_cell_angle_gamma   59.99999696
_symmetry_Int_Tables_number   1
_chemical_formula_structural   Zr6Mn8Fe8Si7
_chemical_formula_sum   'Zr6 Mn8 Fe8 Si7'
_cell_volume   387.39442075
_cell_formula_units_Z   1
loop_
 _symmetry_equiv_pos_site_id
 _symmetry_equiv_pos_as_xyz
  1  'x, y, z'
loop_
 _atom_site_type_symbol
 _atom_site_label
 _atom_site_symmetry_multiplicity
 _atom_site_fract_x
 _atom_site_fract_y
 _atom_site_fract_z
 _atom_site_occupancy
  Zr  Zr0  1  0.702203  0.702203  0.297797  1
  Zr  Zr1  1  0.297797  0.702203  0.297797  1
  Zr  Zr2  1  0.702203  0.297797  0.297797  1
  Zr  Zr3  1  0.297797  0.297797  0.702203  1
  Zr  Zr4  1  0.702203  0.297797  0.702203  1
  Zr  Zr5  1  0.297797  0.702203  0.702203  1
  Mn  Mn6  1  0.876872  0.876872  0.369385  1
  Mn  Mn7  1  0.876872  0.369385  0.876872  1
  Mn  Mn8  1  0.369385  0.876872  0.876872  1
  Mn  Mn9  1  0.876872  0.876872  0.876872  1
  Mn  Mn10  1  0.123128  0.123128  0.630615  1
  Mn  Mn11  1  0.123128  0.630615  0.123128  1
  Mn  Mn12  1  0.630615  0.123128  0.123128  1
  Mn  Mn13  1  0.123128  0.123128  0.123128  1
  Fe  Fe14  1  0.676446  0.676446  0.970663  1
  Fe  Fe15  1  0.676446  0.970663  0.676446  1
  Fe  Fe16  1  0.970663  0.676446  0.676446  1
  Fe  Fe17  1  0.676446  0.676446  0.676446  1
  Fe  Fe18  1  0.323554  0.323554  0.029337  1
  Fe  Fe19  1  0.323554  0.029337  0.323554  1
  Fe  Fe20  1  0.029337  0.323554  0.323554  1
  Fe  Fe21  1  0.323554  0.323554  0.323554  1
  Si  Si22  1  0.000000  0.000000  0.000000  1
  Si  Si23  1  0.000000  0.000000  0.500000  1
  Si  Si24  1  0.500000  0.000000  0.500000  1
  Si  Si25  1  0.000000  0.500000  0.500000  1
  Si  Si26  1  0.500000  0.500000  0.000000  1
  Si  Si27  1  0.000000  0.500000  0.000000  1
  Si  Si28  1  0.500000  0.000000  0.000000  1
