# generated using pymatgen
data_KMgZnH8Ir
_symmetry_space_group_name_H-M   'P 1'
_cell_length_a   4.91373500
_cell_length_b   4.91373500
_cell_length_c   10.66200900
_cell_angle_alpha   90.00000000
_cell_angle_beta   90.00000000
_cell_angle_gamma   90.00000000
_symmetry_Int_Tables_number   1
_chemical_formula_structural   KMgZnH8Ir
_chemical_formula_sum   'K2 Mg2 Zn2 H16 Ir2'
_cell_volume   257.43198588
_cell_formula_units_Z   2
loop_
 _symmetry_equiv_pos_site_id
 _symmetry_equiv_pos_as_xyz
  1  'x, y, z'
loop_
 _atom_site_type_symbol
 _atom_site_label
 _atom_site_symmetry_multiplicity
 _atom_site_fract_x
 _atom_site_fract_y
 _atom_site_fract_z
 _atom_site_occupancy
  K  K0  1  0.500000  0.000000  0.003738  1
  K  K1  1  0.000000  0.500000  0.503738  1
  Mg  Mg2  1  0.500000  0.000000  0.366409  1
  Mg  Mg3  1  0.000000  0.500000  0.866409  1
  Zn  Zn4  1  0.500000  0.000000  0.623279  1
  Zn  Zn5  1  0.000000  0.500000  0.123279  1
  H  H6  1  0.244648  0.239401  0.747658  1
  H  H7  1  0.755352  0.760599  0.747658  1
  H  H8  1  0.760599  0.244648  0.247658  1
  H  H9  1  0.239401  0.755352  0.247658  1
  H  H10  1  0.760599  0.755352  0.247658  1
  H  H11  1  0.239401  0.244648  0.247658  1
  H  H12  1  0.244648  0.760599  0.747658  1
  H  H13  1  0.755352  0.239401  0.747658  1
  H  H14  1  0.500000  0.251988  0.510435  1
  H  H15  1  0.500000  0.748012  0.510435  1
  H  H16  1  0.748012  0.500000  0.010435  1
  H  H17  1  0.251988  0.500000  0.010435  1
  H  H18  1  0.000000  0.000000  0.591954  1
  H  H19  1  0.000000  0.000000  0.091954  1
  H  H20  1  0.000000  0.000000  0.405357  1
  H  H21  1  0.000000  0.000000  0.905357  1
  Ir  Ir22  1  0.000000  0.000000  0.747761  1
  Ir  Ir23  1  0.000000  0.000000  0.247761  1
