# generated using pymatgen
data_Tb8Tm2IrRh5
_symmetry_space_group_name_H-M   'P 1'
_cell_length_a   10.90268400
_cell_length_b   10.90522800
_cell_length_c   6.35682100
_cell_angle_alpha   90.00043698
_cell_angle_beta   89.99770968
_cell_angle_gamma   89.99967422
_symmetry_Int_Tables_number   1
_chemical_formula_structural   Tb8Tm2IrRh5
_chemical_formula_sum   'Tb16 Tm4 Ir2 Rh10'
_cell_volume   755.80220922
_cell_formula_units_Z   2
loop_
 _symmetry_equiv_pos_site_id
 _symmetry_equiv_pos_as_xyz
  1  'x, y, z'
loop_
 _atom_site_type_symbol
 _atom_site_label
 _atom_site_symmetry_multiplicity
 _atom_site_fract_x
 _atom_site_fract_y
 _atom_site_fract_z
 _atom_site_occupancy
  Tb  Tb0  1  0.290110  0.089165  0.377987  1
  Tb  Tb1  1  0.290111  0.910836  0.877984  1
  Tb  Tb2  1  0.709994  0.087887  0.878021  1
  Tb  Tb3  1  0.709993  0.912112  0.378024  1
  Tb  Tb4  1  0.586884  0.789533  0.878158  1
  Tb  Tb5  1  0.586884  0.210466  0.378162  1
  Tb  Tb6  1  0.411668  0.789523  0.378898  1
  Tb  Tb7  1  0.411668  0.210477  0.878897  1
  Tb  Tb8  1  0.211038  0.412746  0.621346  1
  Tb  Tb9  1  0.211038  0.587252  0.121347  1
  Tb  Tb10  1  0.790130  0.411984  0.121691  1
  Tb  Tb11  1  0.790131  0.588017  0.621691  1
  Tb  Tb12  1  0.912083  0.710067  0.121854  1
  Tb  Tb13  1  0.912082  0.289935  0.621855  1
  Tb  Tb14  1  0.089209  0.709768  0.622105  1
  Tb  Tb15  1  0.089209  0.290230  0.122106  1
  Tm  Tm16  1  0.999921  0.999857  0.499985  1
  Tm  Tm17  1  0.999922  0.000145  0.999984  1
  Tm  Tm18  1  0.499543  0.499878  0.999956  1
  Tm  Tm19  1  0.499544  0.500122  0.499958  1
  Ir  Ir20  1  0.347952  0.347439  0.249983  1
  Ir  Ir21  1  0.347955  0.652560  0.749981  1
  Rh  Rh22  1  0.847894  0.151876  0.250095  1
  Rh  Rh23  1  0.847907  0.848133  0.750094  1
  Rh  Rh24  1  0.151435  0.151579  0.749868  1
  Rh  Rh25  1  0.151438  0.848418  0.249872  1
  Rh  Rh26  1  0.652641  0.347863  0.750037  1
  Rh  Rh27  1  0.652641  0.652135  0.250038  1
  Rh  Rh28  1  0.500407  0.999807  0.122305  1
  Rh  Rh29  1  0.500407  0.000191  0.622306  1
  Rh  Rh30  1  0.999081  0.499936  0.877705  1
  Rh  Rh31  1  0.999080  0.500061  0.377706  1
