# generated using pymatgen
data_Yb2ErPa(B4Os)4
_symmetry_space_group_name_H-M   'P 1'
_cell_length_a   3.56789000
_cell_length_b   5.96049939
_cell_length_c   11.51371506
_cell_angle_alpha   89.97319865
_cell_angle_beta   90.00000000
_cell_angle_gamma   90.00000000
_symmetry_Int_Tables_number   1
_chemical_formula_structural   Yb2ErPa(B4Os)4
_chemical_formula_sum   'Yb2 Er1 Pa1 B16 Os4'
_cell_volume   244.85531442
_cell_formula_units_Z   1
loop_
 _symmetry_equiv_pos_site_id
 _symmetry_equiv_pos_as_xyz
  1  'x, y, z'
loop_
 _atom_site_type_symbol
 _atom_site_label
 _atom_site_symmetry_multiplicity
 _atom_site_fract_x
 _atom_site_fract_y
 _atom_site_fract_z
 _atom_site_occupancy
  Yb  Yb0  1  0.000000  0.627703  0.853604  1
  Yb  Yb1  1  0.000000  0.371301  0.148855  1
  Er  Er2  1  0.000000  0.871571  0.346968  1
  Pa  Pa3  1  0.000000  0.128821  0.652137  1
  B  B4  1  0.500000  0.472492  0.691128  1
  B  B5  1  0.500000  0.525536  0.307754  1
  B  B6  1  0.500000  0.975930  0.809648  1
  B  B7  1  0.500000  0.025179  0.191140  1
  B  B8  1  0.500000  0.288245  0.814720  1
  B  B9  1  0.500000  0.711218  0.184641  1
  B  B10  1  0.500000  0.789465  0.685873  1
  B  B11  1  0.500000  0.214043  0.312529  1
  B  B12  1  0.500000  0.362662  0.970123  1
  B  B13  1  0.500000  0.635991  0.029835  1
  B  B14  1  0.500000  0.865419  0.530369  1
  B  B15  1  0.500000  0.136085  0.468629  1
  B  B16  1  0.500000  0.388958  0.545783  1
  B  B17  1  0.500000  0.612396  0.451123  1
  B  B18  1  0.500000  0.885206  0.954494  1
  B  B19  1  0.500000  0.112920  0.046585  1
  Os  Os20  1  0.000000  0.138144  0.906491  1
  Os  Os21  1  0.000000  0.861197  0.092639  1
  Os  Os22  1  0.000000  0.643099  0.595337  1
  Os  Os23  1  0.000000  0.356418  0.409597  1
