# generated using pymatgen
data_Yb5Er3(LuSn4)2
_symmetry_space_group_name_H-M   'P 1'
_cell_length_a   7.78798900
_cell_length_b   8.38392117
_cell_length_c   15.78948431
_cell_angle_alpha   90.02276153
_cell_angle_beta   90.00000000
_cell_angle_gamma   90.00000000
_symmetry_Int_Tables_number   1
_chemical_formula_structural   Yb5Er3(LuSn4)2
_chemical_formula_sum   'Yb10 Er6 Lu4 Sn16'
_cell_volume   1030.95670433
_cell_formula_units_Z   2
loop_
 _symmetry_equiv_pos_site_id
 _symmetry_equiv_pos_as_xyz
  1  'x, y, z'
loop_
 _atom_site_type_symbol
 _atom_site_label
 _atom_site_symmetry_multiplicity
 _atom_site_fract_x
 _atom_site_fract_y
 _atom_site_fract_z
 _atom_site_occupancy
  Yb  Yb0  1  0.502082  0.684294  0.593666  1
  Yb  Yb1  1  0.002082  0.815706  0.906334  1
  Yb  Yb2  1  0.495916  0.312161  0.091032  1
  Yb  Yb3  1  0.995916  0.187839  0.408968  1
  Yb  Yb4  1  0.496066  0.312134  0.409036  1
  Yb  Yb5  1  0.996066  0.187866  0.090964  1
  Yb  Yb6  1  0.502037  0.684250  0.906318  1
  Yb  Yb7  1  0.002037  0.815750  0.593682  1
  Yb  Yb8  1  0.164073  0.489069  0.249980  1
  Yb  Yb9  1  0.664073  0.010931  0.250020  1
  Er  Er10  1  0.326350  0.835163  0.121382  1
  Er  Er11  1  0.826350  0.664837  0.378618  1
  Er  Er12  1  0.326350  0.835157  0.378595  1
  Er  Er13  1  0.826350  0.664843  0.121405  1
  Er  Er14  1  0.675635  0.162132  0.875985  1
  Er  Er15  1  0.175635  0.337868  0.624015  1
  Lu  Lu16  1  0.675455  0.161940  0.624119  1
  Lu  Lu17  1  0.175455  0.338060  0.875881  1
  Lu  Lu18  1  0.838410  0.508350  0.750018  1
  Lu  Lu19  1  0.338410  0.991650  0.749982  1
  Sn  Sn20  1  0.672568  0.962857  0.460579  1
  Sn  Sn21  1  0.172568  0.537143  0.039421  1
  Sn  Sn22  1  0.327151  0.036095  0.955545  1
  Sn  Sn23  1  0.827151  0.463905  0.544455  1
  Sn  Sn24  1  0.328466  0.035747  0.544395  1
  Sn  Sn25  1  0.828466  0.464253  0.955605  1
  Sn  Sn26  1  0.672434  0.962387  0.039813  1
  Sn  Sn27  1  0.172434  0.537613  0.460187  1
  Sn  Sn28  1  0.477383  0.370460  0.749985  1
  Sn  Sn29  1  0.977383  0.129540  0.750015  1
  Sn  Sn30  1  0.527610  0.627764  0.250014  1
  Sn  Sn31  1  0.027610  0.872236  0.249986  1
  Sn  Sn32  1  0.710690  0.861359  0.749856  1
  Sn  Sn33  1  0.210690  0.638641  0.750144  1
  Sn  Sn34  1  0.281321  0.127728  0.249993  1
  Sn  Sn35  1  0.781321  0.372272  0.250007  1
