# generated using pymatgen
data_Yb6ReWO12
_symmetry_space_group_name_H-M   'P 1'
_cell_length_a   6.49813988
_cell_length_b   6.49813885
_cell_length_c   6.49813932
_cell_angle_alpha   91.93958632
_cell_angle_beta   91.93959376
_cell_angle_gamma   91.93960131
_symmetry_Int_Tables_number   1
_chemical_formula_structural   Yb6ReWO12
_chemical_formula_sum   'Yb6 Re1 W1 O12'
_cell_volume   273.90668143
_cell_formula_units_Z   1
loop_
 _symmetry_equiv_pos_site_id
 _symmetry_equiv_pos_as_xyz
  1  'x, y, z'
loop_
 _atom_site_type_symbol
 _atom_site_label
 _atom_site_symmetry_multiplicity
 _atom_site_fract_x
 _atom_site_fract_y
 _atom_site_fract_z
 _atom_site_occupancy
  Yb  Yb0  1  0.931305  0.434585  0.745657  1
  Yb  Yb1  1  0.745657  0.931305  0.434585  1
  Yb  Yb2  1  0.565415  0.254343  0.068695  1
  Yb  Yb3  1  0.434585  0.745657  0.931305  1
  Yb  Yb4  1  0.254343  0.068695  0.565415  1
  Yb  Yb5  1  0.068695  0.565415  0.254343  1
  Re  Re6  1  0.500000  0.500000  0.500000  1
  W  W7  1  0.000000  0.000000  0.000000  1
  O  O8  1  0.935073  0.286677  0.069391  1
  O  O9  1  0.930609  0.064927  0.713323  1
  O  O10  1  0.785406  0.580136  0.453957  1
  O  O11  1  0.713323  0.930609  0.064927  1
  O  O12  1  0.580136  0.453957  0.785406  1
  O  O13  1  0.546043  0.214594  0.419864  1
  O  O14  1  0.453957  0.785406  0.580136  1
  O  O15  1  0.419864  0.546043  0.214594  1
  O  O16  1  0.286677  0.069391  0.935073  1
  O  O17  1  0.214594  0.419864  0.546043  1
  O  O18  1  0.069391  0.935073  0.286677  1
  O  O19  1  0.064927  0.713323  0.930609  1
