# generated using pymatgen
data_La2MgZn(GeIr2)2
_symmetry_space_group_name_H-M   'P 1'
_cell_length_a   4.17837800
_cell_length_b   4.17837800
_cell_length_c   11.10446300
_cell_angle_alpha   90.00000000
_cell_angle_beta   90.00000000
_cell_angle_gamma   90.00000000
_symmetry_Int_Tables_number   1
_chemical_formula_structural   La2MgZn(GeIr2)2
_chemical_formula_sum   'La2 Mg1 Zn1 Ge2 Ir4'
_cell_volume   193.87107291
_cell_formula_units_Z   1
loop_
 _symmetry_equiv_pos_site_id
 _symmetry_equiv_pos_as_xyz
  1  'x, y, z'
loop_
 _atom_site_type_symbol
 _atom_site_label
 _atom_site_symmetry_multiplicity
 _atom_site_fract_x
 _atom_site_fract_y
 _atom_site_fract_z
 _atom_site_occupancy
  La  La0  1  0.000000  0.500000  0.246396  1
  La  La1  1  0.500000  0.000000  0.753604  1
  Mg  Mg2  1  0.000000  0.000000  0.500000  1
  Zn  Zn3  1  0.500000  0.500000  0.500000  1
  Ge  Ge4  1  0.000000  0.500000  0.877835  1
  Ge  Ge5  1  0.500000  0.000000  0.122165  1
  Ir  Ir6  1  0.000000  0.000000  0.000000  1
  Ir  Ir7  1  0.500000  0.500000  0.000000  1
  Ir  Ir8  1  0.000000  0.500000  0.653134  1
  Ir  Ir9  1  0.500000  0.000000  0.346866  1
