# generated using pymatgen
data_Yb2Ge(PtO4)2
_symmetry_space_group_name_H-M   'P 1'
_cell_length_a   6.26101414
_cell_length_b   6.26101166
_cell_length_c   6.04621371
_cell_angle_alpha   59.03750635
_cell_angle_beta   59.03750758
_cell_angle_gamma   60.48274119
_symmetry_Int_Tables_number   1
_chemical_formula_structural   Yb2Ge(PtO4)2
_chemical_formula_sum   'Yb2 Ge1 Pt2 O8'
_cell_volume   165.68947376
_cell_formula_units_Z   1
loop_
 _symmetry_equiv_pos_site_id
 _symmetry_equiv_pos_as_xyz
  1  'x, y, z'
loop_
 _atom_site_type_symbol
 _atom_site_label
 _atom_site_symmetry_multiplicity
 _atom_site_fract_x
 _atom_site_fract_y
 _atom_site_fract_z
 _atom_site_occupancy
  Yb  Yb0  1  0.848349  0.848349  0.865446  1
  Yb  Yb1  1  0.151651  0.151651  0.134554  1
  Ge  Ge2  1  0.500000  0.500000  0.000000  1
  Pt  Pt3  1  0.000000  0.500000  0.500000  1
  Pt  Pt4  1  0.500000  0.000000  0.500000  1
  O  O5  1  0.603735  0.603735  0.596260  1
  O  O6  1  0.396265  0.396265  0.403740  1
  O  O7  1  0.111405  0.111405  0.562031  1
  O  O8  1  0.560813  0.137086  0.088571  1
  O  O9  1  0.137086  0.560813  0.088571  1
  O  O10  1  0.439187  0.862914  0.911429  1
  O  O11  1  0.888595  0.888595  0.437969  1
  O  O12  1  0.862914  0.439187  0.911429  1
