# generated using pymatgen
data_Tl2Sb4O7
_symmetry_space_group_name_H-M   'P 1'
_cell_length_a   7.00929684
_cell_length_b   8.22568504
_cell_length_c   9.93036700
_cell_angle_alpha   102.47752634
_cell_angle_beta   91.33789562
_cell_angle_gamma   102.07549381
_symmetry_Int_Tables_number   1
_chemical_formula_structural   Tl2Sb4O7
_chemical_formula_sum   'Tl4 Sb8 O14'
_cell_volume   545.24447054
_cell_formula_units_Z   2
loop_
 _symmetry_equiv_pos_site_id
 _symmetry_equiv_pos_as_xyz
  1  'x, y, z'
loop_
 _atom_site_type_symbol
 _atom_site_label
 _atom_site_symmetry_multiplicity
 _atom_site_fract_x
 _atom_site_fract_y
 _atom_site_fract_z
 _atom_site_occupancy
  Tl  Tl0  1  0.310270  0.319441  0.155851  1
  Tl  Tl1  1  0.712018  0.299273  0.453058  1
  Tl  Tl2  1  0.287982  0.700726  0.546942  1
  Tl  Tl3  1  0.689730  0.680559  0.844149  1
  Sb  Sb4  1  0.741763  0.131895  0.046247  1
  Sb  Sb5  1  0.842829  0.566549  0.152562  1
  Sb  Sb6  1  0.526063  0.826590  0.233611  1
  Sb  Sb7  1  0.044521  0.958856  0.338514  1
  Sb  Sb8  1  0.955479  0.041144  0.661486  1
  Sb  Sb9  1  0.473938  0.173410  0.766389  1
  Sb  Sb10  1  0.157171  0.433451  0.847438  1
  Sb  Sb11  1  0.258237  0.868105  0.953753  1
  O  O12  1  0.399194  0.715553  0.038956  1
  O  O13  1  0.513291  0.061518  0.152378  1
  O  O14  1  0.802197  0.878890  0.176763  1
  O  O15  1  0.846697  0.341451  0.206195  1
  O  O16  1  0.588833  0.584152  0.234565  1
  O  O17  1  0.008886  0.704547  0.325323  1
  O  O18  1  0.830583  0.022555  0.456904  1
  O  O19  1  0.169417  0.977445  0.543096  1
  O  O20  1  0.991114  0.295453  0.674677  1
  O  O21  1  0.411167  0.415848  0.765435  1
  O  O22  1  0.153303  0.658549  0.793805  1
  O  O23  1  0.197803  0.121110  0.823237  1
  O  O24  1  0.486709  0.938482  0.847622  1
  O  O25  1  0.600806  0.284447  0.961044  1
