# generated using pymatgen
data_Er8Sc12Si15Ru
_symmetry_space_group_name_H-M   'P 1'
_cell_length_a   7.04699833
_cell_length_b   7.41690016
_cell_length_c   13.90052500
_cell_angle_alpha   90.00000000
_cell_angle_beta   90.00000000
_cell_angle_gamma   90.21938665
_symmetry_Int_Tables_number   1
_chemical_formula_structural   Er8Sc12Si15Ru
_chemical_formula_sum   'Er8 Sc12 Si15 Ru1'
_cell_volume   726.53178863
_cell_formula_units_Z   1
loop_
 _symmetry_equiv_pos_site_id
 _symmetry_equiv_pos_as_xyz
  1  'x, y, z'
loop_
 _atom_site_type_symbol
 _atom_site_label
 _atom_site_symmetry_multiplicity
 _atom_site_fract_x
 _atom_site_fract_y
 _atom_site_fract_z
 _atom_site_occupancy
  Er  Er0  1  0.011210  0.179042  0.095832  1
  Er  Er1  1  0.991535  0.826857  0.904545  1
  Er  Er2  1  0.488964  0.677385  0.904352  1
  Er  Er3  1  0.991535  0.826857  0.595455  1
  Er  Er4  1  0.510977  0.322047  0.095981  1
  Er  Er5  1  0.011210  0.179042  0.404168  1
  Er  Er6  1  0.510977  0.322047  0.404019  1
  Er  Er7  1  0.488964  0.677385  0.595648  1
  Sc  Sc8  1  0.157719  0.502359  0.750000  1
  Sc  Sc9  1  0.837518  0.494453  0.250000  1
  Sc  Sc10  1  0.338878  0.005672  0.250000  1
  Sc  Sc11  1  0.670109  0.998199  0.750000  1
  Sc  Sc12  1  0.317387  0.172176  0.627733  1
  Sc  Sc13  1  0.671498  0.825173  0.374195  1
  Sc  Sc14  1  0.170928  0.677878  0.374334  1
  Sc  Sc15  1  0.671498  0.825173  0.125805  1
  Sc  Sc16  1  0.837445  0.319999  0.627425  1
  Sc  Sc17  1  0.317387  0.172176  0.872267  1
  Sc  Sc18  1  0.837445  0.319999  0.872575  1
  Sc  Sc19  1  0.170928  0.677878  0.125666  1
  Si  Si20  1  0.968377  0.885908  0.250000  1
  Si  Si21  1  0.468898  0.613003  0.250000  1
  Si  Si22  1  0.529633  0.389569  0.750000  1
  Si  Si23  1  0.286828  0.865881  0.750000  1
  Si  Si24  1  0.713532  0.130604  0.250000  1
  Si  Si25  1  0.213873  0.369590  0.250000  1
  Si  Si26  1  0.779814  0.628578  0.750000  1
  Si  Si27  1  0.160749  0.468592  0.537426  1
  Si  Si28  1  0.842621  0.535301  0.461661  1
  Si  Si29  1  0.343228  0.966130  0.460390  1
  Si  Si30  1  0.842621  0.535301  0.038339  1
  Si  Si31  1  0.657158  0.034373  0.538685  1
  Si  Si32  1  0.160749  0.468592  0.962574  1
  Si  Si33  1  0.657158  0.034373  0.961315  1
  Si  Si34  1  0.343228  0.966130  0.039610  1
  Ru  Ru35  1  0.027420  0.106275  0.750000  1
