# generated using pymatgen
data_TbSm6FeBr12
_symmetry_space_group_name_H-M   'P 1'
_cell_length_a   9.36259570
_cell_length_b   9.36259665
_cell_length_c   9.36259729
_cell_angle_alpha   107.02219212
_cell_angle_beta   107.02218502
_cell_angle_gamma   107.02219419
_symmetry_Int_Tables_number   1
_chemical_formula_structural   TbSm6FeBr12
_chemical_formula_sum   'Tb1 Sm6 Fe1 Br12'
_cell_volume   683.07972621
_cell_formula_units_Z   1
loop_
 _symmetry_equiv_pos_site_id
 _symmetry_equiv_pos_as_xyz
  1  'x, y, z'
loop_
 _atom_site_type_symbol
 _atom_site_label
 _atom_site_symmetry_multiplicity
 _atom_site_fract_x
 _atom_site_fract_y
 _atom_site_fract_z
 _atom_site_occupancy
  Tb  Tb0  1  0.500000  0.500000  0.500000  1
  Sm  Sm1  1  0.097370  0.304954  0.021809  1
  Sm  Sm2  1  0.021809  0.097370  0.304954  1
  Sm  Sm3  1  0.304954  0.021809  0.097370  1
  Sm  Sm4  1  0.902630  0.695046  0.978191  1
  Sm  Sm5  1  0.978191  0.902630  0.695046  1
  Sm  Sm6  1  0.695046  0.978191  0.902630  1
  Fe  Fe7  1  0.000000  0.000000  0.000000  1
  Br  Br8  1  0.463939  0.388026  0.170544  1
  Br  Br9  1  0.170544  0.463939  0.388026  1
  Br  Br10  1  0.388026  0.170544  0.463939  1
  Br  Br11  1  0.536061  0.611974  0.829456  1
  Br  Br12  1  0.829456  0.536061  0.611974  1
  Br  Br13  1  0.611974  0.829456  0.536061  1
  Br  Br14  1  0.775094  0.317589  0.927895  1
  Br  Br15  1  0.927895  0.775094  0.317589  1
  Br  Br16  1  0.317589  0.927895  0.775094  1
  Br  Br17  1  0.224906  0.682411  0.072105  1
  Br  Br18  1  0.072105  0.224906  0.682411  1
  Br  Br19  1  0.682411  0.072105  0.224906  1
