# generated using pymatgen
data_Nb10Ga5B2As
_symmetry_space_group_name_H-M   'P 1'
_cell_length_a   7.81633836
_cell_length_b   7.83286613
_cell_length_c   5.35600900
_cell_angle_alpha   90.00000000
_cell_angle_beta   90.00000000
_cell_angle_gamma   120.06998445
_symmetry_Int_Tables_number   1
_chemical_formula_structural   Nb10Ga5B2As
_chemical_formula_sum   'Nb10 Ga5 B2 As1'
_cell_volume   283.78490102
_cell_formula_units_Z   1
loop_
 _symmetry_equiv_pos_site_id
 _symmetry_equiv_pos_as_xyz
  1  'x, y, z'
loop_
 _atom_site_type_symbol
 _atom_site_label
 _atom_site_symmetry_multiplicity
 _atom_site_fract_x
 _atom_site_fract_y
 _atom_site_fract_z
 _atom_site_occupancy
  Nb  Nb0  1  0.668447  0.333436  0.498646  1
  Nb  Nb1  1  0.331553  0.664991  0.498646  1
  Nb  Nb2  1  0.331553  0.664991  0.001354  1
  Nb  Nb3  1  0.668447  0.333436  0.001354  1
  Nb  Nb4  1  0.756943  0.756446  0.250000  1
  Nb  Nb5  1  0.243057  0.999503  0.250000  1
  Nb  Nb6  1  0.000000  0.243175  0.250000  1
  Nb  Nb7  1  0.240666  0.243062  0.750000  1
  Nb  Nb8  1  0.759334  0.002396  0.750000  1
  Nb  Nb9  1  0.000000  0.757236  0.750000  1
  Ga  Ga10  1  0.401970  0.399812  0.250000  1
  Ga  Ga11  1  0.598030  0.997842  0.250000  1
  Ga  Ga12  1  0.000000  0.603207  0.250000  1
  Ga  Ga13  1  0.599415  0.599729  0.750000  1
  Ga  Ga14  1  0.400585  0.000313  0.750000  1
  B  B15  1  0.000000  0.998676  0.499329  1
  B  B16  1  0.000000  0.998676  0.000671  1
  As  As17  1  0.000000  0.403071  0.750000  1
