# generated using pymatgen
data_Ho7Er3(IrRh2)2
_symmetry_space_group_name_H-M   'P 1'
_cell_length_a   10.82729802
_cell_length_b   10.82728800
_cell_length_c   6.33758401
_cell_angle_alpha   90.00000000
_cell_angle_beta   89.99318377
_cell_angle_gamma   90.00000000
_symmetry_Int_Tables_number   1
_chemical_formula_structural   Ho7Er3(IrRh2)2
_chemical_formula_sum   'Ho14 Er6 Ir4 Rh8'
_cell_volume   742.95670434
_cell_formula_units_Z   2
loop_
 _symmetry_equiv_pos_site_id
 _symmetry_equiv_pos_as_xyz
  1  'x, y, z'
loop_
 _atom_site_type_symbol
 _atom_site_label
 _atom_site_symmetry_multiplicity
 _atom_site_fract_x
 _atom_site_fract_y
 _atom_site_fract_z
 _atom_site_occupancy
  Ho  Ho0  1  0.291080  0.089591  0.377873  1
  Ho  Ho1  1  0.291080  0.910409  0.877873  1
  Ho  Ho2  1  0.708891  0.089535  0.877932  1
  Ho  Ho3  1  0.708891  0.910465  0.377932  1
  Ho  Ho4  1  0.587351  0.789847  0.878697  1
  Ho  Ho5  1  0.587351  0.210153  0.378697  1
  Ho  Ho6  1  0.412606  0.789839  0.378699  1
  Ho  Ho7  1  0.412606  0.210161  0.878699  1
  Ho  Ho8  1  0.210088  0.412681  0.621294  1
  Ho  Ho9  1  0.210088  0.587319  0.121294  1
  Ho  Ho10  1  0.789919  0.412613  0.121312  1
  Ho  Ho11  1  0.789919  0.587387  0.621312  1
  Ho  Ho12  1  0.910533  0.708886  0.122041  1
  Ho  Ho13  1  0.910533  0.291114  0.622041  1
  Er  Er14  1  0.089522  0.708742  0.621983  1
  Er  Er15  1  0.089522  0.291258  0.121983  1
  Er  Er16  1  0.000039  0.999925  0.500042  1
  Er  Er17  1  0.000039  0.000075  0.000042  1
  Er  Er18  1  0.500002  0.499989  0.000041  1
  Er  Er19  1  0.500002  0.500011  0.500041  1
  Ir  Ir20  1  0.654383  0.345611  0.749995  1
  Ir  Ir21  1  0.654383  0.654389  0.249995  1
  Ir  Ir22  1  0.345447  0.345576  0.249916  1
  Ir  Ir23  1  0.345447  0.654424  0.749916  1
  Rh  Rh24  1  0.846766  0.153391  0.249924  1
  Rh  Rh25  1  0.846766  0.846609  0.749924  1
  Rh  Rh26  1  0.153280  0.153418  0.750231  1
  Rh  Rh27  1  0.153280  0.846582  0.250231  1
  Rh  Rh28  1  0.499989  0.999997  0.122331  1
  Rh  Rh29  1  0.499989  0.000003  0.622331  1
  Rh  Rh30  1  0.000104  0.499984  0.877687  1
  Rh  Rh31  1  0.000104  0.500016  0.377687  1
