# generated using pymatgen
data_NdDy2Rh9
_symmetry_space_group_name_H-M   'P 1'
_cell_length_a   5.30994100
_cell_length_b   5.30994142
_cell_length_c   17.51397000
_cell_angle_alpha   90.00000000
_cell_angle_beta   90.00000000
_cell_angle_gamma   120.00000359
_symmetry_Int_Tables_number   1
_chemical_formula_structural   NdDy2Rh9
_chemical_formula_sum   'Nd2 Dy4 Rh18'
_cell_volume   427.65607263
_cell_formula_units_Z   2
loop_
 _symmetry_equiv_pos_site_id
 _symmetry_equiv_pos_as_xyz
  1  'x, y, z'
loop_
 _atom_site_type_symbol
 _atom_site_label
 _atom_site_symmetry_multiplicity
 _atom_site_fract_x
 _atom_site_fract_y
 _atom_site_fract_z
 _atom_site_occupancy
  Nd  Nd0  1  0.333333  0.666667  0.750000  1
  Nd  Nd1  1  0.666667  0.333333  0.250000  1
  Dy  Dy2  1  0.333333  0.666667  0.541406  1
  Dy  Dy3  1  0.666667  0.333333  0.041406  1
  Dy  Dy4  1  0.666667  0.333333  0.458594  1
  Dy  Dy5  1  0.333333  0.666667  0.958594  1
  Rh  Rh6  1  0.167398  0.334796  0.125320  1
  Rh  Rh7  1  0.832602  0.665204  0.625320  1
  Rh  Rh8  1  0.665204  0.832602  0.125320  1
  Rh  Rh9  1  0.167398  0.832602  0.125320  1
  Rh  Rh10  1  0.832602  0.167398  0.625320  1
  Rh  Rh11  1  0.334796  0.167398  0.625320  1
  Rh  Rh12  1  0.832602  0.665204  0.874680  1
  Rh  Rh13  1  0.832602  0.167398  0.874680  1
  Rh  Rh14  1  0.334796  0.167398  0.874680  1
  Rh  Rh15  1  0.665204  0.832602  0.374680  1
  Rh  Rh16  1  0.167398  0.832602  0.374680  1
  Rh  Rh17  1  0.167398  0.334796  0.374680  1
  Rh  Rh18  1  0.000000  0.000000  0.250000  1
  Rh  Rh19  1  0.000000  0.000000  0.750000  1
  Rh  Rh20  1  0.333333  0.666667  0.250000  1
  Rh  Rh21  1  0.666667  0.333333  0.750000  1
  Rh  Rh22  1  0.000000  0.000000  0.000000  1
  Rh  Rh23  1  0.000000  0.000000  0.500000  1
