# generated using pymatgen
data_Sm4Tm9Lu7Bi12
_symmetry_space_group_name_H-M   'P 1'
_cell_length_a   8.16748325
_cell_length_b   9.41263233
_cell_length_c   11.91226200
_cell_angle_alpha   89.99587902
_cell_angle_beta   89.96826365
_cell_angle_gamma   89.98549821
_symmetry_Int_Tables_number   1
_chemical_formula_structural   Sm4Tm9Lu7Bi12
_chemical_formula_sum   'Sm4 Tm9 Lu7 Bi12'
_cell_volume   915.78495088
_cell_formula_units_Z   1
loop_
 _symmetry_equiv_pos_site_id
 _symmetry_equiv_pos_as_xyz
  1  'x, y, z'
loop_
 _atom_site_type_symbol
 _atom_site_label
 _atom_site_symmetry_multiplicity
 _atom_site_fract_x
 _atom_site_fract_y
 _atom_site_fract_z
 _atom_site_occupancy
  Sm  Sm0  1  0.313945  0.249895  0.218616  1
  Sm  Sm1  1  0.813938  0.249786  0.281591  1
  Sm  Sm2  1  0.685911  0.750127  0.781469  1
  Sm  Sm3  1  0.186027  0.749933  0.718583  1
  Tm  Tm4  1  0.352854  0.749850  0.217976  1
  Tm  Tm5  1  0.852896  0.749998  0.281993  1
  Tm  Tm6  1  0.647264  0.249770  0.781896  1
  Tm  Tm7  1  0.146762  0.249613  0.717899  1
  Tm  Tm8  1  0.692000  0.566187  0.060125  1
  Tm  Tm9  1  0.192187  0.933842  0.439880  1
  Tm  Tm10  1  0.307858  0.066077  0.939765  1
  Tm  Tm11  1  0.807818  0.433872  0.560100  1
  Tm  Tm12  1  0.308121  0.433805  0.939907  1
  Lu  Lu13  1  0.807980  0.067229  0.560111  1
  Lu  Lu14  1  0.692131  0.932848  0.060223  1
  Lu  Lu15  1  0.191940  0.567292  0.439836  1
  Lu  Lu16  1  0.477101  0.249898  0.489151  1
  Lu  Lu17  1  0.976761  0.249893  0.010891  1
  Lu  Lu18  1  0.522949  0.749804  0.510774  1
  Lu  Lu19  1  0.022768  0.750081  0.989159  1
  Bi  Bi20  1  0.403018  0.750272  0.960817  1
  Bi  Bi21  1  0.902720  0.750887  0.539427  1
  Bi  Bi22  1  0.597385  0.248860  0.039480  1
  Bi  Bi23  1  0.097317  0.250951  0.460546  1
  Bi  Bi24  1  0.565195  0.992682  0.327261  1
  Bi  Bi25  1  0.065311  0.507053  0.172664  1
  Bi  Bi26  1  0.434936  0.492698  0.672654  1
  Bi  Bi27  1  0.934850  0.007052  0.827264  1
  Bi  Bi28  1  0.434864  0.006999  0.672737  1
  Bi  Bi29  1  0.934774  0.492879  0.827199  1
  Bi  Bi30  1  0.565295  0.507014  0.327266  1
  Bi  Bi31  1  0.065122  0.992853  0.172744  1
