# generated using pymatgen
data_Ce2Sc3Mn2
_symmetry_space_group_name_H-M   'P 1'
_cell_length_a   6.08167310
_cell_length_b   6.56439801
_cell_length_c   8.38955400
_cell_angle_alpha   95.54000675
_cell_angle_beta   111.25104453
_cell_angle_gamma   89.99999026
_symmetry_Int_Tables_number   1
_chemical_formula_structural   Ce2Sc3Mn2
_chemical_formula_sum   'Ce4 Sc6 Mn4'
_cell_volume   310.47800228
_cell_formula_units_Z   2
loop_
 _symmetry_equiv_pos_site_id
 _symmetry_equiv_pos_as_xyz
  1  'x, y, z'
loop_
 _atom_site_type_symbol
 _atom_site_label
 _atom_site_symmetry_multiplicity
 _atom_site_fract_x
 _atom_site_fract_y
 _atom_site_fract_z
 _atom_site_occupancy
  Ce  Ce0  1  0.528755  0.105358  0.805257  1
  Ce  Ce1  1  0.471245  0.894642  0.194743  1
  Ce  Ce2  1  0.723498  0.394642  0.194743  1
  Ce  Ce3  1  0.276502  0.605358  0.805257  1
  Sc  Sc4  1  0.291530  0.311870  0.429291  1
  Sc  Sc5  1  0.708470  0.688130  0.570709  1
  Sc  Sc6  1  0.862240  0.188130  0.570709  1
  Sc  Sc7  1  0.137760  0.811870  0.429291  1
  Sc  Sc8  1  0.073707  0.250000  0.000000  1
  Sc  Sc9  1  0.926293  0.750000  0.000000  1
  Mn  Mn10  1  0.355824  0.597973  0.223884  1
  Mn  Mn11  1  0.644176  0.402027  0.776116  1
  Mn  Mn12  1  0.131942  0.902027  0.776116  1
  Mn  Mn13  1  0.868058  0.097973  0.223884  1
