# generated using pymatgen
data_DyHo4V3(P3Ir4)4
_symmetry_space_group_name_H-M   'P 1'
_cell_length_a   12.67149100
_cell_length_b   12.67135086
_cell_length_c   3.95459900
_cell_angle_alpha   90.00000000
_cell_angle_beta   90.00000000
_cell_angle_gamma   120.00036846
_symmetry_Int_Tables_number   1
_chemical_formula_structural   DyHo4V3(P3Ir4)4
_chemical_formula_sum   'Dy1 Ho4 V3 P12 Ir16'
_cell_volume   549.89795829
_cell_formula_units_Z   1
loop_
 _symmetry_equiv_pos_site_id
 _symmetry_equiv_pos_as_xyz
  1  'x, y, z'
loop_
 _atom_site_type_symbol
 _atom_site_label
 _atom_site_symmetry_multiplicity
 _atom_site_fract_x
 _atom_site_fract_y
 _atom_site_fract_z
 _atom_site_occupancy
  Dy  Dy0  1  0.811607  0.000000  0.000000  1
  Ho  Ho1  1  0.333332  0.666660  0.500000  1
  Ho  Ho2  1  0.666673  0.333340  0.500000  1
  Ho  Ho3  1  0.999995  0.811586  0.000000  1
  Ho  Ho4  1  0.188409  0.188414  0.000000  1
  V  V5  1  0.999998  0.451028  0.500000  1
  V  V6  1  0.548970  0.548972  0.500000  1
  V  V7  1  0.451013  0.000000  0.500000  1
  P  P8  1  0.999998  0.636099  0.500000  1
  P  P9  1  0.363899  0.363901  0.500000  1
  P  P10  1  0.636060  0.000000  0.500000  1
  P  P11  1  0.516585  0.683709  0.000000  1
  P  P12  1  0.316296  0.832865  0.000000  1
  P  P13  1  0.167124  0.483428  0.000000  1
  P  P14  1  0.483430  0.167135  0.000000  1
  P  P15  1  0.683694  0.516572  0.000000  1
  P  P16  1  0.832875  0.316291  0.000000  1
  P  P17  1  0.000044  0.177182  0.500000  1
  P  P18  1  0.822862  0.822818  0.500000  1
  P  P19  1  0.177123  0.000000  0.500000  1
  Ir  Ir20  1  0.509391  0.867374  0.000000  1
  Ir  Ir21  1  0.132617  0.642020  0.000000  1
  Ir  Ir22  1  0.357980  0.490601  0.000000  1
  Ir  Ir23  1  0.490598  0.357980  0.000000  1
  Ir  Ir24  1  0.867380  0.509399  0.000000  1
  Ir  Ir25  1  0.642018  0.132626  0.000000  1
  Ir  Ir26  1  0.000036  0.285412  0.000000  1
  Ir  Ir27  1  0.714624  0.714588  0.000000  1
  Ir  Ir28  1  0.285356  0.000000  0.000000  1
  Ir  Ir29  1  0.625279  0.803902  0.500000  1
  Ir  Ir30  1  0.195985  0.821366  0.500000  1
  Ir  Ir31  1  0.178629  0.374620  0.500000  1
  Ir  Ir32  1  0.374620  0.178634  0.500000  1
  Ir  Ir33  1  0.804009  0.625380  0.500000  1
  Ir  Ir34  1  0.821377  0.196098  0.500000  1
  Ir  Ir35  1  0.000116  0.000000  0.500000  1
