# generated using pymatgen
data_YSc10In9Pt4
_symmetry_space_group_name_H-M   'P 1'
_cell_length_a   12.73121624
_cell_length_b   12.73121593
_cell_length_c   3.48794900
_cell_angle_alpha   90.00000000
_cell_angle_beta   90.00000000
_cell_angle_gamma   112.47912712
_symmetry_Int_Tables_number   1
_chemical_formula_structural   YSc10In9Pt4
_chemical_formula_sum   'Y1 Sc10 In9 Pt4'
_cell_volume   522.38506448
_cell_formula_units_Z   1
loop_
 _symmetry_equiv_pos_site_id
 _symmetry_equiv_pos_as_xyz
  1  'x, y, z'
loop_
 _atom_site_type_symbol
 _atom_site_label
 _atom_site_symmetry_multiplicity
 _atom_site_fract_x
 _atom_site_fract_y
 _atom_site_fract_z
 _atom_site_occupancy
  Y  Y0  1  0.693911  0.693911  0.000000  1
  Sc  Sc1  1  0.075388  0.415576  0.000000  1
  Sc  Sc2  1  0.927373  0.582690  0.000000  1
  Sc  Sc3  1  0.415576  0.075388  0.000000  1
  Sc  Sc4  1  0.582690  0.927373  0.000000  1
  Sc  Sc5  1  0.626098  0.370393  0.000000  1
  Sc  Sc6  1  0.370393  0.626098  0.000000  1
  Sc  Sc7  1  0.842112  0.159256  0.000000  1
  Sc  Sc8  1  0.159256  0.842112  0.000000  1
  Sc  Sc9  1  0.000285  0.000285  0.000000  1
  Sc  Sc10  1  0.309080  0.309080  0.000000  1
  In  In11  1  0.849465  0.364678  0.500000  1
  In  In12  1  0.151603  0.633329  0.500000  1
  In  In13  1  0.364678  0.849465  0.500000  1
  In  In14  1  0.633329  0.151603  0.500000  1
  In  In15  1  0.069058  0.215028  0.500000  1
  In  In16  1  0.937301  0.786136  0.500000  1
  In  In17  1  0.215028  0.069058  0.500000  1
  In  In18  1  0.786136  0.937301  0.500000  1
  In  In19  1  0.496624  0.496624  0.500000  1
  Pt  Pt20  1  0.245832  0.448862  0.500000  1
  Pt  Pt21  1  0.756333  0.543590  0.500000  1
  Pt  Pt22  1  0.448862  0.245832  0.500000  1
  Pt  Pt23  1  0.543590  0.756333  0.500000  1
