# generated using pymatgen
data_Y6Ho10Cd4TcPd3
_symmetry_space_group_name_H-M   'P 1'
_cell_length_a   9.70360591
_cell_length_b   9.70360674
_cell_length_c   9.70360455
_cell_angle_alpha   59.36489061
_cell_angle_beta   59.36488724
_cell_angle_gamma   59.36488994
_symmetry_Int_Tables_number   1
_chemical_formula_structural   Y6Ho10Cd4TcPd3
_chemical_formula_sum   'Y6 Ho10 Cd4 Tc1 Pd3'
_cell_volume   636.73758980
_cell_formula_units_Z   1
loop_
 _symmetry_equiv_pos_site_id
 _symmetry_equiv_pos_as_xyz
  1  'x, y, z'
loop_
 _atom_site_type_symbol
 _atom_site_label
 _atom_site_symmetry_multiplicity
 _atom_site_fract_x
 _atom_site_fract_y
 _atom_site_fract_z
 _atom_site_occupancy
  Y  Y0  1  0.935453  0.565156  0.565156  1
  Y  Y1  1  0.556470  0.937929  0.937929  1
  Y  Y2  1  0.565156  0.935453  0.565156  1
  Y  Y3  1  0.937929  0.556470  0.937929  1
  Y  Y4  1  0.565156  0.565156  0.935453  1
  Y  Y5  1  0.937929  0.937929  0.556470  1
  Ho  Ho6  1  0.352915  0.352915  0.352915  1
  Ho  Ho7  1  0.351375  0.351375  0.944720  1
  Ho  Ho8  1  0.351375  0.944720  0.351375  1
  Ho  Ho9  1  0.944720  0.351375  0.351375  1
  Ho  Ho10  1  0.817237  0.187402  0.187402  1
  Ho  Ho11  1  0.188417  0.810595  0.810595  1
  Ho  Ho12  1  0.187402  0.817237  0.187402  1
  Ho  Ho13  1  0.810595  0.188417  0.810595  1
  Ho  Ho14  1  0.187402  0.187402  0.817237  1
  Ho  Ho15  1  0.810595  0.810595  0.188417  1
  Cd  Cd16  1  0.579798  0.579798  0.579798  1
  Cd  Cd17  1  0.580828  0.580828  0.254331  1
  Cd  Cd18  1  0.580828  0.254331  0.580828  1
  Cd  Cd19  1  0.254331  0.580828  0.580828  1
  Tc  Tc20  1  0.145017  0.145017  0.145017  1
  Pd  Pd21  1  0.144980  0.144980  0.569110  1
  Pd  Pd22  1  0.144980  0.569110  0.144980  1
  Pd  Pd23  1  0.569110  0.144980  0.144980  1
