# generated using pymatgen
data_Ho2Er3(FeB3)2
_symmetry_space_group_name_H-M   'P 1'
_cell_length_a   5.39074474
_cell_length_b   5.39074461
_cell_length_c   8.17801611
_cell_angle_alpha   70.75624975
_cell_angle_beta   70.75624891
_cell_angle_gamma   59.99998841
_symmetry_Int_Tables_number   1
_chemical_formula_structural   Ho2Er3(FeB3)2
_chemical_formula_sum   'Ho2 Er3 Fe2 B6'
_cell_volume   190.32701108
_cell_formula_units_Z   1
loop_
 _symmetry_equiv_pos_site_id
 _symmetry_equiv_pos_as_xyz
  1  'x, y, z'
loop_
 _atom_site_type_symbol
 _atom_site_label
 _atom_site_symmetry_multiplicity
 _atom_site_fract_x
 _atom_site_fract_y
 _atom_site_fract_z
 _atom_site_occupancy
  Ho  Ho0  1  0.999934  0.999934  0.000199  1
  Ho  Ho1  1  0.748311  0.748311  0.755067  1
  Er  Er2  1  0.251420  0.251420  0.245739  1
  Er  Er3  1  0.583653  0.583653  0.249042  1
  Er  Er4  1  0.416311  0.416311  0.751065  1
  Fe  Fe5  1  0.883033  0.883033  0.350902  1
  Fe  Fe6  1  0.116995  0.116995  0.649015  1
  B  B7  1  0.499815  0.168427  0.499829  1
  B  B8  1  0.831929  0.499815  0.499829  1
  B  B9  1  0.168427  0.831929  0.499829  1
  B  B10  1  0.168427  0.499815  0.499829  1
  B  B11  1  0.831929  0.168427  0.499829  1
  B  B12  1  0.499815  0.831929  0.499829  1
