# generated using pymatgen
data_U4Fe(Si2Ir)5
_symmetry_space_group_name_H-M   'P 1'
_cell_length_a   5.81735407
_cell_length_b   8.08558913
_cell_length_c   8.08558941
_cell_angle_alpha   89.12828188
_cell_angle_beta   111.05545274
_cell_angle_gamma   111.05544524
_symmetry_Int_Tables_number   1
_chemical_formula_structural   U4Fe(Si2Ir)5
_chemical_formula_sum   'U4 Fe1 Si10 Ir5'
_cell_volume   328.38671586
_cell_formula_units_Z   1
loop_
 _symmetry_equiv_pos_site_id
 _symmetry_equiv_pos_as_xyz
  1  'x, y, z'
loop_
 _atom_site_type_symbol
 _atom_site_label
 _atom_site_symmetry_multiplicity
 _atom_site_fract_x
 _atom_site_fract_y
 _atom_site_fract_z
 _atom_site_occupancy
  U  U0  1  0.225767  0.861452  0.597813  1
  U  U1  1  0.274233  0.402187  0.138548  1
  U  U2  1  0.765763  0.137806  0.401383  1
  U  U3  1  0.734237  0.598617  0.862194  1
  Fe  Fe4  1  0.750000  0.000258  0.999742  1
  Si  Si5  1  0.137371  0.048417  0.252082  1
  Si  Si6  1  0.362629  0.747918  0.951583  1
  Si  Si7  1  0.836369  0.951612  0.746908  1
  Si  Si8  1  0.663631  0.253092  0.048388  1
  Si  Si9  1  0.250000  0.223869  0.776131  1
  Si  Si10  1  0.750000  0.779797  0.220203  1
  Si  Si11  1  0.250000  0.499308  0.500692  1
  Si  Si12  1  0.750000  0.499437  0.500563  1
  Si  Si13  1  0.250000  0.776582  0.223418  1
  Si  Si14  1  0.750000  0.220287  0.779713  1
  Ir  Ir15  1  0.384633  0.241940  0.524854  1
  Ir  Ir16  1  0.115367  0.475146  0.758060  1
  Ir  Ir17  1  0.616946  0.756812  0.474906  1
  Ir  Ir18  1  0.883054  0.525094  0.243188  1
  Ir  Ir19  1  0.250000  0.000369  0.999631  1
