# generated using pymatgen
data_Y13Er3MgAg2HgPd4
_symmetry_space_group_name_H-M   'P 1'
_cell_length_a   9.70307488
_cell_length_b   9.72311693
_cell_length_c   9.72311600
_cell_angle_alpha   60.00000315
_cell_angle_beta   59.93165225
_cell_angle_gamma   59.93165293
_symmetry_Int_Tables_number   1
_chemical_formula_structural   Y13Er3MgAg2HgPd4
_chemical_formula_sum   'Y13 Er3 Mg1 Ag2 Hg1 Pd4'
_cell_volume   647.97155400
_cell_formula_units_Z   1
loop_
 _symmetry_equiv_pos_site_id
 _symmetry_equiv_pos_as_xyz
  1  'x, y, z'
loop_
 _atom_site_type_symbol
 _atom_site_label
 _atom_site_symmetry_multiplicity
 _atom_site_fract_x
 _atom_site_fract_y
 _atom_site_fract_z
 _atom_site_occupancy
  Y  Y0  1  0.923829  0.358566  0.358802  1
  Y  Y1  1  0.809076  0.189989  0.190022  1
  Y  Y2  1  0.186454  0.812443  0.812323  1
  Y  Y3  1  0.186454  0.812443  0.188779  1
  Y  Y4  1  0.809076  0.189989  0.810913  1
  Y  Y5  1  0.186497  0.188852  0.812325  1
  Y  Y6  1  0.809308  0.811234  0.189729  1
  Y  Y7  1  0.933051  0.566298  0.566193  1
  Y  Y8  1  0.565012  0.934085  0.935186  1
  Y  Y9  1  0.565012  0.934085  0.565717  1
  Y  Y10  1  0.933051  0.566298  0.934458  1
  Y  Y11  1  0.565203  0.566110  0.934343  1
  Y  Y12  1  0.933568  0.934276  0.566078  1
  Er  Er13  1  0.356186  0.352210  0.352446  1
  Er  Er14  1  0.356186  0.352210  0.939160  1
  Er  Er15  1  0.355919  0.939418  0.352332  1
  Mg  Mg16  1  0.280777  0.573285  0.572969  1
  Ag  Ag17  1  0.581780  0.589088  0.588631  1
  Ag  Ag18  1  0.581780  0.589088  0.240500  1
  Hg  Hg19  1  0.582356  0.239986  0.588829  1
  Pd  Pd20  1  0.145580  0.146016  0.146352  1
  Pd  Pd21  1  0.145580  0.146016  0.562052  1
  Pd  Pd22  1  0.145174  0.562281  0.146272  1
  Pd  Pd23  1  0.563083  0.145737  0.145589  1
