# generated using pymatgen
data_Rb6GdLuF12
_symmetry_space_group_name_H-M   'P 1'
_cell_length_a   6.85990598
_cell_length_b   6.61787907
_cell_length_c   11.50017900
_cell_angle_alpha   55.26956120
_cell_angle_beta   89.92437018
_cell_angle_gamma   90.02447731
_symmetry_Int_Tables_number   1
_chemical_formula_structural   Rb6GdLuF12
_chemical_formula_sum   'Rb6 Gd1 Lu1 F12'
_cell_volume   429.07066919
_cell_formula_units_Z   1
loop_
 _symmetry_equiv_pos_site_id
 _symmetry_equiv_pos_as_xyz
  1  'x, y, z'
loop_
 _atom_site_type_symbol
 _atom_site_label
 _atom_site_symmetry_multiplicity
 _atom_site_fract_x
 _atom_site_fract_y
 _atom_site_fract_z
 _atom_site_occupancy
  Rb  Rb0  1  0.500000  0.500000  0.000000  1
  Rb  Rb1  1  0.000000  0.500000  0.500000  1
  Rb  Rb2  1  0.050135  0.737266  0.747946  1
  Rb  Rb3  1  0.949865  0.262734  0.252054  1
  Rb  Rb4  1  0.548532  0.271603  0.741384  1
  Rb  Rb5  1  0.451468  0.728397  0.258616  1
  Gd  Gd6  1  0.000000  0.000000  0.000000  1
  Lu  Lu7  1  0.500000  0.000000  0.500000  1
  F  F8  1  0.756100  0.776235  0.561307  1
  F  F9  1  0.243900  0.223765  0.438693  1
  F  F10  1  0.268205  0.234177  0.930877  1
  F  F11  1  0.731795  0.765823  0.069123  1
  F  F12  1  0.451792  0.888530  0.712185  1
  F  F13  1  0.548208  0.111470  0.287815  1
  F  F14  1  0.946498  0.113432  0.778863  1
  F  F15  1  0.053502  0.886568  0.221137  1
  F  F16  1  0.329175  0.694460  0.543358  1
  F  F17  1  0.670825  0.305540  0.456642  1
  F  F18  1  0.827406  0.324749  0.951172  1
  F  F19  1  0.172594  0.675251  0.048828  1
