# generated using pymatgen
data_HfU(TaS2)8
_symmetry_space_group_name_H-M   'P 1'
_cell_length_a   6.66902700
_cell_length_b   6.66902569
_cell_length_c   13.51501300
_cell_angle_alpha   90.00000000
_cell_angle_beta   90.00000000
_cell_angle_gamma   120.00001145
_symmetry_Int_Tables_number   1
_chemical_formula_structural   HfU(TaS2)8
_chemical_formula_sum   'Hf1 U1 Ta8 S16'
_cell_volume   520.56134456
_cell_formula_units_Z   1
loop_
 _symmetry_equiv_pos_site_id
 _symmetry_equiv_pos_as_xyz
  1  'x, y, z'
loop_
 _atom_site_type_symbol
 _atom_site_label
 _atom_site_symmetry_multiplicity
 _atom_site_fract_x
 _atom_site_fract_y
 _atom_site_fract_z
 _atom_site_occupancy
  Hf  Hf0  1  0.000000  0.000000  0.500000  1
  U  U1  1  0.000000  0.000000  0.000000  1
  Ta  Ta2  1  0.505042  0.494958  0.738408  1
  Ta  Ta3  1  0.010082  0.505042  0.261592  1
  Ta  Ta4  1  0.494958  0.989918  0.261592  1
  Ta  Ta5  1  0.505042  0.010082  0.738408  1
  Ta  Ta6  1  0.989918  0.494958  0.738408  1
  Ta  Ta7  1  0.494958  0.505042  0.261592  1
  Ta  Ta8  1  0.000000  0.000000  0.738811  1
  Ta  Ta9  1  0.000000  0.000000  0.261189  1
  S  S10  1  0.831835  0.168165  0.378874  1
  S  S11  1  0.831835  0.663670  0.378874  1
  S  S12  1  0.336330  0.168165  0.378874  1
  S  S13  1  0.663498  0.831749  0.854559  1
  S  S14  1  0.168165  0.336330  0.621126  1
  S  S15  1  0.168251  0.831749  0.854559  1
  S  S16  1  0.168251  0.336502  0.854559  1
  S  S17  1  0.831749  0.168251  0.145441  1
  S  S18  1  0.336502  0.168251  0.145441  1
  S  S19  1  0.663670  0.831835  0.621126  1
  S  S20  1  0.333333  0.666667  0.142089  1
  S  S21  1  0.666667  0.333333  0.620026  1
  S  S22  1  0.666667  0.333333  0.857911  1
  S  S23  1  0.333333  0.666667  0.379974  1
  S  S24  1  0.831749  0.663498  0.145441  1
  S  S25  1  0.168165  0.831835  0.621126  1
