# generated using pymatgen
data_Dy4Er3Lu3(In2Pt)4
_symmetry_space_group_name_H-M   'P 1'
_cell_length_a   3.60942000
_cell_length_b   8.12386157
_cell_length_c   18.11409538
_cell_angle_alpha   89.83273109
_cell_angle_beta   90.00000000
_cell_angle_gamma   90.00000000
_symmetry_Int_Tables_number   1
_chemical_formula_structural   Dy4Er3Lu3(In2Pt)4
_chemical_formula_sum   'Dy4 Er3 Lu3 In8 Pt4'
_cell_volume   531.14700217
_cell_formula_units_Z   1
loop_
 _symmetry_equiv_pos_site_id
 _symmetry_equiv_pos_as_xyz
  1  'x, y, z'
loop_
 _atom_site_type_symbol
 _atom_site_label
 _atom_site_symmetry_multiplicity
 _atom_site_fract_x
 _atom_site_fract_y
 _atom_site_fract_z
 _atom_site_occupancy
  Dy  Dy0  1  0.000000  0.257454  0.719113  1
  Dy  Dy1  1  0.000000  0.742080  0.281115  1
  Dy  Dy2  1  0.000000  0.999564  0.999570  1
  Dy  Dy3  1  0.000000  0.500198  0.500155  1
  Er  Er4  1  0.000000  0.617143  0.084869  1
  Er  Er5  1  0.000000  0.243320  0.220166  1
  Er  Er6  1  0.000000  0.757595  0.780128  1
  Lu  Lu7  1  0.000000  0.116954  0.414224  1
  Lu  Lu8  1  0.000000  0.883126  0.585987  1
  Lu  Lu9  1  0.000000  0.383233  0.913766  1
  In  In10  1  0.500000  0.420160  0.351605  1
  In  In11  1  0.500000  0.579555  0.648995  1
  In  In12  1  0.500000  0.078818  0.850894  1
  In  In13  1  0.500000  0.923469  0.149585  1
  In  In14  1  0.500000  0.293680  0.065047  1
  In  In15  1  0.500000  0.704451  0.933428  1
  In  In16  1  0.500000  0.202964  0.564643  1
  In  In17  1  0.500000  0.797246  0.435549  1
  Pt  Pt18  1  0.500000  0.027170  0.305150  1
  Pt  Pt19  1  0.500000  0.972959  0.695038  1
  Pt  Pt20  1  0.500000  0.473927  0.804643  1
  Pt  Pt21  1  0.500000  0.524935  0.196327  1
