# generated using pymatgen
data_YPa3(Co5P3)4
_symmetry_space_group_name_H-M   'P 1'
_cell_length_a   3.68997800
_cell_length_b   10.35758960
_cell_length_c   11.70120183
_cell_angle_alpha   90.06382635
_cell_angle_beta   90.00000000
_cell_angle_gamma   90.00000000
_symmetry_Int_Tables_number   1
_chemical_formula_structural   YPa3(Co5P3)4
_chemical_formula_sum   'Y1 Pa3 Co20 P12'
_cell_volume   447.21120507
_cell_formula_units_Z   1
loop_
 _symmetry_equiv_pos_site_id
 _symmetry_equiv_pos_as_xyz
  1  'x, y, z'
loop_
 _atom_site_type_symbol
 _atom_site_label
 _atom_site_symmetry_multiplicity
 _atom_site_fract_x
 _atom_site_fract_y
 _atom_site_fract_z
 _atom_site_occupancy
  Y  Y0  1  0.250000  0.583788  0.701626  1
  Pa  Pa1  1  0.250000  0.917680  0.201992  1
  Pa  Pa2  1  0.750000  0.083757  0.798358  1
  Pa  Pa3  1  0.750000  0.416001  0.297083  1
  Co  Co4  1  0.250000  0.784081  0.493484  1
  Co  Co5  1  0.750000  0.216749  0.510018  1
  Co  Co6  1  0.750000  0.286033  0.010383  1
  Co  Co7  1  0.250000  0.717160  0.995138  1
  Co  Co8  1  0.250000  0.092028  0.979550  1
  Co  Co9  1  0.750000  0.909490  0.019399  1
  Co  Co10  1  0.750000  0.592177  0.511340  1
  Co  Co11  1  0.250000  0.407003  0.481024  1
  Co  Co12  1  0.250000  0.279874  0.676023  1
  Co  Co13  1  0.750000  0.720376  0.321201  1
  Co  Co14  1  0.750000  0.780820  0.824604  1
  Co  Co15  1  0.250000  0.219469  0.177899  1
  Co  Co16  1  0.250000  0.613266  0.199696  1
  Co  Co17  1  0.750000  0.382603  0.801318  1
  Co  Co18  1  0.750000  0.115488  0.301011  1
  Co  Co19  1  0.250000  0.886253  0.700031  1
  Co  Co20  1  0.250000  0.027095  0.430527  1
  Co  Co21  1  0.750000  0.969633  0.570589  1
  Co  Co22  1  0.750000  0.528573  0.069649  1
  Co  Co23  1  0.250000  0.472828  0.930727  1
  P  P24  1  0.250000  0.084237  0.610559  1
  P  P25  1  0.750000  0.915564  0.389457  1
  P  P26  1  0.750000  0.583101  0.887089  1
  P  P27  1  0.250000  0.413926  0.108459  1
  P  P28  1  0.250000  0.223018  0.371843  1
  P  P29  1  0.750000  0.771930  0.630442  1
  P  P30  1  0.750000  0.723235  0.128878  1
  P  P31  1  0.250000  0.278322  0.870089  1
  P  P32  1  0.250000  0.892729  0.891761  1
  P  P33  1  0.750000  0.107437  0.107816  1
  P  P34  1  0.750000  0.398471  0.608460  1
  P  P35  1  0.250000  0.605806  0.392474  1
