# generated using pymatgen
data_TbNdY2(Sn5Rh3)2
_symmetry_space_group_name_H-M   'P 1'
_cell_length_a   13.51616559
_cell_length_b   13.51616437
_cell_length_c   7.28001614
_cell_angle_alpha   89.98945734
_cell_angle_beta   90.01054628
_cell_angle_gamma   161.01089364
_symmetry_Int_Tables_number   1
_chemical_formula_structural   TbNdY2(Sn5Rh3)2
_chemical_formula_sum   'Tb1 Nd1 Y2 Sn10 Rh6'
_cell_volume   432.75424734
_cell_formula_units_Z   1
loop_
 _symmetry_equiv_pos_site_id
 _symmetry_equiv_pos_as_xyz
  1  'x, y, z'
loop_
 _atom_site_type_symbol
 _atom_site_label
 _atom_site_symmetry_multiplicity
 _atom_site_fract_x
 _atom_site_fract_y
 _atom_site_fract_z
 _atom_site_occupancy
  Tb  Tb0  1  0.523154  0.476846  0.237152  1
  Nd  Nd1  1  0.172595  0.827405  0.753924  1
  Y  Y2  1  0.828595  0.171405  0.254703  1
  Y  Y3  1  0.476190  0.523810  0.738361  1
  Sn  Sn4  1  0.880834  0.119166  0.730286  1
  Sn  Sn5  1  0.119415  0.880585  0.231899  1
  Sn  Sn6  1  0.704709  0.295291  0.050803  1
  Sn  Sn7  1  0.295731  0.704269  0.548319  1
  Sn  Sn8  1  0.595388  0.404612  0.612192  1
  Sn  Sn9  1  0.403394  0.596606  0.112534  1
  Sn  Sn10  1  0.952262  0.047738  0.400338  1
  Sn  Sn11  1  0.047079  0.952921  0.899407  1
  Sn  Sn12  1  0.291016  0.708984  0.978212  1
  Sn  Sn13  1  0.710120  0.289880  0.474886  1
  Rh  Rh14  1  0.050091  0.949909  0.517994  1
  Rh  Rh15  1  0.949337  0.050663  0.019376  1
  Rh  Rh16  1  0.777952  0.222048  0.764125  1
  Rh  Rh17  1  0.223074  0.776926  0.264106  1
  Rh  Rh18  1  0.394008  0.605992  0.482284  1
  Rh  Rh19  1  0.605055  0.394945  0.985100  1
