# generated using pymatgen
data_Tb8CdHgIrPt
_symmetry_space_group_name_H-M   'P 1'
_cell_length_a   9.67279341
_cell_length_b   9.67279382
_cell_length_c   9.65049300
_cell_angle_alpha   60.07623332
_cell_angle_beta   60.07623190
_cell_angle_gamma   60.19339259
_symmetry_Int_Tables_number   1
_chemical_formula_structural   Tb8CdHgIrPt
_chemical_formula_sum   'Tb16 Cd2 Hg2 Ir2 Pt2'
_cell_volume   640.13267929
_cell_formula_units_Z   2
loop_
 _symmetry_equiv_pos_site_id
 _symmetry_equiv_pos_as_xyz
  1  'x, y, z'
loop_
 _atom_site_type_symbol
 _atom_site_label
 _atom_site_symmetry_multiplicity
 _atom_site_fract_x
 _atom_site_fract_y
 _atom_site_fract_z
 _atom_site_occupancy
  Tb  Tb0  1  0.601693  0.601693  0.596613  1
  Tb  Tb1  1  0.601693  0.601693  0.200003  1
  Tb  Tb2  1  0.608225  0.189400  0.601187  1
  Tb  Tb3  1  0.189400  0.608225  0.601187  1
  Tb  Tb4  1  0.056844  0.439291  0.441323  1
  Tb  Tb5  1  0.439291  0.056844  0.062541  1
  Tb  Tb6  1  0.439291  0.056844  0.441323  1
  Tb  Tb7  1  0.056844  0.439291  0.062541  1
  Tb  Tb8  1  0.440460  0.440460  0.059540  1
  Tb  Tb9  1  0.060457  0.060457  0.439543  1
  Tb  Tb10  1  0.187384  0.813692  0.812050  1
  Tb  Tb11  1  0.813692  0.187384  0.186874  1
  Tb  Tb12  1  0.813692  0.187384  0.812050  1
  Tb  Tb13  1  0.187384  0.813692  0.186874  1
  Tb  Tb14  1  0.812670  0.812670  0.187330  1
  Tb  Tb15  1  0.186929  0.186929  0.813071  1
  Cd  Cd16  1  0.829801  0.506720  0.831740  1
  Cd  Cd17  1  0.506720  0.829801  0.831740  1
  Hg  Hg18  1  0.834655  0.834655  0.837000  1
  Hg  Hg19  1  0.834655  0.834655  0.493691  1
  Ir  Ir20  1  0.390777  0.822674  0.393274  1
  Ir  Ir21  1  0.822674  0.390777  0.393274  1
  Pt  Pt22  1  0.392384  0.392384  0.395752  1
  Pt  Pt23  1  0.392384  0.392384  0.819479  1
