# generated using pymatgen
data_SrFe2(CoSb6)2
_symmetry_space_group_name_H-M   'P 1'
_cell_length_a   7.96227563
_cell_length_b   7.94339603
_cell_length_c   7.94339631
_cell_angle_alpha   109.35222801
_cell_angle_beta   109.49135507
_cell_angle_gamma   109.47378297
_symmetry_Int_Tables_number   1
_chemical_formula_structural   SrFe2(CoSb6)2
_chemical_formula_sum   'Sr1 Fe2 Co2 Sb12'
_cell_volume   387.20614969
_cell_formula_units_Z   1
loop_
 _symmetry_equiv_pos_site_id
 _symmetry_equiv_pos_as_xyz
  1  'x, y, z'
loop_
 _atom_site_type_symbol
 _atom_site_label
 _atom_site_symmetry_multiplicity
 _atom_site_fract_x
 _atom_site_fract_y
 _atom_site_fract_z
 _atom_site_occupancy
  Sr  Sr0  1  0.000000  0.000000  0.000000  1
  Fe  Fe1  1  0.000000  0.000000  0.500000  1
  Fe  Fe2  1  0.000000  0.500000  0.000000  1
  Co  Co3  1  0.500000  0.000000  0.000000  1
  Co  Co4  1  0.500000  0.500000  0.500000  1
  Sb  Sb5  1  0.335016  0.174276  0.836149  1
  Sb  Sb6  1  0.664984  0.825724  0.163851  1
  Sb  Sb7  1  0.664984  0.501133  0.839260  1
  Sb  Sb8  1  0.335016  0.498867  0.160740  1
  Sb  Sb9  1  0.172153  0.836738  0.335415  1
  Sb  Sb10  1  0.827847  0.163262  0.664585  1
  Sb  Sb11  1  0.501028  0.838504  0.662523  1
  Sb  Sb12  1  0.498972  0.161496  0.337477  1
  Sb  Sb13  1  0.839106  0.337973  0.174353  1
  Sb  Sb14  1  0.160894  0.662027  0.825647  1
  Sb  Sb15  1  0.839106  0.664753  0.501133  1
  Sb  Sb16  1  0.160894  0.335247  0.498867  1
