# generated using pymatgen
data_Y8Ho3TmIn20
_symmetry_space_group_name_H-M   'P 1'
_cell_length_a   6.51634126
_cell_length_b   10.41670000
_cell_length_c   12.26968000
_cell_angle_alpha   90.00000000
_cell_angle_beta   90.01619603
_cell_angle_gamma   90.00000000
_symmetry_Int_Tables_number   1
_chemical_formula_structural   Y8Ho3TmIn20
_chemical_formula_sum   'Y8 Ho3 Tm1 In20'
_cell_volume   832.85077804
_cell_formula_units_Z   1
loop_
 _symmetry_equiv_pos_site_id
 _symmetry_equiv_pos_as_xyz
  1  'x, y, z'
loop_
 _atom_site_type_symbol
 _atom_site_label
 _atom_site_symmetry_multiplicity
 _atom_site_fract_x
 _atom_site_fract_y
 _atom_site_fract_z
 _atom_site_occupancy
  Y  Y0  1  0.890083  0.492283  0.141864  1
  Y  Y1  1  0.609847  0.007551  0.641994  1
  Y  Y2  1  0.110078  0.992062  0.858306  1
  Y  Y3  1  0.389826  0.507424  0.358125  1
  Y  Y4  1  0.110078  0.507938  0.858306  1
  Y  Y5  1  0.389826  0.992576  0.358125  1
  Y  Y6  1  0.890083  0.007717  0.141864  1
  Y  Y7  1  0.609847  0.492449  0.641994  1
  Ho  Ho8  1  0.350605  0.750000  0.055293  1
  Ho  Ho9  1  0.149445  0.750000  0.555609  1
  Ho  Ho10  1  0.649486  0.250000  0.944565  1
  Tm  Tm11  1  0.850428  0.250000  0.444062  1
  In  In12  1  0.614875  0.750000  0.505072  1
  In  In13  1  0.884671  0.750000  0.005268  1
  In  In14  1  0.385642  0.250000  0.495098  1
  In  In15  1  0.115390  0.250000  0.994432  1
  In  In16  1  0.651831  0.750000  0.244438  1
  In  In17  1  0.848167  0.750000  0.744628  1
  In  In18  1  0.348178  0.250000  0.755561  1
  In  In19  1  0.151680  0.250000  0.255453  1
  In  In20  1  0.124134  0.750000  0.282884  1
  In  In21  1  0.376371  0.750000  0.783023  1
  In  In22  1  0.876057  0.250000  0.717043  1
  In  In23  1  0.624287  0.250000  0.216694  1
  In  In24  1  0.874861  0.543671  0.401184  1
  In  In25  1  0.625152  0.956009  0.901155  1
  In  In26  1  0.124719  0.044068  0.599066  1
  In  In27  1  0.374812  0.456144  0.098744  1
  In  In28  1  0.124719  0.455932  0.599066  1
  In  In29  1  0.374812  0.043856  0.098744  1
  In  In30  1  0.874861  0.956329  0.401184  1
  In  In31  1  0.625152  0.543991  0.901155  1
