# generated using pymatgen
data_KLi6PtO6
_symmetry_space_group_name_H-M   'P 1'
_cell_length_a   5.34396306
_cell_length_b   5.34396263
_cell_length_c   5.34396364
_cell_angle_alpha   101.32915925
_cell_angle_beta   101.32915884
_cell_angle_gamma   101.32916604
_symmetry_Int_Tables_number   1
_chemical_formula_structural   KLi6PtO6
_chemical_formula_sum   'K1 Li6 Pt1 O6'
_cell_volume   142.27110701
_cell_formula_units_Z   1
loop_
 _symmetry_equiv_pos_site_id
 _symmetry_equiv_pos_as_xyz
  1  'x, y, z'
loop_
 _atom_site_type_symbol
 _atom_site_label
 _atom_site_symmetry_multiplicity
 _atom_site_fract_x
 _atom_site_fract_y
 _atom_site_fract_z
 _atom_site_occupancy
  K  K0  1  0.500000  0.500000  0.500000  1
  Li  Li1  1  0.000000  0.338404  0.661596  1
  Li  Li2  1  0.661596  0.000000  0.338404  1
  Li  Li3  1  0.661596  0.338404  0.000000  1
  Li  Li4  1  0.338404  0.000000  0.661596  1
  Li  Li5  1  0.000000  0.661596  0.338404  1
  Li  Li6  1  0.338404  0.661596  0.000000  1
  Pt  Pt7  1  0.000000  0.000000  0.000000  1
  O  O8  1  0.918160  0.275738  0.275738  1
  O  O9  1  0.275738  0.275738  0.918160  1
  O  O10  1  0.081840  0.724262  0.724262  1
  O  O11  1  0.724262  0.724262  0.081840  1
  O  O12  1  0.724262  0.081840  0.724262  1
  O  O13  1  0.275738  0.918160  0.275738  1
