# generated using pymatgen
data_Y2Tm4Lu6Co5Bi
_symmetry_space_group_name_H-M   'P 1'
_cell_length_a   8.19807325
_cell_length_b   8.19807370
_cell_length_c   8.16094826
_cell_angle_alpha   111.00280408
_cell_angle_beta   110.84152279
_cell_angle_gamma   106.80025807
_symmetry_Int_Tables_number   1
_chemical_formula_structural   Y2Tm4Lu6Co5Bi
_chemical_formula_sum   'Y2 Tm4 Lu6 Co5 Bi1'
_cell_volume   420.47709300
_cell_formula_units_Z   1
loop_
 _symmetry_equiv_pos_site_id
 _symmetry_equiv_pos_as_xyz
  1  'x, y, z'
loop_
 _atom_site_type_symbol
 _atom_site_label
 _atom_site_symmetry_multiplicity
 _atom_site_fract_x
 _atom_site_fract_y
 _atom_site_fract_z
 _atom_site_occupancy
  Y  Y0  1  0.285851  0.184682  0.470533  1
  Y  Y1  1  0.714149  0.815318  0.529467  1
  Tm  Tm2  1  0.207742  0.404371  0.193187  1
  Tm  Tm3  1  0.792258  0.595629  0.806813  1
  Tm  Tm4  1  0.211186  0.014556  0.806813  1
  Tm  Tm5  1  0.788814  0.985444  0.193187  1
  Lu  Lu6  1  0.287130  0.816012  0.103141  1
  Lu  Lu7  1  0.712870  0.183988  0.896859  1
  Lu  Lu8  1  0.621929  0.310408  0.309024  1
  Lu  Lu9  1  0.378071  0.689592  0.690976  1
  Lu  Lu10  1  0.001384  0.312907  0.690976  1
  Lu  Lu11  1  0.998616  0.687093  0.309024  1
  Co  Co12  1  0.998870  0.374569  0.373440  1
  Co  Co13  1  0.001130  0.625431  0.626560  1
  Co  Co14  1  0.387591  0.887591  0.500000  1
  Co  Co15  1  0.612409  0.112409  0.500000  1
  Co  Co16  1  0.000000  0.000000  0.000000  1
  Bi  Bi17  1  0.500000  0.500000  0.000000  1
