# generated using pymatgen
data_Ho3Er2Bi2Pt
_symmetry_space_group_name_H-M   'P 1'
_cell_length_a   8.02361800
_cell_length_b   9.01097300
_cell_length_c   12.33905600
_cell_angle_alpha   90.00000000
_cell_angle_beta   90.00000000
_cell_angle_gamma   90.00000000
_symmetry_Int_Tables_number   1
_chemical_formula_structural   Ho3Er2Bi2Pt
_chemical_formula_sum   'Ho12 Er8 Bi8 Pt4'
_cell_volume   892.12121591
_cell_formula_units_Z   4
loop_
 _symmetry_equiv_pos_site_id
 _symmetry_equiv_pos_as_xyz
  1  'x, y, z'
loop_
 _atom_site_type_symbol
 _atom_site_label
 _atom_site_symmetry_multiplicity
 _atom_site_fract_x
 _atom_site_fract_y
 _atom_site_fract_z
 _atom_site_occupancy
  Ho  Ho0  1  0.165470  0.750000  0.210687  1
  Ho  Ho1  1  0.334530  0.750000  0.710687  1
  Ho  Ho2  1  0.834530  0.250000  0.789313  1
  Ho  Ho3  1  0.665470  0.250000  0.289313  1
  Ho  Ho4  1  0.452257  0.750000  0.999928  1
  Ho  Ho5  1  0.047743  0.750000  0.499928  1
  Ho  Ho6  1  0.547743  0.250000  0.000072  1
  Ho  Ho7  1  0.952257  0.250000  0.500072  1
  Ho  Ho8  1  0.627875  0.750000  0.303425  1
  Ho  Ho9  1  0.872125  0.750000  0.803425  1
  Ho  Ho10  1  0.372125  0.250000  0.696575  1
  Ho  Ho11  1  0.127875  0.250000  0.196575  1
  Er  Er12  1  0.822905  0.548271  0.066331  1
  Er  Er13  1  0.677095  0.951729  0.566331  1
  Er  Er14  1  0.177095  0.048271  0.933669  1
  Er  Er15  1  0.322905  0.451729  0.433669  1
  Er  Er16  1  0.177095  0.451729  0.933669  1
  Er  Er17  1  0.322905  0.048271  0.433669  1
  Er  Er18  1  0.822905  0.951729  0.066331  1
  Er  Er19  1  0.677095  0.548271  0.566331  1
  Bi  Bi20  1  0.932636  0.509582  0.326930  1
  Bi  Bi21  1  0.567364  0.990418  0.826930  1
  Bi  Bi22  1  0.067364  0.009582  0.673070  1
  Bi  Bi23  1  0.432636  0.490418  0.173070  1
  Bi  Bi24  1  0.067364  0.490418  0.673070  1
  Bi  Bi25  1  0.432636  0.009582  0.173070  1
  Bi  Bi26  1  0.932636  0.990418  0.326930  1
  Bi  Bi27  1  0.567364  0.509582  0.826930  1
  Pt  Pt28  1  0.418911  0.750000  0.487620  1
  Pt  Pt29  1  0.081089  0.750000  0.987620  1
  Pt  Pt30  1  0.581089  0.250000  0.512380  1
  Pt  Pt31  1  0.918911  0.250000  0.012380  1
