# generated using pymatgen
data_YBi7(Ru2O11)2
_symmetry_space_group_name_H-M   'P 1'
_cell_length_a   6.57531145
_cell_length_b   7.56580406
_cell_length_c   9.95053300
_cell_angle_alpha   101.01243277
_cell_angle_beta   91.35086472
_cell_angle_gamma   90.03594147
_symmetry_Int_Tables_number   1
_chemical_formula_structural   YBi7(Ru2O11)2
_chemical_formula_sum   'Y1 Bi7 Ru4 O22'
_cell_volume   485.75732277
_cell_formula_units_Z   1
loop_
 _symmetry_equiv_pos_site_id
 _symmetry_equiv_pos_as_xyz
  1  'x, y, z'
loop_
 _atom_site_type_symbol
 _atom_site_label
 _atom_site_symmetry_multiplicity
 _atom_site_fract_x
 _atom_site_fract_y
 _atom_site_fract_z
 _atom_site_occupancy
  Y  Y0  1  0.749811  0.367272  0.477230  1
  Bi  Bi1  1  0.242748  0.625750  0.517912  1
  Bi  Bi2  1  0.756421  0.871724  0.486441  1
  Bi  Bi3  1  0.244890  0.128605  0.515131  1
  Bi  Bi4  1  0.476224  0.954521  0.819615  1
  Bi  Bi5  1  0.524508  0.047167  0.181284  1
  Bi  Bi6  1  0.404268  0.453773  0.824143  1
  Bi  Bi7  1  0.601946  0.545484  0.174826  1
  Ru  Ru8  1  0.934343  0.702600  0.811069  1
  Ru  Ru9  1  0.064287  0.295919  0.187576  1
  Ru  Ru10  1  0.932581  0.204824  0.812016  1
  Ru  Ru11  1  0.066915  0.795903  0.186300  1
  O  O12  1  0.226855  0.723374  0.764222  1
  O  O13  1  0.769373  0.277469  0.236228  1
  O  O14  1  0.637032  0.675535  0.832612  1
  O  O15  1  0.360184  0.327146  0.170999  1
  O  O16  1  0.636966  0.243813  0.846119  1
  O  O17  1  0.361604  0.756120  0.157218  1
  O  O18  1  0.887023  0.182715  0.609188  1
  O  O19  1  0.109751  0.828321  0.390495  1
  O  O20  1  0.225293  0.159337  0.762159  1
  O  O21  1  0.772697  0.841386  0.236853  1
  O  O22  1  0.901400  0.627132  0.604354  1
  O  O23  1  0.089599  0.361812  0.396206  1
  O  O24  1  0.006523  0.543691  0.176795  1
  O  O25  1  0.990190  0.457474  0.826849  1
  O  O26  1  0.996282  0.782481  0.999498  1
  O  O27  1  0.002687  0.217685  0.999765  1
  O  O28  1  0.586252  0.600586  0.394677  1
  O  O29  1  0.437237  0.392699  0.604636  1
  O  O30  1  0.152871  0.053424  0.215341  1
  O  O31  1  0.846182  0.946009  0.780900  1
  O  O32  1  0.547931  0.102480  0.400325  1
  O  O33  1  0.457130  0.905772  0.601016  1
