# generated using pymatgen
data_Tm6Zr8Al8Os7
_symmetry_space_group_name_H-M   'P 1'
_cell_length_a   9.29032299
_cell_length_b   9.29032381
_cell_length_c   9.29032400
_cell_angle_alpha   60.00000646
_cell_angle_beta   60.00000351
_cell_angle_gamma   60.00000118
_symmetry_Int_Tables_number   1
_chemical_formula_structural   Tm6Zr8Al8Os7
_chemical_formula_sum   'Tm6 Zr8 Al8 Os7'
_cell_volume   566.99282540
_cell_formula_units_Z   1
loop_
 _symmetry_equiv_pos_site_id
 _symmetry_equiv_pos_as_xyz
  1  'x, y, z'
loop_
 _atom_site_type_symbol
 _atom_site_label
 _atom_site_symmetry_multiplicity
 _atom_site_fract_x
 _atom_site_fract_y
 _atom_site_fract_z
 _atom_site_occupancy
  Tm  Tm0  1  0.695131  0.695131  0.304869  1
  Tm  Tm1  1  0.304869  0.695131  0.304869  1
  Tm  Tm2  1  0.695131  0.304869  0.304869  1
  Tm  Tm3  1  0.304869  0.304869  0.695131  1
  Tm  Tm4  1  0.695131  0.304869  0.695131  1
  Tm  Tm5  1  0.304869  0.695131  0.695131  1
  Zr  Zr6  1  0.876991  0.876991  0.369027  1
  Zr  Zr7  1  0.876991  0.369027  0.876991  1
  Zr  Zr8  1  0.369027  0.876991  0.876991  1
  Zr  Zr9  1  0.876991  0.876991  0.876991  1
  Zr  Zr10  1  0.123009  0.123009  0.630973  1
  Zr  Zr11  1  0.123009  0.630973  0.123009  1
  Zr  Zr12  1  0.630973  0.123009  0.123009  1
  Zr  Zr13  1  0.123009  0.123009  0.123009  1
  Al  Al14  1  0.665430  0.665430  0.003711  1
  Al  Al15  1  0.665430  0.003711  0.665430  1
  Al  Al16  1  0.003711  0.665430  0.665430  1
  Al  Al17  1  0.665430  0.665430  0.665430  1
  Al  Al18  1  0.334570  0.334570  0.996289  1
  Al  Al19  1  0.334570  0.996289  0.334570  1
  Al  Al20  1  0.996289  0.334570  0.334570  1
  Al  Al21  1  0.334570  0.334570  0.334570  1
  Os  Os22  1  0.000000  0.000000  0.000000  1
  Os  Os23  1  0.000000  0.000000  0.500000  1
  Os  Os24  1  0.500000  0.000000  0.500000  1
  Os  Os25  1  0.000000  0.500000  0.500000  1
  Os  Os26  1  0.500000  0.500000  0.000000  1
  Os  Os27  1  0.000000  0.500000  0.000000  1
  Os  Os28  1  0.500000  0.000000  0.000000  1
