# generated using pymatgen
data_PrDy2Tm2Bi3
_symmetry_space_group_name_H-M   'P 1'
_cell_length_a   8.32089400
_cell_length_b   9.51637400
_cell_length_c   12.18256400
_cell_angle_alpha   90.00000000
_cell_angle_beta   90.00000000
_cell_angle_gamma   90.00000000
_symmetry_Int_Tables_number   1
_chemical_formula_structural   PrDy2Tm2Bi3
_chemical_formula_sum   'Pr4 Dy8 Tm8 Bi12'
_cell_volume   964.67315457
_cell_formula_units_Z   4
loop_
 _symmetry_equiv_pos_site_id
 _symmetry_equiv_pos_as_xyz
  1  'x, y, z'
loop_
 _atom_site_type_symbol
 _atom_site_label
 _atom_site_symmetry_multiplicity
 _atom_site_fract_x
 _atom_site_fract_y
 _atom_site_fract_z
 _atom_site_occupancy
  Pr  Pr0  1  0.182786  0.749861  0.719801  1
  Pr  Pr1  1  0.682786  0.750139  0.780199  1
  Pr  Pr2  1  0.817214  0.249861  0.280199  1
  Pr  Pr3  1  0.317214  0.250139  0.219801  1
  Dy  Dy4  1  0.692459  0.562048  0.061217  1
  Dy  Dy5  1  0.192459  0.937952  0.438783  1
  Dy  Dy6  1  0.307541  0.062048  0.938783  1
  Dy  Dy7  1  0.807541  0.437952  0.561217  1
  Dy  Dy8  1  0.352773  0.750160  0.218008  1
  Dy  Dy9  1  0.852773  0.749840  0.281992  1
  Dy  Dy10  1  0.647227  0.250160  0.781992  1
  Dy  Dy11  1  0.147227  0.249840  0.718008  1
  Tm  Tm12  1  0.023039  0.749822  0.988015  1
  Tm  Tm13  1  0.523039  0.750178  0.511985  1
  Tm  Tm14  1  0.976961  0.249822  0.011985  1
  Tm  Tm15  1  0.476961  0.250178  0.488015  1
  Tm  Tm16  1  0.308449  0.432691  0.939390  1
  Tm  Tm17  1  0.808449  0.067309  0.560610  1
  Tm  Tm18  1  0.691551  0.932691  0.060610  1
  Tm  Tm19  1  0.191551  0.567309  0.439390  1
  Bi  Bi20  1  0.434430  0.008978  0.669967  1
  Bi  Bi21  1  0.934430  0.491022  0.830033  1
  Bi  Bi22  1  0.565570  0.508978  0.330033  1
  Bi  Bi23  1  0.065570  0.991022  0.169967  1
  Bi  Bi24  1  0.566415  0.990930  0.330340  1
  Bi  Bi25  1  0.066415  0.509070  0.169660  1
  Bi  Bi26  1  0.433585  0.490930  0.669660  1
  Bi  Bi27  1  0.933585  0.009070  0.830340  1
  Bi  Bi28  1  0.404624  0.746402  0.963473  1
  Bi  Bi29  1  0.904624  0.753598  0.536527  1
  Bi  Bi30  1  0.595376  0.246402  0.036527  1
  Bi  Bi31  1  0.095376  0.253598  0.463473  1
