# generated using pymatgen
data_Cs3InBi2
_symmetry_space_group_name_H-M   'P 1'
_cell_length_a   10.43292856
_cell_length_b   10.43292928
_cell_length_c   10.43292844
_cell_angle_alpha   126.42254982
_cell_angle_beta   72.57279703
_cell_angle_gamma   134.89083052
_symmetry_Int_Tables_number   1
_chemical_formula_structural   Cs3InBi2
_chemical_formula_sum   'Cs6 In2 Bi4'
_cell_volume   632.96163562
_cell_formula_units_Z   2
loop_
 _symmetry_equiv_pos_site_id
 _symmetry_equiv_pos_as_xyz
  1  'x, y, z'
loop_
 _atom_site_type_symbol
 _atom_site_label
 _atom_site_symmetry_multiplicity
 _atom_site_fract_x
 _atom_site_fract_y
 _atom_site_fract_z
 _atom_site_occupancy
  Cs  Cs0  1  0.327177  0.697445  0.024623  1
  Cs  Cs1  1  0.172823  0.197446  0.370268  1
  Cs  Cs2  1  0.750000  0.250000  0.500000  1
  Cs  Cs3  1  0.250000  0.749999  0.500000  1
  Cs  Cs4  1  0.827177  0.802553  0.629732  1
  Cs  Cs5  1  0.672822  0.302554  0.975376  1
  In  In6  1  0.250000  0.250000  0.000000  1
  In  In7  1  0.750001  0.750001  0.000000  1
  Bi  Bi8  1  0.905858  0.182739  0.088597  1
  Bi  Bi9  1  0.594141  0.682738  0.276880  1
  Bi  Bi10  1  0.405859  0.317261  0.723120  1
  Bi  Bi11  1  0.094142  0.817261  0.911403  1
