# generated using pymatgen
data_TbGdInGa2
_symmetry_space_group_name_H-M   'P 1'
_cell_length_a   7.36395700
_cell_length_b   7.36395686
_cell_length_c   4.49144600
_cell_angle_alpha   90.00000000
_cell_angle_beta   90.00000000
_cell_angle_gamma   89.04036191
_symmetry_Int_Tables_number   1
_chemical_formula_structural   TbGdInGa2
_chemical_formula_sum   'Tb2 Gd2 In2 Ga4'
_cell_volume   243.52735072
_cell_formula_units_Z   2
loop_
 _symmetry_equiv_pos_site_id
 _symmetry_equiv_pos_as_xyz
  1  'x, y, z'
loop_
 _atom_site_type_symbol
 _atom_site_label
 _atom_site_symmetry_multiplicity
 _atom_site_fract_x
 _atom_site_fract_y
 _atom_site_fract_z
 _atom_site_occupancy
  Tb  Tb0  1  0.172137  0.327863  0.500000  1
  Tb  Tb1  1  0.827863  0.672137  0.500000  1
  Gd  Gd2  1  0.327634  0.827634  0.500000  1
  Gd  Gd3  1  0.672366  0.172366  0.500000  1
  In  In4  1  0.000000  0.000000  0.000000  1
  In  In5  1  0.500000  0.500000  0.000000  1
  Ga  Ga6  1  0.626173  0.873827  0.000000  1
  Ga  Ga7  1  0.373827  0.126173  0.000000  1
  Ga  Ga8  1  0.875096  0.375096  0.000000  1
  Ga  Ga9  1  0.124904  0.624904  0.000000  1
