# generated using pymatgen
data_TmSc2(Ni10P3)2
_symmetry_space_group_name_H-M   'P 1'
_cell_length_a   7.88834014
_cell_length_b   7.88834041
_cell_length_c   7.88834000
_cell_angle_alpha   60.00000171
_cell_angle_beta   60.00000060
_cell_angle_gamma   59.99999908
_symmetry_Int_Tables_number   1
_chemical_formula_structural   TmSc2(Ni10P3)2
_chemical_formula_sum   'Tm1 Sc2 Ni20 P6'
_cell_volume   347.08983938
_cell_formula_units_Z   1
loop_
 _symmetry_equiv_pos_site_id
 _symmetry_equiv_pos_as_xyz
  1  'x, y, z'
loop_
 _atom_site_type_symbol
 _atom_site_label
 _atom_site_symmetry_multiplicity
 _atom_site_fract_x
 _atom_site_fract_y
 _atom_site_fract_z
 _atom_site_occupancy
  Tm  Tm0  1  0.750000  0.750000  0.750000  1
  Sc  Sc1  1  0.250000  0.250000  0.250000  1
  Sc  Sc2  1  0.000000  0.000000  0.000000  1
  Ni  Ni3  1  0.383790  0.383790  0.848629  1
  Ni  Ni4  1  0.612130  0.612130  0.612130  1
  Ni  Ni5  1  0.001780  0.348956  0.001780  1
  Ni  Ni6  1  0.348956  0.001780  0.001780  1
  Ni  Ni7  1  0.001780  0.348956  0.647484  1
  Ni  Ni8  1  0.848629  0.383790  0.383790  1
  Ni  Ni9  1  0.348956  0.001780  0.647484  1
  Ni  Ni10  1  0.001780  0.001780  0.348956  1
  Ni  Ni11  1  0.647484  0.348956  0.001780  1
  Ni  Ni12  1  0.001780  0.647484  0.348956  1
  Ni  Ni13  1  0.001780  0.001780  0.647484  1
  Ni  Ni14  1  0.348956  0.647484  0.001780  1
  Ni  Ni15  1  0.647484  0.001780  0.001780  1
  Ni  Ni16  1  0.001780  0.647484  0.001780  1
  Ni  Ni17  1  0.383790  0.848629  0.383790  1
  Ni  Ni18  1  0.612130  0.612130  0.163610  1
  Ni  Ni19  1  0.612130  0.163610  0.612130  1
  Ni  Ni20  1  0.163610  0.612130  0.612130  1
  Ni  Ni21  1  0.383790  0.383790  0.383790  1
  Ni  Ni22  1  0.647484  0.001780  0.348956  1
  P  P23  1  0.738512  0.261488  0.738512  1
  P  P24  1  0.261488  0.738512  0.261488  1
  P  P25  1  0.261488  0.738512  0.738512  1
  P  P26  1  0.261488  0.261488  0.738512  1
  P  P27  1  0.738512  0.738512  0.261488  1
  P  P28  1  0.738512  0.261488  0.261488  1
