# generated using pymatgen
data_Ca2La8Si5Sn
_symmetry_space_group_name_H-M   'P 1'
_cell_length_a   9.21029068
_cell_length_b   9.21029046
_cell_length_c   9.21028963
_cell_angle_alpha   128.82621871
_cell_angle_beta   128.82622481
_cell_angle_gamma   75.29034854
_symmetry_Int_Tables_number   1
_chemical_formula_structural   Ca2La8Si5Sn
_chemical_formula_sum   'Ca2 La8 Si5 Sn1'
_cell_volume   461.55656774
_cell_formula_units_Z   1
loop_
 _symmetry_equiv_pos_site_id
 _symmetry_equiv_pos_as_xyz
  1  'x, y, z'
loop_
 _atom_site_type_symbol
 _atom_site_label
 _atom_site_symmetry_multiplicity
 _atom_site_fract_x
 _atom_site_fract_y
 _atom_site_fract_z
 _atom_site_occupancy
  Ca  Ca0  1  0.989935  0.989935  0.000000  1
  Ca  Ca1  1  0.510065  0.510065  0.000000  1
  La  La2  1  0.828763  0.313149  0.855876  1
  La  La3  1  0.186851  0.671237  0.144124  1
  La  La4  1  0.457274  0.972887  0.144124  1
  La  La5  1  0.313149  0.457274  0.484386  1
  La  La6  1  0.042726  0.186851  0.515614  1
  La  La7  1  0.527113  0.042726  0.855876  1
  La  La8  1  0.671237  0.527113  0.484386  1
  La  La9  1  0.972887  0.828763  0.515614  1
  Si  Si10  1  0.113041  0.613041  0.726083  1
  Si  Si11  1  0.886959  0.386959  0.273917  1
  Si  Si12  1  0.613041  0.886959  0.500000  1
  Si  Si13  1  0.386959  0.113041  0.500000  1
  Si  Si14  1  0.250000  0.250000  0.000000  1
  Sn  Sn15  1  0.750000  0.750000  0.000000  1
