# generated using pymatgen
data_CaLaMgRuO6
_symmetry_space_group_name_H-M   'P 1'
_cell_length_a   5.67664700
_cell_length_b   5.52565039
_cell_length_c   9.61743338
_cell_angle_alpha   54.86663272
_cell_angle_beta   90.00000000
_cell_angle_gamma   90.00000000
_symmetry_Int_Tables_number   1
_chemical_formula_structural   CaLaMgRuO6
_chemical_formula_sum   'Ca2 La2 Mg2 Ru2 O12'
_cell_volume   246.71150265
_cell_formula_units_Z   2
loop_
 _symmetry_equiv_pos_site_id
 _symmetry_equiv_pos_as_xyz
  1  'x, y, z'
loop_
 _atom_site_type_symbol
 _atom_site_label
 _atom_site_symmetry_multiplicity
 _atom_site_fract_x
 _atom_site_fract_y
 _atom_site_fract_z
 _atom_site_occupancy
  Ca  Ca0  1  0.553653  0.764025  0.748215  1
  Ca  Ca1  1  0.053653  0.235975  0.751785  1
  La  La2  1  0.951014  0.762027  0.249051  1
  La  La3  1  0.451014  0.237973  0.250949  1
  Mg  Mg4  1  0.498651  0.007030  0.992496  1
  Mg  Mg5  1  0.998651  0.992970  0.507504  1
  Ru  Ru6  1  0.999454  0.509034  0.992102  1
  Ru  Ru7  1  0.499454  0.490966  0.507898  1
  O  O8  1  0.701145  0.831758  0.455063  1
  O  O9  1  0.201145  0.168242  0.044937  1
  O  O10  1  0.303568  0.165410  0.544302  1
  O  O11  1  0.803568  0.834590  0.955698  1
  O  O12  1  0.788000  0.259189  0.548422  1
  O  O13  1  0.288000  0.740811  0.951578  1
  O  O14  1  0.215368  0.749537  0.450980  1
  O  O15  1  0.715368  0.250463  0.049020  1
  O  O16  1  0.521422  0.661606  0.255176  1
  O  O17  1  0.021422  0.338394  0.244824  1
  O  O18  1  0.467724  0.351849  0.742480  1
  O  O19  1  0.967724  0.648151  0.757520  1
