# generated using pymatgen
data_Eu4SiP4
_symmetry_space_group_name_H-M   'P 1'
_cell_length_a   12.17862800
_cell_length_b   12.17862800
_cell_length_c   12.17862800
_cell_angle_alpha   90.00000000
_cell_angle_beta   90.00000000
_cell_angle_gamma   90.00000000
_symmetry_Int_Tables_number   1
_chemical_formula_structural   Eu4SiP4
_chemical_formula_sum   'Eu32 Si8 P32'
_cell_volume   1806.32168230
_cell_formula_units_Z   8
loop_
 _symmetry_equiv_pos_site_id
 _symmetry_equiv_pos_as_xyz
  1  'x, y, z'
loop_
 _atom_site_type_symbol
 _atom_site_label
 _atom_site_symmetry_multiplicity
 _atom_site_fract_x
 _atom_site_fract_y
 _atom_site_fract_z
 _atom_site_occupancy
  Eu  Eu0  1  0.354998  0.354998  0.354998  1
  Eu  Eu1  1  0.645002  0.645002  0.354998  1
  Eu  Eu2  1  0.645002  0.354998  0.645002  1
  Eu  Eu3  1  0.854998  0.854998  0.854998  1
  Eu  Eu4  1  0.354998  0.645002  0.645002  1
  Eu  Eu5  1  0.145002  0.145002  0.854998  1
  Eu  Eu6  1  0.854998  0.145002  0.145002  1
  Eu  Eu7  1  0.145002  0.854998  0.145002  1
  Eu  Eu8  1  0.097564  0.132496  0.356119  1
  Eu  Eu9  1  0.902436  0.867504  0.356119  1
  Eu  Eu10  1  0.902436  0.132496  0.643881  1
  Eu  Eu11  1  0.356119  0.097564  0.132496  1
  Eu  Eu12  1  0.632496  0.597564  0.856119  1
  Eu  Eu13  1  0.097564  0.867504  0.643881  1
  Eu  Eu14  1  0.356119  0.902436  0.867504  1
  Eu  Eu15  1  0.367504  0.402436  0.856119  1
  Eu  Eu16  1  0.643881  0.902436  0.132496  1
  Eu  Eu17  1  0.632496  0.402436  0.143881  1
  Eu  Eu18  1  0.643881  0.097564  0.867504  1
  Eu  Eu19  1  0.367504  0.597564  0.143881  1
  Eu  Eu20  1  0.132496  0.356119  0.097564  1
  Eu  Eu21  1  0.597564  0.856119  0.632496  1
  Eu  Eu22  1  0.132496  0.643881  0.902436  1
  Eu  Eu23  1  0.402436  0.143881  0.632496  1
  Eu  Eu24  1  0.867504  0.643881  0.097564  1
  Eu  Eu25  1  0.597564  0.143881  0.367504  1
  Eu  Eu26  1  0.867504  0.356119  0.902436  1
  Eu  Eu27  1  0.402436  0.856119  0.367504  1
  Eu  Eu28  1  0.856119  0.632496  0.597564  1
  Eu  Eu29  1  0.856119  0.367504  0.402436  1
  Eu  Eu30  1  0.143881  0.367504  0.597564  1
  Eu  Eu31  1  0.143881  0.632496  0.402436  1
  Si  Si32  1  0.250000  0.000000  0.500000  1
  Si  Si33  1  0.750000  0.000000  0.500000  1
  Si  Si34  1  0.500000  0.250000  0.000000  1
  Si  Si35  1  0.500000  0.750000  0.000000  1
  Si  Si36  1  0.000000  0.500000  0.250000  1
  Si  Si37  1  0.000000  0.500000  0.750000  1
  Si  Si38  1  0.000000  0.000000  0.000000  1
  Si  Si39  1  0.500000  0.500000  0.500000  1
  P  P40  1  0.107245  0.382550  0.353208  1
  P  P41  1  0.892755  0.617450  0.353208  1
  P  P42  1  0.892755  0.382550  0.646792  1
  P  P43  1  0.353208  0.107245  0.382550  1
  P  P44  1  0.882550  0.607245  0.853208  1
  P  P45  1  0.107245  0.617450  0.646792  1
  P  P46  1  0.353208  0.892755  0.617450  1
  P  P47  1  0.117450  0.392755  0.853208  1
  P  P48  1  0.646792  0.892755  0.382550  1
  P  P49  1  0.882550  0.392755  0.146792  1
  P  P50  1  0.646792  0.107245  0.617450  1
  P  P51  1  0.117450  0.607245  0.146792  1
  P  P52  1  0.382550  0.353208  0.107245  1
  P  P53  1  0.607245  0.853208  0.882550  1
  P  P54  1  0.382550  0.646792  0.892755  1
  P  P55  1  0.392755  0.146792  0.882550  1
  P  P56  1  0.617450  0.646792  0.107245  1
  P  P57  1  0.607245  0.146792  0.117450  1
  P  P58  1  0.617450  0.353208  0.892755  1
  P  P59  1  0.392755  0.853208  0.117450  1
  P  P60  1  0.853208  0.882550  0.607245  1
  P  P61  1  0.853208  0.117450  0.392755  1
  P  P62  1  0.146792  0.117450  0.607245  1
  P  P63  1  0.146792  0.882550  0.392755  1
  P  P64  1  0.108774  0.108774  0.108774  1
  P  P65  1  0.891226  0.891226  0.108774  1
  P  P66  1  0.891226  0.108774  0.891226  1
  P  P67  1  0.608774  0.608774  0.608774  1
  P  P68  1  0.108774  0.891226  0.891226  1
  P  P69  1  0.391226  0.391226  0.608774  1
  P  P70  1  0.608774  0.391226  0.391226  1
  P  P71  1  0.391226  0.608774  0.391226  1
