# generated using pymatgen
data_DyY2Sc3(SnPt)6
_symmetry_space_group_name_H-M   'P 1'
_cell_length_a   7.55685804
_cell_length_b   7.56156008
_cell_length_c   7.61144700
_cell_angle_alpha   90.00000000
_cell_angle_beta   90.00000000
_cell_angle_gamma   119.99060614
_symmetry_Int_Tables_number   1
_chemical_formula_structural   DyY2Sc3(SnPt)6
_chemical_formula_sum   'Dy1 Y2 Sc3 Sn6 Pt6'
_cell_volume   376.69654079
_cell_formula_units_Z   1
loop_
 _symmetry_equiv_pos_site_id
 _symmetry_equiv_pos_as_xyz
  1  'x, y, z'
loop_
 _atom_site_type_symbol
 _atom_site_label
 _atom_site_symmetry_multiplicity
 _atom_site_fract_x
 _atom_site_fract_y
 _atom_site_fract_z
 _atom_site_occupancy
  Dy  Dy0  1  0.401231  0.999240  0.750000  1
  Y  Y1  1  0.598197  0.599527  0.750000  1
  Y  Y2  1  0.002865  0.402590  0.750000  1
  Sc  Sc3  1  0.390929  0.001530  0.250000  1
  Sc  Sc4  1  0.609913  0.608607  0.250000  1
  Sc  Sc5  1  0.997983  0.389651  0.250000  1
  Sn  Sn6  1  0.268862  0.270068  0.009371  1
  Sn  Sn7  1  0.000792  0.730887  0.009045  1
  Sn  Sn8  1  0.000792  0.730887  0.490955  1
  Sn  Sn9  1  0.730333  0.999120  0.491575  1
  Sn  Sn10  1  0.268862  0.270068  0.490629  1
  Sn  Sn11  1  0.730333  0.999120  0.008425  1
  Pt  Pt12  1  0.001981  0.999943  0.750000  1
  Pt  Pt13  1  0.999498  0.999758  0.250000  1
  Pt  Pt14  1  0.665757  0.332458  0.031284  1
  Pt  Pt15  1  0.332958  0.667044  0.461756  1
  Pt  Pt16  1  0.332958  0.667044  0.038244  1
  Pt  Pt17  1  0.665757  0.332458  0.468716  1
