# generated using pymatgen
data_TbY9(InSb)3
_symmetry_space_group_name_H-M   'P 1'
_cell_length_a   6.55825400
_cell_length_b   8.99359945
_cell_length_c   8.99160001
_cell_angle_alpha   120.00309802
_cell_angle_beta   89.99774673
_cell_angle_gamma   90.00257431
_symmetry_Int_Tables_number   1
_chemical_formula_structural   TbY9(InSb)3
_chemical_formula_sum   'Tb1 Y9 In3 Sb3'
_cell_volume   459.27819416
_cell_formula_units_Z   1
loop_
 _symmetry_equiv_pos_site_id
 _symmetry_equiv_pos_as_xyz
  1  'x, y, z'
loop_
 _atom_site_type_symbol
 _atom_site_label
 _atom_site_symmetry_multiplicity
 _atom_site_fract_x
 _atom_site_fract_y
 _atom_site_fract_z
 _atom_site_occupancy
  Tb  Tb0  1  0.501792  0.333316  0.666632  1
  Y  Y1  1  0.501731  0.666669  0.333344  1
  Y  Y2  1  0.998297  0.666672  0.333370  1
  Y  Y3  1  0.998358  0.333308  0.666627  1
  Y  Y4  1  0.750014  0.239399  0.000202  1
  Y  Y5  1  0.749971  0.760842  0.760688  1
  Y  Y6  1  0.749982  0.999826  0.239157  1
  Y  Y7  1  0.249942  0.760507  0.999940  1
  Y  Y8  1  0.249937  0.239368  0.239473  1
  Y  Y9  1  0.249925  0.999932  0.760515  1
  In  In10  1  0.750213  0.606180  0.000183  1
  In  In11  1  0.750118  0.394108  0.393876  1
  In  In12  1  0.750167  0.999842  0.605927  1
  Sb  Sb13  1  0.249824  0.394510  0.000385  1
  Sb  Sb14  1  0.249874  0.605851  0.605512  1
  Sb  Sb15  1  0.249857  0.999671  0.394169  1
