# generated using pymatgen
data_RbY6(CBr6)2
_symmetry_space_group_name_H-M   'P 1'
_cell_length_a   8.94443137
_cell_length_b   8.92694504
_cell_length_c   9.44476416
_cell_angle_alpha   72.12148682
_cell_angle_beta   70.93482539
_cell_angle_gamma   72.77358873
_symmetry_Int_Tables_number   1
_chemical_formula_structural   RbY6(CBr6)2
_chemical_formula_sum   'Rb1 Y6 C2 Br12'
_cell_volume   662.06786274
_cell_formula_units_Z   1
loop_
 _symmetry_equiv_pos_site_id
 _symmetry_equiv_pos_as_xyz
  1  'x, y, z'
loop_
 _atom_site_type_symbol
 _atom_site_label
 _atom_site_symmetry_multiplicity
 _atom_site_fract_x
 _atom_site_fract_y
 _atom_site_fract_z
 _atom_site_occupancy
  Rb  Rb0  1  0.000000  0.500000  0.999998  1
  Y  Y1  1  0.475265  0.116594  0.182865  1
  Y  Y2  1  0.776828  0.032604  0.406755  1
  Y  Y3  1  0.592969  0.726191  0.477036  1
  Y  Y4  1  0.407031  0.273809  0.522964  1
  Y  Y5  1  0.223172  0.967396  0.593244  1
  Y  Y6  1  0.524734  0.883406  0.817135  1
  C  C7  1  0.493021  0.026020  0.422737  1
  C  C8  1  0.506980  0.973980  0.577263  1
  Br  Br9  1  0.798245  0.159361  0.082910  1
  Br  Br10  1  0.584332  0.787391  0.137610  1
  Br  Br11  1  0.351164  0.432637  0.223407  1
  Br  Br12  1  0.135066  0.069330  0.297934  1
  Br  Br13  1  0.920799  0.722431  0.355045  1
  Br  Br14  1  0.710856  0.364379  0.431711  1
  Br  Br15  1  0.289144  0.635620  0.568289  1
  Br  Br16  1  0.079201  0.277569  0.644955  1
  Br  Br17  1  0.864935  0.930669  0.702066  1
  Br  Br18  1  0.648836  0.567362  0.776593  1
  Br  Br19  1  0.415670  0.212609  0.862392  1
  Br  Br20  1  0.201755  0.840638  0.917090  1
