# generated using pymatgen
data_SmTh2In3RuRh2
_symmetry_space_group_name_H-M   'P 1'
_cell_length_a   7.47787186
_cell_length_b   7.77687410
_cell_length_c   4.01144600
_cell_angle_alpha   90.00000000
_cell_angle_beta   90.00000000
_cell_angle_gamma   118.94498179
_symmetry_Int_Tables_number   1
_chemical_formula_structural   SmTh2In3RuRh2
_chemical_formula_sum   'Sm1 Th2 In3 Ru1 Rh2'
_cell_volume   204.14286184
_cell_formula_units_Z   1
loop_
 _symmetry_equiv_pos_site_id
 _symmetry_equiv_pos_as_xyz
  1  'x, y, z'
loop_
 _atom_site_type_symbol
 _atom_site_label
 _atom_site_symmetry_multiplicity
 _atom_site_fract_x
 _atom_site_fract_y
 _atom_site_fract_z
 _atom_site_occupancy
  Sm  Sm0  1  0.405840  0.996408  0.500000  1
  Th  Th1  1  0.006545  0.420131  0.500000  1
  Th  Th2  1  0.581405  0.587297  0.500000  1
  In  In3  1  0.250825  0.237792  0.000000  1
  In  In4  1  0.012176  0.762287  0.000000  1
  In  In5  1  0.735925  0.000740  0.000000  1
  Ru  Ru6  1  0.328673  0.636192  0.000000  1
  Rh  Rh7  1  0.987277  0.999447  0.500000  1
  Rh  Rh8  1  0.691333  0.359706  0.000000  1
