# generated using pymatgen
data_Na3FeSeS(O4F)2
_symmetry_space_group_name_H-M   'P 1'
_cell_length_a   6.73968800
_cell_length_b   8.94933400
_cell_length_c   14.24180400
_cell_angle_alpha   90.00000000
_cell_angle_beta   90.00000000
_cell_angle_gamma   90.00000000
_symmetry_Int_Tables_number   1
_chemical_formula_structural   Na3FeSeS(O4F)2
_chemical_formula_sum   'Na12 Fe4 Se4 S4 O32 F8'
_cell_volume   859.00464766
_cell_formula_units_Z   4
loop_
 _symmetry_equiv_pos_site_id
 _symmetry_equiv_pos_as_xyz
  1  'x, y, z'
loop_
 _atom_site_type_symbol
 _atom_site_label
 _atom_site_symmetry_multiplicity
 _atom_site_fract_x
 _atom_site_fract_y
 _atom_site_fract_z
 _atom_site_occupancy
  Na  Na0  1  0.525095  0.676060  0.913259  1
  Na  Na1  1  0.025095  0.823940  0.586741  1
  Na  Na2  1  0.474905  0.176060  0.586741  1
  Na  Na3  1  0.974905  0.323940  0.913259  1
  Na  Na4  1  0.481614  0.331825  0.107275  1
  Na  Na5  1  0.981614  0.168175  0.392725  1
  Na  Na6  1  0.518386  0.831825  0.392725  1
  Na  Na7  1  0.018386  0.668175  0.107275  1
  Na  Na8  1  0.750000  0.000000  0.049562  1
  Na  Na9  1  0.250000  0.500000  0.450438  1
  Na  Na10  1  0.250000  0.000000  0.959074  1
  Na  Na11  1  0.750000  0.500000  0.540926  1
  Fe  Fe12  1  0.750000  0.000000  0.806977  1
  Fe  Fe13  1  0.250000  0.500000  0.693023  1
  Fe  Fe14  1  0.250000  0.000000  0.196133  1
  Fe  Fe15  1  0.750000  0.500000  0.303867  1
  Se  Se16  1  0.998175  0.685875  0.862707  1
  Se  Se17  1  0.498175  0.814125  0.637293  1
  Se  Se18  1  0.001825  0.185875  0.637293  1
  Se  Se19  1  0.501825  0.314125  0.862707  1
  S  S20  1  0.000681  0.305082  0.145422  1
  S  S21  1  0.500681  0.194918  0.354578  1
  S  S22  1  0.999319  0.805082  0.354578  1
  S  S23  1  0.499319  0.694918  0.145422  1
  O  O24  1  0.455621  0.469817  0.798470  1
  O  O25  1  0.955621  0.030183  0.701530  1
  O  O26  1  0.544379  0.969817  0.701530  1
  O  O27  1  0.044379  0.530183  0.798470  1
  O  O28  1  0.549265  0.556676  0.202031  1
  O  O29  1  0.049265  0.943324  0.297969  1
  O  O30  1  0.450735  0.056676  0.297969  1
  O  O31  1  0.950735  0.443324  0.202031  1
  O  O32  1  0.203009  0.775405  0.889638  1
  O  O33  1  0.703009  0.724595  0.610362  1
  O  O34  1  0.796991  0.275405  0.610362  1
  O  O35  1  0.296991  0.224595  0.889638  1
  O  O36  1  0.819120  0.230121  0.114671  1
  O  O37  1  0.319120  0.269879  0.385329  1
  O  O38  1  0.180880  0.730121  0.385329  1
  O  O39  1  0.680880  0.769879  0.114671  1
  O  O40  1  0.874784  0.629946  0.956810  1
  O  O41  1  0.374784  0.870054  0.543190  1
  O  O42  1  0.125216  0.129946  0.543190  1
  O  O43  1  0.625216  0.370054  0.956810  1
  O  O44  1  0.126705  0.353605  0.066674  1
  O  O45  1  0.626705  0.146395  0.433326  1
  O  O46  1  0.873295  0.853605  0.433326  1
  O  O47  1  0.373295  0.646395  0.066674  1
  O  O48  1  0.340567  0.712521  0.704278  1
  O  O49  1  0.840567  0.787479  0.795722  1
  O  O50  1  0.659433  0.212521  0.795722  1
  O  O51  1  0.159433  0.287479  0.704278  1
  O  O52  1  0.619656  0.294932  0.289978  1
  O  O53  1  0.119656  0.205068  0.210022  1
  O  O54  1  0.380344  0.794932  0.210022  1
  O  O55  1  0.880344  0.705068  0.289978  1
  F  F56  1  0.570933  0.939772  0.908198  1
  F  F57  1  0.070933  0.560228  0.591802  1
  F  F58  1  0.429067  0.439772  0.591802  1
  F  F59  1  0.929067  0.060228  0.908198  1
  F  F60  1  0.424598  0.071987  0.098110  1
  F  F61  1  0.924598  0.428013  0.401890  1
  F  F62  1  0.575402  0.571987  0.401890  1
  F  F63  1  0.075402  0.928013  0.098110  1
