# generated using pymatgen
data_Gd4Hf3InPt4
_symmetry_space_group_name_H-M   'P 1'
_cell_length_a   4.59209300
_cell_length_b   7.13584676
_cell_length_c   8.25780000
_cell_angle_alpha   86.77445647
_cell_angle_beta   90.00000000
_cell_angle_gamma   90.00000000
_symmetry_Int_Tables_number   1
_chemical_formula_structural   Gd4Hf3InPt4
_chemical_formula_sum   'Gd4 Hf3 In1 Pt4'
_cell_volume   270.16680460
_cell_formula_units_Z   1
loop_
 _symmetry_equiv_pos_site_id
 _symmetry_equiv_pos_as_xyz
  1  'x, y, z'
loop_
 _atom_site_type_symbol
 _atom_site_label
 _atom_site_symmetry_multiplicity
 _atom_site_fract_x
 _atom_site_fract_y
 _atom_site_fract_z
 _atom_site_occupancy
  Gd  Gd0  1  0.250000  0.471235  0.186039  1
  Gd  Gd1  1  0.750000  0.520295  0.818414  1
  Gd  Gd2  1  0.750000  0.034075  0.670297  1
  Gd  Gd3  1  0.250000  0.987885  0.331213  1
  Hf  Hf4  1  0.250000  0.854954  0.924520  1
  Hf  Hf5  1  0.750000  0.133255  0.070011  1
  Hf  Hf6  1  0.750000  0.643490  0.434403  1
  In  In7  1  0.250000  0.353611  0.574226  1
  Pt  Pt8  1  0.250000  0.742047  0.610076  1
  Pt  Pt9  1  0.750000  0.269348  0.369629  1
  Pt  Pt10  1  0.750000  0.765447  0.102995  1
  Pt  Pt11  1  0.250000  0.224359  0.908175  1
