# generated using pymatgen
data_Ho6Tm2Sc12Si15Ag
_symmetry_space_group_name_H-M   'P 1'
_cell_length_a   7.10385606
_cell_length_b   7.34943264
_cell_length_c   14.02503320
_cell_angle_alpha   89.84656820
_cell_angle_beta   89.56013130
_cell_angle_gamma   90.19087285
_symmetry_Int_Tables_number   1
_chemical_formula_structural   Ho6Tm2Sc12Si15Ag
_chemical_formula_sum   'Ho6 Tm2 Sc12 Si15 Ag1'
_cell_volume   732.20901065
_cell_formula_units_Z   1
loop_
 _symmetry_equiv_pos_site_id
 _symmetry_equiv_pos_as_xyz
  1  'x, y, z'
loop_
 _atom_site_type_symbol
 _atom_site_label
 _atom_site_symmetry_multiplicity
 _atom_site_fract_x
 _atom_site_fract_y
 _atom_site_fract_z
 _atom_site_occupancy
  Ho  Ho0  1  0.011831  0.175542  0.097548  1
  Ho  Ho1  1  0.988157  0.825806  0.904136  1
  Ho  Ho2  1  0.487650  0.677335  0.904201  1
  Ho  Ho3  1  0.989569  0.830474  0.597511  1
  Ho  Ho4  1  0.511768  0.323238  0.096149  1
  Ho  Ho5  1  0.008055  0.171820  0.398967  1
  Tm  Tm6  1  0.510941  0.321984  0.400329  1
  Tm  Tm7  1  0.494640  0.678938  0.599793  1
  Sc  Sc8  1  0.163923  0.502283  0.752984  1
  Sc  Sc9  1  0.836913  0.498068  0.251136  1
  Sc  Sc10  1  0.337021  0.000370  0.249027  1
  Sc  Sc11  1  0.665583  0.995952  0.751168  1
  Sc  Sc12  1  0.342926  0.173756  0.626789  1
  Sc  Sc13  1  0.663429  0.823018  0.373645  1
  Sc  Sc14  1  0.166528  0.674795  0.371687  1
  Sc  Sc15  1  0.669151  0.824289  0.124880  1
  Sc  Sc16  1  0.826805  0.325914  0.625372  1
  Sc  Sc17  1  0.329204  0.175231  0.876150  1
  Sc  Sc18  1  0.830884  0.322898  0.875896  1
  Sc  Sc19  1  0.168802  0.676184  0.125315  1
  Si  Si20  1  0.036815  0.120141  0.750023  1
  Si  Si21  1  0.964579  0.884359  0.248593  1
  Si  Si22  1  0.466366  0.613199  0.248204  1
  Si  Si23  1  0.534680  0.387653  0.752230  1
  Si  Si24  1  0.286338  0.872659  0.750779  1
  Si  Si25  1  0.711611  0.128755  0.248599  1
  Si  Si26  1  0.214333  0.369330  0.248591  1
  Si  Si27  1  0.788407  0.629032  0.752357  1
  Si  Si28  1  0.832854  0.536827  0.459365  1
  Si  Si29  1  0.336048  0.961916  0.461032  1
  Si  Si30  1  0.842857  0.535106  0.039139  1
  Si  Si31  1  0.660780  0.035972  0.537624  1
  Si  Si32  1  0.156242  0.464762  0.961998  1
  Si  Si33  1  0.658185  0.034841  0.960770  1
  Si  Si34  1  0.341759  0.964706  0.039918  1
  Ag  Ag35  1  0.164362  0.462843  0.538096  1
