# generated using pymatgen
data_Er4Ge2As4Ir7
_symmetry_space_group_name_H-M   'P 1'
_cell_length_a   7.26659325
_cell_length_b   7.26659366
_cell_length_c   7.27197501
_cell_angle_alpha   109.35874855
_cell_angle_beta   109.35875132
_cell_angle_gamma   109.66652270
_symmetry_Int_Tables_number   1
_chemical_formula_structural   Er4Ge2As4Ir7
_chemical_formula_sum   'Er4 Ge2 As4 Ir7'
_cell_volume   295.69762504
_cell_formula_units_Z   1
loop_
 _symmetry_equiv_pos_site_id
 _symmetry_equiv_pos_as_xyz
  1  'x, y, z'
loop_
 _atom_site_type_symbol
 _atom_site_label
 _atom_site_symmetry_multiplicity
 _atom_site_fract_x
 _atom_site_fract_y
 _atom_site_fract_z
 _atom_site_occupancy
  Er  Er0  1  0.999707  0.999707  0.500458  1
  Er  Er1  1  0.999710  0.499710  0.999421  1
  Er  Er2  1  0.499710  0.999710  0.999421  1
  Er  Er3  1  0.500751  0.500751  0.500458  1
  Ge  Ge4  1  0.682904  0.998919  0.681823  1
  Ge  Ge5  1  0.998919  0.682904  0.681823  1
  As  As6  1  0.681810  0.681810  0.998413  1
  As  As7  1  0.321192  0.999206  0.320399  1
  As  As8  1  0.999206  0.321192  0.320399  1
  As  As9  1  0.316603  0.316603  0.998413  1
  Ir  Ir10  1  0.751052  0.251052  0.502103  1
  Ir  Ir11  1  0.749087  0.501018  0.250104  1
  Ir  Ir12  1  0.501202  0.249965  0.751167  1
  Ir  Ir13  1  0.249965  0.501202  0.751167  1
  Ir  Ir14  1  0.251052  0.751052  0.502103  1
  Ir  Ir15  1  0.501018  0.749087  0.250104  1
  Ir  Ir16  1  0.996112  0.996112  0.992224  1
