# generated using pymatgen
data_Cs2Li6TbDy3S10
_symmetry_space_group_name_H-M   'P 1'
_cell_length_a   4.03324700
_cell_length_b   7.63392928
_cell_length_c   16.91861526
_cell_angle_alpha   89.98067799
_cell_angle_beta   90.00000000
_cell_angle_gamma   74.68260210
_symmetry_Int_Tables_number   1
_chemical_formula_structural   Cs2Li6TbDy3S10
_chemical_formula_sum   'Cs2 Li6 Tb1 Dy3 S10'
_cell_volume   502.41168000
_cell_formula_units_Z   1
loop_
 _symmetry_equiv_pos_site_id
 _symmetry_equiv_pos_as_xyz
  1  'x, y, z'
loop_
 _atom_site_type_symbol
 _atom_site_label
 _atom_site_symmetry_multiplicity
 _atom_site_fract_x
 _atom_site_fract_y
 _atom_site_fract_z
 _atom_site_occupancy
  Cs  Cs0  1  0.931299  0.137401  0.250040  1
  Cs  Cs1  1  0.068700  0.862600  0.749971  1
  Li  Li2  1  0.420197  0.159606  0.042032  1
  Li  Li3  1  0.644247  0.711506  0.250113  1
  Li  Li4  1  0.420157  0.159686  0.457925  1
  Li  Li5  1  0.579839  0.840319  0.542083  1
  Li  Li6  1  0.355711  0.288578  0.750000  1
  Li  Li7  1  0.579777  0.840443  0.957856  1
  Tb  Tb8  1  0.194808  0.610384  0.094259  1
  Dy  Dy9  1  0.194746  0.610508  0.405925  1
  Dy  Dy10  1  0.805236  0.389529  0.594228  1
  Dy  Dy11  1  0.805302  0.389397  0.905645  1
  S  S12  1  0.824621  0.350757  0.067217  1
  S  S13  1  0.570018  0.859961  0.109132  1
  S  S14  1  0.230789  0.538420  0.250486  1
  S  S15  1  0.570788  0.858421  0.390950  1
  S  S16  1  0.824028  0.351944  0.432634  1
  S  S17  1  0.175988  0.648025  0.567409  1
  S  S18  1  0.429204  0.141591  0.609026  1
  S  S19  1  0.769396  0.461207  0.750005  1
  S  S20  1  0.429207  0.141586  0.890972  1
  S  S21  1  0.175936  0.648127  0.932093  1
