# generated using pymatgen
data_DyLu3(ZnIn)4
_symmetry_space_group_name_H-M   'P 1'
_cell_length_a   4.62943100
_cell_length_b   7.99621905
_cell_length_c   7.16003500
_cell_angle_alpha   89.99333622
_cell_angle_beta   90.00000000
_cell_angle_gamma   90.00000000
_symmetry_Int_Tables_number   1
_chemical_formula_structural   DyLu3(ZnIn)4
_chemical_formula_sum   'Dy1 Lu3 Zn4 In4'
_cell_volume   265.04977554
_cell_formula_units_Z   1
loop_
 _symmetry_equiv_pos_site_id
 _symmetry_equiv_pos_as_xyz
  1  'x, y, z'
loop_
 _atom_site_type_symbol
 _atom_site_label
 _atom_site_symmetry_multiplicity
 _atom_site_fract_x
 _atom_site_fract_y
 _atom_site_fract_z
 _atom_site_occupancy
  Dy  Dy0  1  0.750000  0.752822  0.009827  1
  Lu  Lu1  1  0.250000  0.251691  0.511533  1
  Lu  Lu2  1  0.250000  0.247548  0.011107  1
  Lu  Lu3  1  0.750000  0.748154  0.509848  1
  Zn  Zn4  1  0.250000  0.917687  0.212428  1
  Zn  Zn5  1  0.250000  0.582557  0.703959  1
  Zn  Zn6  1  0.750000  0.083522  0.702065  1
  Zn  Zn7  1  0.750000  0.416160  0.201876  1
  In  In8  1  0.250000  0.917669  0.779610  1
  In  In9  1  0.250000  0.581849  0.284182  1
  In  In10  1  0.750000  0.085092  0.287629  1
  In  In11  1  0.750000  0.415248  0.785934  1
