# generated using pymatgen
data_LiTm8B24Ir2Rh
_symmetry_space_group_name_H-M   'P 1'
_cell_length_a   3.61598500
_cell_length_b   9.09917649
_cell_length_c   11.43929509
_cell_angle_alpha   90.20391982
_cell_angle_beta   90.00000000
_cell_angle_gamma   90.00000000
_symmetry_Int_Tables_number   1
_chemical_formula_structural   LiTm8B24Ir2Rh
_chemical_formula_sum   'Li1 Tm8 B24 Ir2 Rh1'
_cell_volume   376.37885947
_cell_formula_units_Z   1
loop_
 _symmetry_equiv_pos_site_id
 _symmetry_equiv_pos_as_xyz
  1  'x, y, z'
loop_
 _atom_site_type_symbol
 _atom_site_label
 _atom_site_symmetry_multiplicity
 _atom_site_fract_x
 _atom_site_fract_y
 _atom_site_fract_z
 _atom_site_occupancy
  Li  Li0  1  0.500000  0.361921  0.677606  1
  Tm  Tm1  1  0.500000  0.324338  0.417955  1
  Tm  Tm2  1  0.500000  0.673343  0.586584  1
  Tm  Tm3  1  0.500000  0.179343  0.911828  1
  Tm  Tm4  1  0.500000  0.821170  0.086175  1
  Tm  Tm5  1  0.500000  0.444522  0.127275  1
  Tm  Tm6  1  0.500000  0.553009  0.870157  1
  Tm  Tm7  1  0.500000  0.059873  0.627384  1
  Tm  Tm8  1  0.500000  0.942965  0.374491  1
  B  B9  1  0.000000  0.110226  0.470613  1
  B  B10  1  0.000000  0.891749  0.530338  1
  B  B11  1  0.000000  0.391461  0.969649  1
  B  B12  1  0.000000  0.605806  0.028268  1
  B  B13  1  0.000000  0.132697  0.316809  1
  B  B14  1  0.000000  0.868242  0.684893  1
  B  B15  1  0.000000  0.365383  0.816557  1
  B  B16  1  0.000000  0.633832  0.182635  1
  B  B17  1  0.000000  0.053478  0.065578  1
  B  B18  1  0.000000  0.945837  0.933828  1
  B  B19  1  0.000000  0.447910  0.566096  1
  B  B20  1  0.000000  0.551737  0.436457  1
  B  B21  1  0.000000  0.482918  0.288315  1
  B  B22  1  0.000000  0.518031  0.711528  1
  B  B23  1  0.000000  0.020091  0.787048  1
  B  B24  1  0.000000  0.981643  0.213510  1
  B  B25  1  0.000000  0.249420  0.078764  1
  B  B26  1  0.000000  0.748398  0.919552  1
  B  B27  1  0.000000  0.252454  0.579777  1
  B  B28  1  0.000000  0.747842  0.421624  1
  B  B29  1  0.000000  0.294056  0.235537  1
  B  B30  1  0.000000  0.704583  0.763905  1
  B  B31  1  0.000000  0.206051  0.737166  1
  B  B32  1  0.000000  0.794334  0.263412  1
  Ir  Ir33  1  0.500000  0.138718  0.178421  1
  Ir  Ir34  1  0.500000  0.861556  0.823075  1
  Rh  Rh35  1  0.500000  0.641064  0.317190  1
