# generated using pymatgen
data_RbGe6(Sb3Pt2)2
_symmetry_space_group_name_H-M   'P 1'
_cell_length_a   7.94155214
_cell_length_b   7.95173731
_cell_length_c   7.94155295
_cell_angle_alpha   109.46083856
_cell_angle_beta   109.50427397
_cell_angle_gamma   109.39671706
_symmetry_Int_Tables_number   1
_chemical_formula_structural   RbGe6(Sb3Pt2)2
_chemical_formula_sum   'Rb1 Ge6 Sb6 Pt4'
_cell_volume   386.30307917
_cell_formula_units_Z   1
loop_
 _symmetry_equiv_pos_site_id
 _symmetry_equiv_pos_as_xyz
  1  'x, y, z'
loop_
 _atom_site_type_symbol
 _atom_site_label
 _atom_site_symmetry_multiplicity
 _atom_site_fract_x
 _atom_site_fract_y
 _atom_site_fract_z
 _atom_site_occupancy
  Rb  Rb0  1  0.006864  0.000874  0.994010  1
  Ge  Ge1  1  0.147513  0.342004  0.494270  1
  Ge  Ge2  1  0.519057  0.164348  0.361378  1
  Ge  Ge3  1  0.847735  0.342004  0.194491  1
  Ge  Ge4  1  0.635723  0.474427  0.838705  1
  Ge  Ge5  1  0.357354  0.202398  0.845044  1
  Ge  Ge6  1  0.802971  0.164348  0.645292  1
  Sb  Sb7  1  0.840997  0.641858  0.486522  1
  Sb  Sb8  1  0.341552  0.489971  0.148418  1
  Sb  Sb9  1  0.198589  0.857293  0.347524  1
  Sb  Sb10  1  0.155335  0.641858  0.800861  1
  Sb  Sb11  1  0.655600  0.806499  0.150898  1
  Sb  Sb12  1  0.509768  0.857293  0.658704  1
  Pt  Pt13  1  0.006783  0.018571  0.517844  1
  Pt  Pt14  1  0.493353  0.488841  0.508763  1
  Pt  Pt15  1  0.980078  0.488841  0.995487  1
  Pt  Pt16  1  0.500727  0.018571  0.011789  1
