# generated using pymatgen
data_YHo9Cd3Ru
_symmetry_space_group_name_H-M   'P 1'
_cell_length_a   9.55882400
_cell_length_b   9.55882426
_cell_length_c   9.80675700
_cell_angle_alpha   90.00000000
_cell_angle_beta   90.00000000
_cell_angle_gamma   119.99834136
_symmetry_Int_Tables_number   1
_chemical_formula_structural   YHo9Cd3Ru
_chemical_formula_sum   'Y2 Ho18 Cd6 Ru2'
_cell_volume   776.01880743
_cell_formula_units_Z   2
loop_
 _symmetry_equiv_pos_site_id
 _symmetry_equiv_pos_as_xyz
  1  'x, y, z'
loop_
 _atom_site_type_symbol
 _atom_site_label
 _atom_site_symmetry_multiplicity
 _atom_site_fract_x
 _atom_site_fract_y
 _atom_site_fract_z
 _atom_site_occupancy
  Y  Y0  1  0.458852  0.917548  0.750000  1
  Y  Y1  1  0.082452  0.541148  0.750000  1
  Ho  Ho2  1  0.999987  0.000013  0.500050  1
  Ho  Ho3  1  0.999987  0.000013  0.999950  1
  Ho  Ho4  1  0.209668  0.790332  0.439981  1
  Ho  Ho5  1  0.209843  0.419433  0.440127  1
  Ho  Ho6  1  0.580567  0.790157  0.440127  1
  Ho  Ho7  1  0.790255  0.209745  0.559599  1
  Ho  Ho8  1  0.790071  0.580526  0.559698  1
  Ho  Ho9  1  0.419474  0.209929  0.559698  1
  Ho  Ho10  1  0.790255  0.209745  0.940401  1
  Ho  Ho11  1  0.790071  0.580526  0.940302  1
  Ho  Ho12  1  0.419474  0.209929  0.940302  1
  Ho  Ho13  1  0.209668  0.790332  0.060019  1
  Ho  Ho14  1  0.209843  0.419433  0.059873  1
  Ho  Ho15  1  0.580567  0.790157  0.059873  1
  Ho  Ho16  1  0.541220  0.458780  0.250000  1
  Ho  Ho17  1  0.541222  0.082421  0.250000  1
  Ho  Ho18  1  0.917579  0.458778  0.250000  1
  Ho  Ho19  1  0.458997  0.541003  0.750000  1
  Cd  Cd20  1  0.885397  0.114603  0.250000  1
  Cd  Cd21  1  0.885380  0.770791  0.250000  1
  Cd  Cd22  1  0.229209  0.114620  0.250000  1
  Cd  Cd23  1  0.114426  0.885574  0.750000  1
  Cd  Cd24  1  0.114692  0.229076  0.750000  1
  Cd  Cd25  1  0.770924  0.885308  0.750000  1
  Ru  Ru26  1  0.333331  0.666669  0.250000  1
  Ru  Ru27  1  0.666588  0.333412  0.750000  1
