# generated using pymatgen
data_Cs5Rb3Zr12(BBr17)2
_symmetry_space_group_name_H-M   'P 1'
_cell_length_a   12.84673012
_cell_length_b   12.88218852
_cell_length_c   11.84367658
_cell_angle_alpha   90.07295577
_cell_angle_beta   89.97952537
_cell_angle_gamma   90.04307497
_symmetry_Int_Tables_number   1
_chemical_formula_structural   Cs5Rb3Zr12(BBr17)2
_chemical_formula_sum   'Cs5 Rb3 Zr12 B2 Br34'
_cell_volume   1960.05513628
_cell_formula_units_Z   1
loop_
 _symmetry_equiv_pos_site_id
 _symmetry_equiv_pos_as_xyz
  1  'x, y, z'
loop_
 _atom_site_type_symbol
 _atom_site_label
 _atom_site_symmetry_multiplicity
 _atom_site_fract_x
 _atom_site_fract_y
 _atom_site_fract_z
 _atom_site_occupancy
  Cs  Cs0  1  0.983440  0.780629  0.657618  1
  Cs  Cs1  1  0.718321  0.516127  0.656988  1
  Cs  Cs2  1  0.780411  0.017303  0.342096  1
  Cs  Cs3  1  0.281597  0.482938  0.656701  1
  Cs  Cs4  1  0.219841  0.983093  0.342191  1
  Rb  Rb5  1  0.490816  0.717229  0.348316  1
  Rb  Rb6  1  0.008721  0.219163  0.651774  1
  Rb  Rb7  1  0.508475  0.282224  0.348547  1
  Zr  Zr8  1  0.591342  0.908054  0.699763  1
  Zr  Zr9  1  0.908244  0.408187  0.300030  1
  Zr  Zr10  1  0.408129  0.091841  0.700085  1
  Zr  Zr11  1  0.092290  0.591972  0.300014  1
  Zr  Zr12  1  0.591803  0.907740  0.980538  1
  Zr  Zr13  1  0.908333  0.407347  0.019489  1
  Zr  Zr14  1  0.408288  0.092689  0.980695  1
  Zr  Zr15  1  0.092282  0.592144  0.019666  1
  Zr  Zr16  1  0.871065  0.628702  0.157270  1
  Zr  Zr17  1  0.629355  0.128785  0.842965  1
  Zr  Zr18  1  0.129207  0.371030  0.156865  1
  Zr  Zr19  1  0.370790  0.871099  0.843176  1
  B  B20  1  0.000201  0.499904  0.159542  1
  B  B21  1  0.499926  0.000090  0.840657  1
  Br  Br22  1  0.000578  0.499243  0.834575  1
  Br  Br23  1  0.500059  0.000526  0.165624  1
  Br  Br24  1  0.703024  0.792426  0.160869  1
  Br  Br25  1  0.796999  0.292308  0.838732  1
  Br  Br26  1  0.297115  0.207759  0.161059  1
  Br  Br27  1  0.205707  0.706039  0.840725  1
  Br  Br28  1  0.454841  0.747508  0.681290  1
  Br  Br29  1  0.044796  0.247967  0.318190  1
  Br  Br30  1  0.545099  0.252213  0.681594  1
  Br  Br31  1  0.955635  0.752538  0.318982  1
  Br  Br32  1  0.748333  0.544679  0.318625  1
  Br  Br33  1  0.751992  0.044019  0.681309  1
  Br  Br34  1  0.252050  0.455331  0.318205  1
  Br  Br35  1  0.248035  0.955245  0.681765  1
  Br  Br36  1  0.702537  0.794500  0.529452  1
  Br  Br37  1  0.795003  0.295033  0.468653  1
  Br  Br38  1  0.295354  0.205345  0.531584  1
  Br  Br39  1  0.207401  0.704983  0.467347  1
  Br  Br40  1  0.000670  0.500109  0.485351  1
  Br  Br41  1  0.499664  0.999972  0.514667  1
  Br  Br42  1  0.458746  0.746138  0.000476  1
  Br  Br43  1  0.041325  0.245567  0.999307  1
  Br  Br44  1  0.541703  0.254332  0.000502  1
  Br  Br45  1  0.959196  0.754115  0.000271  1
  Br  Br46  1  0.746192  0.539883  0.999306  1
  Br  Br47  1  0.754208  0.040191  0.000451  1
  Br  Br48  1  0.254308  0.459423  0.999526  1
  Br  Br49  1  0.245921  0.960176  0.000865  1
  Br  Br50  1  0.708624  0.791078  0.838642  1
  Br  Br51  1  0.790811  0.291528  0.160790  1
  Br  Br52  1  0.290890  0.208453  0.839428  1
  Br  Br53  1  0.209527  0.708412  0.160933  1
  Br  Br54  1  0.500243  0.499873  0.491275  1
  Br  Br55  1  0.000539  0.004794  0.504640  1
