# generated using pymatgen
data_Ba3CeScTe6
_symmetry_space_group_name_H-M   'P 1'
_cell_length_a   9.30102637
_cell_length_b   9.30102419
_cell_length_c   9.30102600
_cell_angle_alpha   92.28095129
_cell_angle_beta   92.28095076
_cell_angle_gamma   92.28094449
_symmetry_Int_Tables_number   1
_chemical_formula_structural   Ba3CeScTe6
_chemical_formula_sum   'Ba6 Ce2 Sc2 Te12'
_cell_volume   802.65820625
_cell_formula_units_Z   2
loop_
 _symmetry_equiv_pos_site_id
 _symmetry_equiv_pos_as_xyz
  1  'x, y, z'
loop_
 _atom_site_type_symbol
 _atom_site_label
 _atom_site_symmetry_multiplicity
 _atom_site_fract_x
 _atom_site_fract_y
 _atom_site_fract_z
 _atom_site_occupancy
  Ba  Ba0  1  0.366853  0.750000  0.133147  1
  Ba  Ba1  1  0.133147  0.366853  0.750000  1
  Ba  Ba2  1  0.750000  0.133147  0.366853  1
  Ba  Ba3  1  0.633147  0.250000  0.866853  1
  Ba  Ba4  1  0.866853  0.633147  0.250000  1
  Ba  Ba5  1  0.250000  0.866853  0.633147  1
  Ce  Ce6  1  0.250000  0.250000  0.250000  1
  Ce  Ce7  1  0.750000  0.750000  0.750000  1
  Sc  Sc8  1  0.500000  0.500000  0.500000  1
  Sc  Sc9  1  0.000000  0.000000  0.000000  1
  Te  Te10  1  0.546875  0.413745  0.197669  1
  Te  Te11  1  0.197669  0.546875  0.413745  1
  Te  Te12  1  0.413745  0.197669  0.546875  1
  Te  Te13  1  0.953125  0.302331  0.086255  1
  Te  Te14  1  0.086255  0.953125  0.302331  1
  Te  Te15  1  0.302331  0.086255  0.953125  1
  Te  Te16  1  0.453125  0.586255  0.802331  1
  Te  Te17  1  0.802331  0.453125  0.586255  1
  Te  Te18  1  0.586255  0.802331  0.453125  1
  Te  Te19  1  0.046875  0.697669  0.913745  1
  Te  Te20  1  0.697669  0.913745  0.046875  1
  Te  Te21  1  0.913745  0.046875  0.697669  1
