# generated using pymatgen
data_Sr6CrFe3(MoO9)2
_symmetry_space_group_name_H-M   'P 1'
_cell_length_a   9.74226529
_cell_length_b   9.74226637
_cell_length_c   5.60634832
_cell_angle_alpha   73.33367120
_cell_angle_beta   73.33367109
_cell_angle_gamma   48.68104735
_symmetry_Int_Tables_number   1
_chemical_formula_structural   Sr6CrFe3(MoO9)2
_chemical_formula_sum   'Sr6 Cr1 Fe3 Mo2 O18'
_cell_volume   379.32229485
_cell_formula_units_Z   1
loop_
 _symmetry_equiv_pos_site_id
 _symmetry_equiv_pos_as_xyz
  1  'x, y, z'
loop_
 _atom_site_type_symbol
 _atom_site_label
 _atom_site_symmetry_multiplicity
 _atom_site_fract_x
 _atom_site_fract_y
 _atom_site_fract_z
 _atom_site_occupancy
  Sr  Sr0  1  0.918643  0.399660  0.843053  1
  Sr  Sr1  1  0.231978  0.768022  0.500000  1
  Sr  Sr2  1  0.600340  0.081357  0.156947  1
  Sr  Sr3  1  0.768022  0.231978  0.500000  1
  Sr  Sr4  1  0.081357  0.600340  0.156947  1
  Sr  Sr5  1  0.399660  0.918643  0.843053  1
  Cr  Cr6  1  0.000000  0.000000  0.000000  1
  Fe  Fe7  1  0.500000  0.500000  0.000000  1
  Fe  Fe8  1  0.835207  0.835207  0.664770  1
  Fe  Fe9  1  0.164793  0.164793  0.335230  1
  Mo  Mo10  1  0.332636  0.332636  0.665224  1
  Mo  Mo11  1  0.667364  0.667364  0.334776  1
  O  O12  1  0.427710  0.912837  0.329781  1
  O  O13  1  0.744515  0.255485  0.000000  1
  O  O14  1  0.087163  0.572290  0.670219  1
  O  O15  1  0.912837  0.427710  0.329781  1
  O  O16  1  0.255485  0.744515  0.000000  1
  O  O17  1  0.572290  0.087163  0.670219  1
  O  O18  1  0.076223  0.076223  0.201598  1
  O  O19  1  0.400486  0.400486  0.879945  1
  O  O20  1  0.733328  0.733328  0.553326  1
  O  O21  1  0.599514  0.599514  0.120055  1
  O  O22  1  0.923777  0.923777  0.798402  1
  O  O23  1  0.266672  0.266672  0.446674  1
  O  O24  1  0.573035  0.573035  0.626736  1
  O  O25  1  0.904659  0.904659  0.319766  1
  O  O26  1  0.240183  0.240183  0.964499  1
  O  O27  1  0.095341  0.095341  0.680234  1
  O  O28  1  0.426965  0.426965  0.373264  1
  O  O29  1  0.759817  0.759817  0.035501  1
