# generated using pymatgen
data_Dy3Ho4Er(ReB6)4
_symmetry_space_group_name_H-M   'P 1'
_cell_length_a   3.67494200
_cell_length_b   9.15837600
_cell_length_c   11.54161500
_cell_angle_alpha   90.00009417
_cell_angle_beta   90.00000000
_cell_angle_gamma   90.00000000
_symmetry_Int_Tables_number   1
_chemical_formula_structural   Dy3Ho4Er(ReB6)4
_chemical_formula_sum   'Dy3 Ho4 Er1 Re4 B24'
_cell_volume   388.45037258
_cell_formula_units_Z   1
loop_
 _symmetry_equiv_pos_site_id
 _symmetry_equiv_pos_as_xyz
  1  'x, y, z'
loop_
 _atom_site_type_symbol
 _atom_site_label
 _atom_site_symmetry_multiplicity
 _atom_site_fract_x
 _atom_site_fract_y
 _atom_site_fract_z
 _atom_site_occupancy
  Dy  Dy0  1  0.000000  0.323385  0.413928  1
  Dy  Dy1  1  0.000000  0.676560  0.586225  1
  Dy  Dy2  1  0.000000  0.823357  0.085971  1
  Ho  Ho3  1  0.000000  0.176531  0.913929  1
  Ho  Ho4  1  0.000000  0.943153  0.369978  1
  Ho  Ho5  1  0.000000  0.056905  0.630054  1
  Ho  Ho6  1  0.000000  0.443132  0.129653  1
  Er  Er7  1  0.000000  0.556948  0.870031  1
  Re  Re8  1  0.000000  0.638714  0.320667  1
  Re  Re9  1  0.000000  0.361333  0.679690  1
  Re  Re10  1  0.000000  0.138832  0.179044  1
  Re  Re11  1  0.000000  0.860939  0.820843  1
  B  B12  1  0.500000  0.553344  0.432816  1
  B  B13  1  0.500000  0.446531  0.567415  1
  B  B14  1  0.500000  0.053472  0.066895  1
  B  B15  1  0.500000  0.946773  0.932820  1
  B  B16  1  0.500000  0.749312  0.418405  1
  B  B17  1  0.500000  0.250717  0.581792  1
  B  B18  1  0.500000  0.249295  0.081163  1
  B  B19  1  0.500000  0.750505  0.918408  1
  B  B20  1  0.500000  0.792119  0.265381  1
  B  B21  1  0.500000  0.207836  0.734898  1
  B  B22  1  0.500000  0.292105  0.234307  1
  B  B23  1  0.500000  0.707719  0.765622  1
  B  B24  1  0.500000  0.630691  0.185443  1
  B  B25  1  0.500000  0.369318  0.814904  1
  B  B26  1  0.500000  0.130787  0.314320  1
  B  B27  1  0.500000  0.869335  0.685714  1
  B  B28  1  0.500000  0.982384  0.211841  1
  B  B29  1  0.500000  0.017941  0.788206  1
  B  B30  1  0.500000  0.482263  0.287891  1
  B  B31  1  0.500000  0.517750  0.712378  1
  B  B32  1  0.500000  0.599513  0.027464  1
  B  B33  1  0.500000  0.400388  0.971851  1
  B  B34  1  0.500000  0.099556  0.472223  1
  B  B35  1  0.500000  0.900554  0.527826  1
