# generated using pymatgen
data_Hf8MnBi4Os
_symmetry_space_group_name_H-M   'P 1'
_cell_length_a   8.29916434
_cell_length_b   8.29918543
_cell_length_c   8.29916588
_cell_angle_alpha   95.97383824
_cell_angle_beta   95.98047140
_cell_angle_gamma   142.34785210
_symmetry_Int_Tables_number   1
_chemical_formula_structural   Hf8MnBi4Os
_chemical_formula_sum   'Hf8 Mn1 Bi4 Os1'
_cell_volume   330.50081791
_cell_formula_units_Z   1
loop_
 _symmetry_equiv_pos_site_id
 _symmetry_equiv_pos_as_xyz
  1  'x, y, z'
loop_
 _atom_site_type_symbol
 _atom_site_label
 _atom_site_symmetry_multiplicity
 _atom_site_fract_x
 _atom_site_fract_y
 _atom_site_fract_z
 _atom_site_occupancy
  Hf  Hf0  1  0.701499  0.587266  0.279914  1
  Hf  Hf1  1  0.307352  0.421605  0.720099  1
  Hf  Hf2  1  0.587247  0.307338  0.885724  1
  Hf  Hf3  1  0.078386  0.192662  0.279908  1
  Hf  Hf4  1  0.798494  0.078395  0.885747  1
  Hf  Hf5  1  0.421591  0.701511  0.114241  1
  Hf  Hf6  1  0.912730  0.798489  0.720080  1
  Hf  Hf7  1  0.192648  0.912734  0.114234  1
  Mn  Mn8  1  0.750085  0.750000  0.000085  1
  Bi  Bi9  1  0.138075  0.638082  0.776140  1
  Bi  Bi10  1  0.361918  0.138084  0.499996  1
  Bi  Bi11  1  0.861912  0.361916  0.223833  1
  Bi  Bi12  1  0.638057  0.861918  0.499992  1
  Os  Os13  1  0.250006  0.250000  0.000006  1
