# generated using pymatgen
data_NdHoFe14(SiC)3
_symmetry_space_group_name_H-M   'P 1'
_cell_length_a   6.46319646
_cell_length_b   6.46319638
_cell_length_c   6.46319715
_cell_angle_alpha   83.82607528
_cell_angle_beta   83.82607315
_cell_angle_gamma   83.82606741
_symmetry_Int_Tables_number   1
_chemical_formula_structural   NdHoFe14(SiC)3
_chemical_formula_sum   'Nd1 Ho1 Fe14 Si3 C3'
_cell_volume   265.60265298
_cell_formula_units_Z   1
loop_
 _symmetry_equiv_pos_site_id
 _symmetry_equiv_pos_as_xyz
  1  'x, y, z'
loop_
 _atom_site_type_symbol
 _atom_site_label
 _atom_site_symmetry_multiplicity
 _atom_site_fract_x
 _atom_site_fract_y
 _atom_site_fract_z
 _atom_site_occupancy
  Nd  Nd0  1  0.650691  0.650691  0.650691  1
  Ho  Ho1  1  0.346268  0.346268  0.346268  1
  Fe  Fe2  1  0.714706  0.284222  0.001449  1
  Fe  Fe3  1  0.001449  0.714706  0.284222  1
  Fe  Fe4  1  0.284222  0.001449  0.714706  1
  Fe  Fe5  1  0.001449  0.284222  0.714706  1
  Fe  Fe6  1  0.714706  0.001449  0.284222  1
  Fe  Fe7  1  0.284222  0.714706  0.001449  1
  Fe  Fe8  1  0.338719  0.865714  0.338719  1
  Fe  Fe9  1  0.338719  0.338719  0.865714  1
  Fe  Fe10  1  0.865714  0.338719  0.338719  1
  Fe  Fe11  1  0.659698  0.137474  0.659698  1
  Fe  Fe12  1  0.659698  0.659698  0.137474  1
  Fe  Fe13  1  0.137474  0.659698  0.659698  1
  Fe  Fe14  1  0.904394  0.904394  0.904394  1
  Fe  Fe15  1  0.097423  0.097423  0.097423  1
  Si  Si16  1  0.999851  0.999851  0.499508  1
  Si  Si17  1  0.499508  0.999851  0.999851  1
  Si  Si18  1  0.999851  0.499508  0.999851  1
  C  C19  1  0.496916  0.496916  0.007406  1
  C  C20  1  0.007406  0.496916  0.496916  1
  C  C21  1  0.496916  0.007406  0.496916  1
