# generated using pymatgen
data_Dy4Ho2Er6Co5Bi
_symmetry_space_group_name_H-M   'P 1'
_cell_length_a   8.26373413
_cell_length_b   8.26611137
_cell_length_c   8.26616528
_cell_angle_alpha   110.75279988
_cell_angle_beta   110.81911436
_cell_angle_gamma   106.88381941
_symmetry_Int_Tables_number   1
_chemical_formula_structural   Dy4Ho2Er6Co5Bi
_chemical_formula_sum   'Dy4 Ho2 Er6 Co5 Bi1'
_cell_volume   433.94584050
_cell_formula_units_Z   1
loop_
 _symmetry_equiv_pos_site_id
 _symmetry_equiv_pos_as_xyz
  1  'x, y, z'
loop_
 _atom_site_type_symbol
 _atom_site_label
 _atom_site_symmetry_multiplicity
 _atom_site_fract_x
 _atom_site_fract_y
 _atom_site_fract_z
 _atom_site_occupancy
  Dy  Dy0  1  0.815503  0.711039  0.527097  1
  Dy  Dy1  1  0.184497  0.288961  0.472903  1
  Dy  Dy2  1  0.184492  0.711603  0.895524  1
  Dy  Dy3  1  0.815508  0.288397  0.104476  1
  Ho  Ho4  1  0.987214  0.792951  0.194239  1
  Ho  Ho5  1  0.012786  0.207049  0.805761  1
  Er  Er6  1  0.687706  0.377953  0.689579  1
  Er  Er7  1  0.312294  0.622047  0.310421  1
  Er  Er8  1  0.687718  0.998109  0.309761  1
  Er  Er9  1  0.312282  0.001891  0.690239  1
  Er  Er10  1  0.598349  0.792897  0.805464  1
  Er  Er11  1  0.401651  0.207103  0.194536  1
  Co  Co12  1  0.623833  0.999623  0.624193  1
  Co  Co13  1  0.376167  0.000377  0.375807  1
  Co  Co14  1  0.112326  0.611885  0.500441  1
  Co  Co15  1  0.887674  0.388115  0.499559  1
  Co  Co16  1  0.000000  0.000000  0.000000  1
  Bi  Bi17  1  0.500000  0.500000  0.000000  1
