# generated using pymatgen
data_Ho3ThZnIr
_symmetry_space_group_name_H-M   'P 1'
_cell_length_a   9.58158697
_cell_length_b   9.58158675
_cell_length_c   9.58158700
_cell_angle_alpha   60.00000260
_cell_angle_beta   60.00000334
_cell_angle_gamma   60.00000149
_symmetry_Int_Tables_number   1
_chemical_formula_structural   Ho3ThZnIr
_chemical_formula_sum   'Ho12 Th4 Zn4 Ir4'
_cell_volume   622.00998408
_cell_formula_units_Z   4
loop_
 _symmetry_equiv_pos_site_id
 _symmetry_equiv_pos_as_xyz
  1  'x, y, z'
loop_
 _atom_site_type_symbol
 _atom_site_label
 _atom_site_symmetry_multiplicity
 _atom_site_fract_x
 _atom_site_fract_y
 _atom_site_fract_z
 _atom_site_occupancy
  Ho  Ho0  1  0.810788  0.189212  0.189212  1
  Ho  Ho1  1  0.189212  0.810788  0.810788  1
  Ho  Ho2  1  0.189212  0.810788  0.189212  1
  Ho  Ho3  1  0.810788  0.189212  0.810788  1
  Ho  Ho4  1  0.189212  0.189212  0.810788  1
  Ho  Ho5  1  0.810788  0.810788  0.189212  1
  Ho  Ho6  1  0.934487  0.565513  0.565513  1
  Ho  Ho7  1  0.565513  0.934487  0.934487  1
  Ho  Ho8  1  0.565513  0.934487  0.565513  1
  Ho  Ho9  1  0.934487  0.565513  0.934487  1
  Ho  Ho10  1  0.565513  0.565513  0.934487  1
  Ho  Ho11  1  0.934487  0.934487  0.565513  1
  Th  Th12  1  0.353976  0.353976  0.353976  1
  Th  Th13  1  0.353976  0.353976  0.938070  1
  Th  Th14  1  0.353976  0.938070  0.353976  1
  Th  Th15  1  0.938070  0.353976  0.353976  1
  Zn  Zn16  1  0.583377  0.583377  0.583377  1
  Zn  Zn17  1  0.583377  0.583377  0.249869  1
  Zn  Zn18  1  0.583377  0.249869  0.583377  1
  Zn  Zn19  1  0.249869  0.583377  0.583377  1
  Ir  Ir20  1  0.143497  0.143497  0.143497  1
  Ir  Ir21  1  0.143497  0.143497  0.569506  1
  Ir  Ir22  1  0.143497  0.569506  0.143497  1
  Ir  Ir23  1  0.569506  0.143497  0.143497  1
