# generated using pymatgen
data_Sc3Al12FeIr3
_symmetry_space_group_name_H-M   'P 1'
_cell_length_a   8.64875300
_cell_length_b   8.64875392
_cell_length_c   9.30386700
_cell_angle_alpha   90.00000000
_cell_angle_beta   90.00000000
_cell_angle_gamma   120.00000797
_symmetry_Int_Tables_number   1
_chemical_formula_structural   Sc3Al12FeIr3
_chemical_formula_sum   'Sc6 Al24 Fe2 Ir6'
_cell_volume   602.69990741
_cell_formula_units_Z   2
loop_
 _symmetry_equiv_pos_site_id
 _symmetry_equiv_pos_as_xyz
  1  'x, y, z'
loop_
 _atom_site_type_symbol
 _atom_site_label
 _atom_site_symmetry_multiplicity
 _atom_site_fract_x
 _atom_site_fract_y
 _atom_site_fract_z
 _atom_site_occupancy
  Sc  Sc0  1  0.806582  0.193418  0.750000  1
  Sc  Sc1  1  0.193418  0.806582  0.250000  1
  Sc  Sc2  1  0.386837  0.193418  0.750000  1
  Sc  Sc3  1  0.613163  0.806582  0.250000  1
  Sc  Sc4  1  0.806582  0.613163  0.750000  1
  Sc  Sc5  1  0.193418  0.386837  0.250000  1
  Al  Al6  1  0.666667  0.333333  0.960396  1
  Al  Al7  1  0.333333  0.666667  0.039604  1
  Al  Al8  1  0.333333  0.666667  0.460396  1
  Al  Al9  1  0.666667  0.333333  0.539604  1
  Al  Al10  1  0.840438  0.159562  0.423429  1
  Al  Al11  1  0.159562  0.840438  0.576571  1
  Al  Al12  1  0.319125  0.159562  0.423429  1
  Al  Al13  1  0.159562  0.840438  0.923429  1
  Al  Al14  1  0.680875  0.840438  0.576571  1
  Al  Al15  1  0.840438  0.159562  0.076571  1
  Al  Al16  1  0.840438  0.680875  0.423429  1
  Al  Al17  1  0.680875  0.840438  0.923429  1
  Al  Al18  1  0.159562  0.319125  0.576571  1
  Al  Al19  1  0.319125  0.159562  0.076571  1
  Al  Al20  1  0.159562  0.319125  0.923429  1
  Al  Al21  1  0.840438  0.680875  0.076571  1
  Al  Al22  1  0.438820  0.561180  0.750000  1
  Al  Al23  1  0.561180  0.438820  0.250000  1
  Al  Al24  1  0.122359  0.561180  0.750000  1
  Al  Al25  1  0.877641  0.438820  0.250000  1
  Al  Al26  1  0.438820  0.877641  0.750000  1
  Al  Al27  1  0.561180  0.122359  0.250000  1
  Al  Al28  1  0.000000  0.000000  0.750000  1
  Al  Al29  1  0.000000  0.000000  0.250000  1
  Fe  Fe30  1  0.000000  0.000000  0.000000  1
  Fe  Fe31  1  0.000000  0.000000  0.500000  1
  Ir  Ir32  1  0.500000  0.500000  0.000000  1
  Ir  Ir33  1  0.000000  0.500000  0.000000  1
  Ir  Ir34  1  0.500000  0.500000  0.500000  1
  Ir  Ir35  1  0.500000  0.000000  0.000000  1
  Ir  Ir36  1  0.000000  0.500000  0.500000  1
  Ir  Ir37  1  0.500000  0.000000  0.500000  1
