# generated using pymatgen
data_Ho5Er5(GePb3)2
_symmetry_space_group_name_H-M   'P 1'
_cell_length_a   9.28835900
_cell_length_b   9.28835922
_cell_length_c   6.50894100
_cell_angle_alpha   90.00000000
_cell_angle_beta   90.00000000
_cell_angle_gamma   119.99922951
_symmetry_Int_Tables_number   1
_chemical_formula_structural   Ho5Er5(GePb3)2
_chemical_formula_sum   'Ho5 Er5 Ge2 Pb6'
_cell_volume   486.32022848
_cell_formula_units_Z   1
loop_
 _symmetry_equiv_pos_site_id
 _symmetry_equiv_pos_as_xyz
  1  'x, y, z'
loop_
 _atom_site_type_symbol
 _atom_site_label
 _atom_site_symmetry_multiplicity
 _atom_site_fract_x
 _atom_site_fract_y
 _atom_site_fract_z
 _atom_site_occupancy
  Ho  Ho0  1  0.251469  0.000018  0.250000  1
  Ho  Ho1  1  0.748428  0.999957  0.750000  1
  Ho  Ho2  1  0.000018  0.251469  0.250000  1
  Ho  Ho3  1  0.999957  0.748428  0.750000  1
  Ho  Ho4  1  0.748427  0.748427  0.250000  1
  Er  Er5  1  0.251333  0.251333  0.750000  1
  Er  Er6  1  0.333339  0.666643  0.000006  1
  Er  Er7  1  0.666643  0.333339  0.000006  1
  Er  Er8  1  0.666643  0.333339  0.499994  1
  Er  Er9  1  0.333339  0.666643  0.499994  1
  Ge  Ge10  1  0.000183  0.000183  0.999871  1
  Ge  Ge11  1  0.000183  0.000183  0.500129  1
  Pb  Pb12  1  0.606640  0.000019  0.250000  1
  Pb  Pb13  1  0.393350  0.000061  0.750000  1
  Pb  Pb14  1  0.000019  0.606640  0.250000  1
  Pb  Pb15  1  0.000061  0.393350  0.750000  1
  Pb  Pb16  1  0.393380  0.393380  0.250000  1
  Pb  Pb17  1  0.606589  0.606589  0.750000  1
