# generated using pymatgen
data_Al11ReTc3
_symmetry_space_group_name_H-M   'P 1'
_cell_length_a   5.18343270
_cell_length_b   5.17083087
_cell_length_c   9.00926435
_cell_angle_alpha   104.90010865
_cell_angle_beta   90.51567544
_cell_angle_gamma   99.41470562
_symmetry_Int_Tables_number   1
_chemical_formula_structural   Al11ReTc3
_chemical_formula_sum   'Al11 Re1 Tc3'
_cell_volume   229.87918399
_cell_formula_units_Z   1
loop_
 _symmetry_equiv_pos_site_id
 _symmetry_equiv_pos_as_xyz
  1  'x, y, z'
loop_
 _atom_site_type_symbol
 _atom_site_label
 _atom_site_symmetry_multiplicity
 _atom_site_fract_x
 _atom_site_fract_y
 _atom_site_fract_z
 _atom_site_occupancy
  Al  Al0  1  0.798456  0.260353  0.634886  1
  Al  Al1  1  0.200444  0.739206  0.366171  1
  Al  Al2  1  0.147190  0.464376  0.871246  1
  Al  Al3  1  0.854783  0.536661  0.128651  1
  Al  Al4  1  0.998770  0.998591  0.998465  1
  Al  Al5  1  0.498392  0.099066  0.872378  1
  Al  Al6  1  0.502016  0.903000  0.127409  1
  Al  Al7  1  0.564097  0.320435  0.377230  1
  Al  Al8  1  0.435916  0.679055  0.623703  1
  Al  Al9  1  0.944897  0.803320  0.668801  1
  Al  Al10  1  0.054768  0.195663  0.330929  1
  Re  Re11  1  0.338258  0.389000  0.131403  1
  Tc  Tc12  1  0.279724  0.154733  0.602622  1
  Tc  Tc13  1  0.720280  0.845492  0.397868  1
  Tc  Tc14  1  0.662009  0.611050  0.868239  1
