# generated using pymatgen
data_Ho3ErLu4(B6Os)4
_symmetry_space_group_name_H-M   'P 1'
_cell_length_a   3.61364800
_cell_length_b   9.06414400
_cell_length_c   11.44713800
_cell_angle_alpha   89.99677642
_cell_angle_beta   90.00000000
_cell_angle_gamma   90.00000000
_symmetry_Int_Tables_number   1
_chemical_formula_structural   Ho3ErLu4(B6Os)4
_chemical_formula_sum   'Ho3 Er1 Lu4 B24 Os4'
_cell_volume   374.94672180
_cell_formula_units_Z   1
loop_
 _symmetry_equiv_pos_site_id
 _symmetry_equiv_pos_as_xyz
  1  'x, y, z'
loop_
 _atom_site_type_symbol
 _atom_site_label
 _atom_site_symmetry_multiplicity
 _atom_site_fract_x
 _atom_site_fract_y
 _atom_site_fract_z
 _atom_site_occupancy
  Ho  Ho0  1  0.000000  0.678734  0.585956  1
  Ho  Ho1  1  0.000000  0.821251  0.085971  1
  Ho  Ho2  1  0.000000  0.178746  0.914038  1
  Er  Er3  1  0.000000  0.321233  0.414081  1
  Lu  Lu4  1  0.000000  0.944317  0.373231  1
  Lu  Lu5  1  0.000000  0.055812  0.626721  1
  Lu  Lu6  1  0.000000  0.444253  0.126841  1
  Lu  Lu7  1  0.000000  0.555695  0.873172  1
  B  B8  1  0.500000  0.554031  0.433143  1
  B  B9  1  0.500000  0.445703  0.566726  1
  B  B10  1  0.500000  0.054248  0.066923  1
  B  B11  1  0.500000  0.945781  0.933111  1
  B  B12  1  0.500000  0.749657  0.419765  1
  B  B13  1  0.500000  0.250363  0.580020  1
  B  B14  1  0.500000  0.249714  0.080273  1
  B  B15  1  0.500000  0.750285  0.919766  1
  B  B16  1  0.500000  0.792100  0.266087  1
  B  B17  1  0.500000  0.207883  0.733868  1
  B  B18  1  0.500000  0.292220  0.234110  1
  B  B19  1  0.500000  0.707861  0.766052  1
  B  B20  1  0.500000  0.630897  0.184415  1
  B  B21  1  0.500000  0.369042  0.815603  1
  B  B22  1  0.500000  0.131104  0.315742  1
  B  B23  1  0.500000  0.869080  0.684358  1
  B  B24  1  0.500000  0.982488  0.213660  1
  B  B25  1  0.500000  0.017574  0.786358  1
  B  B26  1  0.500000  0.482234  0.286490  1
  B  B27  1  0.500000  0.517533  0.713574  1
  B  B28  1  0.500000  0.604520  0.028778  1
  B  B29  1  0.500000  0.395458  0.971240  1
  B  B30  1  0.500000  0.104859  0.471134  1
  B  B31  1  0.500000  0.895441  0.528783  1
  Os  Os32  1  0.000000  0.638069  0.320562  1
  Os  Os33  1  0.000000  0.361718  0.679375  1
  Os  Os34  1  0.000000  0.138356  0.179598  1
  Os  Os35  1  0.000000  0.861741  0.820475  1
