# generated using pymatgen
data_Ta3Nb3Ga4(NiN)2
_symmetry_space_group_name_H-M   'P 1'
_cell_length_a   8.18836324
_cell_length_b   8.18795970
_cell_length_c   8.18833900
_cell_angle_alpha   59.99867097
_cell_angle_beta   60.00042573
_cell_angle_gamma   59.99881038
_symmetry_Int_Tables_number   1
_chemical_formula_structural   Ta3Nb3Ga4(NiN)2
_chemical_formula_sum   'Ta6 Nb6 Ga8 Ni4 N4'
_cell_volume   388.19214466
_cell_formula_units_Z   2
loop_
 _symmetry_equiv_pos_site_id
 _symmetry_equiv_pos_as_xyz
  1  'x, y, z'
loop_
 _atom_site_type_symbol
 _atom_site_label
 _atom_site_symmetry_multiplicity
 _atom_site_fract_x
 _atom_site_fract_y
 _atom_site_fract_z
 _atom_site_occupancy
  Ta  Ta0  1  0.812085  0.812111  0.187910  1
  Ta  Ta1  1  0.187893  0.187869  0.812115  1
  Ta  Ta2  1  0.812108  0.187892  0.812123  1
  Ta  Ta3  1  0.187907  0.812105  0.187884  1
  Ta  Ta4  1  0.187918  0.812107  0.812097  1
  Ta  Ta5  1  0.812100  0.187887  0.187888  1
  Nb  Nb6  1  0.438111  0.438086  0.061892  1
  Nb  Nb7  1  0.061914  0.061935  0.438082  1
  Nb  Nb8  1  0.438097  0.061898  0.438084  1
  Nb  Nb9  1  0.061894  0.438094  0.061918  1
  Nb  Nb10  1  0.061885  0.438087  0.438100  1
  Nb  Nb11  1  0.438096  0.061915  0.061919  1
  Ga  Ga12  1  0.751684  0.416137  0.416090  1
  Ga  Ga13  1  0.416128  0.751674  0.416102  1
  Ga  Ga14  1  0.416107  0.416125  0.751688  1
  Ga  Ga15  1  0.416108  0.416121  0.416082  1
  Ga  Ga16  1  0.498492  0.833811  0.833844  1
  Ga  Ga17  1  0.833820  0.498485  0.833844  1
  Ga  Ga18  1  0.833827  0.833818  0.498492  1
  Ga  Ga19  1  0.833833  0.833820  0.833858  1
  Ni  Ni20  1  0.125202  0.624943  0.624921  1
  Ni  Ni21  1  0.624931  0.125224  0.624924  1
  Ni  Ni22  1  0.624926  0.624937  0.125200  1
  Ni  Ni23  1  0.624932  0.624933  0.624933  1
  N  N24  1  0.630275  0.123241  0.123244  1
  N  N25  1  0.123245  0.630264  0.123245  1
  N  N26  1  0.123242  0.123239  0.630281  1
  N  N27  1  0.123240  0.123242  0.123240  1
