# generated using pymatgen
data_AcTb(ZnPb)2
_symmetry_space_group_name_H-M   'P 1'
_cell_length_a   4.69202000
_cell_length_b   4.69202042
_cell_length_c   17.26036200
_cell_angle_alpha   90.00000000
_cell_angle_beta   90.00000000
_cell_angle_gamma   119.99999704
_symmetry_Int_Tables_number   1
_chemical_formula_structural   AcTb(ZnPb)2
_chemical_formula_sum   'Ac2 Tb2 Zn4 Pb4'
_cell_volume   329.07909382
_cell_formula_units_Z   2
loop_
 _symmetry_equiv_pos_site_id
 _symmetry_equiv_pos_as_xyz
  1  'x, y, z'
loop_
 _atom_site_type_symbol
 _atom_site_label
 _atom_site_symmetry_multiplicity
 _atom_site_fract_x
 _atom_site_fract_y
 _atom_site_fract_z
 _atom_site_occupancy
  Ac  Ac0  1  0.000000  0.000000  0.000000  1
  Ac  Ac1  1  0.000000  0.000000  0.500000  1
  Tb  Tb2  1  0.000000  0.000000  0.250000  1
  Tb  Tb3  1  0.000000  0.000000  0.750000  1
  Zn  Zn4  1  0.666667  0.333334  0.170989  1
  Zn  Zn5  1  0.666667  0.333334  0.329011  1
  Zn  Zn6  1  0.333333  0.666666  0.670989  1
  Zn  Zn7  1  0.333333  0.666666  0.829011  1
  Pb  Pb8  1  0.333333  0.666666  0.122336  1
  Pb  Pb9  1  0.333333  0.666666  0.377664  1
  Pb  Pb10  1  0.666667  0.333334  0.622336  1
  Pb  Pb11  1  0.666667  0.333334  0.877664  1
