# generated using pymatgen
data_LiCa2Rh3
_symmetry_space_group_name_H-M   'P 1'
_cell_length_a   5.34459837
_cell_length_b   5.38775324
_cell_length_c   5.38775400
_cell_angle_alpha   59.99999531
_cell_angle_beta   59.73253212
_cell_angle_gamma   59.73253312
_symmetry_Int_Tables_number   1
_chemical_formula_structural   LiCa2Rh3
_chemical_formula_sum   'Li1 Ca2 Rh3'
_cell_volume   109.25665065
_cell_formula_units_Z   1
loop_
 _symmetry_equiv_pos_site_id
 _symmetry_equiv_pos_as_xyz
  1  'x, y, z'
loop_
 _atom_site_type_symbol
 _atom_site_label
 _atom_site_symmetry_multiplicity
 _atom_site_fract_x
 _atom_site_fract_y
 _atom_site_fract_z
 _atom_site_occupancy
  Li  Li0  1  0.625000  0.125000  0.125000  1
  Ca  Ca1  1  0.489694  0.503435  0.503435  1
  Ca  Ca2  1  0.760306  0.746565  0.746565  1
  Rh  Rh3  1  0.125000  0.125000  0.625000  1
  Rh  Rh4  1  0.125000  0.625000  0.125000  1
  Rh  Rh5  1  0.125000  0.125000  0.125000  1
