# generated using pymatgen
data_HoErTm2Ga4RuPt3
_symmetry_space_group_name_H-M   'P 1'
_cell_length_a   4.41026000
_cell_length_b   6.79514841
_cell_length_c   7.68776835
_cell_angle_alpha   89.43864508
_cell_angle_beta   90.00000000
_cell_angle_gamma   90.00000000
_symmetry_Int_Tables_number   1
_chemical_formula_structural   HoErTm2Ga4RuPt3
_chemical_formula_sum   'Ho1 Er1 Tm2 Ga4 Ru1 Pt3'
_cell_volume   230.37883821
_cell_formula_units_Z   1
loop_
 _symmetry_equiv_pos_site_id
 _symmetry_equiv_pos_as_xyz
  1  'x, y, z'
loop_
 _atom_site_type_symbol
 _atom_site_label
 _atom_site_symmetry_multiplicity
 _atom_site_fract_x
 _atom_site_fract_y
 _atom_site_fract_z
 _atom_site_occupancy
  Ho  Ho0  1  0.250000  0.980334  0.307620  1
  Er  Er1  1  0.250000  0.478140  0.188704  1
  Tm  Tm2  1  0.750000  0.018729  0.698026  1
  Tm  Tm3  1  0.750000  0.514585  0.804700  1
  Ga  Ga4  1  0.250000  0.330816  0.574411  1
  Ga  Ga5  1  0.250000  0.841756  0.926830  1
  Ga  Ga6  1  0.750000  0.666130  0.429271  1
  Ga  Ga7  1  0.750000  0.170815  0.068770  1
  Ru  Ru8  1  0.250000  0.231308  0.897433  1
  Pt  Pt9  1  0.250000  0.724431  0.606374  1
  Pt  Pt10  1  0.750000  0.771013  0.101585  1
  Pt  Pt11  1  0.750000  0.271943  0.396279  1
