# generated using pymatgen
data_La3Y13(HgRh)4
_symmetry_space_group_name_H-M   'P 1'
_cell_length_a   9.75829726
_cell_length_b   9.72048111
_cell_length_c   9.72048300
_cell_angle_alpha   60.00000378
_cell_angle_beta   60.12811445
_cell_angle_gamma   60.12811248
_symmetry_Int_Tables_number   1
_chemical_formula_structural   La3Y13(HgRh)4
_chemical_formula_sum   'La3 Y13 Hg4 Rh4'
_cell_volume   653.24025242
_cell_formula_units_Z   1
loop_
 _symmetry_equiv_pos_site_id
 _symmetry_equiv_pos_as_xyz
  1  'x, y, z'
loop_
 _atom_site_type_symbol
 _atom_site_label
 _atom_site_symmetry_multiplicity
 _atom_site_fract_x
 _atom_site_fract_y
 _atom_site_fract_z
 _atom_site_occupancy
  La  La0  1  0.601045  0.602919  0.602919  1
  La  La1  1  0.601045  0.602919  0.193117  1
  La  La2  1  0.601045  0.193117  0.602919  1
  Y  Y3  1  0.185991  0.604670  0.604670  1
  Y  Y4  1  0.063981  0.437102  0.437102  1
  Y  Y5  1  0.435339  0.064357  0.064357  1
  Y  Y6  1  0.435339  0.064357  0.435947  1
  Y  Y7  1  0.063981  0.437102  0.061816  1
  Y  Y8  1  0.435339  0.435947  0.064357  1
  Y  Y9  1  0.063981  0.061816  0.437102  1
  Y  Y10  1  0.184996  0.814764  0.814764  1
  Y  Y11  1  0.817427  0.183551  0.183551  1
  Y  Y12  1  0.817427  0.183551  0.815471  1
  Y  Y13  1  0.184996  0.814764  0.185475  1
  Y  Y14  1  0.817427  0.815471  0.183551  1
  Y  Y15  1  0.184996  0.185475  0.814764  1
  Hg  Hg16  1  0.840128  0.833658  0.833658  1
  Hg  Hg17  1  0.840128  0.833658  0.492554  1
  Hg  Hg18  1  0.840128  0.492554  0.833658  1
  Hg  Hg19  1  0.492598  0.835800  0.835800  1
  Rh  Rh20  1  0.389412  0.394417  0.394417  1
  Rh  Rh21  1  0.389412  0.394417  0.821755  1
  Rh  Rh22  1  0.389412  0.821755  0.394417  1
  Rh  Rh23  1  0.824429  0.391857  0.391857  1
