# generated using pymatgen
data_HfCuSiH
_symmetry_space_group_name_H-M   'P 1'
_cell_length_a   3.76264100
_cell_length_b   3.76264100
_cell_length_c   6.71379500
_cell_angle_alpha   90.00000000
_cell_angle_beta   90.00000000
_cell_angle_gamma   90.00000000
_symmetry_Int_Tables_number   1
_chemical_formula_structural   HfCuSiH
_chemical_formula_sum   'Hf2 Cu2 Si2 H2'
_cell_volume   95.05033314
_cell_formula_units_Z   2
loop_
 _symmetry_equiv_pos_site_id
 _symmetry_equiv_pos_as_xyz
  1  'x, y, z'
loop_
 _atom_site_type_symbol
 _atom_site_label
 _atom_site_symmetry_multiplicity
 _atom_site_fract_x
 _atom_site_fract_y
 _atom_site_fract_z
 _atom_site_occupancy
  Hf  Hf0  1  0.500000  0.000000  0.646516  1
  Hf  Hf1  1  0.000000  0.500000  0.353484  1
  Cu  Cu2  1  0.000000  0.000000  0.000000  1
  Cu  Cu3  1  0.500000  0.500000  0.000000  1
  Si  Si4  1  0.500000  0.000000  0.218928  1
  Si  Si5  1  0.000000  0.500000  0.781072  1
  H  H6  1  0.000000  0.000000  0.500000  1
  H  H7  1  0.500000  0.500000  0.500000  1
