# generated using pymatgen
data_Pr2SmMg3PtPb2
_symmetry_space_group_name_H-M   'P 1'
_cell_length_a   7.68526273
_cell_length_b   7.72034757
_cell_length_c   4.62983000
_cell_angle_alpha   90.00000000
_cell_angle_beta   90.00000000
_cell_angle_gamma   120.15112797
_symmetry_Int_Tables_number   1
_chemical_formula_structural   Pr2SmMg3PtPb2
_chemical_formula_sum   'Pr2 Sm1 Mg3 Pt1 Pb2'
_cell_volume   237.53513636
_cell_formula_units_Z   1
loop_
 _symmetry_equiv_pos_site_id
 _symmetry_equiv_pos_as_xyz
  1  'x, y, z'
loop_
 _atom_site_type_symbol
 _atom_site_label
 _atom_site_symmetry_multiplicity
 _atom_site_fract_x
 _atom_site_fract_y
 _atom_site_fract_z
 _atom_site_occupancy
  Pr  Pr0  1  0.604133  0.603730  0.000000  1
  Pr  Pr1  1  0.395867  0.999597  0.000000  1
  Sm  Sm2  1  0.000000  0.393134  0.000000  1
  Mg  Mg3  1  0.000000  0.773698  0.500000  1
  Mg  Mg4  1  0.224563  0.226373  0.500000  1
  Mg  Mg5  1  0.775437  0.001809  0.500000  1
  Pt  Pt6  1  0.000000  0.003756  0.000000  1
  Pb  Pb7  1  0.329358  0.663631  0.500000  1
  Pb  Pb8  1  0.670642  0.334272  0.500000  1
