# generated using pymatgen
data_NpHg3(SCl3)2
_symmetry_space_group_name_H-M   'P 1'
_cell_length_a   7.58707200
_cell_length_b   7.11860685
_cell_length_c   13.38924293
_cell_angle_alpha   89.55041561
_cell_angle_beta   90.00000000
_cell_angle_gamma   90.00000000
_symmetry_Int_Tables_number   1
_chemical_formula_structural   NpHg3(SCl3)2
_chemical_formula_sum   'Np2 Hg6 S4 Cl12'
_cell_volume   723.12248286
_cell_formula_units_Z   2
loop_
 _symmetry_equiv_pos_site_id
 _symmetry_equiv_pos_as_xyz
  1  'x, y, z'
loop_
 _atom_site_type_symbol
 _atom_site_label
 _atom_site_symmetry_multiplicity
 _atom_site_fract_x
 _atom_site_fract_y
 _atom_site_fract_z
 _atom_site_occupancy
  Np  Np0  1  0.500000  0.500000  0.500000  1
  Np  Np1  1  0.000000  0.500000  0.000000  1
  Hg  Hg2  1  0.782405  0.991996  0.754578  1
  Hg  Hg3  1  0.217595  0.008004  0.245422  1
  Hg  Hg4  1  0.282405  0.008004  0.745422  1
  Hg  Hg5  1  0.717595  0.991996  0.254578  1
  Hg  Hg6  1  0.000000  0.000000  0.500000  1
  Hg  Hg7  1  0.500000  0.000000  0.000000  1
  S  S8  1  0.968300  0.142573  0.333118  1
  S  S9  1  0.468300  0.857427  0.166882  1
  S  S10  1  0.531700  0.142573  0.833118  1
  S  S11  1  0.031700  0.857427  0.666882  1
  Cl  Cl12  1  0.959687  0.663749  0.172077  1
  Cl  Cl13  1  0.292948  0.352997  0.065047  1
  Cl  Cl14  1  0.707052  0.647003  0.934953  1
  Cl  Cl15  1  0.540313  0.663749  0.672077  1
  Cl  Cl16  1  0.792948  0.647003  0.434953  1
  Cl  Cl17  1  0.839439  0.192943  0.062966  1
  Cl  Cl18  1  0.459687  0.336251  0.327923  1
  Cl  Cl19  1  0.040313  0.336251  0.827923  1
  Cl  Cl20  1  0.160561  0.807057  0.937034  1
  Cl  Cl21  1  0.207052  0.352997  0.565047  1
  Cl  Cl22  1  0.660561  0.192943  0.562966  1
  Cl  Cl23  1  0.339439  0.807057  0.437034  1
