# generated using pymatgen
data_Na7Ti(SO4)6
_symmetry_space_group_name_H-M   'P 1'
_cell_length_a   8.48342635
_cell_length_b   8.48342668
_cell_length_c   8.48342601
_cell_angle_alpha   107.96928976
_cell_angle_beta   107.96930016
_cell_angle_gamma   107.96931359
_symmetry_Int_Tables_number   1
_chemical_formula_structural   Na7Ti(SO4)6
_chemical_formula_sum   'Na7 Ti1 S6 O24'
_cell_volume   494.40297741
_cell_formula_units_Z   1
loop_
 _symmetry_equiv_pos_site_id
 _symmetry_equiv_pos_as_xyz
  1  'x, y, z'
loop_
 _atom_site_type_symbol
 _atom_site_label
 _atom_site_symmetry_multiplicity
 _atom_site_fract_x
 _atom_site_fract_y
 _atom_site_fract_z
 _atom_site_occupancy
  Na  Na0  1  0.500000  0.500000  0.500000  1
  Na  Na1  1  0.843641  0.343169  0.685358  1
  Na  Na2  1  0.343169  0.685358  0.843641  1
  Na  Na3  1  0.685358  0.843641  0.343169  1
  Na  Na4  1  0.156359  0.656831  0.314642  1
  Na  Na5  1  0.656831  0.314642  0.156359  1
  Na  Na6  1  0.314642  0.156359  0.656831  1
  Ti  Ti7  1  0.000000  0.000000  0.000000  1
  S  S8  1  0.965136  0.745779  0.599552  1
  S  S9  1  0.745779  0.599552  0.965136  1
  S  S10  1  0.599552  0.965136  0.745779  1
  S  S11  1  0.034864  0.254221  0.400448  1
  S  S12  1  0.254221  0.400448  0.034864  1
  S  S13  1  0.400448  0.034864  0.254221  1
  O  O14  1  0.474932  0.914248  0.171624  1
  O  O15  1  0.914248  0.171624  0.474932  1
  O  O16  1  0.171624  0.474932  0.914248  1
  O  O17  1  0.525068  0.085752  0.828376  1
  O  O18  1  0.085752  0.828376  0.525068  1
  O  O19  1  0.828376  0.525068  0.085752  1
  O  O20  1  0.317753  0.971871  0.365435  1
  O  O21  1  0.971871  0.365435  0.317753  1
  O  O22  1  0.365435  0.317753  0.971871  1
  O  O23  1  0.682247  0.028129  0.634565  1
  O  O24  1  0.028129  0.634565  0.682247  1
  O  O25  1  0.634565  0.682247  0.028129  1
  O  O26  1  0.749299  0.974944  0.910665  1
  O  O27  1  0.974944  0.910665  0.749299  1
  O  O28  1  0.638855  0.457615  0.769144  1
  O  O29  1  0.769144  0.638855  0.457615  1
  O  O30  1  0.457615  0.769144  0.638855  1
  O  O31  1  0.361145  0.542385  0.230856  1
  O  O32  1  0.230856  0.361145  0.542385  1
  O  O33  1  0.542385  0.230856  0.361145  1
  O  O34  1  0.089335  0.250701  0.025056  1
  O  O35  1  0.025056  0.089335  0.250701  1
  O  O36  1  0.250701  0.025056  0.089335  1
  O  O37  1  0.910665  0.749299  0.974944  1
