# generated using pymatgen
data_Ac2NdPa3N8
_symmetry_space_group_name_H-M   'P 1'
_cell_length_a   7.18692432
_cell_length_b   7.18690484
_cell_length_c   7.17759206
_cell_angle_alpha   120.03785272
_cell_angle_beta   90.00644297
_cell_angle_gamma   119.99736003
_symmetry_Int_Tables_number   1
_chemical_formula_structural   Ac2NdPa3N8
_chemical_formula_sum   'Ac2 Nd1 Pa3 N8'
_cell_volume   261.99493471
_cell_formula_units_Z   1
loop_
 _symmetry_equiv_pos_site_id
 _symmetry_equiv_pos_as_xyz
  1  'x, y, z'
loop_
 _atom_site_type_symbol
 _atom_site_label
 _atom_site_symmetry_multiplicity
 _atom_site_fract_x
 _atom_site_fract_y
 _atom_site_fract_z
 _atom_site_occupancy
  Ac  Ac0  1  0.995430  0.990853  0.986274  1
  Ac  Ac1  1  0.754571  0.509147  0.263726  1
  Nd  Nd2  1  0.375000  0.750000  0.125000  1
  Pa  Pa3  1  0.375000  0.750000  0.624999  1
  Pa  Pa4  1  0.375000  0.249999  0.624999  1
  Pa  Pa5  1  0.874999  0.249999  0.625000  1
  N  N6  1  0.617604  0.235268  0.418672  1
  N  N7  1  0.183406  0.801069  0.418676  1
  N  N8  1  0.617663  0.801067  0.418734  1
  N  N9  1  0.145149  0.290357  0.435504  1
  N  N10  1  0.604850  0.209644  0.814496  1
  N  N11  1  0.132337  0.698932  0.831264  1
  N  N12  1  0.132397  0.264733  0.831328  1
  N  N13  1  0.566594  0.698930  0.831324  1
