# generated using pymatgen
data_CsPr5Dy(CBr6)2
_symmetry_space_group_name_H-M   'P 1'
_cell_length_a   9.21498429
_cell_length_b   9.23141310
_cell_length_c   9.71649894
_cell_angle_alpha   71.99946683
_cell_angle_beta   70.63996894
_cell_angle_gamma   72.46901929
_symmetry_Int_Tables_number   1
_chemical_formula_structural   CsPr5Dy(CBr6)2
_chemical_formula_sum   'Cs1 Pr5 Dy1 C2 Br12'
_cell_volume   723.22069788
_cell_formula_units_Z   1
loop_
 _symmetry_equiv_pos_site_id
 _symmetry_equiv_pos_as_xyz
  1  'x, y, z'
loop_
 _atom_site_type_symbol
 _atom_site_label
 _atom_site_symmetry_multiplicity
 _atom_site_fract_x
 _atom_site_fract_y
 _atom_site_fract_z
 _atom_site_occupancy
  Cs  Cs0  1  0.001085  0.499214  0.999853  1
  Pr  Pr1  1  0.784326  0.032853  0.403413  1
  Pr  Pr2  1  0.596788  0.718937  0.473892  1
  Pr  Pr3  1  0.403802  0.281285  0.527004  1
  Pr  Pr4  1  0.215841  0.967855  0.594113  1
  Pr  Pr5  1  0.523396  0.882419  0.820293  1
  Dy  Dy6  1  0.475149  0.115616  0.188139  1
  C  C7  1  0.493818  0.027197  0.423612  1
  C  C8  1  0.506252  0.974848  0.572964  1
  Br  Br9  1  0.786970  0.160232  0.080810  1
  Br  Br10  1  0.582577  0.797306  0.143521  1
  Br  Br11  1  0.354140  0.424789  0.219364  1
  Br  Br12  1  0.145790  0.075105  0.287088  1
  Br  Br13  1  0.929459  0.720409  0.351295  1
  Br  Br14  1  0.717748  0.366751  0.426791  1
  Br  Br15  1  0.283014  0.632965  0.571631  1
  Br  Br16  1  0.071626  0.279843  0.648546  1
  Br  Br17  1  0.863758  0.926310  0.706353  1
  Br  Br18  1  0.650832  0.564165  0.776544  1
  Br  Br19  1  0.414968  0.213354  0.865453  1
  Br  Br20  1  0.198669  0.838543  0.919320  1
