# generated using pymatgen
data_Lu10Th2FeCo3
_symmetry_space_group_name_H-M   'P 1'
_cell_length_a   6.18240557
_cell_length_b   6.86597257
_cell_length_c   9.27546700
_cell_angle_alpha   90.00000000
_cell_angle_beta   90.00000000
_cell_angle_gamma   91.61487054
_symmetry_Int_Tables_number   1
_chemical_formula_structural   Lu10Th2FeCo3
_chemical_formula_sum   'Lu10 Th2 Fe1 Co3'
_cell_volume   393.57075461
_cell_formula_units_Z   1
loop_
 _symmetry_equiv_pos_site_id
 _symmetry_equiv_pos_as_xyz
  1  'x, y, z'
loop_
 _atom_site_type_symbol
 _atom_site_label
 _atom_site_symmetry_multiplicity
 _atom_site_fract_x
 _atom_site_fract_y
 _atom_site_fract_z
 _atom_site_occupancy
  Lu  Lu0  1  0.328688  0.677823  0.067418  1
  Lu  Lu1  1  0.174432  0.171321  0.429203  1
  Lu  Lu2  1  0.671597  0.322084  0.566353  1
  Lu  Lu3  1  0.827646  0.829301  0.932079  1
  Lu  Lu4  1  0.671597  0.322084  0.933647  1
  Lu  Lu5  1  0.827646  0.829301  0.567921  1
  Lu  Lu6  1  0.328688  0.677823  0.432582  1
  Lu  Lu7  1  0.174432  0.171321  0.070797  1
  Lu  Lu8  1  0.636093  0.041447  0.250000  1
  Lu  Lu9  1  0.360791  0.958840  0.750000  1
  Th  Th10  1  0.852314  0.556663  0.250000  1
  Th  Th11  1  0.154302  0.447068  0.750000  1
  Fe  Fe12  1  0.031441  0.867366  0.250000  1
  Co  Co13  1  0.463846  0.386472  0.250000  1
  Co  Co14  1  0.957589  0.127666  0.750000  1
  Co  Co15  1  0.538897  0.613421  0.750000  1
