# generated using pymatgen
data_SmHoSn5Rh3
_symmetry_space_group_name_H-M   'P 1'
_cell_length_a   13.49850800
_cell_length_b   13.49850809
_cell_length_c   7.25956600
_cell_angle_alpha   90.00000000
_cell_angle_beta   90.00000000
_cell_angle_gamma   160.98161727
_symmetry_Int_Tables_number   1
_chemical_formula_structural   SmHoSn5Rh3
_chemical_formula_sum   'Sm2 Ho2 Sn10 Rh6'
_cell_volume   431.05091675
_cell_formula_units_Z   2
loop_
 _symmetry_equiv_pos_site_id
 _symmetry_equiv_pos_as_xyz
  1  'x, y, z'
loop_
 _atom_site_type_symbol
 _atom_site_label
 _atom_site_symmetry_multiplicity
 _atom_site_fract_x
 _atom_site_fract_y
 _atom_site_fract_z
 _atom_site_occupancy
  Sm  Sm0  1  0.172468  0.827532  0.745232  1
  Sm  Sm1  1  0.827532  0.172468  0.245232  1
  Ho  Ho2  1  0.476042  0.523958  0.762679  1
  Ho  Ho3  1  0.523958  0.476042  0.262679  1
  Sn  Sn4  1  0.881110  0.118890  0.769513  1
  Sn  Sn5  1  0.118890  0.881110  0.269513  1
  Sn  Sn6  1  0.704621  0.295379  0.449270  1
  Sn  Sn7  1  0.295379  0.704621  0.949270  1
  Sn  Sn8  1  0.595579  0.404421  0.886074  1
  Sn  Sn9  1  0.404421  0.595579  0.386074  1
  Sn  Sn10  1  0.952762  0.047238  0.102247  1
  Sn  Sn11  1  0.047238  0.952762  0.602247  1
  Sn  Sn12  1  0.290759  0.709241  0.523505  1
  Sn  Sn13  1  0.709241  0.290759  0.023505  1
  Rh  Rh14  1  0.049885  0.950115  0.982799  1
  Rh  Rh15  1  0.950115  0.049885  0.482799  1
  Rh  Rh16  1  0.777628  0.222372  0.736111  1
  Rh  Rh17  1  0.222372  0.777628  0.236111  1
  Rh  Rh18  1  0.394789  0.605211  0.014571  1
  Rh  Rh19  1  0.605211  0.394789  0.514571  1
