# generated using pymatgen
data_TbNpB6Os
_symmetry_space_group_name_H-M   'P 1'
_cell_length_a   3.58413500
_cell_length_b   9.32774100
_cell_length_c   11.39695300
_cell_angle_alpha   90.00000000
_cell_angle_beta   90.00000000
_cell_angle_gamma   90.00000000
_symmetry_Int_Tables_number   1
_chemical_formula_structural   TbNpB6Os
_chemical_formula_sum   'Tb4 Np4 B24 Os4'
_cell_volume   381.02159913
_cell_formula_units_Z   4
loop_
 _symmetry_equiv_pos_site_id
 _symmetry_equiv_pos_as_xyz
  1  'x, y, z'
loop_
 _atom_site_type_symbol
 _atom_site_label
 _atom_site_symmetry_multiplicity
 _atom_site_fract_x
 _atom_site_fract_y
 _atom_site_fract_z
 _atom_site_occupancy
  Tb  Tb0  1  0.000000  0.337687  0.406456  1
  Tb  Tb1  1  0.000000  0.662313  0.593544  1
  Tb  Tb2  1  0.000000  0.837687  0.093544  1
  Tb  Tb3  1  0.000000  0.162313  0.906456  1
  Np  Np4  1  0.000000  0.959670  0.402182  1
  Np  Np5  1  0.000000  0.040330  0.597818  1
  Np  Np6  1  0.000000  0.459670  0.097818  1
  Np  Np7  1  0.000000  0.540330  0.902182  1
  B  B8  1  0.500000  0.552702  0.430634  1
  B  B9  1  0.500000  0.447298  0.569366  1
  B  B10  1  0.500000  0.052702  0.069366  1
  B  B11  1  0.500000  0.947298  0.930634  1
  B  B12  1  0.500000  0.743961  0.423242  1
  B  B13  1  0.500000  0.256039  0.576758  1
  B  B14  1  0.500000  0.243961  0.076758  1
  B  B15  1  0.500000  0.756039  0.923242  1
  B  B16  1  0.500000  0.804207  0.275204  1
  B  B17  1  0.500000  0.195793  0.724795  1
  B  B18  1  0.500000  0.304207  0.224796  1
  B  B19  1  0.500000  0.695793  0.775205  1
  B  B20  1  0.500000  0.644909  0.188427  1
  B  B21  1  0.500000  0.355091  0.811573  1
  B  B22  1  0.500000  0.144909  0.311573  1
  B  B23  1  0.500000  0.855091  0.688427  1
  B  B24  1  0.500000  0.989135  0.220709  1
  B  B25  1  0.500000  0.010865  0.779291  1
  B  B26  1  0.500000  0.489135  0.279291  1
  B  B27  1  0.500000  0.510865  0.720709  1
  B  B28  1  0.500000  0.642863  0.039655  1
  B  B29  1  0.500000  0.357137  0.960345  1
  B  B30  1  0.500000  0.142863  0.460345  1
  B  B31  1  0.500000  0.857137  0.539655  1
  Os  Os32  1  0.000000  0.645859  0.319518  1
  Os  Os33  1  0.000000  0.354141  0.680482  1
  Os  Os34  1  0.000000  0.145859  0.180482  1
  Os  Os35  1  0.000000  0.854141  0.819518  1
