# generated using pymatgen
data_K8TbNp3F20
_symmetry_space_group_name_H-M   'P 1'
_cell_length_a   6.75396877
_cell_length_b   7.63100400
_cell_length_c   11.10600703
_cell_angle_alpha   90.00000000
_cell_angle_beta   90.36529577
_cell_angle_gamma   90.00000000
_symmetry_Int_Tables_number   1
_chemical_formula_structural   K8TbNp3F20
_chemical_formula_sum   'K8 Tb1 Np3 F20'
_cell_volume   572.38711230
_cell_formula_units_Z   1
loop_
 _symmetry_equiv_pos_site_id
 _symmetry_equiv_pos_as_xyz
  1  'x, y, z'
loop_
 _atom_site_type_symbol
 _atom_site_label
 _atom_site_symmetry_multiplicity
 _atom_site_fract_x
 _atom_site_fract_y
 _atom_site_fract_z
 _atom_site_occupancy
  K  K0  1  0.525819  0.500544  0.830374  1
  K  K1  1  0.472277  0.503697  0.169275  1
  K  K2  1  0.027094  0.504750  0.673818  1
  K  K3  1  0.472277  0.996303  0.169275  1
  K  K4  1  0.973581  0.499554  0.326351  1
  K  K5  1  0.525819  0.999456  0.830374  1
  K  K6  1  0.973581  0.000446  0.326351  1
  K  K7  1  0.027094  0.995250  0.673818  1
  Tb  Tb8  1  0.936971  0.750000  0.001927  1
  Np  Np9  1  0.560513  0.750000  0.501022  1
  Np  Np10  1  0.438765  0.250000  0.498205  1
  Np  Np11  1  0.059981  0.250000  0.996187  1
  F  F12  1  0.835303  0.750000  0.809498  1
  F  F13  1  0.163705  0.250000  0.196433  1
  F  F14  1  0.332662  0.250000  0.698785  1
  F  F15  1  0.669989  0.750000  0.303289  1
  F  F16  1  0.358418  0.750000  0.670666  1
  F  F17  1  0.635238  0.250000  0.327055  1
  F  F18  1  0.857474  0.250000  0.829787  1
  F  F19  1  0.133806  0.750000  0.163391  1
  F  F20  1  0.908168  0.750000  0.510304  1
  F  F21  1  0.095364  0.250000  0.489557  1
  F  F22  1  0.404466  0.250000  0.989776  1
  F  F23  1  0.608199  0.750000  0.012105  1
  F  F24  1  0.646601  0.029717  0.586117  1
  F  F25  1  0.353849  0.968948  0.413909  1
  F  F26  1  0.144036  0.959325  0.921254  1
  F  F27  1  0.353849  0.531052  0.413909  1
  F  F28  1  0.857232  0.020515  0.079908  1
  F  F29  1  0.646601  0.470283  0.586117  1
  F  F30  1  0.857232  0.479485  0.079908  1
  F  F31  1  0.144036  0.540675  0.921254  1
