# generated using pymatgen
data_Y5Ni16(P4Pd)3
_symmetry_space_group_name_H-M   'P 1'
_cell_length_a   12.22855800
_cell_length_b   12.22855860
_cell_length_c   3.79991000
_cell_angle_alpha   90.00000000
_cell_angle_beta   90.00000000
_cell_angle_gamma   120.00000378
_symmetry_Int_Tables_number   1
_chemical_formula_structural   Y5Ni16(P4Pd)3
_chemical_formula_sum   'Y5 Ni16 P12 Pd3'
_cell_volume   492.10122111
_cell_formula_units_Z   1
loop_
 _symmetry_equiv_pos_site_id
 _symmetry_equiv_pos_as_xyz
  1  'x, y, z'
loop_
 _atom_site_type_symbol
 _atom_site_label
 _atom_site_symmetry_multiplicity
 _atom_site_fract_x
 _atom_site_fract_y
 _atom_site_fract_z
 _atom_site_occupancy
  Y  Y0  1  0.186535  0.186535  0.500000  1
  Y  Y1  1  0.813465  0.000000  0.500000  1
  Y  Y2  1  0.000000  0.813465  0.500000  1
  Y  Y3  1  0.333333  0.666667  0.000000  1
  Y  Y4  1  0.666667  0.333333  0.000000  1
  Ni  Ni5  1  0.716166  0.716166  0.500000  1
  Ni  Ni6  1  0.283834  0.000000  0.500000  1
  Ni  Ni7  1  0.000000  0.283834  0.500000  1
  Ni  Ni8  1  0.184242  0.378405  0.000000  1
  Ni  Ni9  1  0.621595  0.805838  0.000000  1
  Ni  Ni10  1  0.194162  0.815758  0.000000  1
  Ni  Ni11  1  0.805838  0.621595  0.000000  1
  Ni  Ni12  1  0.815758  0.194162  0.000000  1
  Ni  Ni13  1  0.378405  0.184242  0.000000  1
  Ni  Ni14  1  0.360748  0.486595  0.500000  1
  Ni  Ni15  1  0.513405  0.874153  0.500000  1
  Ni  Ni16  1  0.125847  0.639252  0.500000  1
  Ni  Ni17  1  0.874153  0.513405  0.500000  1
  Ni  Ni18  1  0.639252  0.125847  0.500000  1
  Ni  Ni19  1  0.486595  0.360748  0.500000  1
  Ni  Ni20  1  0.000000  0.000000  0.000000  1
  P  P21  1  0.821517  0.821517  0.000000  1
  P  P22  1  0.178483  0.000000  0.000000  1
  P  P23  1  0.000000  0.178483  0.000000  1
  P  P24  1  0.171568  0.477719  0.500000  1
  P  P25  1  0.522281  0.693851  0.500000  1
  P  P26  1  0.306149  0.828432  0.500000  1
  P  P27  1  0.693851  0.522281  0.500000  1
  P  P28  1  0.828432  0.306149  0.500000  1
  P  P29  1  0.477719  0.171568  0.500000  1
  P  P30  1  0.361238  0.361238  0.000000  1
  P  P31  1  0.638762  0.000000  0.000000  1
  P  P32  1  0.000000  0.638762  0.000000  1
  Pd  Pd33  1  0.553413  0.553413  0.000000  1
  Pd  Pd34  1  0.446587  0.000000  0.000000  1
  Pd  Pd35  1  0.000000  0.446587  0.000000  1
