# generated using pymatgen
data_Dy2Mn(Co3As2)3
_symmetry_space_group_name_H-M   'P 1'
_cell_length_a   3.79897200
_cell_length_b   10.69948500
_cell_length_c   12.25730900
_cell_angle_alpha   90.00000000
_cell_angle_beta   90.00000000
_cell_angle_gamma   90.00000000
_symmetry_Int_Tables_number   1
_chemical_formula_structural   Dy2Mn(Co3As2)3
_chemical_formula_sum   'Dy4 Mn2 Co18 As12'
_cell_volume   498.22337738
_cell_formula_units_Z   2
loop_
 _symmetry_equiv_pos_site_id
 _symmetry_equiv_pos_as_xyz
  1  'x, y, z'
loop_
 _atom_site_type_symbol
 _atom_site_label
 _atom_site_symmetry_multiplicity
 _atom_site_fract_x
 _atom_site_fract_y
 _atom_site_fract_z
 _atom_site_occupancy
  Dy  Dy0  1  0.250000  0.578406  0.701346  1
  Dy  Dy1  1  0.250000  0.921594  0.201346  1
  Dy  Dy2  1  0.750000  0.419765  0.296743  1
  Dy  Dy3  1  0.750000  0.080235  0.796743  1
  Mn  Mn4  1  0.250000  0.703214  0.990712  1
  Mn  Mn5  1  0.250000  0.796786  0.490712  1
  Co  Co6  1  0.750000  0.293884  0.009417  1
  Co  Co7  1  0.750000  0.206116  0.509417  1
  Co  Co8  1  0.250000  0.404623  0.488195  1
  Co  Co9  1  0.250000  0.095377  0.988195  1
  Co  Co10  1  0.750000  0.592788  0.514215  1
  Co  Co11  1  0.750000  0.907212  0.014215  1
  Co  Co12  1  0.250000  0.218185  0.176157  1
  Co  Co13  1  0.250000  0.281815  0.676157  1
  Co  Co14  1  0.750000  0.782725  0.825303  1
  Co  Co15  1  0.750000  0.717275  0.325303  1
  Co  Co16  1  0.250000  0.883140  0.698030  1
  Co  Co17  1  0.250000  0.616860  0.198030  1
  Co  Co18  1  0.750000  0.118496  0.302003  1
  Co  Co19  1  0.750000  0.381504  0.802003  1
  Co  Co20  1  0.250000  0.466040  0.932305  1
  Co  Co21  1  0.250000  0.033960  0.432305  1
  Co  Co22  1  0.750000  0.532327  0.065948  1
  Co  Co23  1  0.750000  0.967673  0.565948  1
  As  As24  1  0.250000  0.417649  0.114504  1
  As  As25  1  0.250000  0.082351  0.614504  1
  As  As26  1  0.750000  0.580887  0.882792  1
  As  As27  1  0.750000  0.919113  0.382792  1
  As  As28  1  0.250000  0.267084  0.867574  1
  As  As29  1  0.250000  0.232916  0.367574  1
  As  As30  1  0.750000  0.731861  0.135547  1
  As  As31  1  0.750000  0.768139  0.635547  1
  As  As32  1  0.250000  0.596522  0.390984  1
  As  As33  1  0.250000  0.903478  0.890984  1
  As  As34  1  0.750000  0.396881  0.608227  1
  As  As35  1  0.750000  0.103119  0.108227  1
