# generated using pymatgen
data_V5Tc6WI24
_symmetry_space_group_name_H-M   'P 1'
_cell_length_a   10.55494626
_cell_length_b   10.55609310
_cell_length_c   12.67992800
_cell_angle_alpha   89.80441626
_cell_angle_beta   89.81969757
_cell_angle_gamma   105.55058365
_symmetry_Int_Tables_number   1
_chemical_formula_structural   V5Tc6WI24
_chemical_formula_sum   'V5 Tc6 W1 I24'
_cell_volume   1361.04861533
_cell_formula_units_Z   1
loop_
 _symmetry_equiv_pos_site_id
 _symmetry_equiv_pos_as_xyz
  1  'x, y, z'
loop_
 _atom_site_type_symbol
 _atom_site_label
 _atom_site_symmetry_multiplicity
 _atom_site_fract_x
 _atom_site_fract_y
 _atom_site_fract_z
 _atom_site_occupancy
  V  V0  1  0.622865  0.622327  0.431217  1
  V  V1  1  0.378267  0.377472  0.571139  1
  V  V2  1  0.875090  0.876462  0.930808  1
  V  V3  1  0.122462  0.123977  0.069742  1
  V  V4  1  0.569799  0.569463  0.624422  1
  Tc  Tc5  1  0.427709  0.427382  0.370651  1
  Tc  Tc6  1  0.926500  0.926987  0.131961  1
  Tc  Tc7  1  0.073001  0.073466  0.868824  1
  Tc  Tc8  1  0.612714  0.387593  0.500694  1
  Tc  Tc9  1  0.888246  0.111668  0.000377  1
  Tc  Tc10  1  0.388110  0.611993  0.500878  1
  W  W11  1  0.109694  0.890118  0.000461  1
  I  I12  1  0.821462  0.589083  0.556876  1
  I  I13  1  0.410713  0.177661  0.439920  1
  I  I14  1  0.676252  0.906240  0.063719  1
  I  I15  1  0.094729  0.323816  0.937400  1
  I  I16  1  0.178287  0.409468  0.439871  1
  I  I17  1  0.589957  0.821092  0.556788  1
  I  I18  1  0.324764  0.096802  0.940708  1
  I  I19  1  0.903873  0.674723  0.060485  1
  I  I20  1  0.671841  0.439659  0.291443  1
  I  I21  1  0.557113  0.325290  0.707439  1
  I  I22  1  0.828311  0.058046  0.789946  1
  I  I23  1  0.942093  0.172063  0.210970  1
  I  I24  1  0.325099  0.554911  0.707816  1
  I  I25  1  0.441155  0.671837  0.291428  1
  I  I26  1  0.174668  0.946414  0.211659  1
  I  I27  1  0.053819  0.825499  0.789302  1
  I  I28  1  0.667927  0.670256  0.832530  1
  I  I29  1  0.332685  0.334630  0.165113  1
  I  I30  1  0.834325  0.831626  0.336410  1
  I  I31  1  0.168969  0.166005  0.664312  1
  I  I32  1  0.782724  0.222755  0.502082  1
  I  I33  1  0.722894  0.278670  0.999918  1
  I  I34  1  0.223161  0.781738  0.502610  1
  I  I35  1  0.278722  0.722804  0.000082  1
