# generated using pymatgen
data_Er3ZnAs2Rh3
_symmetry_space_group_name_H-M   'P 1'
_cell_length_a   6.87181500
_cell_length_b   6.87181494
_cell_length_c   4.01343600
_cell_angle_alpha   90.00000000
_cell_angle_beta   90.00000000
_cell_angle_gamma   120.00000511
_symmetry_Int_Tables_number   1
_chemical_formula_structural   Er3ZnAs2Rh3
_chemical_formula_sum   'Er3 Zn1 As2 Rh3'
_cell_volume   164.13071655
_cell_formula_units_Z   1
loop_
 _symmetry_equiv_pos_site_id
 _symmetry_equiv_pos_as_xyz
  1  'x, y, z'
loop_
 _atom_site_type_symbol
 _atom_site_label
 _atom_site_symmetry_multiplicity
 _atom_site_fract_x
 _atom_site_fract_y
 _atom_site_fract_z
 _atom_site_occupancy
  Er  Er0  1  0.410043  0.000000  0.500000  1
  Er  Er1  1  0.000000  0.410043  0.500000  1
  Er  Er2  1  0.589957  0.589956  0.500000  1
  Zn  Zn3  1  0.000000  0.000000  0.500000  1
  As  As4  1  0.666666  0.333333  0.000000  1
  As  As5  1  0.333334  0.666667  0.000000  1
  Rh  Rh6  1  0.759743  0.000000  0.000000  1
  Rh  Rh7  1  0.240257  0.240256  0.000000  1
  Rh  Rh8  1  0.000000  0.759744  0.000000  1
