# generated using pymatgen
data_La9Ho(SnSb)4
_symmetry_space_group_name_H-M   'P 1'
_cell_length_a   9.16609841
_cell_length_b   9.16609854
_cell_length_c   8.60885200
_cell_angle_alpha   89.83412758
_cell_angle_beta   89.83412758
_cell_angle_gamma   124.91232299
_symmetry_Int_Tables_number   1
_chemical_formula_structural   La9Ho(SnSb)4
_chemical_formula_sum   'La9 Ho1 Sn4 Sb4'
_cell_volume   593.10949212
_cell_formula_units_Z   1
loop_
 _symmetry_equiv_pos_site_id
 _symmetry_equiv_pos_as_xyz
  1  'x, y, z'
loop_
 _atom_site_type_symbol
 _atom_site_label
 _atom_site_symmetry_multiplicity
 _atom_site_fract_x
 _atom_site_fract_y
 _atom_site_fract_z
 _atom_site_occupancy
  La  La0  1  0.030626  0.308892  0.335048  1
  La  La1  1  0.969374  0.691108  0.664952  1
  La  La2  1  0.468985  0.193543  0.834291  1
  La  La3  1  0.806457  0.531015  0.165709  1
  La  La4  1  0.531015  0.806457  0.165709  1
  La  La5  1  0.193543  0.468985  0.834291  1
  La  La6  1  0.691108  0.969374  0.664952  1
  La  La7  1  0.308892  0.030626  0.335048  1
  La  La8  1  0.000000  0.000000  0.000000  1
  Ho  Ho9  1  0.500000  0.500000  0.500000  1
  Sn  Sn10  1  0.370349  0.370349  0.134796  1
  Sn  Sn11  1  0.629651  0.629651  0.865204  1
  Sn  Sn12  1  0.135027  0.135027  0.627115  1
  Sn  Sn13  1  0.864973  0.864973  0.372885  1
  Sb  Sb14  1  0.797848  0.202152  0.000000  1
  Sb  Sb15  1  0.202152  0.797848  0.000000  1
  Sb  Sb16  1  0.696534  0.303466  0.500000  1
  Sb  Sb17  1  0.303466  0.696534  0.500000  1
