# generated using pymatgen
data_TbPr3ErPb3
_symmetry_space_group_name_H-M   'P 1'
_cell_length_a   9.30987200
_cell_length_b   9.30987316
_cell_length_c   6.80804700
_cell_angle_alpha   90.00000000
_cell_angle_beta   90.00000000
_cell_angle_gamma   119.99999587
_symmetry_Int_Tables_number   1
_chemical_formula_structural   TbPr3ErPb3
_chemical_formula_sum   'Tb2 Pr6 Er2 Pb6'
_cell_volume   511.02326124
_cell_formula_units_Z   2
loop_
 _symmetry_equiv_pos_site_id
 _symmetry_equiv_pos_as_xyz
  1  'x, y, z'
loop_
 _atom_site_type_symbol
 _atom_site_label
 _atom_site_symmetry_multiplicity
 _atom_site_fract_x
 _atom_site_fract_y
 _atom_site_fract_z
 _atom_site_occupancy
  Tb  Tb0  1  0.333333  0.666667  0.500000  1
  Tb  Tb1  1  0.666667  0.333333  0.500000  1
  Pr  Pr2  1  0.759132  0.759132  0.750877  1
  Pr  Pr3  1  0.240868  0.000000  0.750877  1
  Pr  Pr4  1  0.000000  0.240868  0.750877  1
  Pr  Pr5  1  0.240868  0.240868  0.249123  1
  Pr  Pr6  1  0.759132  0.000000  0.249123  1
  Pr  Pr7  1  0.000000  0.759132  0.249123  1
  Er  Er8  1  0.666667  0.333333  0.000000  1
  Er  Er9  1  0.333333  0.666667  0.000000  1
  Pb  Pb10  1  0.397869  0.397869  0.754738  1
  Pb  Pb11  1  0.602131  0.000000  0.754738  1
  Pb  Pb12  1  0.000000  0.602131  0.754738  1
  Pb  Pb13  1  0.602131  0.602131  0.245262  1
  Pb  Pb14  1  0.397869  0.000000  0.245262  1
  Pb  Pb15  1  0.000000  0.397869  0.245262  1
