# generated using pymatgen
data_YBr37
_symmetry_space_group_name_H-M   'P 1'
_cell_length_a   14.20848141
_cell_length_b   15.29732181
_cell_length_c   14.42416200
_cell_angle_alpha   103.00376457
_cell_angle_beta   48.80056783
_cell_angle_gamma   81.50743146
_symmetry_Int_Tables_number   1
_chemical_formula_structural   YBr37
_chemical_formula_sum   'Y1 Br37'
_cell_volume   2102.91272627
_cell_formula_units_Z   1
loop_
 _symmetry_equiv_pos_site_id
 _symmetry_equiv_pos_as_xyz
  1  'x, y, z'
loop_
 _atom_site_type_symbol
 _atom_site_label
 _atom_site_symmetry_multiplicity
 _atom_site_fract_x
 _atom_site_fract_y
 _atom_site_fract_z
 _atom_site_occupancy
  Y  Y0  1  0.500000  0.000000  0.000000  1
  Br  Br1  1  0.793799  0.302335  0.135647  1
  Br  Br2  1  0.206201  0.697665  0.864353  1
  Br  Br3  1  0.749272  0.082496  0.362139  1
  Br  Br4  1  0.250728  0.917504  0.637861  1
  Br  Br5  1  0.110939  0.349492  0.173443  1
  Br  Br6  1  0.889061  0.650508  0.826557  1
  Br  Br7  1  0.868919  0.538017  0.247926  1
  Br  Br8  1  0.131081  0.461983  0.752074  1
  Br  Br9  1  0.688455  0.275369  0.521447  1
  Br  Br10  1  0.311545  0.724631  0.478553  1
  Br  Br11  1  0.059358  0.147791  0.464841  1
  Br  Br12  1  0.940642  0.852209  0.535159  1
  Br  Br13  1  0.984438  0.006042  0.281538  1
  Br  Br14  1  0.015562  0.993958  0.718462  1
  Br  Br15  1  0.958647  0.341647  0.595368  1
  Br  Br16  1  0.041353  0.658353  0.404632  1
  Br  Br17  1  0.583756  0.429439  0.234649  1
  Br  Br18  1  0.416244  0.570561  0.765351  1
  Br  Br19  1  0.172199  0.476992  0.272742  1
  Br  Br20  1  0.827801  0.523008  0.727258  1
  Br  Br21  1  0.000000  0.500000  0.000000  1
  Br  Br22  1  0.581897  0.949633  0.125373  1
  Br  Br23  1  0.418103  0.050367  0.874627  1
  Br  Br24  1  0.321312  0.052087  0.298405  1
  Br  Br25  1  0.678688  0.947913  0.701595  1
  Br  Br26  1  0.536652  0.131091  0.412028  1
  Br  Br27  1  0.463348  0.868909  0.587972  1
  Br  Br28  1  0.087611  0.215008  0.073433  1
  Br  Br29  1  0.912389  0.784992  0.926567  1
  Br  Br30  1  0.663487  0.695850  0.402416  1
  Br  Br31  1  0.336513  0.304150  0.597584  1
  Br  Br32  1  0.900682  0.149147  0.924486  1
  Br  Br33  1  0.099318  0.850853  0.075514  1
  Br  Br34  1  0.530839  0.167660  0.037924  1
  Br  Br35  1  0.469161  0.832340  0.962076  1
  Br  Br36  1  0.648227  0.431931  0.650950  1
  Br  Br37  1  0.351773  0.568069  0.349050  1
