# generated using pymatgen
data_Er4Al23GaIr2Pt6Au
_symmetry_space_group_name_H-M   'P 1'
_cell_length_a   7.50140079
_cell_length_b   7.50094357
_cell_length_c   13.17634600
_cell_angle_alpha   84.51112370
_cell_angle_beta   100.86370298
_cell_angle_gamma   119.76255385
_symmetry_Int_Tables_number   1
_chemical_formula_structural   Er4Al23GaIr2Pt6Au
_chemical_formula_sum   'Er4 Al23 Ga1 Ir2 Pt6 Au1'
_cell_volume   632.06662175
_cell_formula_units_Z   1
loop_
 _symmetry_equiv_pos_site_id
 _symmetry_equiv_pos_as_xyz
  1  'x, y, z'
loop_
 _atom_site_type_symbol
 _atom_site_label
 _atom_site_symmetry_multiplicity
 _atom_site_fract_x
 _atom_site_fract_y
 _atom_site_fract_z
 _atom_site_occupancy
  Er  Er0  1  0.732016  0.998475  0.190076  1
  Er  Er1  1  0.265899  0.003276  0.810693  1
  Er  Er2  1  0.061943  0.668709  0.190639  1
  Er  Er3  1  0.938649  0.328878  0.810707  1
  Al  Al4  1  0.190630  0.128983  0.182257  1
  Al  Al5  1  0.986960  0.669720  0.947221  1
  Al  Al6  1  0.020523  0.334583  0.054449  1
  Al  Al7  1  0.394427  0.663854  0.819310  1
  Al  Al8  1  0.601615  0.335871  0.182962  1
  Al  Al9  1  0.888012  0.668934  0.675653  1
  Al  Al10  1  0.115134  0.334373  0.324851  1
  Al  Al11  1  0.604878  0.459276  0.819876  1
  Al  Al12  1  0.397114  0.544188  0.181100  1
  Al  Al13  1  0.228951  0.340755  0.673708  1
  Al  Al14  1  0.770184  0.661134  0.328117  1
  Al  Al15  1  0.860851  0.333996  0.557841  1
  Al  Al16  1  0.178258  0.991966  0.557559  1
  Al  Al17  1  0.813786  0.000636  0.439238  1
  Al  Al18  1  0.348995  0.996185  0.054648  1
  Al  Al19  1  0.648337  0.998464  0.947014  1
  Al  Al20  1  0.558034  0.988007  0.676321  1
  Al  Al21  1  0.442799  0.005406  0.325694  1
  Al  Al22  1  0.521215  0.675258  0.559187  1
  Al  Al23  1  0.475863  0.331206  0.431859  1
  Al  Al24  1  0.683982  0.672167  0.045688  1
  Al  Al25  1  0.314591  0.332343  0.958178  1
  Al  Al26  1  0.146570  0.666035  0.439592  1
  Ga  Ga27  1  0.806419  0.865701  0.818096  1
  Ir  Ir28  1  0.329476  0.672088  0.999591  1
  Ir  Ir29  1  0.000693  0.001066  0.001496  1
  Pt  Pt30  1  0.453671  0.674215  0.362050  1
  Pt  Pt31  1  0.887732  0.008690  0.636472  1
  Pt  Pt32  1  0.112473  0.991806  0.361208  1
  Pt  Pt33  1  0.672174  0.329049  0.000533  1
  Pt  Pt34  1  0.205278  0.667341  0.638582  1
  Pt  Pt35  1  0.795519  0.332767  0.361611  1
  Au  Au36  1  0.546347  0.324597  0.635924  1
