# generated using pymatgen
data_TbErFe6(P3Rh2)2
_symmetry_space_group_name_H-M   'P 1'
_cell_length_a   3.76231500
_cell_length_b   10.33611200
_cell_length_c   12.17649900
_cell_angle_alpha   90.00000000
_cell_angle_beta   90.00000000
_cell_angle_gamma   90.00000000
_symmetry_Int_Tables_number   1
_chemical_formula_structural   TbErFe6(P3Rh2)2
_chemical_formula_sum   'Tb2 Er2 Fe12 P12 Rh8'
_cell_volume   473.51615242
_cell_formula_units_Z   2
loop_
 _symmetry_equiv_pos_site_id
 _symmetry_equiv_pos_as_xyz
  1  'x, y, z'
loop_
 _atom_site_type_symbol
 _atom_site_label
 _atom_site_symmetry_multiplicity
 _atom_site_fract_x
 _atom_site_fract_y
 _atom_site_fract_z
 _atom_site_occupancy
  Tb  Tb0  1  0.750000  0.419135  0.289010  1
  Tb  Tb1  1  0.750000  0.080865  0.789010  1
  Er  Er2  1  0.250000  0.580773  0.711031  1
  Er  Er3  1  0.250000  0.919227  0.211031  1
  Fe  Fe4  1  0.250000  0.223863  0.170728  1
  Fe  Fe5  1  0.250000  0.276137  0.670728  1
  Fe  Fe6  1  0.750000  0.775109  0.829064  1
  Fe  Fe7  1  0.750000  0.724891  0.329064  1
  Fe  Fe8  1  0.250000  0.876986  0.697140  1
  Fe  Fe9  1  0.250000  0.623014  0.197140  1
  Fe  Fe10  1  0.750000  0.121629  0.302435  1
  Fe  Fe11  1  0.750000  0.378371  0.802435  1
  Fe  Fe12  1  0.250000  0.459628  0.934862  1
  Fe  Fe13  1  0.250000  0.040372  0.434862  1
  Fe  Fe14  1  0.750000  0.540972  0.064497  1
  Fe  Fe15  1  0.750000  0.959028  0.564497  1
  P  P16  1  0.250000  0.429760  0.112360  1
  P  P17  1  0.250000  0.070240  0.612360  1
  P  P18  1  0.750000  0.570505  0.886479  1
  P  P19  1  0.750000  0.929495  0.386479  1
  P  P20  1  0.250000  0.274235  0.853170  1
  P  P21  1  0.250000  0.225765  0.353170  1
  P  P22  1  0.750000  0.726980  0.147175  1
  P  P23  1  0.750000  0.773020  0.647175  1
  P  P24  1  0.250000  0.606510  0.378014  1
  P  P25  1  0.250000  0.893490  0.878014  1
  P  P26  1  0.750000  0.394545  0.622291  1
  P  P27  1  0.750000  0.105455  0.122291  1
  Rh  Rh28  1  0.250000  0.707483  0.985398  1
  Rh  Rh29  1  0.250000  0.792517  0.485398  1
  Rh  Rh30  1  0.750000  0.292587  0.014801  1
  Rh  Rh31  1  0.750000  0.207413  0.514801  1
  Rh  Rh32  1  0.250000  0.404814  0.479758  1
  Rh  Rh33  1  0.250000  0.095186  0.979758  1
  Rh  Rh34  1  0.750000  0.595231  0.521787  1
  Rh  Rh35  1  0.750000  0.904769  0.021787  1
