# generated using pymatgen
data_Ho9Th3Fe4
_symmetry_space_group_name_H-M   'P 1'
_cell_length_a   6.21464837
_cell_length_b   6.94832278
_cell_length_c   9.38255700
_cell_angle_alpha   90.00000000
_cell_angle_beta   90.00000000
_cell_angle_gamma   89.03871252
_symmetry_Int_Tables_number   1
_chemical_formula_structural   Ho9Th3Fe4
_chemical_formula_sum   'Ho9 Th3 Fe4'
_cell_volume   405.09476419
_cell_formula_units_Z   1
loop_
 _symmetry_equiv_pos_site_id
 _symmetry_equiv_pos_as_xyz
  1  'x, y, z'
loop_
 _atom_site_type_symbol
 _atom_site_label
 _atom_site_symmetry_multiplicity
 _atom_site_fract_x
 _atom_site_fract_y
 _atom_site_fract_z
 _atom_site_occupancy
  Ho  Ho0  1  0.672354  0.171712  0.067199  1
  Ho  Ho1  1  0.828953  0.670058  0.431963  1
  Ho  Ho2  1  0.324835  0.828690  0.930532  1
  Ho  Ho3  1  0.174522  0.330269  0.570864  1
  Ho  Ho4  1  0.672354  0.171712  0.432801  1
  Ho  Ho5  1  0.174522  0.330269  0.929136  1
  Ho  Ho6  1  0.324835  0.828690  0.569468  1
  Ho  Ho7  1  0.642151  0.453813  0.750000  1
  Ho  Ho8  1  0.828953  0.670058  0.068037  1
  Th  Th9  1  0.350642  0.556575  0.250000  1
  Th  Th10  1  0.155130  0.058771  0.250000  1
  Th  Th11  1  0.844566  0.944974  0.750000  1
  Fe  Fe12  1  0.981053  0.370411  0.250000  1
  Fe  Fe13  1  0.481695  0.111226  0.750000  1
  Fe  Fe14  1  0.518592  0.867658  0.250000  1
  Fe  Fe15  1  0.024842  0.635116  0.750000  1
