# generated using pymatgen
data_Li3Y4Co17As12
_symmetry_space_group_name_H-M   'P 1'
_cell_length_a   3.82513900
_cell_length_b   10.69773302
_cell_length_c   12.32187530
_cell_angle_alpha   89.99196153
_cell_angle_beta   90.00000000
_cell_angle_gamma   90.00000000
_symmetry_Int_Tables_number   1
_chemical_formula_structural   Li3Y4Co17As12
_chemical_formula_sum   'Li3 Y4 Co17 As12'
_cell_volume   504.21502315
_cell_formula_units_Z   1
loop_
 _symmetry_equiv_pos_site_id
 _symmetry_equiv_pos_as_xyz
  1  'x, y, z'
loop_
 _atom_site_type_symbol
 _atom_site_label
 _atom_site_symmetry_multiplicity
 _atom_site_fract_x
 _atom_site_fract_y
 _atom_site_fract_z
 _atom_site_occupancy
  Li  Li0  1  0.250000  0.699216  0.992564  1
  Li  Li1  1  0.250000  0.800373  0.492493  1
  Li  Li2  1  0.750000  0.299959  0.006375  1
  Y  Y3  1  0.250000  0.577004  0.700537  1
  Y  Y4  1  0.250000  0.923501  0.201888  1
  Y  Y5  1  0.750000  0.422611  0.300074  1
  Y  Y6  1  0.750000  0.076871  0.797760  1
  Co  Co7  1  0.750000  0.207348  0.506945  1
  Co  Co8  1  0.250000  0.405114  0.486453  1
  Co  Co9  1  0.250000  0.092370  0.986568  1
  Co  Co10  1  0.750000  0.590284  0.514507  1
  Co  Co11  1  0.750000  0.908945  0.014553  1
  Co  Co12  1  0.250000  0.216580  0.178530  1
  Co  Co13  1  0.250000  0.281374  0.671939  1
  Co  Co14  1  0.750000  0.784412  0.824897  1
  Co  Co15  1  0.750000  0.715108  0.324996  1
  Co  Co16  1  0.250000  0.881280  0.698495  1
  Co  Co17  1  0.250000  0.620226  0.198818  1
  Co  Co18  1  0.750000  0.119026  0.302995  1
  Co  Co19  1  0.750000  0.378363  0.799309  1
  Co  Co20  1  0.250000  0.466372  0.931078  1
  Co  Co21  1  0.250000  0.034640  0.431995  1
  Co  Co22  1  0.750000  0.532028  0.067683  1
  Co  Co23  1  0.750000  0.968354  0.567251  1
  As  As24  1  0.250000  0.420501  0.116329  1
  As  As25  1  0.250000  0.080229  0.613330  1
  As  As26  1  0.750000  0.578693  0.883195  1
  As  As27  1  0.750000  0.919444  0.384108  1
  As  As28  1  0.250000  0.266769  0.862251  1
  As  As29  1  0.250000  0.232831  0.367820  1
  As  As30  1  0.750000  0.732088  0.136603  1
  As  As31  1  0.750000  0.768155  0.636139  1
  As  As32  1  0.250000  0.602880  0.393681  1
  As  As33  1  0.250000  0.896617  0.893452  1
  As  As34  1  0.750000  0.395629  0.605938  1
  As  As35  1  0.750000  0.104811  0.108452  1
