# generated using pymatgen
data_Yb4Al17SiIr6
_symmetry_space_group_name_H-M   'P 1'
_cell_length_a   7.53841989
_cell_length_b   7.52368399
_cell_length_c   9.58548150
_cell_angle_alpha   89.95096641
_cell_angle_beta   90.05945480
_cell_angle_gamma   119.36045099
_symmetry_Int_Tables_number   1
_chemical_formula_structural   Yb4Al17SiIr6
_chemical_formula_sum   'Yb4 Al17 Si1 Ir6'
_cell_volume   473.82510321
_cell_formula_units_Z   1
loop_
 _symmetry_equiv_pos_site_id
 _symmetry_equiv_pos_as_xyz
  1  'x, y, z'
loop_
 _atom_site_type_symbol
 _atom_site_label
 _atom_site_symmetry_multiplicity
 _atom_site_fract_x
 _atom_site_fract_y
 _atom_site_fract_z
 _atom_site_occupancy
  Yb  Yb0  1  0.994754  0.665976  0.248140  1
  Yb  Yb1  1  0.004528  0.328552  0.753625  1
  Yb  Yb2  1  0.676565  0.002116  0.248152  1
  Yb  Yb3  1  0.328036  0.004367  0.749476  1
  Al  Al4  1  0.129684  0.130326  0.249769  1
  Al  Al5  1  0.869962  0.871123  0.749520  1
  Al  Al6  1  0.998150  0.668699  0.928063  1
  Al  Al7  1  0.997719  0.664836  0.570604  1
  Al  Al8  1  0.334782  0.000685  0.428169  1
  Al  Al9  1  0.001682  0.335437  0.432419  1
  Al  Al10  1  0.663825  0.997144  0.570211  1
  Al  Al11  1  0.660688  0.994264  0.928181  1
  Al  Al12  1  0.334659  0.000356  0.071438  1
  Al  Al13  1  0.334351  0.333922  0.549230  1
  Al  Al14  1  0.666346  0.666850  0.449247  1
  Al  Al15  1  0.666815  0.666980  0.050263  1
  Al  Al16  1  0.337106  0.334046  0.951923  1
  Al  Al17  1  0.336519  0.547277  0.249932  1
  Al  Al18  1  0.664660  0.453049  0.750941  1
  Al  Al19  1  0.544679  0.336739  0.250055  1
  Al  Al20  1  0.452495  0.662106  0.749686  1
  Si  Si21  1  0.003143  0.335457  0.070462  1
  Ir  Ir22  1  0.679689  0.328919  0.002769  1
  Ir  Ir23  1  0.321035  0.663892  0.999682  1
  Ir  Ir24  1  0.327596  0.670504  0.499340  1
  Ir  Ir25  1  0.670675  0.328151  0.499959  1
  Ir  Ir26  1  0.000113  0.007745  0.999730  1
  Ir  Ir27  1  0.999745  0.000481  0.499015  1
