# generated using pymatgen
data_Nd4Sm3Tm13Sn16
_symmetry_space_group_name_H-M   'P 1'
_cell_length_a   8.03726026
_cell_length_b   8.18229644
_cell_length_c   15.43758610
_cell_angle_alpha   90.02976611
_cell_angle_beta   90.18747618
_cell_angle_gamma   89.79301943
_symmetry_Int_Tables_number   1
_chemical_formula_structural   Nd4Sm3Tm13Sn16
_chemical_formula_sum   'Nd4 Sm3 Tm13 Sn16'
_cell_volume   1015.21358175
_cell_formula_units_Z   1
loop_
 _symmetry_equiv_pos_site_id
 _symmetry_equiv_pos_as_xyz
  1  'x, y, z'
loop_
 _atom_site_type_symbol
 _atom_site_label
 _atom_site_symmetry_multiplicity
 _atom_site_fract_x
 _atom_site_fract_y
 _atom_site_fract_z
 _atom_site_occupancy
  Nd  Nd0  1  0.018644  0.179406  0.597793  1
  Nd  Nd1  1  0.481750  0.678831  0.403372  1
  Nd  Nd2  1  0.980921  0.821251  0.096211  1
  Nd  Nd3  1  0.480637  0.677762  0.096411  1
  Sm  Sm4  1  0.981482  0.821096  0.403081  1
  Sm  Sm5  1  0.517836  0.321459  0.596633  1
  Sm  Sm6  1  0.018831  0.179968  0.902647  1
  Tm  Tm7  1  0.364898  0.836398  0.876758  1
  Tm  Tm8  1  0.863954  0.663277  0.623356  1
  Tm  Tm9  1  0.635415  0.163728  0.377043  1
  Tm  Tm10  1  0.133675  0.336198  0.122293  1
  Tm  Tm11  1  0.633823  0.164549  0.122318  1
  Tm  Tm12  1  0.135524  0.336216  0.377125  1
  Tm  Tm13  1  0.364788  0.836758  0.624055  1
  Tm  Tm14  1  0.865416  0.662811  0.877338  1
  Tm  Tm15  1  0.522097  0.321770  0.901879  1
  Tm  Tm16  1  0.197741  0.503512  0.750960  1
  Tm  Tm17  1  0.696432  0.995885  0.750832  1
  Tm  Tm18  1  0.803014  0.495209  0.249829  1
  Tm  Tm19  1  0.302966  0.004795  0.249935  1
  Sn  Sn20  1  0.299049  0.040634  0.041358  1
  Sn  Sn21  1  0.799820  0.459752  0.458398  1
  Sn  Sn22  1  0.700212  0.960407  0.542072  1
  Sn  Sn23  1  0.205780  0.534877  0.956499  1
  Sn  Sn24  1  0.699406  0.964119  0.956951  1
  Sn  Sn25  1  0.200078  0.540690  0.542448  1
  Sn  Sn26  1  0.299541  0.039394  0.458163  1
  Sn  Sn27  1  0.795818  0.457629  0.039943  1
  Sn  Sn28  1  0.562964  0.621582  0.750345  1
  Sn  Sn29  1  0.062896  0.876519  0.750384  1
  Sn  Sn30  1  0.436502  0.376454  0.249739  1
  Sn  Sn31  1  0.936647  0.123668  0.249851  1
  Sn  Sn32  1  0.331230  0.147269  0.752144  1
  Sn  Sn33  1  0.825204  0.355740  0.751239  1
  Sn  Sn34  1  0.673089  0.856430  0.250072  1
  Sn  Sn35  1  0.171918  0.643956  0.250522  1
