# generated using pymatgen
data_Tb4YThCoNi
_symmetry_space_group_name_H-M   'P 1'
_cell_length_a   6.34771621
_cell_length_b   6.91714822
_cell_length_c   9.63158403
_cell_angle_alpha   90.00542179
_cell_angle_beta   89.99368180
_cell_angle_gamma   90.02853268
_symmetry_Int_Tables_number   1
_chemical_formula_structural   Tb4YThCoNi
_chemical_formula_sum   'Tb8 Y2 Th2 Co2 Ni2'
_cell_volume   422.90443862
_cell_formula_units_Z   2
loop_
 _symmetry_equiv_pos_site_id
 _symmetry_equiv_pos_as_xyz
  1  'x, y, z'
loop_
 _atom_site_type_symbol
 _atom_site_label
 _atom_site_symmetry_multiplicity
 _atom_site_fract_x
 _atom_site_fract_y
 _atom_site_fract_z
 _atom_site_occupancy
  Tb  Tb0  1  0.328767  0.675031  0.069736  1
  Tb  Tb1  1  0.171374  0.175006  0.430156  1
  Tb  Tb2  1  0.675659  0.323498  0.567506  1
  Tb  Tb3  1  0.824252  0.822972  0.932314  1
  Tb  Tb4  1  0.675689  0.323688  0.932176  1
  Tb  Tb5  1  0.824851  0.823307  0.567841  1
  Tb  Tb6  1  0.328847  0.675028  0.430234  1
  Tb  Tb7  1  0.145252  0.465963  0.750029  1
  Y  Y8  1  0.171064  0.175284  0.069252  1
  Y  Y9  1  0.355758  0.966808  0.749931  1
  Th  Th10  1  0.846397  0.552203  0.249912  1
  Th  Th11  1  0.653258  0.052742  0.249763  1
  Co  Co12  1  0.030213  0.871516  0.250466  1
  Co  Co13  1  0.468640  0.372079  0.250642  1
  Ni  Ni14  1  0.942600  0.112792  0.750523  1
  Ni  Ni15  1  0.557377  0.612085  0.749519  1
