# generated using pymatgen
data_La4Pr6Si5Pb
_symmetry_space_group_name_H-M   'P 1'
_cell_length_a   7.98005395
_cell_length_b   7.97526906
_cell_length_c   9.10563900
_cell_angle_alpha   115.96455706
_cell_angle_beta   115.98130555
_cell_angle_gamma   90.01507709
_symmetry_Int_Tables_number   1
_chemical_formula_structural   La4Pr6Si5Pb
_chemical_formula_sum   'La4 Pr6 Si5 Pb1'
_cell_volume   454.94547736
_cell_formula_units_Z   1
loop_
 _symmetry_equiv_pos_site_id
 _symmetry_equiv_pos_as_xyz
  1  'x, y, z'
loop_
 _atom_site_type_symbol
 _atom_site_label
 _atom_site_symmetry_multiplicity
 _atom_site_fract_x
 _atom_site_fract_y
 _atom_site_fract_z
 _atom_site_occupancy
  La  La0  1  0.503003  0.503003  0.006006  1
  La  La1  1  0.997797  0.997797  0.995594  1
  La  La2  1  0.973401  0.827469  0.286321  1
  La  La3  1  0.312919  0.458851  0.286321  1
  Pr  Pr4  1  0.825070  0.311451  0.284601  1
  Pr  Pr5  1  0.459531  0.973150  0.284601  1
  Pr  Pr6  1  0.040332  0.187483  0.713933  1
  Pr  Pr7  1  0.673600  0.526449  0.713933  1
  Pr  Pr8  1  0.187827  0.673823  0.715935  1
  Pr  Pr9  1  0.528108  0.042111  0.715935  1
  Si  Si10  1  0.250846  0.250846  0.501692  1
  Si  Si11  1  0.612512  0.886226  0.998816  1
  Si  Si12  1  0.386304  0.112590  0.998816  1
  Si  Si13  1  0.884907  0.385022  0.997849  1
  Si  Si14  1  0.112942  0.612827  0.997849  1
  Pb  Pb15  1  0.750901  0.750901  0.501802  1
