# generated using pymatgen
data_Y4ErPd13Pt2
_symmetry_space_group_name_H-M   'P 1'
_cell_length_a   4.14230300
_cell_length_b   4.12568200
_cell_length_c   20.64633000
_cell_angle_alpha   90.00000000
_cell_angle_beta   90.00000000
_cell_angle_gamma   90.00000000
_symmetry_Int_Tables_number   1
_chemical_formula_structural   Y4ErPd13Pt2
_chemical_formula_sum   'Y4 Er1 Pd13 Pt2'
_cell_volume   352.84216506
_cell_formula_units_Z   1
loop_
 _symmetry_equiv_pos_site_id
 _symmetry_equiv_pos_as_xyz
  1  'x, y, z'
loop_
 _atom_site_type_symbol
 _atom_site_label
 _atom_site_symmetry_multiplicity
 _atom_site_fract_x
 _atom_site_fract_y
 _atom_site_fract_z
 _atom_site_occupancy
  Y  Y0  1  0.000000  0.000000  0.198142  1
  Y  Y1  1  0.000000  0.000000  0.399133  1
  Y  Y2  1  0.000000  0.000000  0.600623  1
  Y  Y3  1  0.000000  0.000000  0.801778  1
  Er  Er4  1  0.000000  0.000000  0.000334  1
  Pd  Pd5  1  0.500000  0.500000  0.198665  1
  Pd  Pd6  1  0.500000  0.500000  0.399567  1
  Pd  Pd7  1  0.500000  0.500000  0.600353  1
  Pd  Pd8  1  0.500000  0.500000  0.801322  1
  Pd  Pd9  1  0.500000  0.000000  0.298885  1
  Pd  Pd10  1  0.500000  0.000000  0.499928  1
  Pd  Pd11  1  0.500000  0.000000  0.700991  1
  Pd  Pd12  1  0.500000  0.000000  0.902100  1
  Pd  Pd13  1  0.000000  0.500000  0.098377  1
  Pd  Pd14  1  0.000000  0.500000  0.299084  1
  Pd  Pd15  1  0.000000  0.500000  0.499938  1
  Pd  Pd16  1  0.000000  0.500000  0.701033  1
  Pd  Pd17  1  0.000000  0.500000  0.901700  1
  Pt  Pt18  1  0.500000  0.500000  0.999947  1
  Pt  Pt19  1  0.500000  0.000000  0.098098  1
