# generated using pymatgen
data_Li4La2NdSn4
_symmetry_space_group_name_H-M   'P 1'
_cell_length_a   8.97489843
_cell_length_b   8.97489792
_cell_length_c   8.97489783
_cell_angle_alpha   149.09680165
_cell_angle_beta   132.57950994
_cell_angle_gamma   57.67988988
_symmetry_Int_Tables_number   1
_chemical_formula_structural   Li4La2NdSn4
_chemical_formula_sum   'Li4 La2 Nd1 Sn4'
_cell_volume   271.36781758
_cell_formula_units_Z   1
loop_
 _symmetry_equiv_pos_site_id
 _symmetry_equiv_pos_as_xyz
  1  'x, y, z'
loop_
 _atom_site_type_symbol
 _atom_site_label
 _atom_site_symmetry_multiplicity
 _atom_site_fract_x
 _atom_site_fract_y
 _atom_site_fract_z
 _atom_site_occupancy
  Li  Li0  1  0.481012  0.671543  0.809470  1
  Li  Li1  1  0.862073  0.671543  0.190530  1
  Li  Li2  1  0.137927  0.328457  0.809470  1
  Li  Li3  1  0.518988  0.328457  0.190530  1
  La  La4  1  0.868614  0.868614  0.000000  1
  La  La5  1  0.131386  0.131386  0.000000  1
  Nd  Nd6  1  0.500000  0.000000  0.500000  1
  Sn  Sn7  1  0.287674  0.787674  0.500000  1
  Sn  Sn8  1  0.712326  0.212326  0.500000  1
  Sn  Sn9  1  0.800782  0.500000  0.300782  1
  Sn  Sn10  1  0.199218  0.500000  0.699218  1
