# generated using pymatgen
data_Ta4Be5Ga3
_symmetry_space_group_name_H-M   'P 1'
_cell_length_a   4.78481402
_cell_length_b   4.76759068
_cell_length_c   7.87289100
_cell_angle_alpha   90.00000000
_cell_angle_beta   90.00000000
_cell_angle_gamma   119.88101432
_symmetry_Int_Tables_number   1
_chemical_formula_structural   Ta4Be5Ga3
_chemical_formula_sum   'Ta4 Be5 Ga3'
_cell_volume   155.72142025
_cell_formula_units_Z   1
loop_
 _symmetry_equiv_pos_site_id
 _symmetry_equiv_pos_as_xyz
  1  'x, y, z'
loop_
 _atom_site_type_symbol
 _atom_site_label
 _atom_site_symmetry_multiplicity
 _atom_site_fract_x
 _atom_site_fract_y
 _atom_site_fract_z
 _atom_site_occupancy
  Ta  Ta0  1  0.333700  0.666850  0.429163  1
  Ta  Ta1  1  0.668291  0.334144  0.562915  1
  Ta  Ta2  1  0.668291  0.334144  0.937085  1
  Ta  Ta3  1  0.333700  0.666850  0.070837  1
  Be  Be4  1  0.820529  0.181949  0.250000  1
  Be  Be5  1  0.820529  0.638579  0.250000  1
  Be  Be6  1  0.368481  0.184241  0.250000  1
  Be  Be7  1  0.160869  0.819442  0.750000  1
  Be  Be8  1  0.160869  0.341428  0.750000  1
  Ga  Ga9  1  0.012534  0.006267  0.486816  1
  Ga  Ga10  1  0.012534  0.006267  0.013184  1
  Ga  Ga11  1  0.639675  0.819838  0.750000  1
