# generated using pymatgen
data_DySi2Ni9
_symmetry_space_group_name_H-M   'P 1'
_cell_length_a   7.54253398
_cell_length_b   7.54253349
_cell_length_c   7.54253341
_cell_angle_alpha   99.59126787
_cell_angle_beta   99.59127243
_cell_angle_gamma   131.81771843
_symmetry_Int_Tables_number   1
_chemical_formula_structural   DySi2Ni9
_chemical_formula_sum   'Dy2 Si4 Ni18'
_cell_volume   291.93572005
_cell_formula_units_Z   2
loop_
 _symmetry_equiv_pos_site_id
 _symmetry_equiv_pos_as_xyz
  1  'x, y, z'
loop_
 _atom_site_type_symbol
 _atom_site_label
 _atom_site_symmetry_multiplicity
 _atom_site_fract_x
 _atom_site_fract_y
 _atom_site_fract_z
 _atom_site_occupancy
  Dy  Dy0  1  0.500000  0.500000  0.000000  1
  Dy  Dy1  1  0.750000  0.250000  0.500000  1
  Si  Si2  1  0.625000  0.875000  0.750000  1
  Si  Si3  1  0.125000  0.375000  0.250000  1
  Si  Si4  1  0.125000  0.875000  0.750000  1
  Si  Si5  1  0.125000  0.875000  0.250000  1
  Ni  Ni6  1  0.250000  0.750000  0.500000  1
  Ni  Ni7  1  0.000000  0.000000  0.000000  1
  Ni  Ni8  1  0.686689  0.013269  0.079155  1
  Ni  Ni9  1  0.686689  0.607535  0.673420  1
  Ni  Ni10  1  0.263269  0.436689  0.579155  1
  Ni  Ni11  1  0.263269  0.684114  0.826580  1
  Ni  Ni12  1  0.934114  0.013269  0.326580  1
  Ni  Ni13  1  0.934114  0.607535  0.920845  1
  Ni  Ni14  1  0.857535  0.436689  0.173420  1
  Ni  Ni15  1  0.857535  0.684114  0.420845  1
  Ni  Ni16  1  0.563311  0.736731  0.420845  1
  Ni  Ni17  1  0.563311  0.142465  0.826580  1
  Ni  Ni18  1  0.986731  0.313311  0.920845  1
  Ni  Ni19  1  0.986731  0.065886  0.673420  1
  Ni  Ni20  1  0.315886  0.736731  0.173420  1
  Ni  Ni21  1  0.315886  0.142465  0.579155  1
  Ni  Ni22  1  0.392465  0.313311  0.326580  1
  Ni  Ni23  1  0.392465  0.065886  0.079155  1
