# generated using pymatgen
data_Sr3Cd2Pd7
_symmetry_space_group_name_H-M   'P 1'
_cell_length_a   9.54571860
_cell_length_b   9.54571887
_cell_length_c   9.54571660
_cell_angle_alpha   34.96097382
_cell_angle_beta   34.96097305
_cell_angle_gamma   34.96097231
_symmetry_Int_Tables_number   1
_chemical_formula_structural   Sr3Cd2Pd7
_chemical_formula_sum   'Sr3 Cd2 Pd7'
_cell_volume   254.99245415
_cell_formula_units_Z   1
loop_
 _symmetry_equiv_pos_site_id
 _symmetry_equiv_pos_as_xyz
  1  'x, y, z'
loop_
 _atom_site_type_symbol
 _atom_site_label
 _atom_site_symmetry_multiplicity
 _atom_site_fract_x
 _atom_site_fract_y
 _atom_site_fract_z
 _atom_site_occupancy
  Sr  Sr0  1  0.360129  0.360129  0.360129  1
  Sr  Sr1  1  0.500000  0.500000  0.500000  1
  Sr  Sr2  1  0.639871  0.639871  0.639871  1
  Cd  Cd3  1  0.166857  0.166857  0.166857  1
  Cd  Cd4  1  0.833143  0.833143  0.833143  1
  Pd  Pd5  1  0.000000  0.000000  0.000000  1
  Pd  Pd6  1  0.583415  0.083314  0.083314  1
  Pd  Pd7  1  0.083314  0.583415  0.083314  1
  Pd  Pd8  1  0.916686  0.916686  0.416585  1
  Pd  Pd9  1  0.083314  0.083314  0.583415  1
  Pd  Pd10  1  0.916686  0.416585  0.916686  1
  Pd  Pd11  1  0.416585  0.916686  0.916686  1
