# generated using pymatgen
data_LaPa(SiPt)4
_symmetry_space_group_name_H-M   'P 1'
_cell_length_a   4.26406200
_cell_length_b   4.26406200
_cell_length_c   9.86577300
_cell_angle_alpha   90.00000000
_cell_angle_beta   90.00000000
_cell_angle_gamma   90.00000000
_symmetry_Int_Tables_number   1
_chemical_formula_structural   LaPa(SiPt)4
_chemical_formula_sum   'La1 Pa1 Si4 Pt4'
_cell_volume   179.38170192
_cell_formula_units_Z   1
loop_
 _symmetry_equiv_pos_site_id
 _symmetry_equiv_pos_as_xyz
  1  'x, y, z'
loop_
 _atom_site_type_symbol
 _atom_site_label
 _atom_site_symmetry_multiplicity
 _atom_site_fract_x
 _atom_site_fract_y
 _atom_site_fract_z
 _atom_site_occupancy
  La  La0  1  0.500000  0.000000  0.749690  1
  Pa  Pa1  1  0.000000  0.500000  0.251507  1
  Si  Si2  1  0.000000  0.000000  0.495622  1
  Si  Si3  1  0.500000  0.500000  0.495622  1
  Si  Si4  1  0.000000  0.500000  0.866047  1
  Si  Si5  1  0.500000  0.000000  0.133379  1
  Pt  Pt6  1  0.000000  0.000000  0.009401  1
  Pt  Pt7  1  0.500000  0.500000  0.009401  1
  Pt  Pt8  1  0.000000  0.500000  0.614969  1
  Pt  Pt9  1  0.500000  0.000000  0.374362  1
