# generated using pymatgen
data_Y12AlCo4Sn
_symmetry_space_group_name_H-M   'P 1'
_cell_length_a   8.35564046
_cell_length_b   8.35564050
_cell_length_c   8.35564025
_cell_angle_alpha   111.88579505
_cell_angle_beta   109.66402173
_cell_angle_gamma   106.90216216
_symmetry_Int_Tables_number   1
_chemical_formula_structural   Y12AlCo4Sn
_chemical_formula_sum   'Y12 Al1 Co4 Sn1'
_cell_volume   448.22315115
_cell_formula_units_Z   1
loop_
 _symmetry_equiv_pos_site_id
 _symmetry_equiv_pos_as_xyz
  1  'x, y, z'
loop_
 _atom_site_type_symbol
 _atom_site_label
 _atom_site_symmetry_multiplicity
 _atom_site_fract_x
 _atom_site_fract_y
 _atom_site_fract_z
 _atom_site_occupancy
  Y  Y0  1  0.435289  0.233802  0.201487  1
  Y  Y1  1  0.564711  0.766198  0.798513  1
  Y  Y2  1  0.032316  0.233802  0.798513  1
  Y  Y3  1  0.967684  0.766198  0.201487  1
  Y  Y4  1  0.181046  0.281367  0.462413  1
  Y  Y5  1  0.818954  0.718633  0.537587  1
  Y  Y6  1  0.181046  0.718633  0.899679  1
  Y  Y7  1  0.818954  0.281367  0.100321  1
  Y  Y8  1  0.324002  0.636209  0.312207  1
  Y  Y9  1  0.675998  0.363791  0.687793  1
  Y  Y10  1  0.324002  0.011794  0.687793  1
  Y  Y11  1  0.675998  0.988206  0.312207  1
  Al  Al12  1  0.000000  0.000000  0.000000  1
  Co  Co13  1  0.336798  0.000000  0.336798  1
  Co  Co14  1  0.663202  0.000000  0.663202  1
  Co  Co15  1  0.113101  0.613101  0.500000  1
  Co  Co16  1  0.886899  0.386899  0.500000  1
  Sn  Sn17  1  0.500000  0.500000  0.000000  1
