# generated using pymatgen
data_Cs6Tl2Bi3
_symmetry_space_group_name_H-M   'P 1'
_cell_length_a   10.80928301
_cell_length_b   10.80928258
_cell_length_c   21.54732300
_cell_angle_alpha   82.96631769
_cell_angle_beta   82.96631798
_cell_angle_gamma   119.49550798
_symmetry_Int_Tables_number   1
_chemical_formula_structural   Cs6Tl2Bi3
_chemical_formula_sum   'Cs24 Tl8 Bi12'
_cell_volume   2125.59490054
_cell_formula_units_Z   4
loop_
 _symmetry_equiv_pos_site_id
 _symmetry_equiv_pos_as_xyz
  1  'x, y, z'
loop_
 _atom_site_type_symbol
 _atom_site_label
 _atom_site_symmetry_multiplicity
 _atom_site_fract_x
 _atom_site_fract_y
 _atom_site_fract_z
 _atom_site_occupancy
  Cs  Cs0  1  0.482880  0.333008  0.947801  1
  Cs  Cs1  1  0.666992  0.517120  0.552199  1
  Cs  Cs2  1  0.517120  0.666992  0.052199  1
  Cs  Cs3  1  0.333008  0.482880  0.447801  1
  Cs  Cs4  1  0.217594  0.671132  0.945487  1
  Cs  Cs5  1  0.328868  0.782406  0.554513  1
  Cs  Cs6  1  0.782406  0.328868  0.054513  1
  Cs  Cs7  1  0.671132  0.217594  0.445487  1
  Cs  Cs8  1  0.586866  0.078075  0.821730  1
  Cs  Cs9  1  0.921925  0.413134  0.678270  1
  Cs  Cs10  1  0.413134  0.921925  0.178270  1
  Cs  Cs11  1  0.078075  0.586866  0.321730  1
  Cs  Cs12  1  0.246367  0.412011  0.821887  1
  Cs  Cs13  1  0.587989  0.753633  0.678113  1
  Cs  Cs14  1  0.753633  0.587989  0.178113  1
  Cs  Cs15  1  0.412011  0.246367  0.321887  1
  Cs  Cs16  1  0.128298  0.939012  0.054776  1
  Cs  Cs17  1  0.060988  0.871702  0.445224  1
  Cs  Cs18  1  0.871702  0.060988  0.945224  1
  Cs  Cs19  1  0.939012  0.128298  0.554776  1
  Cs  Cs20  1  0.973499  0.026501  0.750000  1
  Cs  Cs21  1  0.026501  0.973499  0.250000  1
  Cs  Cs22  1  0.203534  0.796466  0.750000  1
  Cs  Cs23  1  0.796466  0.203534  0.250000  1
  Tl  Tl24  1  0.880160  0.709763  0.921009  1
  Tl  Tl25  1  0.290237  0.119840  0.578991  1
  Tl  Tl26  1  0.119840  0.290237  0.078991  1
  Tl  Tl27  1  0.709763  0.880160  0.421009  1
  Tl  Tl28  1  0.735712  0.565100  0.774067  1
  Tl  Tl29  1  0.434900  0.264288  0.725933  1
  Tl  Tl30  1  0.264288  0.434900  0.225933  1
  Tl  Tl31  1  0.565100  0.735712  0.274067  1
  Bi  Bi32  1  0.615737  0.723293  0.861541  1
  Bi  Bi33  1  0.276707  0.384263  0.638459  1
  Bi  Bi34  1  0.384263  0.276707  0.138459  1
  Bi  Bi35  1  0.723293  0.615737  0.361541  1
  Bi  Bi36  1  0.973409  0.796119  0.631386  1
  Bi  Bi37  1  0.203881  0.026591  0.868614  1
  Bi  Bi38  1  0.026591  0.203881  0.368614  1
  Bi  Bi39  1  0.796119  0.973409  0.131386  1
  Bi  Bi40  1  0.882752  0.439610  0.864886  1
  Bi  Bi41  1  0.560390  0.117248  0.635114  1
  Bi  Bi42  1  0.117248  0.560390  0.135114  1
  Bi  Bi43  1  0.439610  0.882752  0.364886  1
