# generated using pymatgen
data_Tb5Ho(AlAu5)2
_symmetry_space_group_name_H-M   'P 1'
_cell_length_a   8.50577517
_cell_length_b   8.50577591
_cell_length_c   13.53284733
_cell_angle_alpha   90.02270444
_cell_angle_beta   89.97729640
_cell_angle_gamma   128.49482875
_symmetry_Int_Tables_number   1
_chemical_formula_structural   Tb5Ho(AlAu5)2
_chemical_formula_sum   'Tb10 Ho2 Al4 Au20'
_cell_volume   766.28887811
_cell_formula_units_Z   2
loop_
 _symmetry_equiv_pos_site_id
 _symmetry_equiv_pos_as_xyz
  1  'x, y, z'
loop_
 _atom_site_type_symbol
 _atom_site_label
 _atom_site_symmetry_multiplicity
 _atom_site_fract_x
 _atom_site_fract_y
 _atom_site_fract_z
 _atom_site_occupancy
  Tb  Tb0  1  0.927662  0.072338  0.250047  1
  Tb  Tb1  1  0.072338  0.927662  0.749953  1
  Tb  Tb2  1  0.320511  0.679489  0.250104  1
  Tb  Tb3  1  0.679489  0.320511  0.749896  1
  Tb  Tb4  1  0.630780  0.369220  0.035301  1
  Tb  Tb5  1  0.369220  0.630780  0.964699  1
  Tb  Tb6  1  0.881564  0.118436  0.951292  1
  Tb  Tb7  1  0.118436  0.881564  0.048708  1
  Tb  Tb8  1  0.881494  0.118506  0.548652  1
  Tb  Tb9  1  0.118506  0.881494  0.451348  1
  Ho  Ho10  1  0.630644  0.369356  0.464859  1
  Ho  Ho11  1  0.369356  0.630644  0.535141  1
  Al  Al12  1  0.720201  0.279799  0.250219  1
  Al  Al13  1  0.279799  0.720201  0.749781  1
  Al  Al14  1  0.532720  0.467280  0.250125  1
  Al  Al15  1  0.467280  0.532720  0.749875  1
  Au  Au16  1  0.323271  0.069362  0.250019  1
  Au  Au17  1  0.069362  0.323271  0.749981  1
  Au  Au18  1  0.676729  0.930638  0.749981  1
  Au  Au19  1  0.930638  0.676729  0.250019  1
  Au  Au20  1  0.570382  0.004343  0.396857  1
  Au  Au21  1  0.004343  0.570382  0.603143  1
  Au  Au22  1  0.570487  0.004065  0.103428  1
  Au  Au23  1  0.004065  0.570487  0.896572  1
  Au  Au24  1  0.429618  0.995657  0.603143  1
  Au  Au25  1  0.995657  0.429618  0.396857  1
  Au  Au26  1  0.429513  0.995935  0.896572  1
  Au  Au27  1  0.995935  0.429513  0.103428  1
  Au  Au28  1  0.685321  0.740506  0.395026  1
  Au  Au29  1  0.740506  0.685321  0.604974  1
  Au  Au30  1  0.686030  0.741319  0.105355  1
  Au  Au31  1  0.741319  0.686030  0.894645  1
  Au  Au32  1  0.314679  0.259494  0.604974  1
  Au  Au33  1  0.259494  0.314679  0.395026  1
  Au  Au34  1  0.313970  0.258681  0.894645  1
  Au  Au35  1  0.258681  0.313970  0.105355  1
