# generated using pymatgen
data_Ho19TmSn7Pb9
_symmetry_space_group_name_H-M   'P 1'
_cell_length_a   8.12573562
_cell_length_b   8.18174229
_cell_length_c   15.51580500
_cell_angle_alpha   90.00000000
_cell_angle_beta   90.00000000
_cell_angle_gamma   90.25004266
_symmetry_Int_Tables_number   1
_chemical_formula_structural   Ho19TmSn7Pb9
_chemical_formula_sum   'Ho19 Tm1 Sn7 Pb9'
_cell_volume   1031.52239524
_cell_formula_units_Z   1
loop_
 _symmetry_equiv_pos_site_id
 _symmetry_equiv_pos_as_xyz
  1  'x, y, z'
loop_
 _atom_site_type_symbol
 _atom_site_label
 _atom_site_symmetry_multiplicity
 _atom_site_fract_x
 _atom_site_fract_y
 _atom_site_fract_z
 _atom_site_occupancy
  Ho  Ho0  1  0.379333  0.839065  0.877267  1
  Ho  Ho1  1  0.879979  0.660888  0.623181  1
  Ho  Ho2  1  0.620356  0.160469  0.377523  1
  Ho  Ho3  1  0.120391  0.337416  0.122741  1
  Ho  Ho4  1  0.620356  0.160469  0.122477  1
  Ho  Ho5  1  0.120391  0.337416  0.377259  1
  Ho  Ho6  1  0.379333  0.839065  0.622733  1
  Ho  Ho7  1  0.879979  0.660888  0.876819  1
  Ho  Ho8  1  0.536684  0.324563  0.896028  1
  Ho  Ho9  1  0.037554  0.174864  0.604077  1
  Ho  Ho10  1  0.465582  0.675480  0.397202  1
  Ho  Ho11  1  0.960631  0.827248  0.101868  1
  Ho  Ho12  1  0.465582  0.675480  0.102798  1
  Ho  Ho13  1  0.960631  0.827248  0.398132  1
  Ho  Ho14  1  0.536684  0.324563  0.603972  1
  Ho  Ho15  1  0.037554  0.174864  0.895923  1
  Ho  Ho16  1  0.210795  0.503290  0.750000  1
  Ho  Ho17  1  0.710541  0.996573  0.750000  1
  Ho  Ho18  1  0.787301  0.495480  0.250000  1
  Tm  Tm19  1  0.290995  0.006558  0.250000  1
  Sn  Sn20  1  0.575185  0.623478  0.750000  1
  Sn  Sn21  1  0.075742  0.876764  0.750000  1
  Sn  Sn22  1  0.425205  0.375078  0.250000  1
  Sn  Sn23  1  0.924969  0.121647  0.250000  1
  Sn  Sn24  1  0.344757  0.148298  0.750000  1
  Sn  Sn25  1  0.844588  0.351319  0.750000  1
  Sn  Sn26  1  0.655246  0.851690  0.250000  1
  Pb  Pb27  1  0.281029  0.031565  0.041846  1
  Pb  Pb28  1  0.781904  0.467396  0.458545  1
  Pb  Pb29  1  0.718669  0.967912  0.542066  1
  Pb  Pb30  1  0.218929  0.531794  0.958560  1
  Pb  Pb31  1  0.718669  0.967912  0.957934  1
  Pb  Pb32  1  0.218929  0.531794  0.541440  1
  Pb  Pb33  1  0.281029  0.031565  0.458154  1
  Pb  Pb34  1  0.781904  0.467396  0.041455  1
  Pb  Pb35  1  0.152596  0.652506  0.250000  1
