# generated using pymatgen
data_K4ReMoP4
_symmetry_space_group_name_H-M   'P 1'
_cell_length_a   8.09124092
_cell_length_b   8.09124220
_cell_length_c   8.09124162
_cell_angle_alpha   136.39894556
_cell_angle_beta   127.16345986
_cell_angle_gamma   70.83738592
_symmetry_Int_Tables_number   1
_chemical_formula_structural   K4ReMoP4
_chemical_formula_sum   'K4 Re1 Mo1 P4'
_cell_volume   285.31685765
_cell_formula_units_Z   1
loop_
 _symmetry_equiv_pos_site_id
 _symmetry_equiv_pos_as_xyz
  1  'x, y, z'
loop_
 _atom_site_type_symbol
 _atom_site_label
 _atom_site_symmetry_multiplicity
 _atom_site_fract_x
 _atom_site_fract_y
 _atom_site_fract_z
 _atom_site_occupancy
  K  K0  1  0.308181  0.150246  0.158024  1
  K  K1  1  0.691819  0.849842  0.842064  1
  K  K2  1  0.007779  0.349754  0.657936  1
  K  K3  1  0.992221  0.650158  0.341976  1
  Re  Re4  1  0.500000  0.750000  0.250000  1
  Mo  Mo5  1  0.500000  0.250000  0.750000  1
  P  P6  1  0.420295  0.600884  0.828739  1
  P  P7  1  0.227855  0.899116  0.319410  1
  P  P8  1  0.772145  0.091555  0.671261  1
  P  P9  1  0.579705  0.408445  0.180590  1
