# generated using pymatgen
data_PIO4
_symmetry_space_group_name_H-M   'P 1'
_cell_length_a   5.18207147
_cell_length_b   5.18053916
_cell_length_c   7.88290430
_cell_angle_alpha   78.36607526
_cell_angle_beta   78.24398646
_cell_angle_gamma   100.32529761
_symmetry_Int_Tables_number   1
_chemical_formula_structural   PIO4
_chemical_formula_sum   'P2 I2 O8'
_cell_volume   197.49937287
_cell_formula_units_Z   2
loop_
 _symmetry_equiv_pos_site_id
 _symmetry_equiv_pos_as_xyz
  1  'x, y, z'
loop_
 _atom_site_type_symbol
 _atom_site_label
 _atom_site_symmetry_multiplicity
 _atom_site_fract_x
 _atom_site_fract_y
 _atom_site_fract_z
 _atom_site_occupancy
  P  P0  1  0.142656  0.856823  0.250540  1
  P  P1  1  0.857632  0.142820  0.749476  1
  I  I2  1  0.499655  0.499821  0.999588  1
  I  I3  1  0.500211  0.500379  0.500389  1
  O  O4  1  0.236759  0.741425  0.086634  1
  O  O5  1  0.222251  0.170258  0.196753  1
  O  O6  1  0.828962  0.782165  0.304381  1
  O  O7  1  0.255749  0.760252  0.414799  1
  O  O8  1  0.748539  0.243810  0.584043  1
  O  O9  1  0.776794  0.829391  0.800892  1
  O  O10  1  0.171408  0.218480  0.697926  1
  O  O11  1  0.759382  0.254373  0.914577  1
