# generated using pymatgen
data_La5FeAu2
_symmetry_space_group_name_H-M   'P 1'
_cell_length_a   8.81071500
_cell_length_b   8.36445900
_cell_length_c   12.40231600
_cell_angle_alpha   90.00000000
_cell_angle_beta   90.00000000
_cell_angle_gamma   90.00000000
_symmetry_Int_Tables_number   1
_chemical_formula_structural   La5FeAu2
_chemical_formula_sum   'La20 Fe4 Au8'
_cell_volume   914.01180023
_cell_formula_units_Z   4
loop_
 _symmetry_equiv_pos_site_id
 _symmetry_equiv_pos_as_xyz
  1  'x, y, z'
loop_
 _atom_site_type_symbol
 _atom_site_label
 _atom_site_symmetry_multiplicity
 _atom_site_fract_x
 _atom_site_fract_y
 _atom_site_fract_z
 _atom_site_occupancy
  La  La0  1  0.842687  0.750000  0.793807  1
  La  La1  1  0.157313  0.250000  0.206193  1
  La  La2  1  0.342687  0.250000  0.706193  1
  La  La3  1  0.657313  0.750000  0.293807  1
  La  La4  1  0.387818  0.750000  0.700332  1
  La  La5  1  0.612182  0.250000  0.299668  1
  La  La6  1  0.887818  0.250000  0.799668  1
  La  La7  1  0.112182  0.750000  0.200332  1
  La  La8  1  0.950091  0.750000  0.493726  1
  La  La9  1  0.049909  0.250000  0.506274  1
  La  La10  1  0.450091  0.250000  0.006274  1
  La  La11  1  0.549909  0.750000  0.993726  1
  La  La12  1  0.670880  0.030198  0.570569  1
  La  La13  1  0.329120  0.969802  0.429431  1
  La  La14  1  0.170880  0.969802  0.929431  1
  La  La15  1  0.329120  0.530198  0.429431  1
  La  La16  1  0.829120  0.030198  0.070569  1
  La  La17  1  0.670880  0.469802  0.570569  1
  La  La18  1  0.829120  0.469802  0.070569  1
  La  La19  1  0.170880  0.530198  0.929431  1
  Fe  Fe20  1  0.569821  0.750000  0.512402  1
  Fe  Fe21  1  0.430179  0.250000  0.487598  1
  Fe  Fe22  1  0.069821  0.250000  0.987598  1
  Fe  Fe23  1  0.930179  0.750000  0.012402  1
  Au  Au24  1  0.575640  0.472644  0.826068  1
  Au  Au25  1  0.424360  0.527356  0.173932  1
  Au  Au26  1  0.075640  0.527356  0.673932  1
  Au  Au27  1  0.424360  0.972644  0.173932  1
  Au  Au28  1  0.924360  0.472644  0.326068  1
  Au  Au29  1  0.575640  0.027356  0.826068  1
  Au  Au30  1  0.924360  0.027356  0.326068  1
  Au  Au31  1  0.075640  0.972644  0.673932  1
