# generated using pymatgen
data_Nb6Al4CN
_symmetry_space_group_name_H-M   'P 1'
_cell_length_a   7.10655836
_cell_length_b   7.10655836
_cell_length_c   7.10669300
_cell_angle_alpha   90.00000000
_cell_angle_beta   90.00000000
_cell_angle_gamma   90.17580834
_symmetry_Int_Tables_number   1
_chemical_formula_structural   Nb6Al4CN
_chemical_formula_sum   'Nb12 Al8 C2 N2'
_cell_volume   358.90884773
_cell_formula_units_Z   2
loop_
 _symmetry_equiv_pos_site_id
 _symmetry_equiv_pos_as_xyz
  1  'x, y, z'
loop_
 _atom_site_type_symbol
 _atom_site_label
 _atom_site_symmetry_multiplicity
 _atom_site_fract_x
 _atom_site_fract_y
 _atom_site_fract_z
 _atom_site_occupancy
  Nb  Nb0  1  0.794325  0.955675  0.375000  1
  Nb  Nb1  1  0.705675  0.044325  0.875000  1
  Nb  Nb2  1  0.204569  0.454569  0.125000  1
  Nb  Nb3  1  0.295431  0.545431  0.625000  1
  Nb  Nb4  1  0.954739  0.373420  0.794448  1
  Nb  Nb5  1  0.044428  0.876542  0.704538  1
  Nb  Nb6  1  0.455572  0.123458  0.204538  1
  Nb  Nb7  1  0.545261  0.626580  0.294448  1
  Nb  Nb8  1  0.376580  0.795261  0.955552  1
  Nb  Nb9  1  0.873458  0.705572  0.045462  1
  Nb  Nb10  1  0.123420  0.204739  0.455552  1
  Nb  Nb11  1  0.626542  0.294428  0.545462  1
  Al  Al12  1  0.179124  0.820022  0.320752  1
  Al  Al13  1  0.320876  0.179978  0.820752  1
  Al  Al14  1  0.820473  0.321372  0.179386  1
  Al  Al15  1  0.679527  0.678628  0.679386  1
  Al  Al16  1  0.570022  0.429124  0.929248  1
  Al  Al17  1  0.428628  0.929527  0.570614  1
  Al  Al18  1  0.929978  0.570876  0.429248  1
  Al  Al19  1  0.071372  0.070473  0.070614  1
  C  C20  1  0.123517  0.626483  0.875000  1
  C  C21  1  0.376483  0.373517  0.375000  1
  N  N22  1  0.873497  0.123497  0.625000  1
  N  N23  1  0.626503  0.876503  0.125000  1
