# generated using pymatgen
data_ZrSc(CoP)2
_symmetry_space_group_name_H-M   'P 1'
_cell_length_a   3.71881300
_cell_length_b   6.32077900
_cell_length_c   7.09406800
_cell_angle_alpha   90.00000000
_cell_angle_beta   90.00000000
_cell_angle_gamma   90.00000000
_symmetry_Int_Tables_number   1
_chemical_formula_structural   ZrSc(CoP)2
_chemical_formula_sum   'Zr2 Sc2 Co4 P4'
_cell_volume   166.75170894
_cell_formula_units_Z   2
loop_
 _symmetry_equiv_pos_site_id
 _symmetry_equiv_pos_as_xyz
  1  'x, y, z'
loop_
 _atom_site_type_symbol
 _atom_site_label
 _atom_site_symmetry_multiplicity
 _atom_site_fract_x
 _atom_site_fract_y
 _atom_site_fract_z
 _atom_site_occupancy
  Zr  Zr0  1  0.750000  0.981144  0.182205  1
  Zr  Zr1  1  0.750000  0.481144  0.317795  1
  Sc  Sc2  1  0.250000  0.517519  0.686648  1
  Sc  Sc3  1  0.250000  0.017519  0.813352  1
  Co  Co4  1  0.750000  0.358838  0.939019  1
  Co  Co5  1  0.250000  0.141761  0.441623  1
  Co  Co6  1  0.750000  0.858838  0.560981  1
  Co  Co7  1  0.250000  0.641761  0.058377  1
  P  P8  1  0.250000  0.776469  0.389899  1
  P  P9  1  0.250000  0.276469  0.110101  1
  P  P10  1  0.750000  0.224269  0.616143  1
  P  P11  1  0.750000  0.724269  0.883857  1
