# generated using pymatgen
data_TmPa5(Cu3Sn4)2
_symmetry_space_group_name_H-M   'P 1'
_cell_length_a   8.27322248
_cell_length_b   8.27576470
_cell_length_c   8.26882720
_cell_angle_alpha   109.56291195
_cell_angle_beta   109.27184646
_cell_angle_gamma   109.55206693
_symmetry_Int_Tables_number   1
_chemical_formula_structural   TmPa5(Cu3Sn4)2
_chemical_formula_sum   'Tm1 Pa5 Cu6 Sn8'
_cell_volume   435.95927157
_cell_formula_units_Z   1
loop_
 _symmetry_equiv_pos_site_id
 _symmetry_equiv_pos_as_xyz
  1  'x, y, z'
loop_
 _atom_site_type_symbol
 _atom_site_label
 _atom_site_symmetry_multiplicity
 _atom_site_fract_x
 _atom_site_fract_y
 _atom_site_fract_z
 _atom_site_occupancy
  Tm  Tm0  1  0.875048  0.750071  0.125205  1
  Pa  Pa1  1  0.122890  0.374153  0.248241  1
  Pa  Pa2  1  0.624955  0.249972  0.375060  1
  Pa  Pa3  1  0.751792  0.874700  0.625977  1
  Pa  Pa4  1  0.374083  0.125748  0.748698  1
  Pa  Pa5  1  0.251339  0.625383  0.877084  1
  Cu  Cu6  1  0.749536  0.375153  0.126001  1
  Cu  Cu7  1  0.625428  0.876285  0.250235  1
  Cu  Cu8  1  0.250831  0.124899  0.374431  1
  Cu  Cu9  1  0.375081  0.749831  0.624715  1
  Cu  Cu10  1  0.874048  0.623916  0.749404  1
  Cu  Cu11  1  0.124951  0.249996  0.874992  1
  Sn  Sn12  1  0.170416  0.999648  0.001809  1
  Sn  Sn13  1  0.670953  0.000645  0.999983  1
  Sn  Sn14  1  0.502003  0.500234  0.170625  1
  Sn  Sn15  1  0.329515  0.828843  0.328945  1
  Sn  Sn16  1  0.000309  0.670921  0.500835  1
  Sn  Sn17  1  0.998140  0.168619  0.497748  1
  Sn  Sn18  1  0.499286  0.499417  0.670352  1
  Sn  Sn19  1  0.829398  0.331566  0.829661  1
