# generated using pymatgen
data_Zr6AlCoSe
_symmetry_space_group_name_H-M   'P 1'
_cell_length_a   7.74580900
_cell_length_b   7.74580793
_cell_length_c   3.44490200
_cell_angle_alpha   90.00000000
_cell_angle_beta   90.00000000
_cell_angle_gamma   119.99999175
_symmetry_Int_Tables_number   1
_chemical_formula_structural   Zr6AlCoSe
_chemical_formula_sum   'Zr6 Al1 Co1 Se1'
_cell_volume   178.99506076
_cell_formula_units_Z   1
loop_
 _symmetry_equiv_pos_site_id
 _symmetry_equiv_pos_as_xyz
  1  'x, y, z'
loop_
 _atom_site_type_symbol
 _atom_site_label
 _atom_site_symmetry_multiplicity
 _atom_site_fract_x
 _atom_site_fract_y
 _atom_site_fract_z
 _atom_site_occupancy
  Zr  Zr0  1  0.596976  0.011338  0.000000  1
  Zr  Zr1  1  0.414361  0.403024  0.000000  1
  Zr  Zr2  1  0.988662  0.585639  0.000000  1
  Zr  Zr3  1  0.244940  0.995577  0.500000  1
  Zr  Zr4  1  0.750637  0.755060  0.500000  1
  Zr  Zr5  1  0.004423  0.249363  0.500000  1
  Al  Al6  1  0.333333  0.666667  0.500000  1
  Co  Co7  1  0.000000  0.000000  0.000000  1
  Se  Se8  1  0.666667  0.333333  0.500000  1
