# generated using pymatgen
data_YbPtBr6
_symmetry_space_group_name_H-M   'P 1'
_cell_length_a   6.94588289
_cell_length_b   6.95331233
_cell_length_c   7.77332036
_cell_angle_alpha   89.72419166
_cell_angle_beta   115.74947862
_cell_angle_gamma   119.95569605
_symmetry_Int_Tables_number   1
_chemical_formula_structural   YbPtBr6
_chemical_formula_sum   'Yb1 Pt1 Br6'
_cell_volume   281.94536703
_cell_formula_units_Z   1
loop_
 _symmetry_equiv_pos_site_id
 _symmetry_equiv_pos_as_xyz
  1  'x, y, z'
loop_
 _atom_site_type_symbol
 _atom_site_label
 _atom_site_symmetry_multiplicity
 _atom_site_fract_x
 _atom_site_fract_y
 _atom_site_fract_z
 _atom_site_occupancy
  Yb  Yb0  1  0.239071  0.620849  0.859363  1
  Pt  Pt1  1  0.580023  0.289865  0.869915  1
  Br  Br2  1  0.440672  0.066113  0.093913  1
  Br  Br3  1  0.140086  0.209764  0.649766  1
  Br  Br4  1  0.720419  0.511238  0.644537  1
  Br  Br5  1  0.446093  0.932787  0.648074  1
  Br  Br6  1  0.713376  0.646847  0.089917  1
  Br  Br7  1  0.019264  0.372037  0.093017  1
