# generated using pymatgen
data_Ac2(P2Pd7)3
_symmetry_space_group_name_H-M   'P 1'
_cell_length_a   8.74442361
_cell_length_b   8.74441982
_cell_length_c   8.74427800
_cell_angle_alpha   60.00039582
_cell_angle_beta   59.99979703
_cell_angle_gamma   60.00076185
_symmetry_Int_Tables_number   1
_chemical_formula_structural   Ac2(P2Pd7)3
_chemical_formula_sum   'Ac2 P6 Pd21'
_cell_volume   472.79652945
_cell_formula_units_Z   1
loop_
 _symmetry_equiv_pos_site_id
 _symmetry_equiv_pos_as_xyz
  1  'x, y, z'
loop_
 _atom_site_type_symbol
 _atom_site_label
 _atom_site_symmetry_multiplicity
 _atom_site_fract_x
 _atom_site_fract_y
 _atom_site_fract_z
 _atom_site_occupancy
  Ac  Ac0  1  0.249993  0.249993  0.250013  1
  Ac  Ac1  1  0.750007  0.750007  0.749987  1
  P  P2  1  0.739689  0.739688  0.260306  1
  P  P3  1  0.260311  0.260312  0.739694  1
  P  P4  1  0.260301  0.739696  0.739692  1
  P  P5  1  0.739702  0.260296  0.739698  1
  P  P6  1  0.260298  0.739704  0.260302  1
  P  P7  1  0.739699  0.260304  0.260308  1
  Pd  Pd8  1  0.000000  0.000000  0.000000  1
  Pd  Pd9  1  0.611977  0.612002  0.611971  1
  Pd  Pd10  1  0.388050  0.835956  0.387993  1
  Pd  Pd11  1  0.656395  0.343590  0.000001  1
  Pd  Pd12  1  0.000010  0.343588  0.656419  1
  Pd  Pd13  1  0.656390  0.999998  0.000021  1
  Pd  Pd14  1  0.611974  0.612010  0.164029  1
  Pd  Pd15  1  0.999994  0.999998  0.656431  1
  Pd  Pd16  1  0.000008  0.343590  0.999986  1
  Pd  Pd17  1  0.656381  0.999991  0.343595  1
  Pd  Pd18  1  0.343610  0.000002  0.999979  1
  Pd  Pd19  1  0.999992  0.656410  0.000014  1
  Pd  Pd20  1  0.343619  0.000009  0.656405  1
  Pd  Pd21  1  0.999990  0.656412  0.343581  1
  Pd  Pd22  1  0.343605  0.656410  0.999999  1
  Pd  Pd23  1  0.164026  0.611973  0.611993  1
  Pd  Pd24  1  0.388023  0.387998  0.388029  1
  Pd  Pd25  1  0.835974  0.388027  0.388007  1
  Pd  Pd26  1  0.388026  0.387990  0.835971  1
  Pd  Pd27  1  0.611950  0.164044  0.612007  1
  Pd  Pd28  1  0.000006  0.000002  0.343569  1
