# generated using pymatgen
data_TbEr7Cd2(SnAu4)2
_symmetry_space_group_name_H-M   'P 1'
_cell_length_a   7.98938506
_cell_length_b   7.98938506
_cell_length_c   7.30691101
_cell_angle_alpha   90.00469184
_cell_angle_beta   90.00469184
_cell_angle_gamma   90.14102007
_symmetry_Int_Tables_number   1
_chemical_formula_structural   TbEr7Cd2(SnAu4)2
_chemical_formula_sum   'Tb1 Er7 Cd2 Sn2 Au8'
_cell_volume   466.40071312
_cell_formula_units_Z   1
loop_
 _symmetry_equiv_pos_site_id
 _symmetry_equiv_pos_as_xyz
  1  'x, y, z'
loop_
 _atom_site_type_symbol
 _atom_site_label
 _atom_site_symmetry_multiplicity
 _atom_site_fract_x
 _atom_site_fract_y
 _atom_site_fract_z
 _atom_site_occupancy
  Tb  Tb0  1  0.339700  0.660300  0.000000  1
  Er  Er1  1  0.180342  0.179310  0.999877  1
  Er  Er2  1  0.321088  0.678912  0.500000  1
  Er  Er3  1  0.680810  0.319190  0.500000  1
  Er  Er4  1  0.820690  0.819658  0.000123  1
  Er  Er5  1  0.659581  0.340419  0.000000  1
  Er  Er6  1  0.838887  0.842224  0.500196  1
  Er  Er7  1  0.157776  0.161113  0.499804  1
  Cd  Cd8  1  0.000171  0.499951  0.748824  1
  Cd  Cd9  1  0.500049  0.999829  0.251176  1
  Sn  Sn10  1  0.999052  0.500187  0.249910  1
  Sn  Sn11  1  0.499813  0.000948  0.750090  1
  Au  Au12  1  0.124154  0.868664  0.766411  1
  Au  Au13  1  0.867312  0.125618  0.228317  1
  Au  Au14  1  0.375418  0.366206  0.271645  1
  Au  Au15  1  0.633794  0.624582  0.728355  1
  Au  Au16  1  0.627152  0.631507  0.271278  1
  Au  Au17  1  0.874382  0.132688  0.771683  1
  Au  Au18  1  0.368493  0.372848  0.728722  1
  Au  Au19  1  0.131336  0.875846  0.233589  1
