# generated using pymatgen
data_MgFe4Pt11
_symmetry_space_group_name_H-M   'P 1'
_cell_length_a   3.90800000
_cell_length_b   5.52621932
_cell_length_c   11.06185682
_cell_angle_alpha   89.71077060
_cell_angle_beta   90.00000000
_cell_angle_gamma   90.00000000
_symmetry_Int_Tables_number   1
_chemical_formula_structural   MgFe4Pt11
_chemical_formula_sum   'Mg1 Fe4 Pt11'
_cell_volume   238.89396114
_cell_formula_units_Z   1
loop_
 _symmetry_equiv_pos_site_id
 _symmetry_equiv_pos_as_xyz
  1  'x, y, z'
loop_
 _atom_site_type_symbol
 _atom_site_label
 _atom_site_symmetry_multiplicity
 _atom_site_fract_x
 _atom_site_fract_y
 _atom_site_fract_z
 _atom_site_occupancy
  Mg  Mg0  1  0.500000  0.752061  0.372767  1
  Fe  Fe1  1  0.500000  0.747809  0.876515  1
  Fe  Fe2  1  0.500000  0.253430  0.124971  1
  Fe  Fe3  1  0.500000  0.248794  0.625455  1
  Fe  Fe4  1  0.000000  0.998310  0.998196  1
  Pt  Pt5  1  0.000000  0.010820  0.239566  1
  Pt  Pt6  1  0.000000  0.993444  0.758150  1
  Pt  Pt7  1  0.000000  0.499582  0.998858  1
  Pt  Pt8  1  0.000000  0.496454  0.503113  1
  Pt  Pt9  1  0.000000  0.501676  0.246011  1
  Pt  Pt10  1  0.000000  0.493910  0.751672  1
  Pt  Pt11  1  0.500000  0.247823  0.373843  1
  Pt  Pt12  1  0.500000  0.236421  0.883234  1
  Pt  Pt13  1  0.500000  0.763188  0.113346  1
  Pt  Pt14  1  0.500000  0.751447  0.630037  1
  Pt  Pt15  1  0.000000  0.004830  0.504264  1
