# generated using pymatgen
data_Ce2(CdPb)3
_symmetry_space_group_name_H-M   'P 1'
_cell_length_a   4.74135000
_cell_length_b   4.94756700
_cell_length_c   8.99836600
_cell_angle_alpha   90.00000000
_cell_angle_beta   90.00000000
_cell_angle_gamma   90.00000000
_symmetry_Int_Tables_number   1
_chemical_formula_structural   Ce2(CdPb)3
_chemical_formula_sum   'Ce2 Cd3 Pb3'
_cell_volume   211.08499055
_cell_formula_units_Z   1
loop_
 _symmetry_equiv_pos_site_id
 _symmetry_equiv_pos_as_xyz
  1  'x, y, z'
loop_
 _atom_site_type_symbol
 _atom_site_label
 _atom_site_symmetry_multiplicity
 _atom_site_fract_x
 _atom_site_fract_y
 _atom_site_fract_z
 _atom_site_occupancy
  Ce  Ce0  1  0.000000  0.000000  0.247510  1
  Ce  Ce1  1  0.000000  0.000000  0.752490  1
  Cd  Cd2  1  0.500000  0.500000  0.260046  1
  Cd  Cd3  1  0.500000  0.500000  0.739954  1
  Cd  Cd4  1  0.000000  0.500000  0.500000  1
  Pb  Pb5  1  0.000000  0.500000  0.000000  1
  Pb  Pb6  1  0.500000  0.000000  0.500000  1
  Pb  Pb7  1  0.500000  0.000000  0.000000  1
