# generated using pymatgen
data_TmCoCuO5
_symmetry_space_group_name_H-M   'P 1'
_cell_length_a   5.60549600
_cell_length_b   7.36284300
_cell_length_c   8.30548800
_cell_angle_alpha   90.00000000
_cell_angle_beta   90.00000000
_cell_angle_gamma   90.00000000
_symmetry_Int_Tables_number   1
_chemical_formula_structural   TmCoCuO5
_chemical_formula_sum   'Tm4 Co4 Cu4 O20'
_cell_volume   342.78731484
_cell_formula_units_Z   4
loop_
 _symmetry_equiv_pos_site_id
 _symmetry_equiv_pos_as_xyz
  1  'x, y, z'
loop_
 _atom_site_type_symbol
 _atom_site_label
 _atom_site_symmetry_multiplicity
 _atom_site_fract_x
 _atom_site_fract_y
 _atom_site_fract_z
 _atom_site_occupancy
  Tm  Tm0  1  0.500000  0.353625  0.327428  1
  Tm  Tm1  1  0.500000  0.646375  0.672572  1
  Tm  Tm2  1  0.500000  0.146375  0.827428  1
  Tm  Tm3  1  0.500000  0.853625  0.172572  1
  Co  Co4  1  0.243840  0.000000  0.500000  1
  Co  Co5  1  0.756160  0.000000  0.500000  1
  Co  Co6  1  0.756160  0.500000  0.000000  1
  Co  Co7  1  0.243840  0.500000  0.000000  1
  Cu  Cu8  1  0.000000  0.074396  0.153245  1
  Cu  Cu9  1  0.000000  0.925604  0.846755  1
  Cu  Cu10  1  0.000000  0.425604  0.653245  1
  Cu  Cu11  1  0.000000  0.574396  0.346755  1
  O  O12  1  0.231823  0.000000  0.000000  1
  O  O13  1  0.768177  0.000000  0.000000  1
  O  O14  1  0.768177  0.500000  0.500000  1
  O  O15  1  0.231823  0.500000  0.500000  1
  O  O16  1  0.000000  0.351870  0.063139  1
  O  O17  1  0.000000  0.648130  0.936861  1
  O  O18  1  0.000000  0.148130  0.563139  1
  O  O19  1  0.000000  0.851870  0.436861  1
  O  O20  1  0.261280  0.096418  0.291403  1
  O  O21  1  0.738720  0.903582  0.708597  1
  O  O22  1  0.261280  0.903582  0.708597  1
  O  O23  1  0.738720  0.403582  0.791403  1
  O  O24  1  0.738720  0.096418  0.291403  1
  O  O25  1  0.261280  0.596418  0.208597  1
  O  O26  1  0.738720  0.596418  0.208597  1
  O  O27  1  0.261280  0.403582  0.791403  1
  O  O28  1  0.500000  0.335014  0.054009  1
  O  O29  1  0.500000  0.664986  0.945991  1
  O  O30  1  0.500000  0.164986  0.554009  1
  O  O31  1  0.500000  0.835014  0.445991  1
