# generated using pymatgen
data_Nd4SnSb5Rh7
_symmetry_space_group_name_H-M   'P 1'
_cell_length_a   7.73834288
_cell_length_b   7.73834527
_cell_length_c   7.73834538
_cell_angle_alpha   109.64521172
_cell_angle_beta   109.38461685
_cell_angle_gamma   109.38461769
_symmetry_Int_Tables_number   1
_chemical_formula_structural   Nd4SnSb5Rh7
_chemical_formula_sum   'Nd4 Sn1 Sb5 Rh7'
_cell_volume   356.71045559
_cell_formula_units_Z   1
loop_
 _symmetry_equiv_pos_site_id
 _symmetry_equiv_pos_as_xyz
  1  'x, y, z'
loop_
 _atom_site_type_symbol
 _atom_site_label
 _atom_site_symmetry_multiplicity
 _atom_site_fract_x
 _atom_site_fract_y
 _atom_site_fract_z
 _atom_site_occupancy
  Nd  Nd0  1  0.498054  0.000275  0.000275  1
  Nd  Nd1  1  0.999999  0.502217  0.000268  1
  Nd  Nd2  1  0.999999  0.000268  0.502217  1
  Nd  Nd3  1  0.501951  0.502220  0.502220  1
  Sn  Sn4  1  0.000008  0.317965  0.317965  1
  Sb  Sb5  1  0.679438  0.001829  0.681270  1
  Sb  Sb6  1  0.679438  0.681270  0.001829  1
  Sb  Sb7  1  0.999996  0.673955  0.673955  1
  Sb  Sb8  1  0.320562  0.001834  0.322391  1
  Sb  Sb9  1  0.320562  0.322391  0.001834  1
  Rh  Rh10  1  0.999999  0.994875  0.994875  1
  Rh  Rh11  1  0.500005  0.751481  0.251477  1
  Rh  Rh12  1  0.748589  0.499479  0.248075  1
  Rh  Rh13  1  0.251403  0.750900  0.499489  1
  Rh  Rh14  1  0.251403  0.499489  0.750900  1
  Rh  Rh15  1  0.500005  0.251477  0.751481  1
  Rh  Rh16  1  0.748589  0.248075  0.499479  1
