# generated using pymatgen
data_Y3MgCd2Ge2Pd
_symmetry_space_group_name_H-M   'P 1'
_cell_length_a   7.31670920
_cell_length_b   7.20854603
_cell_length_c   4.32452100
_cell_angle_alpha   90.00000000
_cell_angle_beta   90.00000000
_cell_angle_gamma   119.51217347
_symmetry_Int_Tables_number   1
_chemical_formula_structural   Y3MgCd2Ge2Pd
_chemical_formula_sum   'Y3 Mg1 Cd2 Ge2 Pd1'
_cell_volume   198.49338505
_cell_formula_units_Z   1
loop_
 _symmetry_equiv_pos_site_id
 _symmetry_equiv_pos_as_xyz
  1  'x, y, z'
loop_
 _atom_site_type_symbol
 _atom_site_label
 _atom_site_symmetry_multiplicity
 _atom_site_fract_x
 _atom_site_fract_y
 _atom_site_fract_z
 _atom_site_occupancy
  Y  Y0  1  0.414563  0.415434  0.500000  1
  Y  Y1  1  0.000000  0.588647  0.500000  1
  Y  Y2  1  0.585437  0.000871  0.500000  1
  Mg  Mg3  1  0.000000  0.236427  0.000000  1
  Cd  Cd4  1  0.752733  0.755272  0.000000  1
  Cd  Cd5  1  0.247267  0.002539  0.000000  1
  Ge  Ge6  1  0.673315  0.331830  0.000000  1
  Ge  Ge7  1  0.326685  0.658515  0.000000  1
  Pd  Pd8  1  0.000000  0.010464  0.500000  1
