# generated using pymatgen
data_Nd2CuNi6B2Pd
_symmetry_space_group_name_H-M   'P 1'
_cell_length_a   5.14444100
_cell_length_b   5.14444074
_cell_length_c   7.11725200
_cell_angle_alpha   90.00000000
_cell_angle_beta   90.00000000
_cell_angle_gamma   120.00000813
_symmetry_Int_Tables_number   1
_chemical_formula_structural   Nd2CuNi6B2Pd
_chemical_formula_sum   'Nd2 Cu1 Ni6 B2 Pd1'
_cell_volume   163.12453943
_cell_formula_units_Z   1
loop_
 _symmetry_equiv_pos_site_id
 _symmetry_equiv_pos_as_xyz
  1  'x, y, z'
loop_
 _atom_site_type_symbol
 _atom_site_label
 _atom_site_symmetry_multiplicity
 _atom_site_fract_x
 _atom_site_fract_y
 _atom_site_fract_z
 _atom_site_occupancy
  Nd  Nd0  1  0.000000  0.000000  0.500000  1
  Nd  Nd1  1  0.000000  0.000000  0.000000  1
  Cu  Cu2  1  0.333333  0.666667  0.000000  1
  Ni  Ni3  1  0.499250  0.998499  0.303645  1
  Ni  Ni4  1  0.499250  0.500750  0.303645  1
  Ni  Ni5  1  0.001501  0.500750  0.303645  1
  Ni  Ni6  1  0.499250  0.998499  0.696355  1
  Ni  Ni7  1  0.499250  0.500750  0.696355  1
  Ni  Ni8  1  0.001501  0.500750  0.696355  1
  B  B9  1  0.666667  0.333333  0.500000  1
  B  B10  1  0.333333  0.666667  0.500000  1
  Pd  Pd11  1  0.666667  0.333333  0.000000  1
