# generated using pymatgen
data_Hf3Ga3FeCu2
_symmetry_space_group_name_H-M   'P 1'
_cell_length_a   7.01986600
_cell_length_b   7.01986575
_cell_length_c   3.36362700
_cell_angle_alpha   90.00000000
_cell_angle_beta   90.00000000
_cell_angle_gamma   120.00000117
_symmetry_Int_Tables_number   1
_chemical_formula_structural   Hf3Ga3FeCu2
_chemical_formula_sum   'Hf3 Ga3 Fe1 Cu2'
_cell_volume   143.54764940
_cell_formula_units_Z   1
loop_
 _symmetry_equiv_pos_site_id
 _symmetry_equiv_pos_as_xyz
  1  'x, y, z'
loop_
 _atom_site_type_symbol
 _atom_site_label
 _atom_site_symmetry_multiplicity
 _atom_site_fract_x
 _atom_site_fract_y
 _atom_site_fract_z
 _atom_site_occupancy
  Hf  Hf0  1  0.407759  0.387459  0.500000  1
  Hf  Hf1  1  0.612541  0.020301  0.500000  1
  Hf  Hf2  1  0.979699  0.592241  0.500000  1
  Ga  Ga3  1  0.727951  0.735280  0.000000  1
  Ga  Ga4  1  0.264720  0.992671  0.000000  1
  Ga  Ga5  1  0.007329  0.272049  0.000000  1
  Fe  Fe6  1  0.666667  0.333333  0.000000  1
  Cu  Cu7  1  0.333333  0.666667  0.000000  1
  Cu  Cu8  1  0.000000  0.000000  0.500000  1
