# generated using pymatgen
data_Ac7Pd16
_symmetry_space_group_name_H-M   'P 1'
_cell_length_a   9.76211583
_cell_length_b   9.76211480
_cell_length_c   9.76211600
_cell_angle_alpha   131.69608472
_cell_angle_beta   131.69609505
_cell_angle_gamma   70.70945115
_symmetry_Int_Tables_number   1
_chemical_formula_structural   Ac7Pd16
_chemical_formula_sum   'Ac7 Pd16'
_cell_volume   508.09319434
_cell_formula_units_Z   1
loop_
 _symmetry_equiv_pos_site_id
 _symmetry_equiv_pos_as_xyz
  1  'x, y, z'
loop_
 _atom_site_type_symbol
 _atom_site_label
 _atom_site_symmetry_multiplicity
 _atom_site_fract_x
 _atom_site_fract_y
 _atom_site_fract_z
 _atom_site_occupancy
  Ac  Ac0  1  0.094853  0.094853  0.391942  1
  Ac  Ac1  1  0.702910  0.702910  0.608058  1
  Ac  Ac2  1  0.905147  0.297090  0.000000  1
  Ac  Ac3  1  0.750000  0.250000  0.500000  1
  Ac  Ac4  1  0.500000  0.500000  0.000000  1
  Ac  Ac5  1  0.297090  0.905147  0.000000  1
  Ac  Ac6  1  0.250000  0.750000  0.500000  1
  Pd  Pd7  1  0.433983  0.191371  0.000000  1
  Pd  Pd8  1  0.682855  0.934492  0.486087  1
  Pd  Pd9  1  0.934492  0.682855  0.486087  1
  Pd  Pd10  1  0.191371  0.433983  0.000000  1
  Pd  Pd11  1  0.317145  0.803230  0.251636  1
  Pd  Pd12  1  0.938783  0.670145  0.000000  1
  Pd  Pd13  1  0.808629  0.808629  0.242612  1
  Pd  Pd14  1  0.065508  0.551594  0.748364  1
  Pd  Pd15  1  0.061217  0.061217  0.731362  1
  Pd  Pd16  1  0.670145  0.938783  0.000000  1
  Pd  Pd17  1  0.566017  0.566017  0.757388  1
  Pd  Pd18  1  0.803230  0.317145  0.251636  1
  Pd  Pd19  1  0.551594  0.065508  0.748364  1
  Pd  Pd20  1  0.196770  0.448406  0.513913  1
  Pd  Pd21  1  0.329855  0.329855  0.268638  1
  Pd  Pd22  1  0.448406  0.196770  0.513913  1
