# generated using pymatgen
data_TbPa(B4Os)2
_symmetry_space_group_name_H-M   'P 1'
_cell_length_a   5.99501674
_cell_length_b   11.61756543
_cell_length_c   3.58669400
_cell_angle_alpha   90.00000000
_cell_angle_beta   90.00000000
_cell_angle_gamma   89.94315037
_symmetry_Int_Tables_number   1
_chemical_formula_structural   TbPa(B4Os)2
_chemical_formula_sum   'Tb2 Pa2 B16 Os4'
_cell_volume   249.80414454
_cell_formula_units_Z   2
loop_
 _symmetry_equiv_pos_site_id
 _symmetry_equiv_pos_as_xyz
  1  'x, y, z'
loop_
 _atom_site_type_symbol
 _atom_site_label
 _atom_site_symmetry_multiplicity
 _atom_site_fract_x
 _atom_site_fract_y
 _atom_site_fract_z
 _atom_site_occupancy
  Tb  Tb0  1  0.128453  0.147734  0.000000  1
  Tb  Tb1  1  0.871547  0.852266  0.000000  1
  Pa  Pa2  1  0.628399  0.349222  0.000000  1
  Pa  Pa3  1  0.371601  0.650778  0.000000  1
  B  B4  1  0.789035  0.186364  0.500000  1
  B  B5  1  0.210965  0.813636  0.500000  1
  B  B6  1  0.289579  0.312463  0.500000  1
  B  B7  1  0.710421  0.687537  0.500000  1
  B  B8  1  0.863102  0.031208  0.500000  1
  B  B9  1  0.136898  0.968792  0.500000  1
  B  B10  1  0.365957  0.468287  0.500000  1
  B  B11  1  0.634043  0.531713  0.500000  1
  B  B12  1  0.886822  0.453781  0.500000  1
  B  B13  1  0.113178  0.546219  0.500000  1
  B  B14  1  0.386917  0.045249  0.500000  1
  B  B15  1  0.613083  0.954751  0.500000  1
  B  B16  1  0.973502  0.308540  0.500000  1
  B  B17  1  0.026498  0.691460  0.500000  1
  B  B18  1  0.471241  0.190271  0.500000  1
  B  B19  1  0.528759  0.809729  0.500000  1
  Os  Os20  1  0.639699  0.095749  0.000000  1
  Os  Os21  1  0.360301  0.904251  0.000000  1
  Os  Os22  1  0.141286  0.405034  0.000000  1
  Os  Os23  1  0.858714  0.594966  0.000000  1
