# generated using pymatgen
data_Ho12InGa(NiRu)2
_symmetry_space_group_name_H-M   'P 1'
_cell_length_a   8.34860334
_cell_length_b   8.34858012
_cell_length_c   8.34860435
_cell_angle_alpha   113.07184712
_cell_angle_beta   110.36506488
_cell_angle_gamma   105.07695510
_symmetry_Int_Tables_number   1
_chemical_formula_structural   Ho12InGa(NiRu)2
_chemical_formula_sum   'Ho12 In1 Ga1 Ni2 Ru2'
_cell_volume   445.71120099
_cell_formula_units_Z   1
loop_
 _symmetry_equiv_pos_site_id
 _symmetry_equiv_pos_as_xyz
  1  'x, y, z'
loop_
 _atom_site_type_symbol
 _atom_site_label
 _atom_site_symmetry_multiplicity
 _atom_site_fract_x
 _atom_site_fract_y
 _atom_site_fract_z
 _atom_site_occupancy
  Ho  Ho0  1  0.433759  0.238443  0.195317  1
  Ho  Ho1  1  0.566241  0.761557  0.804683  1
  Ho  Ho2  1  0.043126  0.238443  0.804684  1
  Ho  Ho3  1  0.956874  0.761557  0.195316  1
  Ho  Ho4  1  0.179755  0.279066  0.458822  1
  Ho  Ho5  1  0.820245  0.720934  0.541178  1
  Ho  Ho6  1  0.179757  0.720934  0.900689  1
  Ho  Ho7  1  0.820243  0.279066  0.099311  1
  Ho  Ho8  1  0.328204  0.641703  0.313500  1
  Ho  Ho9  1  0.671796  0.358297  0.686500  1
  Ho  Ho10  1  0.328207  0.014703  0.686497  1
  Ho  Ho11  1  0.671793  0.985297  0.313503  1
  In  In12  1  0.500000  0.500000  0.000000  1
  Ga  Ga13  1  0.000000  0.000000  0.000000  1
  Ni  Ni14  1  0.117614  0.617612  0.499998  1
  Ni  Ni15  1  0.882386  0.382388  0.500002  1
  Ru  Ru16  1  0.329589  0.000000  0.329589  1
  Ru  Ru17  1  0.670411  0.000000  0.670411  1
