# generated using pymatgen
data_Li4NbZn4Sb3O16
_symmetry_space_group_name_H-M   'P 1'
_cell_length_a   6.14622400
_cell_length_b   6.12266548
_cell_length_c   8.57803025
_cell_angle_alpha   90.29524883
_cell_angle_beta   90.00000000
_cell_angle_gamma   90.00000000
_symmetry_Int_Tables_number   1
_chemical_formula_structural   Li4NbZn4Sb3O16
_chemical_formula_sum   'Li4 Nb1 Zn4 Sb3 O16'
_cell_volume   322.79791685
_cell_formula_units_Z   1
loop_
 _symmetry_equiv_pos_site_id
 _symmetry_equiv_pos_as_xyz
  1  'x, y, z'
loop_
 _atom_site_type_symbol
 _atom_site_label
 _atom_site_symmetry_multiplicity
 _atom_site_fract_x
 _atom_site_fract_y
 _atom_site_fract_z
 _atom_site_occupancy
  Li  Li0  1  0.496342  0.298998  0.012105  1
  Li  Li1  1  0.707016  0.499999  0.250000  1
  Li  Li2  1  0.496342  0.701003  0.487895  1
  Li  Li3  1  0.276896  0.499999  0.750000  1
  Nb  Nb4  1  0.295153  0.000000  0.750000  1
  Zn  Zn5  1  0.247697  0.752200  0.125352  1
  Zn  Zn6  1  0.247697  0.247801  0.374648  1
  Zn  Zn7  1  0.768961  0.257408  0.623310  1
  Zn  Zn8  1  0.768961  0.742593  0.876690  1
  Sb  Sb9  1  0.997303  0.270580  0.998606  1
  Sb  Sb10  1  0.726666  0.000000  0.250000  1
  Sb  Sb11  1  0.997303  0.729420  0.501394  1
  O  O12  1  0.237350  0.480814  0.001556  1
  O  O13  1  0.765260  0.019807  0.013832  1
  O  O14  1  0.976428  0.230858  0.235208  1
  O  O15  1  0.516057  0.761205  0.249589  1
  O  O16  1  0.516057  0.238794  0.250411  1
  O  O17  1  0.976428  0.769142  0.264792  1
  O  O18  1  0.765260  0.980193  0.486169  1
  O  O19  1  0.237350  0.519187  0.498445  1
  O  O20  1  0.758096  0.519917  0.496058  1
  O  O21  1  0.226630  0.980011  0.516897  1
  O  O22  1  0.020685  0.762349  0.733073  1
  O  O23  1  0.486326  0.236812  0.737041  1
  O  O24  1  0.486326  0.763187  0.762959  1
  O  O25  1  0.020685  0.237651  0.766927  1
  O  O26  1  0.226630  0.019989  0.983103  1
  O  O27  1  0.758096  0.480084  0.003942  1
