# generated using pymatgen
data_Tb3Tm5B24(MoRh)2
_symmetry_space_group_name_H-M   'P 1'
_cell_length_a   3.65237700
_cell_length_b   9.14916698
_cell_length_c   11.56448404
_cell_angle_alpha   90.39721392
_cell_angle_beta   90.00000000
_cell_angle_gamma   90.00000000
_symmetry_Int_Tables_number   1
_chemical_formula_structural   Tb3Tm5B24(MoRh)2
_chemical_formula_sum   'Tb3 Tm5 B24 Mo2 Rh2'
_cell_volume   386.43190653
_cell_formula_units_Z   1
loop_
 _symmetry_equiv_pos_site_id
 _symmetry_equiv_pos_as_xyz
  1  'x, y, z'
loop_
 _atom_site_type_symbol
 _atom_site_label
 _atom_site_symmetry_multiplicity
 _atom_site_fract_x
 _atom_site_fract_y
 _atom_site_fract_z
 _atom_site_occupancy
  Tb  Tb0  1  0.500000  0.319482  0.412123  1
  Tb  Tb1  1  0.500000  0.680497  0.587771  1
  Tb  Tb2  1  0.500000  0.175355  0.916573  1
  Tm  Tm3  1  0.500000  0.825057  0.082956  1
  Tm  Tm4  1  0.500000  0.443677  0.126934  1
  Tm  Tm5  1  0.500000  0.556900  0.873538  1
  Tm  Tm6  1  0.500000  0.054560  0.628333  1
  Tm  Tm7  1  0.500000  0.945032  0.371527  1
  B  B8  1  0.000000  0.104211  0.472432  1
  B  B9  1  0.000000  0.895558  0.527398  1
  B  B10  1  0.000000  0.396961  0.970964  1
  B  B11  1  0.000000  0.604587  0.029597  1
  B  B12  1  0.000000  0.131564  0.317294  1
  B  B13  1  0.000000  0.867980  0.682653  1
  B  B14  1  0.000000  0.369198  0.815969  1
  B  B15  1  0.000000  0.631906  0.183507  1
  B  B16  1  0.000000  0.051192  0.066502  1
  B  B17  1  0.000000  0.947172  0.934319  1
  B  B18  1  0.000000  0.445502  0.566263  1
  B  B19  1  0.000000  0.554695  0.433529  1
  B  B20  1  0.000000  0.484075  0.287429  1
  B  B21  1  0.000000  0.516351  0.712486  1
  B  B22  1  0.000000  0.019706  0.786000  1
  B  B23  1  0.000000  0.978933  0.213568  1
  B  B24  1  0.000000  0.250924  0.080187  1
  B  B25  1  0.000000  0.749183  0.921115  1
  B  B26  1  0.000000  0.249565  0.579920  1
  B  B27  1  0.000000  0.750351  0.419765  1
  B  B28  1  0.000000  0.295647  0.235967  1
  B  B29  1  0.000000  0.704243  0.764272  1
  B  B30  1  0.000000  0.208730  0.734138  1
  B  B31  1  0.000000  0.791568  0.265076  1
  Mo  Mo32  1  0.500000  0.139068  0.181386  1
  Mo  Mo33  1  0.500000  0.860184  0.818873  1
  Rh  Rh34  1  0.500000  0.361243  0.678954  1
  Rh  Rh35  1  0.500000  0.639141  0.320683  1
