# generated using pymatgen
data_Na3(SrAu3)2
_symmetry_space_group_name_H-M   'P 1'
_cell_length_a   15.26501209
_cell_length_b   15.26501210
_cell_length_c   4.23698400
_cell_angle_alpha   90.00000000
_cell_angle_beta   90.00000000
_cell_angle_gamma   162.59763393
_symmetry_Int_Tables_number   1
_chemical_formula_structural   Na3(SrAu3)2
_chemical_formula_sum   'Na3 Sr2 Au6'
_cell_volume   295.28323415
_cell_formula_units_Z   1
loop_
 _symmetry_equiv_pos_site_id
 _symmetry_equiv_pos_as_xyz
  1  'x, y, z'
loop_
 _atom_site_type_symbol
 _atom_site_label
 _atom_site_symmetry_multiplicity
 _atom_site_fract_x
 _atom_site_fract_y
 _atom_site_fract_z
 _atom_site_occupancy
  Na  Na0  1  0.617955  0.382045  0.000000  1
  Na  Na1  1  0.380103  0.619897  0.000000  1
  Na  Na2  1  0.804417  0.195582  0.500000  1
  Sr  Sr3  1  0.998419  0.001581  0.000000  1
  Sr  Sr4  1  0.198031  0.801968  0.500000  1
  Au  Au5  1  0.723186  0.276814  0.000000  1
  Au  Au6  1  0.278562  0.721438  0.000000  1
  Au  Au7  1  0.907927  0.092073  0.500000  1
  Au  Au8  1  0.544781  0.455218  0.500000  1
  Au  Au9  1  0.454380  0.545619  0.500000  1
  Au  Au10  1  0.092237  0.907763  0.500000  1
