# generated using pymatgen
data_Th2Re3Si2WC2
_symmetry_space_group_name_H-M   'P 1'
_cell_length_a   5.91254941
_cell_length_b   5.91255028
_cell_length_c   7.39122361
_cell_angle_alpha   88.94290807
_cell_angle_beta   91.05709321
_cell_angle_gamma   139.91491512
_symmetry_Int_Tables_number   1
_chemical_formula_structural   Th2Re3Si2WC2
_chemical_formula_sum   'Th2 Re3 Si2 W1 C2'
_cell_volume   166.34783453
_cell_formula_units_Z   1
loop_
 _symmetry_equiv_pos_site_id
 _symmetry_equiv_pos_as_xyz
  1  'x, y, z'
loop_
 _atom_site_type_symbol
 _atom_site_label
 _atom_site_symmetry_multiplicity
 _atom_site_fract_x
 _atom_site_fract_y
 _atom_site_fract_z
 _atom_site_occupancy
  Th  Th0  1  0.543833  0.456167  0.251015  1
  Th  Th1  1  0.457626  0.542374  0.746883  1
  Re  Re2  1  0.181239  0.818761  0.942264  1
  Re  Re3  1  0.168056  0.831944  0.568515  1
  Re  Re4  1  0.829293  0.170707  0.431513  1
  Si  Si5  1  0.262776  0.737224  0.267790  1
  Si  Si6  1  0.734097  0.265903  0.733592  1
  W  W7  1  0.822478  0.177522  0.059290  1
  C  C8  1  0.001498  0.998502  0.000049  1
  C  C9  1  0.999105  0.000895  0.499089  1
