# generated using pymatgen
data_Dy5HoAl19Si5Os8
_symmetry_space_group_name_H-M   'P 1'
_cell_length_a   8.70697600
_cell_length_b   8.69240700
_cell_length_c   9.58933100
_cell_angle_alpha   89.99991028
_cell_angle_beta   89.99975547
_cell_angle_gamma   120.05669456
_symmetry_Int_Tables_number   1
_chemical_formula_structural   Dy5HoAl19Si5Os8
_chemical_formula_sum   'Dy5 Ho1 Al19 Si5 Os8'
_cell_volume   628.17109549
_cell_formula_units_Z   1
loop_
 _symmetry_equiv_pos_site_id
 _symmetry_equiv_pos_as_xyz
  1  'x, y, z'
loop_
 _atom_site_type_symbol
 _atom_site_label
 _atom_site_symmetry_multiplicity
 _atom_site_fract_x
 _atom_site_fract_y
 _atom_site_fract_z
 _atom_site_occupancy
  Dy  Dy0  1  0.194296  0.388858  0.249999  1
  Dy  Dy1  1  0.806093  0.612168  0.750000  1
  Dy  Dy2  1  0.608927  0.806968  0.250000  1
  Dy  Dy3  1  0.388947  0.194765  0.750000  1
  Dy  Dy4  1  0.805816  0.194795  0.750001  1
  Ho  Ho5  1  0.198465  0.806439  0.249989  1
  Al  Al6  1  0.164811  0.329626  0.577936  1
  Al  Al7  1  0.834760  0.669254  0.422200  1
  Al  Al8  1  0.669664  0.835173  0.576665  1
  Al  Al9  1  0.834759  0.669254  0.077798  1
  Al  Al10  1  0.329273  0.165446  0.422291  1
  Al  Al11  1  0.164811  0.329627  0.922068  1
  Al  Al12  1  0.165530  0.835149  0.576500  1
  Al  Al13  1  0.329272  0.165446  0.077708  1
  Al  Al14  1  0.836293  0.165626  0.422368  1
  Al  Al15  1  0.669665  0.835173  0.923337  1
  Al  Al16  1  0.836292  0.165626  0.077631  1
  Al  Al17  1  0.165529  0.835149  0.923502  1
  Al  Al18  1  0.436826  0.873670  0.750002  1
  Al  Al19  1  0.872635  0.433480  0.249999  1
  Al  Al20  1  0.128223  0.564782  0.750003  1
  Al  Al21  1  0.560835  0.433085  0.249998  1
  Al  Al22  1  0.436539  0.564778  0.750002  1
  Al  Al23  1  0.000025  0.999498  0.249998  1
  Al  Al24  1  0.000396  0.000811  0.750002  1
  Si  Si25  1  0.332347  0.665359  0.037659  1
  Si  Si26  1  0.667337  0.334711  0.961222  1
  Si  Si27  1  0.667339  0.334712  0.538775  1
  Si  Si28  1  0.332346  0.665360  0.462337  1
  Si  Si29  1  0.563593  0.127663  0.249998  1
  Os  Os30  1  0.500476  0.001415  0.006594  1
  Os  Os31  1  0.999099  0.499232  0.000699  1
  Os  Os32  1  0.500484  0.001420  0.493406  1
  Os  Os33  1  0.499984  0.499004  0.000527  1
  Os  Os34  1  0.999099  0.499242  0.499305  1
  Os  Os35  1  0.499980  0.499002  0.499475  1
  Os  Os36  1  0.999616  0.999116  0.000039  1
  Os  Os37  1  0.999620  0.999112  0.499962  1
