# generated using pymatgen
data_Er6Al16Os7
_symmetry_space_group_name_H-M   'P 1'
_cell_length_a   8.92525649
_cell_length_b   8.92525696
_cell_length_c   8.92525700
_cell_angle_alpha   60.00000356
_cell_angle_beta   60.00000183
_cell_angle_gamma   60.00000081
_symmetry_Int_Tables_number   1
_chemical_formula_structural   Er6Al16Os7
_chemical_formula_sum   'Er6 Al16 Os7'
_cell_volume   502.74433656
_cell_formula_units_Z   1
loop_
 _symmetry_equiv_pos_site_id
 _symmetry_equiv_pos_as_xyz
  1  'x, y, z'
loop_
 _atom_site_type_symbol
 _atom_site_label
 _atom_site_symmetry_multiplicity
 _atom_site_fract_x
 _atom_site_fract_y
 _atom_site_fract_z
 _atom_site_occupancy
  Er  Er0  1  0.711543  0.711543  0.288457  1
  Er  Er1  1  0.288457  0.711543  0.288457  1
  Er  Er2  1  0.711543  0.288457  0.288457  1
  Er  Er3  1  0.288457  0.288457  0.711543  1
  Er  Er4  1  0.711543  0.288457  0.711543  1
  Er  Er5  1  0.288457  0.711543  0.711543  1
  Al  Al6  1  0.878950  0.878950  0.363150  1
  Al  Al7  1  0.878950  0.363150  0.878950  1
  Al  Al8  1  0.363150  0.878950  0.878950  1
  Al  Al9  1  0.878950  0.878950  0.878950  1
  Al  Al10  1  0.121050  0.121050  0.636850  1
  Al  Al11  1  0.121050  0.636850  0.121050  1
  Al  Al12  1  0.636850  0.121050  0.121050  1
  Al  Al13  1  0.121050  0.121050  0.121050  1
  Al  Al14  1  0.667280  0.667280  0.998162  1
  Al  Al15  1  0.667280  0.998162  0.667280  1
  Al  Al16  1  0.998162  0.667280  0.667280  1
  Al  Al17  1  0.667280  0.667280  0.667280  1
  Al  Al18  1  0.332720  0.332720  0.001838  1
  Al  Al19  1  0.332720  0.001838  0.332720  1
  Al  Al20  1  0.001838  0.332720  0.332720  1
  Al  Al21  1  0.332720  0.332720  0.332720  1
  Os  Os22  1  0.000000  0.000000  0.000000  1
  Os  Os23  1  0.000000  0.000000  0.500000  1
  Os  Os24  1  0.500000  0.000000  0.500000  1
  Os  Os25  1  0.000000  0.500000  0.500000  1
  Os  Os26  1  0.500000  0.500000  0.000000  1
  Os  Os27  1  0.000000  0.500000  0.000000  1
  Os  Os28  1  0.500000  0.000000  0.000000  1
