# generated using pymatgen
data_LiNdCd(P3Pd10)2
_symmetry_space_group_name_H-M   'P 1'
_cell_length_a   8.62723776
_cell_length_b   8.62723742
_cell_length_c   8.62723800
_cell_angle_alpha   59.99999776
_cell_angle_beta   59.99999910
_cell_angle_gamma   60.00000470
_symmetry_Int_Tables_number   1
_chemical_formula_structural   LiNdCd(P3Pd10)2
_chemical_formula_sum   'Li1 Nd1 Cd1 P6 Pd20'
_cell_volume   454.04646970
_cell_formula_units_Z   1
loop_
 _symmetry_equiv_pos_site_id
 _symmetry_equiv_pos_as_xyz
  1  'x, y, z'
loop_
 _atom_site_type_symbol
 _atom_site_label
 _atom_site_symmetry_multiplicity
 _atom_site_fract_x
 _atom_site_fract_y
 _atom_site_fract_z
 _atom_site_occupancy
  Li  Li0  1  0.000000  0.000000  0.000000  1
  Nd  Nd1  1  0.250000  0.250000  0.250000  1
  Cd  Cd2  1  0.750000  0.750000  0.750000  1
  P  P3  1  0.738322  0.261678  0.261678  1
  P  P4  1  0.738322  0.738322  0.261678  1
  P  P5  1  0.738322  0.261678  0.738322  1
  P  P6  1  0.261678  0.738322  0.261678  1
  P  P7  1  0.261678  0.738322  0.738322  1
  P  P8  1  0.261678  0.261678  0.738322  1
  Pd  Pd9  1  0.343218  0.000729  0.000729  1
  Pd  Pd10  1  0.000729  0.655325  0.343218  1
  Pd  Pd11  1  0.343218  0.000729  0.655325  1
  Pd  Pd12  1  0.000729  0.655325  0.000729  1
  Pd  Pd13  1  0.655325  0.343218  0.000729  1
  Pd  Pd14  1  0.618031  0.618031  0.145908  1
  Pd  Pd15  1  0.388632  0.834106  0.388632  1
  Pd  Pd16  1  0.145908  0.618031  0.618031  1
  Pd  Pd17  1  0.655325  0.000729  0.343218  1
  Pd  Pd18  1  0.000729  0.343218  0.655325  1
  Pd  Pd19  1  0.655325  0.000729  0.000729  1
  Pd  Pd20  1  0.000729  0.000729  0.343218  1
  Pd  Pd21  1  0.618031  0.145908  0.618031  1
  Pd  Pd22  1  0.343218  0.655325  0.000729  1
  Pd  Pd23  1  0.388632  0.388632  0.388632  1
  Pd  Pd24  1  0.618031  0.618031  0.618031  1
  Pd  Pd25  1  0.388632  0.388632  0.834106  1
  Pd  Pd26  1  0.000729  0.000729  0.655325  1
  Pd  Pd27  1  0.834106  0.388632  0.388632  1
  Pd  Pd28  1  0.000729  0.343218  0.000729  1
