# generated using pymatgen
data_Er10Si16Pt
_symmetry_space_group_name_H-M   'P 1'
_cell_length_a   11.05486982
_cell_length_b   11.06798663
_cell_length_c   11.05487015
_cell_angle_alpha   144.73452514
_cell_angle_beta   136.66630849
_cell_angle_gamma   57.03148658
_symmetry_Int_Tables_number   1
_chemical_formula_structural   Er10Si16Pt
_chemical_formula_sum   'Er10 Si16 Pt1'
_cell_volume   531.69405319
_cell_formula_units_Z   1
loop_
 _symmetry_equiv_pos_site_id
 _symmetry_equiv_pos_as_xyz
  1  'x, y, z'
loop_
 _atom_site_type_symbol
 _atom_site_label
 _atom_site_symmetry_multiplicity
 _atom_site_fract_x
 _atom_site_fract_y
 _atom_site_fract_z
 _atom_site_occupancy
  Er  Er0  1  0.051484  0.563805  0.015116  1
  Er  Er1  1  0.352354  0.372209  0.522766  1
  Er  Er2  1  0.151129  0.165856  0.520024  1
  Er  Er3  1  0.451610  0.963298  0.014590  1
  Er  Er4  1  0.645833  0.165856  0.014728  1
  Er  Er5  1  0.948707  0.963298  0.511687  1
  Er  Er6  1  0.849444  0.372209  0.019857  1
  Er  Er7  1  0.548689  0.563805  0.512322  1
  Er  Er8  1  0.248346  0.762370  0.009761  1
  Er  Er9  1  0.752608  0.762370  0.514023  1
  Si  Si10  1  0.118049  0.077716  0.959666  1
  Si  Si11  1  0.797699  0.184556  0.386855  1
  Si  Si12  1  0.300154  0.899123  0.598970  1
  Si  Si13  1  0.399924  0.500672  0.100749  1
  Si  Si14  1  0.886181  0.847714  0.961532  1
  Si  Si15  1  0.104194  0.709141  0.604948  1
  Si  Si16  1  0.200479  0.585473  0.384993  1
  Si  Si17  1  0.697294  0.293070  0.595777  1
  Si  Si18  1  0.000349  0.433045  0.432695  1
  Si  Si19  1  0.713437  0.666150  0.952714  1
  Si  Si20  1  0.600466  0.703211  0.102743  1
  Si  Si21  1  0.001320  0.087367  0.086047  1
  Si  Si22  1  0.500977  0.391861  0.890884  1
  Si  Si23  1  0.285941  0.241529  0.955588  1
  Si  Si24  1  0.582339  0.041403  0.459063  1
  Si  Si25  1  0.414645  0.870078  0.455433  1
  Pt  Pt26  1  0.896352  0.501734  0.605382  1
