# generated using pymatgen
data_Sc4Tc3Os3Ru2
_symmetry_space_group_name_H-M   'P 1'
_cell_length_a   5.16174600
_cell_length_b   5.15916618
_cell_length_c   8.78387700
_cell_angle_alpha   90.00000000
_cell_angle_beta   90.00000000
_cell_angle_gamma   120.01654274
_symmetry_Int_Tables_number   1
_chemical_formula_structural   Sc4Tc3Os3Ru2
_chemical_formula_sum   'Sc4 Tc3 Os3 Ru2'
_cell_volume   202.54457037
_cell_formula_units_Z   1
loop_
 _symmetry_equiv_pos_site_id
 _symmetry_equiv_pos_as_xyz
  1  'x, y, z'
loop_
 _atom_site_type_symbol
 _atom_site_label
 _atom_site_symmetry_multiplicity
 _atom_site_fract_x
 _atom_site_fract_y
 _atom_site_fract_z
 _atom_site_occupancy
  Sc  Sc0  1  0.334141  0.668281  0.067090  1
  Sc  Sc1  1  0.667185  0.334369  0.567370  1
  Sc  Sc2  1  0.334141  0.668281  0.432910  1
  Sc  Sc3  1  0.667185  0.334369  0.932630  1
  Tc  Tc4  1  0.340995  0.169647  0.250000  1
  Tc  Tc5  1  0.828655  0.169647  0.250000  1
  Tc  Tc6  1  0.168631  0.337263  0.750000  1
  Os  Os7  1  0.826820  0.653641  0.250000  1
  Os  Os8  1  0.169896  0.824565  0.750000  1
  Os  Os9  1  0.654667  0.824565  0.750000  1
  Ru  Ru10  1  0.003843  0.007685  0.501024  1
  Ru  Ru11  1  0.003843  0.007685  0.998976  1
