# generated using pymatgen
data_NdCo3P3Pd2
_symmetry_space_group_name_H-M   'P 1'
_cell_length_a   3.81050500
_cell_length_b   10.59436200
_cell_length_c   12.43030000
_cell_angle_alpha   90.00000000
_cell_angle_beta   90.00000000
_cell_angle_gamma   90.00000000
_symmetry_Int_Tables_number   1
_chemical_formula_structural   NdCo3P3Pd2
_chemical_formula_sum   'Nd4 Co12 P12 Pd8'
_cell_volume   501.80958726
_cell_formula_units_Z   4
loop_
 _symmetry_equiv_pos_site_id
 _symmetry_equiv_pos_as_xyz
  1  'x, y, z'
loop_
 _atom_site_type_symbol
 _atom_site_label
 _atom_site_symmetry_multiplicity
 _atom_site_fract_x
 _atom_site_fract_y
 _atom_site_fract_z
 _atom_site_occupancy
  Nd  Nd0  1  0.250000  0.583399  0.709447  1
  Nd  Nd1  1  0.250000  0.916601  0.209447  1
  Nd  Nd2  1  0.750000  0.416601  0.290553  1
  Nd  Nd3  1  0.750000  0.083399  0.790553  1
  Co  Co4  1  0.250000  0.221976  0.178217  1
  Co  Co5  1  0.250000  0.278024  0.678217  1
  Co  Co6  1  0.750000  0.778024  0.821783  1
  Co  Co7  1  0.750000  0.721976  0.321783  1
  Co  Co8  1  0.250000  0.881865  0.694745  1
  Co  Co9  1  0.250000  0.618135  0.194745  1
  Co  Co10  1  0.750000  0.118135  0.305255  1
  Co  Co11  1  0.750000  0.381865  0.805255  1
  Co  Co12  1  0.250000  0.464002  0.934097  1
  Co  Co13  1  0.250000  0.035998  0.434097  1
  Co  Co14  1  0.750000  0.535998  0.065903  1
  Co  Co15  1  0.750000  0.964002  0.565903  1
  P  P16  1  0.250000  0.424901  0.110645  1
  P  P17  1  0.250000  0.075099  0.610645  1
  P  P18  1  0.750000  0.575099  0.889355  1
  P  P19  1  0.750000  0.924901  0.389355  1
  P  P20  1  0.250000  0.281489  0.855940  1
  P  P21  1  0.250000  0.218511  0.355940  1
  P  P22  1  0.750000  0.718511  0.144060  1
  P  P23  1  0.750000  0.781489  0.644060  1
  P  P24  1  0.250000  0.611211  0.373121  1
  P  P25  1  0.250000  0.888789  0.873121  1
  P  P26  1  0.750000  0.388789  0.626879  1
  P  P27  1  0.750000  0.111211  0.126879  1
  Pd  Pd28  1  0.250000  0.708616  0.985795  1
  Pd  Pd29  1  0.250000  0.791384  0.485795  1
  Pd  Pd30  1  0.750000  0.291384  0.014205  1
  Pd  Pd31  1  0.750000  0.208616  0.514205  1
  Pd  Pd32  1  0.250000  0.405589  0.480830  1
  Pd  Pd33  1  0.250000  0.094411  0.980830  1
  Pd  Pd34  1  0.750000  0.594411  0.519170  1
  Pd  Pd35  1  0.750000  0.905589  0.019170  1
