# generated using pymatgen
data_LiHf3(NiAs)4
_symmetry_space_group_name_H-M   'P 1'
_cell_length_a   3.86334900
_cell_length_b   6.44008815
_cell_length_c   7.26870132
_cell_angle_alpha   90.44075149
_cell_angle_beta   90.00000000
_cell_angle_gamma   90.00000000
_symmetry_Int_Tables_number   1
_chemical_formula_structural   LiHf3(NiAs)4
_chemical_formula_sum   'Li1 Hf3 Ni4 As4'
_cell_volume   180.84217754
_cell_formula_units_Z   1
loop_
 _symmetry_equiv_pos_site_id
 _symmetry_equiv_pos_as_xyz
  1  'x, y, z'
loop_
 _atom_site_type_symbol
 _atom_site_label
 _atom_site_symmetry_multiplicity
 _atom_site_fract_x
 _atom_site_fract_y
 _atom_site_fract_z
 _atom_site_occupancy
  Li  Li0  1  0.250000  0.481278  0.187937  1
  Hf  Hf1  1  0.750000  0.522331  0.810813  1
  Hf  Hf2  1  0.750000  0.026138  0.688998  1
  Hf  Hf3  1  0.250000  0.978774  0.311337  1
  Ni  Ni4  1  0.250000  0.863161  0.936731  1
  Ni  Ni5  1  0.750000  0.133508  0.063871  1
  Ni  Ni6  1  0.750000  0.653663  0.434224  1
  Ni  Ni7  1  0.250000  0.344845  0.561693  1
  As  As8  1  0.250000  0.731687  0.617739  1
  As  As9  1  0.750000  0.273141  0.378732  1
  As  As10  1  0.750000  0.750529  0.115933  1
  As  As11  1  0.250000  0.240946  0.891992  1
