# generated using pymatgen
data_Th10HgBiPb6
_symmetry_space_group_name_H-M   'P 1'
_cell_length_a   9.77754686
_cell_length_b   9.77754741
_cell_length_c   6.69496801
_cell_angle_alpha   89.99686117
_cell_angle_beta   89.99685600
_cell_angle_gamma   120.04800101
_symmetry_Int_Tables_number   1
_chemical_formula_structural   Th10HgBiPb6
_chemical_formula_sum   'Th10 Hg1 Bi1 Pb6'
_cell_volume   554.02416120
_cell_formula_units_Z   1
loop_
 _symmetry_equiv_pos_site_id
 _symmetry_equiv_pos_as_xyz
  1  'x, y, z'
loop_
 _atom_site_type_symbol
 _atom_site_label
 _atom_site_symmetry_multiplicity
 _atom_site_fract_x
 _atom_site_fract_y
 _atom_site_fract_z
 _atom_site_occupancy
  Th  Th0  1  0.667359  0.333246  0.500566  1
  Th  Th1  1  0.333246  0.667359  0.500566  1
  Th  Th2  1  0.333525  0.667555  0.999373  1
  Th  Th3  1  0.667555  0.333525  0.999373  1
  Th  Th4  1  0.721221  0.721221  0.251840  1
  Th  Th5  1  0.278095  0.998892  0.251537  1
  Th  Th6  1  0.998892  0.278095  0.251537  1
  Th  Th7  1  0.278732  0.278732  0.747951  1
  Th  Th8  1  0.721139  0.000071  0.748563  1
  Th  Th9  1  0.000071  0.721139  0.748563  1
  Hg  Hg10  1  0.999760  0.999760  0.500427  1
  Bi  Bi11  1  0.379182  0.379182  0.249941  1
  Pb  Pb12  1  0.999985  0.999985  0.999863  1
  Pb  Pb13  1  0.621685  0.999783  0.250192  1
  Pb  Pb14  1  0.999783  0.621685  0.250192  1
  Pb  Pb15  1  0.621931  0.621931  0.749945  1
  Pb  Pb16  1  0.378153  0.999685  0.749785  1
  Pb  Pb17  1  0.999685  0.378153  0.749785  1
