# generated using pymatgen
data_Tb9Nd7Cd4NiRu3
_symmetry_space_group_name_H-M   'P 1'
_cell_length_a   9.73630140
_cell_length_b   9.79324683
_cell_length_c   9.81327400
_cell_angle_alpha   59.93232894
_cell_angle_beta   59.73813406
_cell_angle_gamma   59.67590296
_symmetry_Int_Tables_number   1
_chemical_formula_structural   Tb9Nd7Cd4NiRu3
_chemical_formula_sum   'Tb9 Nd7 Cd4 Ni1 Ru3'
_cell_volume   658.35671590
_cell_formula_units_Z   1
loop_
 _symmetry_equiv_pos_site_id
 _symmetry_equiv_pos_as_xyz
  1  'x, y, z'
loop_
 _atom_site_type_symbol
 _atom_site_label
 _atom_site_symmetry_multiplicity
 _atom_site_fract_x
 _atom_site_fract_y
 _atom_site_fract_z
 _atom_site_occupancy
  Tb  Tb0  1  0.598245  0.595298  0.594802  1
  Tb  Tb1  1  0.598245  0.595298  0.211655  1
  Tb  Tb2  1  0.596761  0.212839  0.595200  1
  Tb  Tb3  1  0.214714  0.593769  0.595759  1
  Tb  Tb4  1  0.062308  0.439717  0.437330  1
  Tb  Tb5  1  0.438133  0.061859  0.061443  1
  Tb  Tb6  1  0.438133  0.061859  0.438564  1
  Tb  Tb7  1  0.062308  0.439717  0.060647  1
  Tb  Tb8  1  0.436950  0.437739  0.062655  1
  Nd  Nd9  1  0.062060  0.062403  0.437769  1
  Nd  Nd10  1  0.191188  0.807618  0.809562  1
  Nd  Nd11  1  0.805771  0.190175  0.189258  1
  Nd  Nd12  1  0.805771  0.190175  0.814796  1
  Nd  Nd13  1  0.191188  0.807618  0.191631  1
  Nd  Nd14  1  0.805949  0.815296  0.189378  1
  Nd  Nd15  1  0.191262  0.191793  0.808472  1
  Cd  Cd16  1  0.827991  0.828465  0.830924  1
  Cd  Cd17  1  0.827991  0.828465  0.512619  1
  Cd  Cd18  1  0.828671  0.511567  0.829881  1
  Cd  Cd19  1  0.510752  0.828952  0.830147  1
  Ni  Ni20  1  0.825715  0.394208  0.390039  1
  Ru  Ru21  1  0.392413  0.388454  0.388852  1
  Ru  Ru22  1  0.392413  0.388454  0.830279  1
  Ru  Ru23  1  0.395066  0.828261  0.388336  1
