# generated using pymatgen
data_YTm3Co14(P2Ru)6
_symmetry_space_group_name_H-M   'P 1'
_cell_length_a   3.71824100
_cell_length_b   10.42756482
_cell_length_c   11.83116493
_cell_angle_alpha   90.04538068
_cell_angle_beta   90.00000000
_cell_angle_gamma   90.00000000
_symmetry_Int_Tables_number   1
_chemical_formula_structural   YTm3Co14(P2Ru)6
_chemical_formula_sum   'Y1 Tm3 Co14 P12 Ru6'
_cell_volume   458.72013751
_cell_formula_units_Z   1
loop_
 _symmetry_equiv_pos_site_id
 _symmetry_equiv_pos_as_xyz
  1  'x, y, z'
loop_
 _atom_site_type_symbol
 _atom_site_label
 _atom_site_symmetry_multiplicity
 _atom_site_fract_x
 _atom_site_fract_y
 _atom_site_fract_z
 _atom_site_occupancy
  Y  Y0  1  0.250000  0.586809  0.705781  1
  Tm  Tm1  1  0.250000  0.913377  0.205339  1
  Tm  Tm2  1  0.750000  0.414699  0.292052  1
  Tm  Tm3  1  0.750000  0.085204  0.792035  1
  Co  Co4  1  0.750000  0.597140  0.511830  1
  Co  Co5  1  0.750000  0.902933  0.013887  1
  Co  Co6  1  0.250000  0.225463  0.179725  1
  Co  Co7  1  0.250000  0.274135  0.679578  1
  Co  Co8  1  0.750000  0.777761  0.822319  1
  Co  Co9  1  0.750000  0.723712  0.321615  1
  Co  Co10  1  0.250000  0.885219  0.700513  1
  Co  Co11  1  0.250000  0.615632  0.200843  1
  Co  Co12  1  0.750000  0.113288  0.298029  1
  Co  Co13  1  0.750000  0.385353  0.798855  1
  Co  Co14  1  0.250000  0.464479  0.931997  1
  Co  Co15  1  0.250000  0.035015  0.430600  1
  Co  Co16  1  0.750000  0.537822  0.069040  1
  Co  Co17  1  0.750000  0.962758  0.567903  1
  P  P18  1  0.250000  0.422598  0.113172  1
  P  P19  1  0.250000  0.077476  0.612512  1
  P  P20  1  0.750000  0.579031  0.887938  1
  P  P21  1  0.750000  0.921029  0.386259  1
  P  P22  1  0.250000  0.271847  0.866416  1
  P  P23  1  0.250000  0.228040  0.366209  1
  P  P24  1  0.750000  0.731127  0.132820  1
  P  P25  1  0.750000  0.770373  0.632154  1
  P  P26  1  0.250000  0.599800  0.386415  1
  P  P27  1  0.250000  0.900063  0.886287  1
  P  P28  1  0.750000  0.402112  0.612575  1
  P  P29  1  0.750000  0.096409  0.112864  1
  Ru  Ru30  1  0.250000  0.714462  0.989830  1
  Ru  Ru31  1  0.250000  0.785825  0.489330  1
  Ru  Ru32  1  0.750000  0.289877  0.013791  1
  Ru  Ru33  1  0.750000  0.209622  0.512989  1
  Ru  Ru34  1  0.250000  0.408580  0.488033  1
  Ru  Ru35  1  0.250000  0.090932  0.988462  1
