# generated using pymatgen
data_Zr8Cd4Pd7Rh
_symmetry_space_group_name_H-M   'P 1'
_cell_length_a   7.57208358
_cell_length_b   7.57208286
_cell_length_c   6.73854600
_cell_angle_alpha   90.13030648
_cell_angle_beta   89.86968596
_cell_angle_gamma   89.68551277
_symmetry_Int_Tables_number   1
_chemical_formula_structural   Zr8Cd4Pd7Rh
_chemical_formula_sum   'Zr8 Cd4 Pd7 Rh1'
_cell_volume   386.35643810
_cell_formula_units_Z   1
loop_
 _symmetry_equiv_pos_site_id
 _symmetry_equiv_pos_as_xyz
  1  'x, y, z'
loop_
 _atom_site_type_symbol
 _atom_site_label
 _atom_site_symmetry_multiplicity
 _atom_site_fract_x
 _atom_site_fract_y
 _atom_site_fract_z
 _atom_site_occupancy
  Zr  Zr0  1  0.662070  0.650843  0.496554  1
  Zr  Zr1  1  0.811838  0.188162  0.497133  1
  Zr  Zr2  1  0.686091  0.679246  0.002160  1
  Zr  Zr3  1  0.835886  0.164114  0.004618  1
  Zr  Zr4  1  0.184136  0.815864  0.500083  1
  Zr  Zr5  1  0.320754  0.313909  0.002160  1
  Zr  Zr6  1  0.154126  0.845874  0.998773  1
  Zr  Zr7  1  0.349157  0.337930  0.496554  1
  Cd  Cd8  1  0.002210  0.499707  0.249630  1
  Cd  Cd9  1  0.500098  0.997137  0.748722  1
  Cd  Cd10  1  0.500293  0.997790  0.249630  1
  Cd  Cd11  1  0.002863  0.499902  0.748722  1
  Pd  Pd12  1  0.370966  0.629034  0.777138  1
  Pd  Pd13  1  0.870565  0.872427  0.722571  1
  Pd  Pd14  1  0.627441  0.372559  0.778479  1
  Pd  Pd15  1  0.368502  0.631498  0.220165  1
  Pd  Pd16  1  0.127224  0.128685  0.277738  1
  Pd  Pd17  1  0.871315  0.872776  0.277738  1
  Pd  Pd18  1  0.127573  0.129435  0.722571  1
  Rh  Rh19  1  0.626893  0.373107  0.228860  1
