# generated using pymatgen
data_Li4Dy4Si5As
_symmetry_space_group_name_H-M   'P 1'
_cell_length_a   9.26792461
_cell_length_b   9.26792460
_cell_length_c   6.66719700
_cell_angle_alpha   90.00000000
_cell_angle_beta   90.00000000
_cell_angle_gamma   153.34560622
_symmetry_Int_Tables_number   1
_chemical_formula_structural   Li4Dy4Si5As
_chemical_formula_sum   'Li4 Dy4 Si5 As1'
_cell_volume   256.90647236
_cell_formula_units_Z   1
loop_
 _symmetry_equiv_pos_site_id
 _symmetry_equiv_pos_as_xyz
  1  'x, y, z'
loop_
 _atom_site_type_symbol
 _atom_site_label
 _atom_site_symmetry_multiplicity
 _atom_site_fract_x
 _atom_site_fract_y
 _atom_site_fract_z
 _atom_site_occupancy
  Li  Li0  1  0.809059  0.190941  0.437481  1
  Li  Li1  1  0.192011  0.807989  0.561068  1
  Li  Li2  1  0.809059  0.190941  0.062519  1
  Li  Li3  1  0.192011  0.807989  0.938932  1
  Dy  Dy4  1  0.549372  0.450628  0.750000  1
  Dy  Dy5  1  0.448881  0.551119  0.250000  1
  Dy  Dy6  1  0.346585  0.653415  0.750000  1
  Dy  Dy7  1  0.653841  0.346159  0.250000  1
  Si  Si8  1  0.940033  0.059967  0.927022  1
  Si  Si9  1  0.059898  0.940102  0.072188  1
  Si  Si10  1  0.940033  0.059967  0.572978  1
  Si  Si11  1  0.059898  0.940102  0.427812  1
  Si  Si12  1  0.279783  0.720217  0.250000  1
  As  As13  1  0.719536  0.280464  0.750000  1
