# generated using pymatgen
data_Ta2GaFeCl16
_symmetry_space_group_name_H-M   'P 1'
_cell_length_a   9.97249079
_cell_length_b   9.97249118
_cell_length_c   8.84201500
_cell_angle_alpha   90.00000000
_cell_angle_beta   90.00000000
_cell_angle_gamma   128.77998715
_symmetry_Int_Tables_number   1
_chemical_formula_structural   Ta2GaFeCl16
_chemical_formula_sum   'Ta2 Ga1 Fe1 Cl16'
_cell_volume   685.49818185
_cell_formula_units_Z   1
loop_
 _symmetry_equiv_pos_site_id
 _symmetry_equiv_pos_as_xyz
  1  'x, y, z'
loop_
 _atom_site_type_symbol
 _atom_site_label
 _atom_site_symmetry_multiplicity
 _atom_site_fract_x
 _atom_site_fract_y
 _atom_site_fract_z
 _atom_site_occupancy
  Ta  Ta0  1  0.884114  0.115886  0.250000  1
  Ta  Ta1  1  0.115144  0.884856  0.750000  1
  Ga  Ga2  1  0.316515  0.683485  0.750000  1
  Fe  Fe3  1  0.686175  0.313825  0.250000  1
  Cl  Cl4  1  0.377232  0.622768  0.541839  1
  Cl  Cl5  1  0.620524  0.379476  0.453206  1
  Cl  Cl6  1  0.421795  0.965358  0.750000  1
  Cl  Cl7  1  0.968745  0.422610  0.250000  1
  Cl  Cl8  1  0.577390  0.031255  0.250000  1
  Cl  Cl9  1  0.034642  0.578205  0.750000  1
  Cl  Cl10  1  0.239517  0.167824  0.750000  1
  Cl  Cl11  1  0.166890  0.237701  0.250000  1
  Cl  Cl12  1  0.762299  0.833110  0.250000  1
  Cl  Cl13  1  0.832176  0.760483  0.750000  1
  Cl  Cl14  1  0.132783  0.867217  0.490133  1
  Cl  Cl15  1  0.866759  0.133241  0.510161  1
  Cl  Cl16  1  0.866759  0.133241  0.989839  1
  Cl  Cl17  1  0.132783  0.867217  0.009867  1
  Cl  Cl18  1  0.377232  0.622768  0.958161  1
  Cl  Cl19  1  0.620524  0.379476  0.046794  1
