# generated using pymatgen
data_Na2P7IrRu11
_symmetry_space_group_name_H-M   'P 1'
_cell_length_a   9.39568502
_cell_length_b   9.44294826
_cell_length_c   3.93696700
_cell_angle_alpha   90.00000000
_cell_angle_beta   90.00000000
_cell_angle_gamma   119.71151985
_symmetry_Int_Tables_number   1
_chemical_formula_structural   Na2P7IrRu11
_chemical_formula_sum   'Na2 P7 Ir1 Ru11'
_cell_volume   303.37766062
_cell_formula_units_Z   1
loop_
 _symmetry_equiv_pos_site_id
 _symmetry_equiv_pos_as_xyz
  1  'x, y, z'
loop_
 _atom_site_type_symbol
 _atom_site_label
 _atom_site_symmetry_multiplicity
 _atom_site_fract_x
 _atom_site_fract_y
 _atom_site_fract_z
 _atom_site_occupancy
  Na  Na0  1  0.667051  0.334034  0.500000  1
  Na  Na1  1  0.332215  0.664800  0.000000  1
  P  P2  1  0.600536  0.710853  0.500000  1
  P  P3  1  0.998357  0.998756  0.000000  1
  P  P4  1  0.282612  0.884440  0.500000  1
  P  P5  1  0.111902  0.397969  0.500000  1
  P  P6  1  0.891754  0.583239  0.000000  1
  P  P7  1  0.419371  0.309310  0.000000  1
  P  P8  1  0.695125  0.113797  0.000000  1
  Ir  Ir9  1  0.557071  0.950056  0.500000  1
  Ru  Ru10  1  0.391156  0.438176  0.500000  1
  Ru  Ru11  1  0.914039  0.119704  0.500000  1
  Ru  Ru12  1  0.207607  0.085951  0.500000  1
  Ru  Ru13  1  0.880264  0.797416  0.500000  1
  Ru  Ru14  1  0.726304  0.887384  0.000000  1
  Ru  Ru15  1  0.115062  0.842999  0.000000  1
  Ru  Ru16  1  0.157561  0.268981  0.000000  1
  Ru  Ru17  1  0.429583  0.069385  0.000000  1
  Ru  Ru18  1  0.934654  0.360132  0.000000  1
  Ru  Ru19  1  0.641925  0.574832  0.000000  1
  Ru  Ru20  1  0.045851  0.607784  0.500000  1
