# generated using pymatgen
data_Nd2Pd14Se
_symmetry_space_group_name_H-M   'P 1'
_cell_length_a   9.02125300
_cell_length_b   9.02125300
_cell_length_c   7.22741800
_cell_angle_alpha   90.00000000
_cell_angle_beta   90.00000000
_cell_angle_gamma   90.00000000
_symmetry_Int_Tables_number   1
_chemical_formula_structural   Nd2Pd14Se
_chemical_formula_sum   'Nd4 Pd28 Se2'
_cell_volume   588.18900022
_cell_formula_units_Z   2
loop_
 _symmetry_equiv_pos_site_id
 _symmetry_equiv_pos_as_xyz
  1  'x, y, z'
loop_
 _atom_site_type_symbol
 _atom_site_label
 _atom_site_symmetry_multiplicity
 _atom_site_fract_x
 _atom_site_fract_y
 _atom_site_fract_z
 _atom_site_occupancy
  Nd  Nd0  1  0.500000  0.000000  0.933495  1
  Nd  Nd1  1  0.000000  0.500000  0.066505  1
  Nd  Nd2  1  0.000000  0.000000  0.500000  1
  Nd  Nd3  1  0.500000  0.500000  0.500000  1
  Pd  Pd4  1  0.329069  0.829069  0.625234  1
  Pd  Pd5  1  0.329069  0.170931  0.625234  1
  Pd  Pd6  1  0.670931  0.829069  0.625234  1
  Pd  Pd7  1  0.670931  0.170931  0.625234  1
  Pd  Pd8  1  0.170931  0.670931  0.374766  1
  Pd  Pd9  1  0.170931  0.329069  0.374766  1
  Pd  Pd10  1  0.829069  0.670931  0.374766  1
  Pd  Pd11  1  0.829069  0.329069  0.374766  1
  Pd  Pd12  1  0.500000  0.763552  0.251404  1
  Pd  Pd13  1  0.500000  0.236448  0.251404  1
  Pd  Pd14  1  0.263552  0.000000  0.251404  1
  Pd  Pd15  1  0.736448  0.000000  0.251404  1
  Pd  Pd16  1  0.000000  0.736448  0.748596  1
  Pd  Pd17  1  0.000000  0.263552  0.748596  1
  Pd  Pd18  1  0.236448  0.500000  0.748596  1
  Pd  Pd19  1  0.763552  0.500000  0.748596  1
  Pd  Pd20  1  0.500000  0.348151  0.859305  1
  Pd  Pd21  1  0.500000  0.651849  0.859305  1
  Pd  Pd22  1  0.848151  0.000000  0.859305  1
  Pd  Pd23  1  0.151849  0.000000  0.859305  1
  Pd  Pd24  1  0.000000  0.151849  0.140695  1
  Pd  Pd25  1  0.000000  0.848151  0.140695  1
  Pd  Pd26  1  0.651849  0.500000  0.140695  1
  Pd  Pd27  1  0.348151  0.500000  0.140695  1
  Pd  Pd28  1  0.250000  0.750000  0.000000  1
  Pd  Pd29  1  0.250000  0.250000  0.000000  1
  Pd  Pd30  1  0.750000  0.750000  0.000000  1
  Pd  Pd31  1  0.750000  0.250000  0.000000  1
  Se  Se32  1  0.500000  0.000000  0.450483  1
  Se  Se33  1  0.000000  0.500000  0.549517  1
