# generated using pymatgen
data_Tb2YMg3Pb2Au
_symmetry_space_group_name_H-M   'P 1'
_cell_length_a   7.64231214
_cell_length_b   7.64231098
_cell_length_c   4.48015700
_cell_angle_alpha   90.00000000
_cell_angle_beta   90.00000000
_cell_angle_gamma   119.93730801
_symmetry_Int_Tables_number   1
_chemical_formula_structural   Tb2YMg3Pb2Au
_chemical_formula_sum   'Tb2 Y1 Mg3 Pb2 Au1'
_cell_volume   226.75002930
_cell_formula_units_Z   1
loop_
 _symmetry_equiv_pos_site_id
 _symmetry_equiv_pos_as_xyz
  1  'x, y, z'
loop_
 _atom_site_type_symbol
 _atom_site_label
 _atom_site_symmetry_multiplicity
 _atom_site_fract_x
 _atom_site_fract_y
 _atom_site_fract_z
 _atom_site_occupancy
  Tb  Tb0  1  0.598155  0.999871  0.000000  1
  Tb  Tb1  1  0.999871  0.598155  0.000000  1
  Y  Y2  1  0.401818  0.401818  0.000000  1
  Mg  Mg3  1  0.234275  0.000031  0.500000  1
  Mg  Mg4  1  0.000031  0.234275  0.500000  1
  Mg  Mg5  1  0.765725  0.765725  0.500000  1
  Pb  Pb6  1  0.333488  0.666647  0.500000  1
  Pb  Pb7  1  0.666647  0.333488  0.500000  1
  Au  Au8  1  0.999991  0.999991  0.000000  1
