# generated using pymatgen
data_Ho8TcOsI8
_symmetry_space_group_name_H-M   'P 1'
_cell_length_a   11.23319814
_cell_length_b   11.23319929
_cell_length_c   6.16322032
_cell_angle_alpha   89.54698579
_cell_angle_beta   89.54698717
_cell_angle_gamma   88.61580827
_symmetry_Int_Tables_number   1
_chemical_formula_structural   Ho8TcOsI8
_chemical_formula_sum   'Ho8 Tc1 Os1 I8'
_cell_volume   777.43003969
_cell_formula_units_Z   1
loop_
 _symmetry_equiv_pos_site_id
 _symmetry_equiv_pos_as_xyz
  1  'x, y, z'
loop_
 _atom_site_type_symbol
 _atom_site_label
 _atom_site_symmetry_multiplicity
 _atom_site_fract_x
 _atom_site_fract_y
 _atom_site_fract_z
 _atom_site_occupancy
  Ho  Ho0  1  0.199155  0.914976  0.998684  1
  Ho  Ho1  1  0.800792  0.085062  0.001252  1
  Ho  Ho2  1  0.085024  0.800845  0.501316  1
  Ho  Ho3  1  0.914938  0.199208  0.498748  1
  Ho  Ho4  1  0.802896  0.919866  0.503383  1
  Ho  Ho5  1  0.197163  0.080129  0.496479  1
  Ho  Ho6  1  0.080134  0.197104  0.996617  1
  Ho  Ho7  1  0.919871  0.802837  0.003521  1
  Tc  Tc8  1  0.999830  0.000170  0.250000  1
  Os  Os9  1  0.000133  0.999867  0.750000  1
  I  I10  1  0.360608  0.847880  0.501259  1
  I  I11  1  0.639348  0.152030  0.501509  1
  I  I12  1  0.152120  0.639392  0.998741  1
  I  I13  1  0.847970  0.360652  0.998491  1
  I  I14  1  0.356102  0.144707  0.000508  1
  I  I15  1  0.643928  0.855304  0.997340  1
  I  I16  1  0.855293  0.643898  0.499492  1
  I  I17  1  0.144696  0.356072  0.502660  1
