# generated using pymatgen
data_Cs3Rb3(YSb2)2
_symmetry_space_group_name_H-M   'P 1'
_cell_length_a   10.43619304
_cell_length_b   10.43619499
_cell_length_c   10.32573700
_cell_angle_alpha   129.92048146
_cell_angle_beta   68.57835512
_cell_angle_gamma   136.58803228
_symmetry_Int_Tables_number   1
_chemical_formula_structural   Cs3Rb3(YSb2)2
_chemical_formula_sum   'Cs3 Rb3 Y2 Sb4'
_cell_volume   581.77942924
_cell_formula_units_Z   1
loop_
 _symmetry_equiv_pos_site_id
 _symmetry_equiv_pos_as_xyz
  1  'x, y, z'
loop_
 _atom_site_type_symbol
 _atom_site_label
 _atom_site_symmetry_multiplicity
 _atom_site_fract_x
 _atom_site_fract_y
 _atom_site_fract_z
 _atom_site_occupancy
  Cs  Cs0  1  0.185412  0.278523  0.463937  1
  Cs  Cs1  1  0.814352  0.719021  0.533373  1
  Cs  Cs2  1  0.685342  0.225252  0.910595  1
  Rb  Rb3  1  0.248901  0.248688  0.996996  1
  Rb  Rb4  1  0.748308  0.748095  0.996996  1
  Rb  Rb5  1  0.312895  0.790949  0.103842  1
  Y  Y6  1  0.751682  0.249396  0.499607  1
  Y  Y7  1  0.250212  0.747923  0.499606  1
  Sb  Sb8  1  0.904272  0.303611  0.207883  1
  Sb  Sb9  1  0.595815  0.805504  0.401320  1
  Sb  Sb10  1  0.403954  0.187839  0.591792  1
  Sb  Sb11  1  0.098856  0.695199  0.794054  1
