# generated using pymatgen
data_Dy2Y6Tc3B24Os
_symmetry_space_group_name_H-M   'P 1'
_cell_length_a   3.68439600
_cell_length_b   9.17224494
_cell_length_c   11.55999602
_cell_angle_alpha   89.95729304
_cell_angle_beta   90.00000000
_cell_angle_gamma   90.00000000
_symmetry_Int_Tables_number   1
_chemical_formula_structural   Dy2Y6Tc3B24Os
_chemical_formula_sum   'Dy2 Y6 Tc3 B24 Os1'
_cell_volume   390.66050735
_cell_formula_units_Z   1
loop_
 _symmetry_equiv_pos_site_id
 _symmetry_equiv_pos_as_xyz
  1  'x, y, z'
loop_
 _atom_site_type_symbol
 _atom_site_label
 _atom_site_symmetry_multiplicity
 _atom_site_fract_x
 _atom_site_fract_y
 _atom_site_fract_z
 _atom_site_occupancy
  Dy  Dy0  1  0.000000  0.442717  0.130369  1
  Dy  Dy1  1  0.000000  0.557198  0.869337  1
  Y  Y2  1  0.000000  0.323799  0.413884  1
  Y  Y3  1  0.000000  0.675477  0.584360  1
  Y  Y4  1  0.000000  0.822922  0.087169  1
  Y  Y5  1  0.000000  0.178033  0.914574  1
  Y  Y6  1  0.000000  0.942454  0.370114  1
  Y  Y7  1  0.000000  0.058283  0.629952  1
  Tc  Tc8  1  0.000000  0.638214  0.320576  1
  Tc  Tc9  1  0.000000  0.361858  0.679956  1
  Tc  Tc10  1  0.000000  0.137887  0.178161  1
  B  B11  1  0.500000  0.553144  0.432792  1
  B  B12  1  0.500000  0.446828  0.566950  1
  B  B13  1  0.500000  0.053110  0.067024  1
  B  B14  1  0.500000  0.946223  0.932772  1
  B  B15  1  0.500000  0.748128  0.418526  1
  B  B16  1  0.500000  0.251524  0.581479  1
  B  B17  1  0.500000  0.248781  0.081582  1
  B  B18  1  0.500000  0.751608  0.918133  1
  B  B19  1  0.500000  0.791279  0.265541  1
  B  B20  1  0.500000  0.208923  0.734957  1
  B  B21  1  0.500000  0.291252  0.234552  1
  B  B22  1  0.500000  0.709487  0.765477  1
  B  B23  1  0.500000  0.630957  0.185857  1
  B  B24  1  0.500000  0.368939  0.814644  1
  B  B25  1  0.500000  0.130632  0.313849  1
  B  B26  1  0.500000  0.868906  0.686046  1
  B  B27  1  0.500000  0.982076  0.211658  1
  B  B28  1  0.500000  0.016696  0.788350  1
  B  B29  1  0.500000  0.482450  0.288084  1
  B  B30  1  0.500000  0.517335  0.711703  1
  B  B31  1  0.500000  0.601985  0.028221  1
  B  B32  1  0.500000  0.399013  0.971647  1
  B  B33  1  0.500000  0.102078  0.471633  1
  B  B34  1  0.500000  0.897980  0.528793  1
  Os  Os35  1  0.000000  0.861822  0.821279  1
