# generated using pymatgen
data_Pr7Nd9Cd2(InIr2)2
_symmetry_space_group_name_H-M   'P 1'
_cell_length_a   10.01483180
_cell_length_b   10.01483195
_cell_length_c   10.00371300
_cell_angle_alpha   60.03672324
_cell_angle_beta   60.03672273
_cell_angle_gamma   60.09129109
_symmetry_Int_Tables_number   1
_chemical_formula_structural   Pr7Nd9Cd2(InIr2)2
_chemical_formula_sum   'Pr7 Nd9 Cd2 In2 Ir4'
_cell_volume   710.35176291
_cell_formula_units_Z   1
loop_
 _symmetry_equiv_pos_site_id
 _symmetry_equiv_pos_as_xyz
  1  'x, y, z'
loop_
 _atom_site_type_symbol
 _atom_site_label
 _atom_site_symmetry_multiplicity
 _atom_site_fract_x
 _atom_site_fract_y
 _atom_site_fract_z
 _atom_site_occupancy
  Pr  Pr0  1  0.807243  0.807243  0.192757  1
  Pr  Pr1  1  0.942225  0.559877  0.560510  1
  Pr  Pr2  1  0.559877  0.942225  0.937388  1
  Pr  Pr3  1  0.559877  0.942225  0.560510  1
  Pr  Pr4  1  0.942225  0.559877  0.937388  1
  Pr  Pr5  1  0.560474  0.560474  0.939526  1
  Pr  Pr6  1  0.940327  0.940327  0.559673  1
  Nd  Nd7  1  0.348245  0.348245  0.346730  1
  Nd  Nd8  1  0.348245  0.348245  0.956779  1
  Nd  Nd9  1  0.349113  0.954911  0.347988  1
  Nd  Nd10  1  0.954911  0.349113  0.347988  1
  Nd  Nd11  1  0.809053  0.190216  0.191423  1
  Nd  Nd12  1  0.190216  0.809053  0.809309  1
  Nd  Nd13  1  0.190216  0.809053  0.191423  1
  Nd  Nd14  1  0.809053  0.190216  0.809309  1
  Nd  Nd15  1  0.188130  0.188130  0.811870  1
  Cd  Cd16  1  0.578307  0.260665  0.580513  1
  Cd  Cd17  1  0.260665  0.578307  0.580513  1
  In  In18  1  0.579874  0.579874  0.581914  1
  In  In19  1  0.579874  0.579874  0.258336  1
  Ir  Ir20  1  0.141738  0.141738  0.140947  1
  Ir  Ir21  1  0.141738  0.141738  0.575575  1
  Ir  Ir22  1  0.143185  0.575185  0.140815  1
  Ir  Ir23  1  0.575185  0.143185  0.140815  1
