# generated using pymatgen
data_Y7(ErIn4)5
_symmetry_space_group_name_H-M   'P 1'
_cell_length_a   6.49069095
_cell_length_b   10.39323765
_cell_length_c   12.32194668
_cell_angle_alpha   90.06425871
_cell_angle_beta   89.93845705
_cell_angle_gamma   90.00388229
_symmetry_Int_Tables_number   1
_chemical_formula_structural   Y7(ErIn4)5
_chemical_formula_sum   'Y7 Er5 In20'
_cell_volume   831.22881435
_cell_formula_units_Z   1
loop_
 _symmetry_equiv_pos_site_id
 _symmetry_equiv_pos_as_xyz
  1  'x, y, z'
loop_
 _atom_site_type_symbol
 _atom_site_label
 _atom_site_symmetry_multiplicity
 _atom_site_fract_x
 _atom_site_fract_y
 _atom_site_fract_z
 _atom_site_occupancy
  Y  Y0  1  0.609312  0.006154  0.642465  1
  Y  Y1  1  0.109253  0.993677  0.857649  1
  Y  Y2  1  0.390809  0.506280  0.357461  1
  Y  Y3  1  0.109093  0.506257  0.858152  1
  Y  Y4  1  0.390773  0.993773  0.357469  1
  Y  Y5  1  0.890588  0.006337  0.142509  1
  Y  Y6  1  0.609359  0.493763  0.642423  1
  Er  Er7  1  0.348896  0.750074  0.056463  1
  Er  Er8  1  0.150423  0.749975  0.556321  1
  Er  Er9  1  0.650654  0.250294  0.943789  1
  Er  Er10  1  0.849375  0.249839  0.443639  1
  Er  Er11  1  0.891254  0.493834  0.141958  1
  In  In12  1  0.616302  0.749853  0.504530  1
  In  In13  1  0.883496  0.749079  0.005374  1
  In  In14  1  0.383741  0.250016  0.495361  1
  In  In15  1  0.115789  0.250157  0.995519  1
  In  In16  1  0.650141  0.749425  0.245613  1
  In  In17  1  0.850371  0.749954  0.746123  1
  In  In18  1  0.350492  0.250028  0.754036  1
  In  In19  1  0.149400  0.250524  0.253828  1
  In  In20  1  0.126595  0.749863  0.285450  1
  In  In21  1  0.373346  0.749966  0.785466  1
  In  In22  1  0.873336  0.250059  0.714478  1
  In  In23  1  0.627627  0.250741  0.214273  1
  In  In24  1  0.875998  0.543398  0.401075  1
  In  In25  1  0.624438  0.956323  0.901991  1
  In  In26  1  0.124044  0.043663  0.598065  1
  In  In27  1  0.375179  0.456618  0.098365  1
  In  In28  1  0.123974  0.456409  0.598066  1
  In  In29  1  0.375897  0.043776  0.098103  1
  In  In30  1  0.875919  0.956314  0.401887  1
  In  In31  1  0.624126  0.543574  0.902099  1
