# generated using pymatgen
data_Y3HoHgIr
_symmetry_space_group_name_H-M   'P 1'
_cell_length_a   9.60799497
_cell_length_b   9.60799381
_cell_length_c   9.60799500
_cell_angle_alpha   59.99999933
_cell_angle_beta   60.00000333
_cell_angle_gamma   60.00000021
_symmetry_Int_Tables_number   1
_chemical_formula_structural   Y3HoHgIr
_chemical_formula_sum   'Y12 Ho4 Hg4 Ir4'
_cell_volume   627.16709037
_cell_formula_units_Z   4
loop_
 _symmetry_equiv_pos_site_id
 _symmetry_equiv_pos_as_xyz
  1  'x, y, z'
loop_
 _atom_site_type_symbol
 _atom_site_label
 _atom_site_symmetry_multiplicity
 _atom_site_fract_x
 _atom_site_fract_y
 _atom_site_fract_z
 _atom_site_occupancy
  Y  Y0  1  0.809270  0.190730  0.190730  1
  Y  Y1  1  0.190730  0.809270  0.809270  1
  Y  Y2  1  0.190730  0.809270  0.190730  1
  Y  Y3  1  0.809270  0.190730  0.809270  1
  Y  Y4  1  0.190730  0.190730  0.809270  1
  Y  Y5  1  0.809270  0.809270  0.190730  1
  Y  Y6  1  0.938730  0.561270  0.561270  1
  Y  Y7  1  0.561270  0.938730  0.938730  1
  Y  Y8  1  0.561270  0.938730  0.561270  1
  Y  Y9  1  0.938730  0.561270  0.938730  1
  Y  Y10  1  0.561270  0.561270  0.938730  1
  Y  Y11  1  0.938730  0.938730  0.561270  1
  Ho  Ho12  1  0.350106  0.350106  0.350106  1
  Ho  Ho13  1  0.350106  0.350106  0.949682  1
  Ho  Ho14  1  0.350106  0.949682  0.350106  1
  Ho  Ho15  1  0.949682  0.350106  0.350106  1
  Hg  Hg16  1  0.584397  0.584397  0.584397  1
  Hg  Hg17  1  0.584397  0.584397  0.246810  1
  Hg  Hg18  1  0.584397  0.246810  0.584397  1
  Hg  Hg19  1  0.246810  0.584397  0.584397  1
  Ir  Ir20  1  0.142714  0.142714  0.142714  1
  Ir  Ir21  1  0.142714  0.142714  0.571857  1
  Ir  Ir22  1  0.142714  0.571857  0.142714  1
  Ir  Ir23  1  0.571857  0.142714  0.142714  1
