# generated using pymatgen
data_Y3Ga7Ag3Au
_symmetry_space_group_name_H-M   'P 1'
_cell_length_a   4.37012716
_cell_length_b   8.37345382
_cell_length_c   8.38694957
_cell_angle_alpha   70.87262942
_cell_angle_beta   74.89839614
_cell_angle_gamma   74.87348963
_symmetry_Int_Tables_number   1
_chemical_formula_structural   Y3Ga7Ag3Au
_chemical_formula_sum   'Y3 Ga7 Ag3 Au1'
_cell_volume   274.71168635
_cell_formula_units_Z   1
loop_
 _symmetry_equiv_pos_site_id
 _symmetry_equiv_pos_as_xyz
  1  'x, y, z'
loop_
 _atom_site_type_symbol
 _atom_site_label
 _atom_site_symmetry_multiplicity
 _atom_site_fract_x
 _atom_site_fract_y
 _atom_site_fract_z
 _atom_site_occupancy
  Y  Y0  1  0.997511  0.002465  0.002514  1
  Y  Y1  1  0.298974  0.694100  0.707952  1
  Y  Y2  1  0.702082  0.296679  0.299157  1
  Ga  Ga3  1  0.657389  0.713532  0.971691  1
  Ga  Ga4  1  0.340296  0.027940  0.291467  1
  Ga  Ga5  1  0.659399  0.971233  0.709969  1
  Ga  Ga6  1  0.142056  0.579339  0.136549  1
  Ga  Ga7  1  0.859086  0.420863  0.860964  1
  Ga  Ga8  1  0.143521  0.135878  0.577082  1
  Ga  Ga9  1  0.856164  0.862117  0.425553  1
  Ag  Ag10  1  0.505954  0.306083  0.682009  1
  Ag  Ag11  1  0.499622  0.694573  0.306183  1
  Ag  Ag12  1  0.999192  0.502985  0.498631  1
  Au  Au13  1  0.338754  0.292213  0.030279  1
