# generated using pymatgen
data_La6Al24Ru7Rh
_symmetry_space_group_name_H-M   'P 1'
_cell_length_a   8.95995700
_cell_length_b   8.97152425
_cell_length_c   9.74591793
_cell_angle_alpha   90.04038520
_cell_angle_beta   90.00000000
_cell_angle_gamma   119.95734744
_symmetry_Int_Tables_number   1
_chemical_formula_structural   La6Al24Ru7Rh
_chemical_formula_sum   'La6 Al24 Ru7 Rh1'
_cell_volume   678.75320914
_cell_formula_units_Z   1
loop_
 _symmetry_equiv_pos_site_id
 _symmetry_equiv_pos_as_xyz
  1  'x, y, z'
loop_
 _atom_site_type_symbol
 _atom_site_label
 _atom_site_symmetry_multiplicity
 _atom_site_fract_x
 _atom_site_fract_y
 _atom_site_fract_z
 _atom_site_occupancy
  La  La0  1  0.192213  0.384425  0.250714  1
  La  La1  1  0.807787  0.615575  0.749286  1
  La  La2  1  0.615197  0.806712  0.250929  1
  La  La3  1  0.384803  0.193288  0.749071  1
  La  La4  1  0.191515  0.806712  0.250929  1
  La  La5  1  0.808485  0.193288  0.749071  1
  Al  Al6  1  0.332208  0.664418  0.003487  1
  Al  Al7  1  0.667792  0.335582  0.996513  1
  Al  Al8  1  0.666776  0.333550  0.502784  1
  Al  Al9  1  0.333224  0.666450  0.497216  1
  Al  Al10  1  0.162495  0.324990  0.575835  1
  Al  Al11  1  0.837505  0.675010  0.424165  1
  Al  Al12  1  0.675578  0.837954  0.575885  1
  Al  Al13  1  0.837666  0.675332  0.076029  1
  Al  Al14  1  0.324422  0.162046  0.424115  1
  Al  Al15  1  0.162334  0.324668  0.923971  1
  Al  Al16  1  0.162378  0.837954  0.575885  1
  Al  Al17  1  0.324214  0.164011  0.076164  1
  Al  Al18  1  0.837622  0.162046  0.424115  1
  Al  Al19  1  0.675786  0.835989  0.923836  1
  Al  Al20  1  0.839797  0.164011  0.076164  1
  Al  Al21  1  0.160203  0.835989  0.923836  1
  Al  Al22  1  0.562811  0.125621  0.250603  1
  Al  Al23  1  0.437189  0.874379  0.749397  1
  Al  Al24  1  0.873556  0.436589  0.249599  1
  Al  Al25  1  0.126444  0.563411  0.750401  1
  Al  Al26  1  0.563033  0.436589  0.249599  1
  Al  Al27  1  0.436967  0.563411  0.750401  1
  Al  Al28  1  0.000189  0.000379  0.250118  1
  Al  Al29  1  0.999811  0.999621  0.749882  1
  Ru  Ru30  1  0.000000  0.500000  0.000000  1
  Ru  Ru31  1  0.500000  0.000000  0.500000  1
  Ru  Ru32  1  0.500000  0.500000  0.000000  1
  Ru  Ru33  1  0.000000  0.500000  0.500000  1
  Ru  Ru34  1  0.500000  0.500000  0.500000  1
  Ru  Ru35  1  0.000000  0.000000  0.000000  1
  Ru  Ru36  1  0.000000  0.000000  0.500000  1
  Rh  Rh37  1  0.500000  0.000000  0.000000  1
