# generated using pymatgen
data_Er2U(GaIr)3
_symmetry_space_group_name_H-M   'P 1'
_cell_length_a   7.29292900
_cell_length_b   7.14929354
_cell_length_c   3.79183100
_cell_angle_alpha   90.00000000
_cell_angle_beta   90.00000000
_cell_angle_gamma   120.66685122
_symmetry_Int_Tables_number   1
_chemical_formula_structural   Er2U(GaIr)3
_chemical_formula_sum   'Er2 U1 Ga3 Ir3'
_cell_volume   170.05406630
_cell_formula_units_Z   1
loop_
 _symmetry_equiv_pos_site_id
 _symmetry_equiv_pos_as_xyz
  1  'x, y, z'
loop_
 _atom_site_type_symbol
 _atom_site_label
 _atom_site_symmetry_multiplicity
 _atom_site_fract_x
 _atom_site_fract_y
 _atom_site_fract_z
 _atom_site_occupancy
  Er  Er0  1  0.408535  0.405781  0.500001  1
  Er  Er1  1  0.002755  0.594219  0.500001  1
  U  U2  1  0.584075  0.000000  0.500001  1
  Ga  Ga3  1  0.238519  0.000000  0.000000  1
  Ga  Ga4  1  0.011095  0.264050  0.000000  1
  Ga  Ga5  1  0.747045  0.735950  0.000000  1
  Ir  Ir6  1  0.662960  0.302851  0.000000  1
  Ir  Ir7  1  0.360109  0.697148  0.000000  1
  Ir  Ir8  1  0.984904  0.000000  0.500001  1
