# generated using pymatgen
data_Ho3In3Pd2Ru
_symmetry_space_group_name_H-M   'P 1'
_cell_length_a   7.68618600
_cell_length_b   7.68618658
_cell_length_c   3.82821800
_cell_angle_alpha   90.00000000
_cell_angle_beta   90.00000000
_cell_angle_gamma   119.99999752
_symmetry_Int_Tables_number   1
_chemical_formula_structural   Ho3In3Pd2Ru
_chemical_formula_sum   'Ho3 In3 Pd2 Ru1'
_cell_volume   195.86151785
_cell_formula_units_Z   1
loop_
 _symmetry_equiv_pos_site_id
 _symmetry_equiv_pos_as_xyz
  1  'x, y, z'
loop_
 _atom_site_type_symbol
 _atom_site_label
 _atom_site_symmetry_multiplicity
 _atom_site_fract_x
 _atom_site_fract_y
 _atom_site_fract_z
 _atom_site_occupancy
  Ho  Ho0  1  0.018093  0.602960  0.000000  1
  Ho  Ho1  1  0.397040  0.415132  0.000000  1
  Ho  Ho2  1  0.584868  0.981907  0.000000  1
  In  In3  1  0.735944  0.737356  0.500000  1
  In  In4  1  0.001412  0.264056  0.500000  1
  In  In5  1  0.262644  0.998588  0.500000  1
  Pd  Pd6  1  0.000000  0.000000  0.000000  1
  Pd  Pd7  1  0.666667  0.333333  0.500000  1
  Ru  Ru8  1  0.333333  0.666667  0.500000  1
