# generated using pymatgen
data_Sr2Yb(ErSn2)2
_symmetry_space_group_name_H-M   'P 1'
_cell_length_a   8.01220500
_cell_length_b   8.55578700
_cell_length_c   16.27660200
_cell_angle_alpha   90.00000000
_cell_angle_beta   90.00000000
_cell_angle_gamma   90.00000000
_symmetry_Int_Tables_number   1
_chemical_formula_structural   Sr2Yb(ErSn2)2
_chemical_formula_sum   'Sr8 Yb4 Er8 Sn16'
_cell_volume   1115.77277617
_cell_formula_units_Z   4
loop_
 _symmetry_equiv_pos_site_id
 _symmetry_equiv_pos_as_xyz
  1  'x, y, z'
loop_
 _atom_site_type_symbol
 _atom_site_label
 _atom_site_symmetry_multiplicity
 _atom_site_fract_x
 _atom_site_fract_y
 _atom_site_fract_z
 _atom_site_occupancy
  Sr  Sr0  1  0.500489  0.683179  0.593582  1
  Sr  Sr1  1  0.000489  0.816821  0.906418  1
  Sr  Sr2  1  0.499511  0.316821  0.093582  1
  Sr  Sr3  1  0.999511  0.183179  0.406418  1
  Sr  Sr4  1  0.499511  0.316821  0.406418  1
  Sr  Sr5  1  0.999511  0.183179  0.093582  1
  Sr  Sr6  1  0.500489  0.683179  0.906418  1
  Sr  Sr7  1  0.000489  0.816821  0.593582  1
  Yb  Yb8  1  0.829568  0.507828  0.750000  1
  Yb  Yb9  1  0.329568  0.992172  0.750000  1
  Yb  Yb10  1  0.170432  0.492172  0.250000  1
  Yb  Yb11  1  0.670432  0.007828  0.250000  1
  Er  Er12  1  0.667716  0.167797  0.622767  1
  Er  Er13  1  0.167716  0.332203  0.877233  1
  Er  Er14  1  0.332284  0.832203  0.122767  1
  Er  Er15  1  0.832284  0.667797  0.377233  1
  Er  Er16  1  0.332284  0.832203  0.377233  1
  Er  Er17  1  0.832284  0.667797  0.122767  1
  Er  Er18  1  0.667716  0.167797  0.877233  1
  Er  Er19  1  0.167716  0.332203  0.622767  1
  Sn  Sn20  1  0.667063  0.960467  0.459639  1
  Sn  Sn21  1  0.167063  0.539533  0.040361  1
  Sn  Sn22  1  0.332937  0.039533  0.959639  1
  Sn  Sn23  1  0.832937  0.460467  0.540361  1
  Sn  Sn24  1  0.332937  0.039533  0.540361  1
  Sn  Sn25  1  0.832937  0.460467  0.959639  1
  Sn  Sn26  1  0.667063  0.960467  0.040361  1
  Sn  Sn27  1  0.167063  0.539533  0.459639  1
  Sn  Sn28  1  0.464022  0.369330  0.750000  1
  Sn  Sn29  1  0.964022  0.130670  0.750000  1
  Sn  Sn30  1  0.535978  0.630670  0.250000  1
  Sn  Sn31  1  0.035978  0.869330  0.250000  1
  Sn  Sn32  1  0.710490  0.882141  0.750000  1
  Sn  Sn33  1  0.210490  0.617859  0.750000  1
  Sn  Sn34  1  0.289510  0.117859  0.250000  1
  Sn  Sn35  1  0.789510  0.382141  0.250000  1
