# generated using pymatgen
data_Ba6SmGd(TeO6)3
_symmetry_space_group_name_H-M   'P 1'
_cell_length_a   10.48271365
_cell_length_b   10.48271375
_cell_length_c   10.48271355
_cell_angle_alpha   146.52473705
_cell_angle_beta   131.78958523
_cell_angle_gamma   59.96552389
_symmetry_Int_Tables_number   1
_chemical_formula_structural   Ba6SmGd(TeO6)3
_chemical_formula_sum   'Ba6 Sm1 Gd1 Te3 O18'
_cell_volume   469.42253774
_cell_formula_units_Z   1
loop_
 _symmetry_equiv_pos_site_id
 _symmetry_equiv_pos_as_xyz
  1  'x, y, z'
loop_
 _atom_site_type_symbol
 _atom_site_label
 _atom_site_symmetry_multiplicity
 _atom_site_fract_x
 _atom_site_fract_y
 _atom_site_fract_z
 _atom_site_occupancy
  Ba  Ba0  1  0.778286  0.499708  0.278577  1
  Ba  Ba1  1  0.385706  0.153372  0.232334  1
  Ba  Ba2  1  0.080507  0.846800  0.233706  1
  Ba  Ba3  1  0.221131  0.499708  0.721423  1
  Ba  Ba4  1  0.921038  0.153372  0.767666  1
  Ba  Ba5  1  0.613094  0.846800  0.766294  1
  Sm  Sm6  1  0.666145  0.666145  0.000000  1
  Gd  Gd7  1  0.333748  0.333748  0.000000  1
  Te  Te8  1  0.499755  0.999755  0.500000  1
  Te  Te9  1  0.170224  0.670224  0.500000  1
  Te  Te10  1  0.830198  0.330198  0.500000  1
  O  O11  1  0.722750  0.999702  0.723048  1
  O  O12  1  0.401247  0.669579  0.731668  1
  O  O13  1  0.063670  0.330786  0.732883  1
  O  O14  1  0.577357  0.845865  0.268507  1
  O  O15  1  0.246144  0.515175  0.269031  1
  O  O16  1  0.905407  0.179937  0.274529  1
  O  O17  1  0.421828  0.689144  0.267316  1
  O  O18  1  0.094904  0.369416  0.274512  1
  O  O19  1  0.754378  0.024597  0.270219  1
  O  O20  1  0.276654  0.999702  0.276952  1
  O  O21  1  0.937909  0.669579  0.268332  1
  O  O22  1  0.597903  0.330786  0.267117  1
  O  O23  1  0.421828  0.154511  0.732684  1
  O  O24  1  0.094904  0.820391  0.725488  1
  O  O25  1  0.754378  0.484159  0.729781  1
  O  O26  1  0.577357  0.308849  0.731493  1
  O  O27  1  0.246144  0.977113  0.730969  1
  O  O28  1  0.905407  0.630880  0.725471  1
