# generated using pymatgen
data_LiMn3Ge2(B2Rh5)2
_symmetry_space_group_name_H-M   'P 1'
_cell_length_a   9.35507475
_cell_length_b   9.35507475
_cell_length_c   2.92213000
_cell_angle_alpha   90.00000000
_cell_angle_beta   90.00000000
_cell_angle_gamma   90.21028099
_symmetry_Int_Tables_number   1
_chemical_formula_structural   LiMn3Ge2(B2Rh5)2
_chemical_formula_sum   'Li1 Mn3 Ge2 B4 Rh10'
_cell_volume   255.73556668
_cell_formula_units_Z   1
loop_
 _symmetry_equiv_pos_site_id
 _symmetry_equiv_pos_as_xyz
  1  'x, y, z'
loop_
 _atom_site_type_symbol
 _atom_site_label
 _atom_site_symmetry_multiplicity
 _atom_site_fract_x
 _atom_site_fract_y
 _atom_site_fract_z
 _atom_site_occupancy
  Li  Li0  1  0.825118  0.325118  0.000000  1
  Mn  Mn1  1  0.325390  0.175949  0.000000  1
  Mn  Mn2  1  0.675949  0.825390  0.000000  1
  Mn  Mn3  1  0.174404  0.674404  0.000000  1
  Ge  Ge4  1  0.998399  0.002394  0.000000  1
  Ge  Ge5  1  0.502394  0.498399  0.000000  1
  B  B6  1  0.628730  0.128730  0.000000  1
  B  B7  1  0.122977  0.374546  0.000000  1
  B  B8  1  0.874546  0.622977  0.000000  1
  B  B9  1  0.373906  0.873906  0.000000  1
  Rh  Rh10  1  0.076869  0.212105  0.500000  1
  Rh  Rh11  1  0.212724  0.927687  0.500000  1
  Rh  Rh12  1  0.784698  0.067399  0.500000  1
  Rh  Rh13  1  0.929085  0.786937  0.500000  1
  Rh  Rh14  1  0.427687  0.712724  0.500000  1
  Rh  Rh15  1  0.567399  0.284698  0.500000  1
  Rh  Rh16  1  0.712105  0.576869  0.500000  1
  Rh  Rh17  1  0.286937  0.429085  0.500000  1
  Rh  Rh18  1  0.499411  0.999411  0.500000  1
  Rh  Rh19  1  0.001273  0.501273  0.500000  1
