# generated using pymatgen
data_CaAg2(PO4)2
_symmetry_space_group_name_H-M   'P 1'
_cell_length_a   4.92159119
_cell_length_b   5.94147872
_cell_length_c   7.03657552
_cell_angle_alpha   105.31696128
_cell_angle_beta   86.14352785
_cell_angle_gamma   110.25088343
_symmetry_Int_Tables_number   1
_chemical_formula_structural   CaAg2(PO4)2
_chemical_formula_sum   'Ca1 Ag2 P2 O8'
_cell_volume   186.11792735
_cell_formula_units_Z   1
loop_
 _symmetry_equiv_pos_site_id
 _symmetry_equiv_pos_as_xyz
  1  'x, y, z'
loop_
 _atom_site_type_symbol
 _atom_site_label
 _atom_site_symmetry_multiplicity
 _atom_site_fract_x
 _atom_site_fract_y
 _atom_site_fract_z
 _atom_site_occupancy
  Ca  Ca0  1  0.685082  0.269957  0.687294  1
  Ag  Ag1  1  0.000786  0.997697  0.002113  1
  Ag  Ag2  1  0.319164  0.724511  0.308514  1
  P  P3  1  0.371255  0.676574  0.785871  1
  P  P4  1  0.630790  0.324593  0.214113  1
  O  O5  1  0.385831  0.856321  0.659733  1
  O  O6  1  0.618356  0.156822  0.349938  1
  O  O7  1  0.680563  0.677373  0.832261  1
  O  O8  1  0.317642  0.318315  0.162792  1
  O  O9  1  0.241549  0.770761  0.992289  1
  O  O10  1  0.753406  0.224252  0.008583  1
  O  O11  1  0.199577  0.403324  0.688939  1
  O  O12  1  0.795999  0.599502  0.307561  1
