# generated using pymatgen
data_Li2ZrURh4
_symmetry_space_group_name_H-M   'P 1'
_cell_length_a   5.90865324
_cell_length_b   5.90812101
_cell_length_c   7.19151300
_cell_angle_alpha   90.00108649
_cell_angle_beta   89.99738896
_cell_angle_gamma   89.97991733
_symmetry_Int_Tables_number   1
_chemical_formula_structural   Li2ZrURh4
_chemical_formula_sum   'Li4 Zr2 U2 Rh8'
_cell_volume   251.04878757
_cell_formula_units_Z   2
loop_
 _symmetry_equiv_pos_site_id
 _symmetry_equiv_pos_as_xyz
  1  'x, y, z'
loop_
 _atom_site_type_symbol
 _atom_site_label
 _atom_site_symmetry_multiplicity
 _atom_site_fract_x
 _atom_site_fract_y
 _atom_site_fract_z
 _atom_site_occupancy
  Li  Li0  1  0.749976  0.249995  0.000182  1
  Li  Li1  1  0.249972  0.750004  0.499803  1
  Li  Li2  1  0.750029  0.249996  0.500196  1
  Li  Li3  1  0.250024  0.750005  0.999819  1
  Zr  Zr4  1  0.250152  0.250006  0.499982  1
  Zr  Zr5  1  0.749848  0.749994  0.500018  1
  U  U6  1  0.249948  0.250017  0.000016  1
  U  U7  1  0.750052  0.749984  0.999984  1
  Rh  Rh8  1  0.500016  0.499996  0.243495  1
  Rh  Rh9  1  0.500015  0.999996  0.243511  1
  Rh  Rh10  1  0.000027  0.499989  0.243646  1
  Rh  Rh11  1  0.000027  0.000011  0.243627  1
  Rh  Rh12  1  0.999973  0.500011  0.756355  1
  Rh  Rh13  1  0.999973  0.999989  0.756374  1
  Rh  Rh14  1  0.499984  0.500004  0.756504  1
  Rh  Rh15  1  0.499984  0.000004  0.756488  1
