# generated using pymatgen
data_NaNb9Se16
_symmetry_space_group_name_H-M   'P 1'
_cell_length_a   6.99694000
_cell_length_b   6.99694068
_cell_length_c   14.38482700
_cell_angle_alpha   90.00000000
_cell_angle_beta   90.00000000
_cell_angle_gamma   120.00000623
_symmetry_Int_Tables_number   1
_chemical_formula_structural   NaNb9Se16
_chemical_formula_sum   'Na1 Nb9 Se16'
_cell_volume   609.89010817
_cell_formula_units_Z   1
loop_
 _symmetry_equiv_pos_site_id
 _symmetry_equiv_pos_as_xyz
  1  'x, y, z'
loop_
 _atom_site_type_symbol
 _atom_site_label
 _atom_site_symmetry_multiplicity
 _atom_site_fract_x
 _atom_site_fract_y
 _atom_site_fract_z
 _atom_site_occupancy
  Na  Na0  1  0.000000  0.000000  0.000000  1
  Nb  Nb1  1  0.000000  0.000000  0.269837  1
  Nb  Nb2  1  0.000000  0.000000  0.730163  1
  Nb  Nb3  1  0.506312  0.012623  0.269297  1
  Nb  Nb4  1  0.493688  0.987377  0.730703  1
  Nb  Nb5  1  0.987377  0.493688  0.269297  1
  Nb  Nb6  1  0.012623  0.506312  0.730703  1
  Nb  Nb7  1  0.506312  0.493688  0.269297  1
  Nb  Nb8  1  0.493688  0.506312  0.730703  1
  Nb  Nb9  1  0.000000  0.000000  0.500000  1
  Se  Se10  1  0.333333  0.666667  0.611412  1
  Se  Se11  1  0.666667  0.333333  0.388588  1
  Se  Se12  1  0.666667  0.333333  0.149058  1
  Se  Se13  1  0.333333  0.666667  0.850942  1
  Se  Se14  1  0.167734  0.335469  0.154238  1
  Se  Se15  1  0.832266  0.664531  0.845762  1
  Se  Se16  1  0.664531  0.832266  0.154238  1
  Se  Se17  1  0.831815  0.663629  0.613878  1
  Se  Se18  1  0.335469  0.167734  0.845762  1
  Se  Se19  1  0.168185  0.336371  0.386122  1
  Se  Se20  1  0.167734  0.832266  0.154238  1
  Se  Se21  1  0.336371  0.168185  0.613878  1
  Se  Se22  1  0.832266  0.167734  0.845762  1
  Se  Se23  1  0.663629  0.831815  0.386122  1
  Se  Se24  1  0.831815  0.168185  0.613878  1
  Se  Se25  1  0.168185  0.831815  0.386122  1
