# generated using pymatgen
data_Tb2Lu3In4PtAu
_symmetry_space_group_name_H-M   'P 1'
_cell_length_a   3.59318500
_cell_length_b   8.13580311
_cell_length_c   18.28623702
_cell_angle_alpha   90.05252885
_cell_angle_beta   90.00000000
_cell_angle_gamma   90.00000000
_symmetry_Int_Tables_number   1
_chemical_formula_structural   Tb2Lu3In4PtAu
_chemical_formula_sum   'Tb4 Lu6 In8 Pt2 Au2'
_cell_volume   534.56949247
_cell_formula_units_Z   2
loop_
 _symmetry_equiv_pos_site_id
 _symmetry_equiv_pos_as_xyz
  1  'x, y, z'
loop_
 _atom_site_type_symbol
 _atom_site_label
 _atom_site_symmetry_multiplicity
 _atom_site_fract_x
 _atom_site_fract_y
 _atom_site_fract_z
 _atom_site_occupancy
  Tb  Tb0  1  0.000000  0.121434  0.419628  1
  Tb  Tb1  1  0.000000  0.878566  0.580372  1
  Tb  Tb2  1  0.000000  0.000000  0.000000  1
  Tb  Tb3  1  0.000000  0.500000  0.500000  1
  Lu  Lu4  1  0.000000  0.383430  0.916288  1
  Lu  Lu5  1  0.000000  0.616570  0.083712  1
  Lu  Lu6  1  0.000000  0.256452  0.216654  1
  Lu  Lu7  1  0.000000  0.743548  0.783346  1
  Lu  Lu8  1  0.000000  0.267186  0.723926  1
  Lu  Lu9  1  0.000000  0.732814  0.276074  1
  In  In10  1  0.500000  0.425365  0.350116  1
  In  In11  1  0.500000  0.574635  0.649884  1
  In  In12  1  0.500000  0.078167  0.853400  1
  In  In13  1  0.500000  0.921833  0.146600  1
  In  In14  1  0.500000  0.295813  0.065535  1
  In  In15  1  0.500000  0.704187  0.934465  1
  In  In16  1  0.500000  0.210347  0.571027  1
  In  In17  1  0.500000  0.789653  0.428973  1
  Pt  Pt18  1  0.500000  0.470593  0.805281  1
  Pt  Pt19  1  0.500000  0.529407  0.194719  1
  Au  Au20  1  0.500000  0.029007  0.299239  1
  Au  Au21  1  0.500000  0.970993  0.700761  1
