# generated using pymatgen
data_HoEr6CoI12
_symmetry_space_group_name_H-M   'P 1'
_cell_length_a   9.68408523
_cell_length_b   9.68116005
_cell_length_c   9.68048611
_cell_angle_alpha   106.83026349
_cell_angle_beta   106.84269263
_cell_angle_gamma   106.83358412
_symmetry_Int_Tables_number   1
_chemical_formula_structural   HoEr6CoI12
_chemical_formula_sum   'Ho1 Er6 Co1 I12'
_cell_volume   759.20418325
_cell_formula_units_Z   1
loop_
 _symmetry_equiv_pos_site_id
 _symmetry_equiv_pos_as_xyz
  1  'x, y, z'
loop_
 _atom_site_type_symbol
 _atom_site_label
 _atom_site_symmetry_multiplicity
 _atom_site_fract_x
 _atom_site_fract_y
 _atom_site_fract_z
 _atom_site_occupancy
  Ho  Ho0  1  0.286188  0.091018  0.021548  1
  Er  Er1  1  0.500008  0.500011  0.500040  1
  Er  Er2  1  0.021311  0.285536  0.090752  1
  Er  Er3  1  0.090614  0.021432  0.285577  1
  Er  Er4  1  0.714542  0.909308  0.978526  1
  Er  Er5  1  0.978384  0.714347  0.909256  1
  Er  Er6  1  0.909048  0.978471  0.714361  1
  Co  Co7  1  0.999795  0.999922  0.999984  1
  I  I8  1  0.463176  0.161157  0.386799  1
  I  I9  1  0.386630  0.463364  0.161218  1
  I  I10  1  0.161173  0.386625  0.463131  1
  I  I11  1  0.536844  0.838818  0.613353  1
  I  I12  1  0.613371  0.536847  0.838828  1
  I  I13  1  0.838872  0.613373  0.536855  1
  I  I14  1  0.323230  0.775573  0.929317  1
  I  I15  1  0.929415  0.323299  0.775892  1
  I  I16  1  0.775866  0.929420  0.323323  1
  I  I17  1  0.676908  0.224188  0.070628  1
  I  I18  1  0.070595  0.676735  0.224105  1
  I  I19  1  0.224031  0.070556  0.676507  1
