# generated using pymatgen
data_Lu2Fe5C4
_symmetry_space_group_name_H-M   'P 1'
_cell_length_a   6.85840596
_cell_length_b   5.69380634
_cell_length_c   5.17797146
_cell_angle_alpha   78.10323695
_cell_angle_beta   54.33975261
_cell_angle_gamma   47.62004232
_symmetry_Int_Tables_number   1
_chemical_formula_structural   Lu2Fe5C4
_chemical_formula_sum   'Lu2 Fe5 C4'
_cell_volume   115.32925155
_cell_formula_units_Z   1
loop_
 _symmetry_equiv_pos_site_id
 _symmetry_equiv_pos_as_xyz
  1  'x, y, z'
loop_
 _atom_site_type_symbol
 _atom_site_label
 _atom_site_symmetry_multiplicity
 _atom_site_fract_x
 _atom_site_fract_y
 _atom_site_fract_z
 _atom_site_occupancy
  Lu  Lu0  1  0.854151  0.853869  0.146159  1
  Lu  Lu1  1  0.145846  0.146132  0.853842  1
  Fe  Fe2  1  0.499999  0.500000  0.000000  1
  Fe  Fe3  1  0.249943  0.249734  0.250083  1
  Fe  Fe4  1  0.000000  0.000000  0.500000  1
  Fe  Fe5  1  0.499999  0.500001  0.500001  1
  Fe  Fe6  1  0.750055  0.750268  0.749918  1
  C  C7  1  0.473397  0.790726  0.208935  1
  C  C8  1  0.209404  0.526656  0.472865  1
  C  C9  1  0.790593  0.473346  0.527137  1
  C  C10  1  0.526601  0.209275  0.791066  1
