# generated using pymatgen
data_Lu7Se8
_symmetry_space_group_name_H-M   'P 1'
_cell_length_a   7.94053386
_cell_length_b   7.93676600
_cell_length_c   7.94011611
_cell_angle_alpha   119.99116521
_cell_angle_beta   90.01901928
_cell_angle_gamma   119.99369028
_symmetry_Int_Tables_number   1
_chemical_formula_structural   Lu7Se8
_chemical_formula_sum   'Lu7 Se8'
_cell_volume   353.86078913
_cell_formula_units_Z   1
loop_
 _symmetry_equiv_pos_site_id
 _symmetry_equiv_pos_as_xyz
  1  'x, y, z'
loop_
 _atom_site_type_symbol
 _atom_site_label
 _atom_site_symmetry_multiplicity
 _atom_site_fract_x
 _atom_site_fract_y
 _atom_site_fract_z
 _atom_site_occupancy
  Lu  Lu0  1  0.249906  0.000004  0.249907  1
  Lu  Lu1  1  0.249920  0.499815  0.249906  1
  Lu  Lu2  1  0.750060  0.999950  0.249889  1
  Lu  Lu3  1  0.249972  0.500012  0.750019  1
  Lu  Lu4  1  0.249916  0.000002  0.750112  1
  Lu  Lu5  1  0.750116  0.000037  0.750083  1
  Lu  Lu6  1  0.750104  0.500159  0.750126  1
  Se  Se7  1  0.000026  0.000036  0.000012  1
  Se  Se8  1  0.500003  0.999979  0.499962  1
  Se  Se9  1  0.996668  0.993336  0.496682  1
  Se  Se10  1  0.996698  0.500003  0.496630  1
  Se  Se11  1  0.503375  0.499980  0.496589  1
  Se  Se12  1  0.996575  0.499956  0.003407  1
  Se  Se13  1  0.503287  0.499976  0.003306  1
  Se  Se14  1  0.503376  0.006759  0.003379  1
