# generated using pymatgen
data_CaLu2(BPt2)3
_symmetry_space_group_name_H-M   'P 1'
_cell_length_a   5.34236349
_cell_length_b   5.34236408
_cell_length_c   7.81643400
_cell_angle_alpha   90.00000000
_cell_angle_beta   90.00000000
_cell_angle_gamma   119.51682236
_symmetry_Int_Tables_number   1
_chemical_formula_structural   CaLu2(BPt2)3
_chemical_formula_sum   'Ca1 Lu2 B3 Pt6'
_cell_volume   194.13336811
_cell_formula_units_Z   1
loop_
 _symmetry_equiv_pos_site_id
 _symmetry_equiv_pos_as_xyz
  1  'x, y, z'
loop_
 _atom_site_type_symbol
 _atom_site_label
 _atom_site_symmetry_multiplicity
 _atom_site_fract_x
 _atom_site_fract_y
 _atom_site_fract_z
 _atom_site_occupancy
  Ca  Ca0  1  0.500000  0.500000  0.833333  1
  Lu  Lu1  1  0.500000  0.000000  0.501433  1
  Lu  Lu2  1  0.000000  0.500000  0.165234  1
  B  B3  1  0.500000  0.500000  0.333333  1
  B  B4  1  0.500000  0.000000  0.998926  1
  B  B5  1  0.000000  0.500000  0.667741  1
  Pt  Pt6  1  0.149930  0.850070  0.833333  1
  Pt  Pt7  1  0.144675  0.299898  0.496634  1
  Pt  Pt8  1  0.700102  0.855325  0.170033  1
  Pt  Pt9  1  0.850070  0.149930  0.833333  1
  Pt  Pt10  1  0.855325  0.700102  0.496634  1
  Pt  Pt11  1  0.299898  0.144675  0.170033  1
