# generated using pymatgen
data_Er2Hf3Co9As7
_symmetry_space_group_name_H-M   'P 1'
_cell_length_a   3.80825000
_cell_length_b   9.69287166
_cell_length_c   9.69287200
_cell_angle_alpha   120.00000115
_cell_angle_beta   90.00000000
_cell_angle_gamma   90.00000000
_symmetry_Int_Tables_number   1
_chemical_formula_structural   Er2Hf3Co9As7
_chemical_formula_sum   'Er2 Hf3 Co9 As7'
_cell_volume   309.85679021
_cell_formula_units_Z   1
loop_
 _symmetry_equiv_pos_site_id
 _symmetry_equiv_pos_as_xyz
  1  'x, y, z'
loop_
 _atom_site_type_symbol
 _atom_site_label
 _atom_site_symmetry_multiplicity
 _atom_site_fract_x
 _atom_site_fract_y
 _atom_site_fract_z
 _atom_site_occupancy
  Er  Er0  1  0.000000  0.666667  0.333333  1
  Er  Er1  1  0.500000  0.333333  0.666667  1
  Hf  Hf2  1  0.500000  0.767819  0.887866  1
  Hf  Hf3  1  0.500000  0.120045  0.232181  1
  Hf  Hf4  1  0.500000  0.112134  0.879955  1
  Co  Co5  1  0.000000  0.576684  0.934930  1
  Co  Co6  1  0.000000  0.358245  0.423316  1
  Co  Co7  1  0.000000  0.065070  0.641755  1
  Co  Co8  1  0.000000  0.878250  0.163298  1
  Co  Co9  1  0.000000  0.285047  0.121750  1
  Co  Co10  1  0.000000  0.836702  0.714953  1
  Co  Co11  1  0.500000  0.947820  0.390758  1
  Co  Co12  1  0.500000  0.442937  0.052180  1
  Co  Co13  1  0.500000  0.609242  0.557063  1
  As  As14  1  0.000000  0.000000  0.000000  1
  As  As15  1  0.500000  0.713260  0.134003  1
  As  As16  1  0.500000  0.420744  0.286740  1
  As  As17  1  0.500000  0.865997  0.579256  1
  As  As18  1  0.000000  0.572012  0.681339  1
  As  As19  1  0.000000  0.109327  0.427988  1
  As  As20  1  0.000000  0.318661  0.890673  1
