# generated using pymatgen
data_Zn3Ga9Ir4
_symmetry_space_group_name_H-M   'P 1'
_cell_length_a   6.60636723
_cell_length_b   6.66480451
_cell_length_c   6.62902400
_cell_angle_alpha   90.00000000
_cell_angle_beta   90.00000000
_cell_angle_gamma   89.92540457
_symmetry_Int_Tables_number   1
_chemical_formula_structural   Zn3Ga9Ir4
_chemical_formula_sum   'Zn3 Ga9 Ir4'
_cell_volume   291.87664772
_cell_formula_units_Z   1
loop_
 _symmetry_equiv_pos_site_id
 _symmetry_equiv_pos_as_xyz
  1  'x, y, z'
loop_
 _atom_site_type_symbol
 _atom_site_label
 _atom_site_symmetry_multiplicity
 _atom_site_fract_x
 _atom_site_fract_y
 _atom_site_fract_z
 _atom_site_occupancy
  Zn  Zn0  1  0.500000  0.000000  0.000000  1
  Zn  Zn1  1  0.500000  0.000000  0.500000  1
  Zn  Zn2  1  0.000000  0.500000  0.000000  1
  Ga  Ga3  1  0.000000  0.500000  0.500000  1
  Ga  Ga4  1  0.650848  0.338267  0.736433  1
  Ga  Ga5  1  0.838415  0.842696  0.771616  1
  Ga  Ga6  1  0.161585  0.157304  0.771616  1
  Ga  Ga7  1  0.349152  0.661733  0.736433  1
  Ga  Ga8  1  0.349152  0.661733  0.263567  1
  Ga  Ga9  1  0.650848  0.338267  0.263567  1
  Ga  Ga10  1  0.838415  0.842696  0.228384  1
  Ga  Ga11  1  0.161585  0.157304  0.228384  1
  Ir  Ir12  1  0.843713  0.156915  0.000000  1
  Ir  Ir13  1  0.663059  0.655640  0.500000  1
  Ir  Ir14  1  0.336941  0.344360  0.500000  1
  Ir  Ir15  1  0.156287  0.843085  0.000000  1
