# generated using pymatgen
data_Ho5OsWC7
_symmetry_space_group_name_H-M   'P 1'
_cell_length_a   8.27522751
_cell_length_b   8.27522838
_cell_length_c   3.45546400
_cell_angle_alpha   90.00000000
_cell_angle_beta   90.00000000
_cell_angle_gamma   122.29268216
_symmetry_Int_Tables_number   1
_chemical_formula_structural   Ho5OsWC7
_chemical_formula_sum   'Ho5 Os1 W1 C7'
_cell_volume   200.02884328
_cell_formula_units_Z   1
loop_
 _symmetry_equiv_pos_site_id
 _symmetry_equiv_pos_as_xyz
  1  'x, y, z'
loop_
 _atom_site_type_symbol
 _atom_site_label
 _atom_site_symmetry_multiplicity
 _atom_site_fract_x
 _atom_site_fract_y
 _atom_site_fract_z
 _atom_site_occupancy
  Ho  Ho0  1  0.501752  0.498248  0.000000  1
  Ho  Ho1  1  0.073322  0.334549  0.500000  1
  Ho  Ho2  1  0.922497  0.662832  0.500000  1
  Ho  Ho3  1  0.665451  0.926678  0.500000  1
  Ho  Ho4  1  0.337168  0.077503  0.500000  1
  Os  Os5  1  0.711274  0.288726  0.000000  1
  W  W6  1  0.286040  0.713960  0.000000  1
  C  C7  1  0.631291  0.368709  0.500000  1
  C  C8  1  0.376401  0.623599  0.500000  1
  C  C9  1  0.999390  0.000610  0.000000  1
  C  C10  1  0.168771  0.170200  0.000000  1
  C  C11  1  0.829800  0.831229  0.000000  1
  C  C12  1  0.998662  0.501818  0.000000  1
  C  C13  1  0.498182  0.001338  0.000000  1
