# generated using pymatgen
data_TbLu15
_symmetry_space_group_name_H-M   'P 1'
_cell_length_a   7.08296100
_cell_length_b   7.08296061
_cell_length_c   10.93091000
_cell_angle_alpha   90.00000000
_cell_angle_beta   90.00000000
_cell_angle_gamma   119.99999714
_symmetry_Int_Tables_number   1
_chemical_formula_structural   TbLu15
_chemical_formula_sum   'Tb1 Lu15'
_cell_volume   474.91582354
_cell_formula_units_Z   1
loop_
 _symmetry_equiv_pos_site_id
 _symmetry_equiv_pos_as_xyz
  1  'x, y, z'
loop_
 _atom_site_type_symbol
 _atom_site_label
 _atom_site_symmetry_multiplicity
 _atom_site_fract_x
 _atom_site_fract_y
 _atom_site_fract_z
 _atom_site_occupancy
  Tb  Tb0  1  0.000000  0.000000  0.500000  1
  Lu  Lu1  1  0.000000  0.000000  0.000000  1
  Lu  Lu2  1  0.002220  0.501110  0.500000  1
  Lu  Lu3  1  0.999496  0.499748  0.000000  1
  Lu  Lu4  1  0.498890  0.501110  0.500000  1
  Lu  Lu5  1  0.500252  0.499748  0.000000  1
  Lu  Lu6  1  0.498890  0.997780  0.500000  1
  Lu  Lu7  1  0.500252  0.000504  0.000000  1
  Lu  Lu8  1  0.167182  0.334363  0.248454  1
  Lu  Lu9  1  0.167182  0.334363  0.751546  1
  Lu  Lu10  1  0.167182  0.832818  0.248454  1
  Lu  Lu11  1  0.167182  0.832818  0.751546  1
  Lu  Lu12  1  0.665637  0.832818  0.248454  1
  Lu  Lu13  1  0.665637  0.832818  0.751546  1
  Lu  Lu14  1  0.666667  0.333333  0.251288  1
  Lu  Lu15  1  0.666667  0.333333  0.748712  1
