# generated using pymatgen
data_Ho8Hf12Si15Os
_symmetry_space_group_name_H-M   'P 1'
_cell_length_a   7.27220274
_cell_length_b   7.27542133
_cell_length_c   13.37620004
_cell_angle_alpha   89.87189127
_cell_angle_beta   89.85876530
_cell_angle_gamma   90.01593650
_symmetry_Int_Tables_number   1
_chemical_formula_structural   Ho8Hf12Si15Os
_chemical_formula_sum   'Ho8 Hf12 Si15 Os1'
_cell_volume   707.70857827
_cell_formula_units_Z   1
loop_
 _symmetry_equiv_pos_site_id
 _symmetry_equiv_pos_as_xyz
  1  'x, y, z'
loop_
 _atom_site_type_symbol
 _atom_site_label
 _atom_site_symmetry_multiplicity
 _atom_site_fract_x
 _atom_site_fract_y
 _atom_site_fract_z
 _atom_site_occupancy
  Ho  Ho0  1  0.997221  0.346750  0.214697  1
  Ho  Ho1  1  0.004260  0.655246  0.714541  1
  Ho  Ho2  1  0.158290  0.495345  0.463214  1
  Ho  Ho3  1  0.503719  0.843439  0.034289  1
  Ho  Ho4  1  0.844674  0.502457  0.965232  1
  Ho  Ho5  1  0.496395  0.158369  0.534629  1
  Ho  Ho6  1  0.343774  0.996765  0.784932  1
  Ho  Ho7  1  0.654740  0.003373  0.284591  1
  Hf  Hf8  1  0.175648  0.174473  0.998364  1
  Hf  Hf9  1  0.826883  0.825986  0.500589  1
  Hf  Hf10  1  0.325154  0.665462  0.253040  1
  Hf  Hf11  1  0.674197  0.325466  0.750306  1
  Hf  Hf12  1  0.155190  0.003672  0.373196  1
  Hf  Hf13  1  0.850496  0.003690  0.874826  1
  Hf  Hf14  1  0.503449  0.650518  0.626251  1
  Hf  Hf15  1  0.351242  0.496631  0.873206  1
  Hf  Hf16  1  0.494894  0.345859  0.128210  1
  Hf  Hf17  1  0.644460  0.498536  0.377330  1
  Hf  Hf18  1  0.997518  0.148780  0.625778  1
  Hf  Hf19  1  0.999895  0.848692  0.124525  1
  Si  Si20  1  0.639140  0.705033  0.819027  1
  Si  Si21  1  0.205973  0.861396  0.567645  1
  Si  Si22  1  0.138196  0.795626  0.932771  1
  Si  Si23  1  0.796873  0.137520  0.066114  1
  Si  Si24  1  0.862022  0.200513  0.434871  1
  Si  Si25  1  0.295848  0.361663  0.682999  1
  Si  Si26  1  0.703724  0.640089  0.181880  1
  Si  Si27  1  0.290175  0.045887  0.183393  1
  Si  Si28  1  0.704886  0.951599  0.685615  1
  Si  Si29  1  0.452987  0.798584  0.438707  1
  Si  Si30  1  0.205866  0.550906  0.061091  1
  Si  Si31  1  0.548069  0.204302  0.935283  1
  Si  Si32  1  0.796009  0.451980  0.566101  1
  Si  Si33  1  0.047592  0.295864  0.814462  1
  Si  Si34  1  0.946921  0.709716  0.314009  1
  Os  Os35  1  0.363620  0.299814  0.314284  1
