# generated using pymatgen
data_Tb2HoTh11Ru6
_symmetry_space_group_name_H-M   'P 1'
_cell_length_a   9.82354981
_cell_length_b   9.89763776
_cell_length_c   6.39467633
_cell_angle_alpha   90.09650003
_cell_angle_beta   89.92431220
_cell_angle_gamma   120.25488283
_symmetry_Int_Tables_number   1
_chemical_formula_structural   Tb2HoTh11Ru6
_chemical_formula_sum   'Tb2 Ho1 Th11 Ru6'
_cell_volume   537.06562650
_cell_formula_units_Z   1
loop_
 _symmetry_equiv_pos_site_id
 _symmetry_equiv_pos_as_xyz
  1  'x, y, z'
loop_
 _atom_site_type_symbol
 _atom_site_label
 _atom_site_symmetry_multiplicity
 _atom_site_fract_x
 _atom_site_fract_y
 _atom_site_fract_z
 _atom_site_occupancy
  Tb  Tb0  1  0.460800  0.536428  0.295555  1
  Tb  Tb1  1  0.073139  0.535797  0.300215  1
  Ho  Ho2  1  0.925190  0.461580  0.800062  1
  Th  Th3  1  0.249183  0.126023  0.510122  1
  Th  Th4  1  0.542731  0.084180  0.796325  1
  Th  Th5  1  0.748314  0.873850  0.011471  1
  Th  Th6  1  0.666220  0.332977  0.280432  1
  Th  Th7  1  0.125047  0.870269  0.006946  1
  Th  Th8  1  0.459524  0.917544  0.296961  1
  Th  Th9  1  0.539792  0.462732  0.797582  1
  Th  Th10  1  0.876393  0.129098  0.510986  1
  Th  Th11  1  0.124247  0.252148  0.012321  1
  Th  Th12  1  0.874180  0.748594  0.508420  1
  Th  Th13  1  0.334149  0.666444  0.776954  1
  Ru  Ru14  1  0.811982  0.630518  0.047027  1
  Ru  Ru15  1  0.814467  0.182378  0.046233  1
  Ru  Ru16  1  0.632536  0.816947  0.545958  1
  Ru  Ru17  1  0.370209  0.187634  0.041996  1
  Ru  Ru18  1  0.183441  0.365463  0.554079  1
  Ru  Ru19  1  0.188457  0.819395  0.544350  1
