# generated using pymatgen
data_Li3Eu2Ho2AlPt4
_symmetry_space_group_name_H-M   'P 1'
_cell_length_a   4.12520400
_cell_length_b   7.15229420
_cell_length_c   8.52484147
_cell_angle_alpha   90.52394313
_cell_angle_beta   90.00000000
_cell_angle_gamma   90.00000000
_symmetry_Int_Tables_number   1
_chemical_formula_structural   Li3Eu2Ho2AlPt4
_chemical_formula_sum   'Li3 Eu2 Ho2 Al1 Pt4'
_cell_volume   251.51214037
_cell_formula_units_Z   1
loop_
 _symmetry_equiv_pos_site_id
 _symmetry_equiv_pos_as_xyz
  1  'x, y, z'
loop_
 _atom_site_type_symbol
 _atom_site_label
 _atom_site_symmetry_multiplicity
 _atom_site_fract_x
 _atom_site_fract_y
 _atom_site_fract_z
 _atom_site_occupancy
  Li  Li0  1  0.250000  0.127799  0.051443  1
  Li  Li1  1  0.250000  0.631823  0.445469  1
  Li  Li2  1  0.750000  0.875002  0.939293  1
  Eu  Eu3  1  0.750000  0.956277  0.319448  1
  Eu  Eu4  1  0.750000  0.456285  0.179921  1
  Ho  Ho5  1  0.250000  0.038772  0.683744  1
  Ho  Ho6  1  0.250000  0.543346  0.817933  1
  Al  Al7  1  0.750000  0.372308  0.563229  1
  Pt  Pt8  1  0.250000  0.264242  0.408975  1
  Pt  Pt9  1  0.250000  0.752606  0.107722  1
  Pt  Pt10  1  0.750000  0.731767  0.630575  1
  Pt  Pt11  1  0.750000  0.249771  0.852249  1
