# generated using pymatgen
data_La7Y(Lu3Si4)4
_symmetry_space_group_name_H-M   'P 1'
_cell_length_a   7.72200105
_cell_length_b   7.72024210
_cell_length_c   14.20154600
_cell_angle_alpha   90.14208477
_cell_angle_beta   89.99375252
_cell_angle_gamma   90.08435345
_symmetry_Int_Tables_number   1
_chemical_formula_structural   La7Y(Lu3Si4)4
_chemical_formula_sum   'La7 Y1 Lu12 Si16'
_cell_volume   846.63183015
_cell_formula_units_Z   1
loop_
 _symmetry_equiv_pos_site_id
 _symmetry_equiv_pos_as_xyz
  1  'x, y, z'
loop_
 _atom_site_type_symbol
 _atom_site_label
 _atom_site_symmetry_multiplicity
 _atom_site_fract_x
 _atom_site_fract_y
 _atom_site_fract_z
 _atom_site_occupancy
  La  La0  1  0.007884  0.354287  0.539679  1
  La  La1  1  0.645792  0.992484  0.960931  1
  La  La2  1  0.144216  0.508179  0.790933  1
  La  La3  1  0.855186  0.492057  0.289032  1
  La  La4  1  0.507764  0.145854  0.208991  1
  La  La5  1  0.491380  0.854774  0.710781  1
  La  La6  1  0.354840  0.007673  0.459781  1
  Y  Y7  1  0.994775  0.641984  0.040669  1
  Lu  Lu8  1  0.357919  0.494422  0.374668  1
  Lu  Lu9  1  0.858268  0.004257  0.373954  1
  Lu  Lu10  1  0.994877  0.140119  0.124423  1
  Lu  Lu11  1  0.006274  0.857824  0.625555  1
  Lu  Lu12  1  0.641960  0.507546  0.876539  1
  Lu  Lu13  1  0.494502  0.358175  0.624845  1
  Lu  Lu14  1  0.507641  0.642610  0.124036  1
  Lu  Lu15  1  0.140109  0.994384  0.875957  1
  Lu  Lu16  1  0.679850  0.680841  0.500078  1
  Lu  Lu17  1  0.819100  0.181126  0.750572  1
  Lu  Lu18  1  0.179662  0.817615  0.249378  1
  Lu  Lu19  1  0.317500  0.321616  0.999841  1
  Si  Si20  1  0.061445  0.711250  0.437022  1
  Si  Si21  1  0.940467  0.292541  0.938285  1
  Si  Si22  1  0.712310  0.061544  0.563004  1
  Si  Si23  1  0.210058  0.441516  0.185366  1
  Si  Si24  1  0.788006  0.561269  0.687174  1
  Si  Si25  1  0.438608  0.212185  0.813393  1
  Si  Si26  1  0.562545  0.787506  0.312450  1
  Si  Si27  1  0.285374  0.934647  0.063061  1
  Si  Si28  1  0.850944  0.796059  0.811760  1
  Si  Si29  1  0.147819  0.204186  0.310455  1
  Si  Si30  1  0.800340  0.848485  0.185514  1
  Si  Si31  1  0.295971  0.648492  0.560612  1
  Si  Si32  1  0.707777  0.355759  0.061450  1
  Si  Si33  1  0.648547  0.295573  0.438936  1
  Si  Si34  1  0.346255  0.702571  0.940949  1
  Si  Si35  1  0.204036  0.148592  0.689931  1
