# generated using pymatgen
data_Nd6CoRuBr6
_symmetry_space_group_name_H-M   'P 1'
_cell_length_a   10.43084263
_cell_length_b   10.43084316
_cell_length_c   10.35679606
_cell_angle_alpha   109.61198418
_cell_angle_beta   109.61198510
_cell_angle_gamma   109.47942424
_symmetry_Int_Tables_number   1
_chemical_formula_structural   Nd6CoRuBr6
_chemical_formula_sum   'Nd12 Co2 Ru2 Br12'
_cell_volume   864.32901427
_cell_formula_units_Z   2
loop_
 _symmetry_equiv_pos_site_id
 _symmetry_equiv_pos_as_xyz
  1  'x, y, z'
loop_
 _atom_site_type_symbol
 _atom_site_label
 _atom_site_symmetry_multiplicity
 _atom_site_fract_x
 _atom_site_fract_y
 _atom_site_fract_z
 _atom_site_occupancy
  Nd  Nd0  1  0.463689  0.483832  0.228766  1
  Nd  Nd1  1  0.755067  0.234924  0.271234  1
  Nd  Nd2  1  0.752993  0.017147  0.484735  1
  Nd  Nd3  1  0.231742  0.467587  0.484735  1
  Nd  Nd4  1  0.265076  0.744933  0.228766  1
  Nd  Nd5  1  0.032413  0.268258  0.015265  1
  Nd  Nd6  1  0.016168  0.036311  0.271234  1
  Nd  Nd7  1  0.482853  0.747007  0.015265  1
  Nd  Nd8  1  0.484344  0.234344  0.468688  1
  Nd  Nd9  1  0.019684  0.480316  0.750000  1
  Nd  Nd10  1  0.265656  0.015656  0.031312  1
  Nd  Nd11  1  0.230316  0.269684  0.750000  1
  Co  Co12  1  0.000980  0.250980  0.501961  1
  Co  Co13  1  0.249020  0.499020  0.998039  1
  Ru  Ru14  1  0.248547  0.251453  0.250000  1
  Ru  Ru15  1  0.501453  0.998547  0.250000  1
  Br  Br16  1  0.250212  0.755605  0.743657  1
  Br  Br17  1  0.511949  0.506556  0.756343  1
  Br  Br18  1  0.988769  0.744198  0.993529  1
  Br  Br19  1  0.744395  0.249788  0.756343  1
  Br  Br20  1  0.993444  0.988051  0.743657  1
  Br  Br21  1  0.250669  0.995239  0.506471  1
  Br  Br22  1  0.755802  0.511231  0.506471  1
  Br  Br23  1  0.504761  0.249331  0.993529  1
  Br  Br24  1  0.755931  0.744069  0.250000  1
  Br  Br25  1  0.743842  0.993842  0.987684  1
  Br  Br26  1  0.994069  0.505931  0.250000  1
  Br  Br27  1  0.506158  0.756158  0.512316  1
