# generated using pymatgen
data_Dy6TaCo16NiP12
_symmetry_space_group_name_H-M   'P 1'
_cell_length_a   3.70082600
_cell_length_b   10.52994500
_cell_length_c   12.24763200
_cell_angle_alpha   90.00000000
_cell_angle_beta   90.00000000
_cell_angle_gamma   90.00000000
_symmetry_Int_Tables_number   1
_chemical_formula_structural   Dy6TaCo16NiP12
_chemical_formula_sum   'Dy6 Ta1 Co16 Ni1 P12'
_cell_volume   477.28402461
_cell_formula_units_Z   1
loop_
 _symmetry_equiv_pos_site_id
 _symmetry_equiv_pos_as_xyz
  1  'x, y, z'
loop_
 _atom_site_type_symbol
 _atom_site_label
 _atom_site_symmetry_multiplicity
 _atom_site_fract_x
 _atom_site_fract_y
 _atom_site_fract_z
 _atom_site_occupancy
  Dy  Dy0  1  0.000000  0.500000  0.524842  1
  Dy  Dy1  1  0.500000  0.000000  0.477634  1
  Dy  Dy2  1  0.500000  0.819927  0.207418  1
  Dy  Dy3  1  0.500000  0.180073  0.207418  1
  Dy  Dy4  1  0.000000  0.684244  0.796887  1
  Dy  Dy5  1  0.000000  0.315756  0.796887  1
  Ta  Ta6  1  0.500000  0.500000  0.154099  1
  Co  Co7  1  0.000000  0.000000  0.838398  1
  Co  Co8  1  0.000000  0.000000  0.296593  1
  Co  Co9  1  0.000000  0.500000  0.985949  1
  Co  Co10  1  0.500000  0.000000  0.014622  1
  Co  Co11  1  0.500000  0.330000  0.990151  1
  Co  Co12  1  0.500000  0.670000  0.990151  1
  Co  Co13  1  0.000000  0.163794  0.003884  1
  Co  Co14  1  0.000000  0.836206  0.003884  1
  Co  Co15  1  0.500000  0.295836  0.432577  1
  Co  Co16  1  0.500000  0.704164  0.432577  1
  Co  Co17  1  0.000000  0.201733  0.569393  1
  Co  Co18  1  0.000000  0.798267  0.569393  1
  Co  Co19  1  0.500000  0.879565  0.708400  1
  Co  Co20  1  0.500000  0.120435  0.708400  1
  Co  Co21  1  0.000000  0.622301  0.292968  1
  Co  Co22  1  0.000000  0.377699  0.292968  1
  Ni  Ni23  1  0.500000  0.500000  0.702257  1
  P  P24  1  0.500000  0.500000  0.881500  1
  P  P25  1  0.000000  0.000000  0.117327  1
  P  P26  1  0.500000  0.500000  0.355654  1
  P  P27  1  0.000000  0.000000  0.655561  1
  P  P28  1  0.500000  0.309344  0.616642  1
  P  P29  1  0.500000  0.690656  0.616642  1
  P  P30  1  0.000000  0.188351  0.385570  1
  P  P31  1  0.000000  0.811649  0.385570  1
  P  P32  1  0.500000  0.851682  0.890269  1
  P  P33  1  0.500000  0.148318  0.890269  1
  P  P34  1  0.000000  0.661543  0.103623  1
  P  P35  1  0.000000  0.338457  0.103623  1
