# generated using pymatgen
data_Sc8Ti12Si15Sn
_symmetry_space_group_name_H-M   'P 1'
_cell_length_a   6.73346316
_cell_length_b   6.86137452
_cell_length_c   13.08429000
_cell_angle_alpha   89.90166468
_cell_angle_beta   90.46016060
_cell_angle_gamma   90.10978514
_symmetry_Int_Tables_number   1
_chemical_formula_structural   Sc8Ti12Si15Sn
_chemical_formula_sum   'Sc8 Ti12 Si15 Sn1'
_cell_volume   604.48334993
_cell_formula_units_Z   1
loop_
 _symmetry_equiv_pos_site_id
 _symmetry_equiv_pos_as_xyz
  1  'x, y, z'
loop_
 _atom_site_type_symbol
 _atom_site_label
 _atom_site_symmetry_multiplicity
 _atom_site_fract_x
 _atom_site_fract_y
 _atom_site_fract_z
 _atom_site_occupancy
  Sc  Sc0  1  0.496404  0.668349  0.599998  1
  Sc  Sc1  1  0.002478  0.825599  0.905118  1
  Sc  Sc2  1  0.494616  0.325376  0.093314  1
  Sc  Sc3  1  0.012111  0.184659  0.399984  1
  Sc  Sc4  1  0.495396  0.333309  0.402750  1
  Sc  Sc5  1  0.996488  0.173991  0.093318  1
  Sc  Sc6  1  0.504241  0.675841  0.905824  1
  Sc  Sc7  1  0.008956  0.820920  0.600350  1
  Ti  Ti8  1  0.656204  0.183448  0.634056  1
  Ti  Ti9  1  0.161599  0.325084  0.874866  1
  Ti  Ti10  1  0.336155  0.826428  0.125365  1
  Ti  Ti11  1  0.851218  0.658316  0.366239  1
  Ti  Ti12  1  0.325541  0.824381  0.371516  1
  Ti  Ti13  1  0.834328  0.674715  0.125807  1
  Ti  Ti14  1  0.664711  0.173133  0.873284  1
  Ti  Ti15  1  0.161425  0.327783  0.630216  1
  Ti  Ti16  1  0.835905  0.494780  0.750104  1
  Ti  Ti17  1  0.336375  0.006971  0.750891  1
  Ti  Ti18  1  0.163500  0.504814  0.249566  1
  Ti  Ti19  1  0.662662  0.992643  0.242260  1
  Si  Si20  1  0.161729  0.535170  0.041115  1
  Si  Si21  1  0.335211  0.034412  0.958854  1
  Si  Si22  1  0.833405  0.464528  0.539863  1
  Si  Si23  1  0.325792  0.038260  0.542215  1
  Si  Si24  1  0.835195  0.464866  0.959241  1
  Si  Si25  1  0.663962  0.965061  0.038476  1
  Si  Si26  1  0.168497  0.536993  0.463271  1
  Si  Si27  1  0.458767  0.386384  0.754740  1
  Si  Si28  1  0.961401  0.115693  0.751368  1
  Si  Si29  1  0.537731  0.617202  0.249077  1
  Si  Si30  1  0.037167  0.885797  0.246974  1
  Si  Si31  1  0.703038  0.864200  0.750791  1
  Si  Si32  1  0.202669  0.635454  0.753625  1
  Si  Si33  1  0.300139  0.135224  0.248280  1
  Si  Si34  1  0.794366  0.359723  0.246676  1
  Sn  Sn35  1  0.680621  0.960493  0.460607  1
