# generated using pymatgen
data_Tb4Dy3Y(MoO6)4
_symmetry_space_group_name_H-M   'P 1'
_cell_length_a   9.97754083
_cell_length_b   9.97950810
_cell_length_c   5.41722401
_cell_angle_alpha   75.03334600
_cell_angle_beta   75.03834730
_cell_angle_gamma   68.11558489
_symmetry_Int_Tables_number   1
_chemical_formula_structural   Tb4Dy3Y(MoO6)4
_chemical_formula_sum   'Tb4 Dy3 Y1 Mo4 O24'
_cell_volume   475.59588213
_cell_formula_units_Z   1
loop_
 _symmetry_equiv_pos_site_id
 _symmetry_equiv_pos_as_xyz
  1  'x, y, z'
loop_
 _atom_site_type_symbol
 _atom_site_label
 _atom_site_symmetry_multiplicity
 _atom_site_fract_x
 _atom_site_fract_y
 _atom_site_fract_z
 _atom_site_occupancy
  Tb  Tb0  1  0.447727  0.215810  0.878908  1
  Tb  Tb1  1  0.215753  0.448057  0.378806  1
  Tb  Tb2  1  0.551985  0.784216  0.121176  1
  Tb  Tb3  1  0.864225  0.135814  0.749992  1
  Dy  Dy4  1  0.136271  0.863746  0.249995  1
  Dy  Dy5  1  0.393413  0.606612  0.750000  1
  Dy  Dy6  1  0.606338  0.393719  0.249946  1
  Y  Y7  1  0.783873  0.552230  0.621243  1
  Mo  Mo8  1  0.988925  0.703972  0.938912  1
  Mo  Mo9  1  0.296033  0.011069  0.561141  1
  Mo  Mo10  1  0.011151  0.296047  0.061094  1
  Mo  Mo11  1  0.703975  0.988825  0.438894  1
  O  O12  1  0.426774  0.391612  0.077751  1
  O  O13  1  0.608560  0.573222  0.422326  1
  O  O14  1  0.573141  0.608587  0.921990  1
  O  O15  1  0.391428  0.426927  0.577962  1
  O  O16  1  0.192254  0.663516  0.081289  1
  O  O17  1  0.336489  0.807733  0.418689  1
  O  O18  1  0.807969  0.337176  0.919582  1
  O  O19  1  0.662872  0.192059  0.580308  1
  O  O20  1  0.115827  0.673959  0.627899  1
  O  O21  1  0.326051  0.884176  0.872125  1
  O  O22  1  0.884295  0.326548  0.371729  1
  O  O23  1  0.673402  0.115743  0.128188  1
  O  O24  1  0.710615  0.817508  0.363512  1
  O  O25  1  0.182462  0.289451  0.136479  1
  O  O26  1  0.289269  0.182368  0.636527  1
  O  O27  1  0.817690  0.710681  0.863369  1
  O  O28  1  0.889724  0.951439  0.484117  1
  O  O29  1  0.048550  0.110287  0.015905  1
  O  O30  1  0.110767  0.048052  0.514506  1
  O  O31  1  0.951949  0.889232  0.985458  1
  O  O32  1  0.569021  0.974862  0.743997  1
  O  O33  1  0.024985  0.431113  0.755879  1
  O  O34  1  0.431128  0.024760  0.256408  1
  O  O35  1  0.975104  0.568875  0.243895  1
