# generated using pymatgen
data_Y4Co4HgI
_symmetry_space_group_name_H-M   'P 1'
_cell_length_a   3.93136700
_cell_length_b   3.93136665
_cell_length_c   16.79010700
_cell_angle_alpha   90.00000000
_cell_angle_beta   90.00000000
_cell_angle_gamma   120.00001136
_symmetry_Int_Tables_number   1
_chemical_formula_structural   Y4Co4HgI
_chemical_formula_sum   'Y4 Co4 Hg1 I1'
_cell_volume   224.73524244
_cell_formula_units_Z   1
loop_
 _symmetry_equiv_pos_site_id
 _symmetry_equiv_pos_as_xyz
  1  'x, y, z'
loop_
 _atom_site_type_symbol
 _atom_site_label
 _atom_site_symmetry_multiplicity
 _atom_site_fract_x
 _atom_site_fract_y
 _atom_site_fract_z
 _atom_site_occupancy
  Y  Y0  1  0.000000  0.000000  0.113984  1
  Y  Y1  1  0.000000  0.000000  0.897907  1
  Y  Y2  1  0.000000  0.000000  0.602093  1
  Y  Y3  1  0.000000  0.000000  0.386016  1
  Co  Co4  1  0.333333  0.666667  0.498129  1
  Co  Co5  1  0.666667  0.333333  0.496996  1
  Co  Co6  1  0.666667  0.333333  0.003004  1
  Co  Co7  1  0.333333  0.666667  0.001871  1
  Hg  Hg8  1  0.333333  0.666667  0.250000  1
  I  I9  1  0.666667  0.333333  0.750000  1
