# generated using pymatgen
data_Tb5As2ClO10
_symmetry_space_group_name_H-M   'P 1'
_cell_length_a   5.59274784
_cell_length_b   6.65815666
_cell_length_c   8.76595544
_cell_angle_alpha   96.17339664
_cell_angle_beta   108.60269946
_cell_angle_gamma   114.83409554
_symmetry_Int_Tables_number   1
_chemical_formula_structural   Tb5As2ClO10
_chemical_formula_sum   'Tb5 As2 Cl1 O10'
_cell_volume   269.46331715
_cell_formula_units_Z   1
loop_
 _symmetry_equiv_pos_site_id
 _symmetry_equiv_pos_as_xyz
  1  'x, y, z'
loop_
 _atom_site_type_symbol
 _atom_site_label
 _atom_site_symmetry_multiplicity
 _atom_site_fract_x
 _atom_site_fract_y
 _atom_site_fract_z
 _atom_site_occupancy
  Tb  Tb0  1  0.000000  0.000000  0.000000  1
  Tb  Tb1  1  0.378168  0.636418  0.119918  1
  Tb  Tb2  1  0.792960  0.295790  0.290133  1
  Tb  Tb3  1  0.207041  0.704211  0.709868  1
  Tb  Tb4  1  0.621831  0.363581  0.880082  1
  As  As5  1  0.183255  0.970483  0.396025  1
  As  As6  1  0.816745  0.029517  0.603975  1
  Cl  Cl7  1  0.500000  0.500000  0.500000  1
  O  O8  1  0.460679  0.328634  0.087422  1
  O  O9  1  0.955377  0.328634  0.087422  1
  O  O10  1  0.342078  0.963010  0.242381  1
  O  O11  1  0.863312  0.963010  0.242381  1
  O  O12  1  0.045206  0.679820  0.410591  1
  O  O13  1  0.954793  0.320178  0.589409  1
  O  O14  1  0.136688  0.036991  0.757619  1
  O  O15  1  0.657922  0.036991  0.757619  1
  O  O16  1  0.044623  0.671367  0.912577  1
  O  O17  1  0.539321  0.671367  0.912577  1
