# generated using pymatgen
data_HfZr2ScI12
_symmetry_space_group_name_H-M   'P 1'
_cell_length_a   6.69328603
_cell_length_b   7.96711501
_cell_length_c   13.89109500
_cell_angle_alpha   90.00000000
_cell_angle_beta   90.00000000
_cell_angle_gamma   89.99151233
_symmetry_Int_Tables_number   1
_chemical_formula_structural   HfZr2ScI12
_chemical_formula_sum   'Hf1 Zr2 Sc1 I12'
_cell_volume   740.75901877
_cell_formula_units_Z   1
loop_
 _symmetry_equiv_pos_site_id
 _symmetry_equiv_pos_as_xyz
  1  'x, y, z'
loop_
 _atom_site_type_symbol
 _atom_site_label
 _atom_site_symmetry_multiplicity
 _atom_site_fract_x
 _atom_site_fract_y
 _atom_site_fract_z
 _atom_site_occupancy
  Hf  Hf0  1  0.749933  0.752210  0.500000  1
  Zr  Zr1  1  0.255954  0.247806  0.000000  1
  Zr  Zr2  1  0.744220  0.247820  0.000000  1
  Sc  Sc3  1  0.249932  0.752184  0.500000  1
  I  I4  1  0.994858  0.604283  0.647216  1
  I  I5  1  0.994971  0.048377  0.500000  1
  I  I6  1  0.000021  0.098209  0.850487  1
  I  I7  1  0.000021  0.098209  0.149513  1
  I  I8  1  0.504917  0.899838  0.352727  1
  I  I9  1  0.500156  0.399432  0.151225  1
  I  I10  1  0.504908  0.455962  0.500000  1
  I  I11  1  0.504917  0.899838  0.647273  1
  I  I12  1  0.500156  0.399432  0.848775  1
  I  I13  1  0.499992  0.943738  0.000000  1
  I  I14  1  0.000186  0.548380  0.000000  1
  I  I15  1  0.994858  0.604283  0.352784  1
