# generated using pymatgen
data_Ca2Np5(PbO6)3
_symmetry_space_group_name_H-M   'P 1'
_cell_length_a   6.92723056
_cell_length_b   7.64071258
_cell_length_c   8.61879700
_cell_angle_alpha   99.86131882
_cell_angle_beta   97.84531671
_cell_angle_gamma   107.57495030
_symmetry_Int_Tables_number   1
_chemical_formula_structural   Ca2Np5(PbO6)3
_chemical_formula_sum   'Ca2 Np5 Pb3 O18'
_cell_volume   419.77446104
_cell_formula_units_Z   1
loop_
 _symmetry_equiv_pos_site_id
 _symmetry_equiv_pos_as_xyz
  1  'x, y, z'
loop_
 _atom_site_type_symbol
 _atom_site_label
 _atom_site_symmetry_multiplicity
 _atom_site_fract_x
 _atom_site_fract_y
 _atom_site_fract_z
 _atom_site_occupancy
  Ca  Ca0  1  0.808776  0.113872  0.584953  1
  Ca  Ca1  1  0.995669  0.500082  0.992272  1
  Np  Np2  1  0.998409  0.997353  0.997212  1
  Np  Np3  1  0.785642  0.578648  0.584934  1
  Np  Np4  1  0.628679  0.194959  0.196394  1
  Np  Np5  1  0.379029  0.806909  0.805610  1
  Np  Np6  1  0.207184  0.422300  0.413552  1
  Pb  Pb7  1  0.595251  0.693266  0.199234  1
  Pb  Pb8  1  0.405510  0.309577  0.800913  1
  Pb  Pb9  1  0.194178  0.893648  0.411744  1
  O  O10  1  0.815107  0.796434  0.475056  1
  O  O11  1  0.017417  0.216904  0.183193  1
  O  O12  1  0.691285  0.391601  0.072377  1
  O  O13  1  0.478663  0.002155  0.684971  1
  O  O14  1  0.865780  0.352203  0.416454  1
  O  O15  1  0.498978  0.391320  0.351250  1
  O  O16  1  0.235636  0.603689  0.268080  1
  O  O17  1  0.982001  0.811670  0.137790  1
  O  O18  1  0.666832  0.940205  0.995341  1
  O  O19  1  0.332794  0.053855  0.008478  1
  O  O20  1  0.004772  0.174022  0.851334  1
  O  O21  1  0.762601  0.388183  0.719670  1
  O  O22  1  0.498510  0.602355  0.656789  1
  O  O23  1  0.138954  0.659269  0.579337  1
  O  O24  1  0.560452  0.003329  0.326475  1
  O  O25  1  0.307889  0.606353  0.926231  1
  O  O26  1  0.980519  0.772803  0.817333  1
  O  O27  1  0.163485  0.223035  0.543022  1
