# generated using pymatgen
data_Ho11Th5(CdRu)4
_symmetry_space_group_name_H-M   'P 1'
_cell_length_a   9.64836878
_cell_length_b   9.71264962
_cell_length_c   9.71265033
_cell_angle_alpha   59.85354552
_cell_angle_beta   60.21869468
_cell_angle_gamma   60.21869050
_symmetry_Int_Tables_number   1
_chemical_formula_structural   Ho11Th5(CdRu)4
_chemical_formula_sum   'Ho11 Th5 Cd4 Ru4'
_cell_volume   644.99438065
_cell_formula_units_Z   1
loop_
 _symmetry_equiv_pos_site_id
 _symmetry_equiv_pos_as_xyz
  1  'x, y, z'
loop_
 _atom_site_type_symbol
 _atom_site_label
 _atom_site_symmetry_multiplicity
 _atom_site_fract_x
 _atom_site_fract_y
 _atom_site_fract_z
 _atom_site_occupancy
  Ho  Ho0  1  0.187393  0.812607  0.812607  1
  Ho  Ho1  1  0.192687  0.808605  0.186095  1
  Ho  Ho2  1  0.812613  0.186095  0.808605  1
  Ho  Ho3  1  0.192687  0.186095  0.808605  1
  Ho  Ho4  1  0.812613  0.808605  0.186095  1
  Ho  Ho5  1  0.933408  0.566592  0.566592  1
  Ho  Ho6  1  0.564651  0.935349  0.935349  1
  Ho  Ho7  1  0.562760  0.935796  0.564398  1
  Ho  Ho8  1  0.937045  0.564398  0.935796  1
  Ho  Ho9  1  0.562760  0.564398  0.935796  1
  Ho  Ho10  1  0.937045  0.935796  0.564398  1
  Th  Th11  1  0.343149  0.350190  0.350190  1
  Th  Th12  1  0.347770  0.348927  0.955533  1
  Th  Th13  1  0.347770  0.955533  0.348927  1
  Th  Th14  1  0.956470  0.350190  0.350190  1
  Th  Th15  1  0.815037  0.184963  0.184963  1
  Cd  Cd16  1  0.582358  0.581379  0.581379  1
  Cd  Cd17  1  0.580959  0.583886  0.254198  1
  Cd  Cd18  1  0.580959  0.254198  0.583886  1
  Cd  Cd19  1  0.254886  0.581379  0.581379  1
  Ru  Ru20  1  0.129151  0.147023  0.147023  1
  Ru  Ru21  1  0.144513  0.142092  0.568882  1
  Ru  Ru22  1  0.144513  0.568882  0.142092  1
  Ru  Ru23  1  0.576802  0.147023  0.147023  1
