# generated using pymatgen
data_Cs3Na(USe3)2
_symmetry_space_group_name_H-M   'P 1'
_cell_length_a   7.52870277
_cell_length_b   7.52870233
_cell_length_c   8.72604407
_cell_angle_alpha   81.81552441
_cell_angle_beta   81.81552256
_cell_angle_gamma   120.11299581
_symmetry_Int_Tables_number   1
_chemical_formula_structural   Cs3Na(USe3)2
_chemical_formula_sum   'Cs3 Na1 U2 Se6'
_cell_volume   410.08051548
_cell_formula_units_Z   1
loop_
 _symmetry_equiv_pos_site_id
 _symmetry_equiv_pos_as_xyz
  1  'x, y, z'
loop_
 _atom_site_type_symbol
 _atom_site_label
 _atom_site_symmetry_multiplicity
 _atom_site_fract_x
 _atom_site_fract_y
 _atom_site_fract_z
 _atom_site_occupancy
  Cs  Cs0  1  0.655442  0.344558  0.500000  1
  Cs  Cs1  1  0.344558  0.655442  0.500000  1
  Cs  Cs2  1  0.000000  0.000000  0.500000  1
  Na  Na3  1  0.500000  0.500000  0.000000  1
  U  U4  1  0.832413  0.167587  0.000000  1
  U  U5  1  0.167587  0.832413  0.000000  1
  Se  Se6  1  0.798347  0.798347  0.181453  1
  Se  Se7  1  0.201653  0.201653  0.818547  1
  Se  Se8  1  0.436524  0.074536  0.188515  1
  Se  Se9  1  0.563476  0.925464  0.811485  1
  Se  Se10  1  0.925464  0.563476  0.811485  1
  Se  Se11  1  0.074536  0.436524  0.188515  1
