# generated using pymatgen
data_Dy3Er9Tc4
_symmetry_space_group_name_H-M   'P 1'
_cell_length_a   6.21929301
_cell_length_b   7.38145663
_cell_length_c   9.11398300
_cell_angle_alpha   90.00000000
_cell_angle_beta   90.00000000
_cell_angle_gamma   89.94681100
_symmetry_Int_Tables_number   1
_chemical_formula_structural   Dy3Er9Tc4
_chemical_formula_sum   'Dy3 Er9 Tc4'
_cell_volume   418.39946238
_cell_formula_units_Z   1
loop_
 _symmetry_equiv_pos_site_id
 _symmetry_equiv_pos_as_xyz
  1  'x, y, z'
loop_
 _atom_site_type_symbol
 _atom_site_label
 _atom_site_symmetry_multiplicity
 _atom_site_fract_x
 _atom_site_fract_y
 _atom_site_fract_z
 _atom_site_occupancy
  Dy  Dy0  1  0.872983  0.539878  0.250000  1
  Dy  Dy1  1  0.627202  0.040538  0.250000  1
  Dy  Dy2  1  0.127669  0.459616  0.750000  1
  Er  Er3  1  0.339541  0.675533  0.062305  1
  Er  Er4  1  0.161226  0.173764  0.437748  1
  Er  Er5  1  0.660103  0.325067  0.562841  1
  Er  Er6  1  0.838559  0.825684  0.937057  1
  Er  Er7  1  0.660103  0.325067  0.937159  1
  Er  Er8  1  0.838559  0.825684  0.562943  1
  Er  Er9  1  0.339541  0.675533  0.437695  1
  Er  Er10  1  0.161226  0.173764  0.062252  1
  Er  Er11  1  0.372545  0.960012  0.750000  1
  Tc  Tc12  1  0.041787  0.884418  0.250000  1
  Tc  Tc13  1  0.457698  0.384912  0.250000  1
  Tc  Tc14  1  0.958804  0.115177  0.750000  1
  Tc  Tc15  1  0.542453  0.615354  0.750000  1
