# generated using pymatgen
data_NdTmIr2O7
_symmetry_space_group_name_H-M   'P 1'
_cell_length_a   7.33966222
_cell_length_b   7.29416664
_cell_length_c   7.29416648
_cell_angle_alpha   59.57337112
_cell_angle_beta   59.79345343
_cell_angle_gamma   59.79345977
_symmetry_Int_Tables_number   1
_chemical_formula_structural   NdTmIr2O7
_chemical_formula_sum   'Nd2 Tm2 Ir4 O14'
_cell_volume   274.37112434
_cell_formula_units_Z   2
loop_
 _symmetry_equiv_pos_site_id
 _symmetry_equiv_pos_as_xyz
  1  'x, y, z'
loop_
 _atom_site_type_symbol
 _atom_site_label
 _atom_site_symmetry_multiplicity
 _atom_site_fract_x
 _atom_site_fract_y
 _atom_site_fract_z
 _atom_site_occupancy
  Nd  Nd0  1  0.625000  0.125000  0.125000  1
  Nd  Nd1  1  0.125000  0.125000  0.125000  1
  Tm  Tm2  1  0.125000  0.625000  0.125000  1
  Tm  Tm3  1  0.125000  0.125000  0.625000  1
  Ir  Ir4  1  0.125000  0.625000  0.625000  1
  Ir  Ir5  1  0.625000  0.125000  0.625000  1
  Ir  Ir6  1  0.625000  0.625000  0.125000  1
  Ir  Ir7  1  0.625000  0.625000  0.625000  1
  O  O8  1  0.721258  0.700607  0.289404  1
  O  O9  1  0.288731  0.289404  0.700607  1
  O  O10  1  0.721258  0.289404  0.700607  1
  O  O11  1  0.288731  0.700607  0.289404  1
  O  O12  1  0.289011  0.710989  0.710989  1
  O  O13  1  0.710411  0.289589  0.289589  1
  O  O14  1  0.528742  0.549393  0.960596  1
  O  O15  1  0.961269  0.960596  0.549393  1
  O  O16  1  0.528742  0.960596  0.549393  1
  O  O17  1  0.961269  0.549393  0.960596  1
  O  O18  1  0.960989  0.539011  0.539011  1
  O  O19  1  0.539589  0.960411  0.960411  1
  O  O20  1  0.240669  0.259331  0.259331  1
  O  O21  1  0.009331  0.990669  0.990669  1
