# generated using pymatgen
data_Ho4InPt10Au
_symmetry_space_group_name_H-M   'P 1'
_cell_length_a   4.22076200
_cell_length_b   5.83950437
_cell_length_c   11.68038419
_cell_angle_alpha   86.93061377
_cell_angle_beta   90.00000000
_cell_angle_gamma   90.00000000
_symmetry_Int_Tables_number   1
_chemical_formula_structural   Ho4InPt10Au
_chemical_formula_sum   'Ho4 In1 Pt10 Au1'
_cell_volume   287.47527835
_cell_formula_units_Z   1
loop_
 _symmetry_equiv_pos_site_id
 _symmetry_equiv_pos_as_xyz
  1  'x, y, z'
loop_
 _atom_site_type_symbol
 _atom_site_label
 _atom_site_symmetry_multiplicity
 _atom_site_fract_x
 _atom_site_fract_y
 _atom_site_fract_z
 _atom_site_occupancy
  Ho  Ho0  1  0.500000  0.746980  0.371565  1
  Ho  Ho1  1  0.500000  0.720956  0.862573  1
  Ho  Ho2  1  0.500000  0.279044  0.137427  1
  Ho  Ho3  1  0.500000  0.253020  0.628435  1
  In  In4  1  0.000000  0.000000  0.000000  1
  Pt  Pt5  1  0.000000  0.010698  0.248987  1
  Pt  Pt6  1  0.000000  0.989302  0.751013  1
  Pt  Pt7  1  0.000000  0.500000  0.000000  1
  Pt  Pt8  1  0.000000  0.500000  0.500000  1
  Pt  Pt9  1  0.000000  0.511773  0.250411  1
  Pt  Pt10  1  0.000000  0.488227  0.749589  1
  Pt  Pt11  1  0.500000  0.251959  0.378225  1
  Pt  Pt12  1  0.500000  0.230735  0.880984  1
  Pt  Pt13  1  0.500000  0.769265  0.119016  1
  Pt  Pt14  1  0.500000  0.748041  0.621775  1
  Au  Au15  1  0.000000  0.000000  0.500000  1
