# generated using pymatgen
data_YPu4Ga15
_symmetry_space_group_name_H-M   'P 1'
_cell_length_a   12.49202994
_cell_length_b   12.49202967
_cell_length_c   12.49202911
_cell_angle_alpha   28.43945577
_cell_angle_beta   28.43945771
_cell_angle_gamma   28.43945475
_symmetry_Int_Tables_number   1
_chemical_formula_structural   YPu4Ga15
_chemical_formula_sum   'Y1 Pu4 Ga15'
_cell_volume   390.73198763
_cell_formula_units_Z   1
loop_
 _symmetry_equiv_pos_site_id
 _symmetry_equiv_pos_as_xyz
  1  'x, y, z'
loop_
 _atom_site_type_symbol
 _atom_site_label
 _atom_site_symmetry_multiplicity
 _atom_site_fract_x
 _atom_site_fract_y
 _atom_site_fract_z
 _atom_site_occupancy
  Y  Y0  1  0.599654  0.599654  0.599654  1
  Pu  Pu1  1  0.129593  0.129593  0.129593  1
  Pu  Pu2  1  0.870557  0.870557  0.870557  1
  Pu  Pu3  1  0.400727  0.400727  0.400727  1
  Pu  Pu4  1  0.999130  0.999130  0.999130  1
  Ga  Ga5  1  0.424620  0.886219  0.886219  1
  Ga  Ga6  1  0.886219  0.886219  0.424620  1
  Ga  Ga7  1  0.886219  0.424620  0.886219  1
  Ga  Ga8  1  0.116082  0.568589  0.116082  1
  Ga  Ga9  1  0.116082  0.116082  0.568589  1
  Ga  Ga10  1  0.568589  0.116082  0.116082  1
  Ga  Ga11  1  0.131824  0.635917  0.635917  1
  Ga  Ga12  1  0.635917  0.635917  0.131824  1
  Ga  Ga13  1  0.635917  0.131824  0.635917  1
  Ga  Ga14  1  0.361585  0.875502  0.361585  1
  Ga  Ga15  1  0.361585  0.361585  0.875502  1
  Ga  Ga16  1  0.875502  0.361585  0.361585  1
  Ga  Ga17  1  0.498161  0.498161  0.003879  1
  Ga  Ga18  1  0.498161  0.003879  0.498161  1
  Ga  Ga19  1  0.003879  0.498161  0.498161  1
