# generated using pymatgen
data_Er2Tm5CoI12
_symmetry_space_group_name_H-M   'P 1'
_cell_length_a   9.66487723
_cell_length_b   9.66318440
_cell_length_c   9.66692703
_cell_angle_alpha   106.83484086
_cell_angle_beta   106.83076810
_cell_angle_gamma   106.82128763
_symmetry_Int_Tables_number   1
_chemical_formula_structural   Er2Tm5CoI12
_chemical_formula_sum   'Er2 Tm5 Co1 I12'
_cell_volume   755.36439739
_cell_formula_units_Z   1
loop_
 _symmetry_equiv_pos_site_id
 _symmetry_equiv_pos_as_xyz
  1  'x, y, z'
loop_
 _atom_site_type_symbol
 _atom_site_label
 _atom_site_symmetry_multiplicity
 _atom_site_fract_x
 _atom_site_fract_y
 _atom_site_fract_z
 _atom_site_occupancy
  Er  Er0  1  0.499954  0.499962  0.500046  1
  Er  Er1  1  0.909147  0.978485  0.714367  1
  Tm  Tm2  1  0.284530  0.090369  0.021579  1
  Tm  Tm3  1  0.021408  0.284506  0.090654  1
  Tm  Tm4  1  0.090312  0.021324  0.284329  1
  Tm  Tm5  1  0.715647  0.909661  0.978888  1
  Tm  Tm6  1  0.978756  0.715592  0.909896  1
  Co  Co7  1  0.000026  0.000007  0.000097  1
  I  I8  1  0.463214  0.160683  0.386604  1
  I  I9  1  0.386576  0.463169  0.160654  1
  I  I10  1  0.160668  0.386628  0.463174  1
  I  I11  1  0.536517  0.839280  0.613444  1
  I  I12  1  0.613411  0.536833  0.839386  1
  I  I13  1  0.839398  0.613168  0.536806  1
  I  I14  1  0.323663  0.775927  0.929459  1
  I  I15  1  0.929499  0.323961  0.776100  1
  I  I16  1  0.775803  0.929370  0.323390  1
  I  I17  1  0.676376  0.224101  0.070608  1
  I  I18  1  0.070576  0.676270  0.224073  1
  I  I19  1  0.224520  0.070704  0.676446  1
