# generated using pymatgen
data_Nd4DyZr3(Ni4P3)4
_symmetry_space_group_name_H-M   'P 1'
_cell_length_a   12.48046305
_cell_length_b   12.46533954
_cell_length_c   3.87211700
_cell_angle_alpha   90.00000000
_cell_angle_beta   90.00000000
_cell_angle_gamma   119.95992851
_symmetry_Int_Tables_number   1
_chemical_formula_structural   Nd4DyZr3(Ni4P3)4
_chemical_formula_sum   'Nd4 Dy1 Zr3 Ni16 P12'
_cell_volume   521.90220974
_cell_formula_units_Z   1
loop_
 _symmetry_equiv_pos_site_id
 _symmetry_equiv_pos_as_xyz
  1  'x, y, z'
loop_
 _atom_site_type_symbol
 _atom_site_label
 _atom_site_symmetry_multiplicity
 _atom_site_fract_x
 _atom_site_fract_y
 _atom_site_fract_z
 _atom_site_occupancy
  Nd  Nd0  1  0.186167  0.185529  0.500000  1
  Nd  Nd1  1  0.813833  0.999363  0.500000  1
  Nd  Nd2  1  0.333630  0.666924  0.000000  1
  Nd  Nd3  1  0.666370  0.333292  0.000000  1
  Dy  Dy4  1  0.000000  0.812881  0.500000  1
  Zr  Zr5  1  0.565000  0.564522  0.000000  1
  Zr  Zr6  1  0.435000  0.999522  0.000000  1
  Zr  Zr7  1  0.000000  0.437161  0.000000  1
  Ni  Ni8  1  0.728717  0.726201  0.500000  1
  Ni  Ni9  1  0.271283  0.997484  0.500000  1
  Ni  Ni10  1  0.000000  0.274467  0.500000  1
  Ni  Ni11  1  0.186638  0.378582  0.000000  1
  Ni  Ni12  1  0.621887  0.808126  0.000000  1
  Ni  Ni13  1  0.189410  0.813731  0.000000  1
  Ni  Ni14  1  0.810590  0.624320  0.000000  1
  Ni  Ni15  1  0.813362  0.191944  0.000000  1
  Ni  Ni16  1  0.378113  0.186239  0.000000  1
  Ni  Ni17  1  0.362551  0.484644  0.500000  1
  Ni  Ni18  1  0.515881  0.878258  0.500000  1
  Ni  Ni19  1  0.121652  0.638789  0.500000  1
  Ni  Ni20  1  0.878348  0.517137  0.500000  1
  Ni  Ni21  1  0.637449  0.122092  0.500000  1
  Ni  Ni22  1  0.484119  0.362377  0.500000  1
  Ni  Ni23  1  0.000000  0.997960  0.000000  1
  P  P24  1  0.822845  0.819276  0.000000  1
  P  P25  1  0.177155  0.996430  0.000000  1
  P  P26  1  0.000000  0.179682  0.000000  1
  P  P27  1  0.169403  0.472183  0.500000  1
  P  P28  1  0.529408  0.698159  0.500000  1
  P  P29  1  0.302498  0.830212  0.500000  1
  P  P30  1  0.697502  0.527715  0.500000  1
  P  P31  1  0.830597  0.302780  0.500000  1
  P  P32  1  0.470592  0.168751  0.500000  1
  P  P33  1  0.360940  0.360918  0.000000  1
  P  P34  1  0.639060  0.999978  0.000000  1
  P  P35  1  0.000000  0.642372  0.000000  1
