# generated using pymatgen
data_Lu10TlPb5
_symmetry_space_group_name_H-M   'P 1'
_cell_length_a   6.52879103
_cell_length_b   8.84553198
_cell_length_c   8.86083629
_cell_angle_alpha   119.94288190
_cell_angle_beta   90.00223129
_cell_angle_gamma   89.99551613
_symmetry_Int_Tables_number   1
_chemical_formula_structural   Lu10TlPb5
_chemical_formula_sum   'Lu10 Tl1 Pb5'
_cell_volume   443.41639112
_cell_formula_units_Z   1
loop_
 _symmetry_equiv_pos_site_id
 _symmetry_equiv_pos_as_xyz
  1  'x, y, z'
loop_
 _atom_site_type_symbol
 _atom_site_label
 _atom_site_symmetry_multiplicity
 _atom_site_fract_x
 _atom_site_fract_y
 _atom_site_fract_z
 _atom_site_occupancy
  Lu  Lu0  1  0.749826  0.234649  0.000000  1
  Lu  Lu1  1  0.749789  0.764298  0.768925  1
  Lu  Lu2  1  0.749789  0.995374  0.231075  1
  Lu  Lu3  1  0.249506  0.767611  0.000000  1
  Lu  Lu4  1  0.250033  0.233939  0.233733  1
  Lu  Lu5  1  0.250033  0.000205  0.766267  1
  Lu  Lu6  1  0.501627  0.336940  0.670878  1
  Lu  Lu7  1  0.501627  0.666061  0.329122  1
  Lu  Lu8  1  0.997933  0.666289  0.329231  1
  Lu  Lu9  1  0.997933  0.337058  0.670769  1
  Tl  Tl10  1  0.748964  0.601796  0.000000  1
  Pb  Pb11  1  0.750835  0.394308  0.395377  1
  Pb  Pb12  1  0.750835  0.998931  0.604623  1
  Pb  Pb13  1  0.249498  0.396657  0.000000  1
  Pb  Pb14  1  0.250887  0.603746  0.601607  1
  Pb  Pb15  1  0.250887  0.002138  0.398393  1
