# generated using pymatgen
data_Dy3Ho5Si12(IrRh)2
_symmetry_space_group_name_H-M   'P 1'
_cell_length_a   8.16212003
_cell_length_b   8.16208814
_cell_length_c   7.89283300
_cell_angle_alpha   89.99805430
_cell_angle_beta   90.00174862
_cell_angle_gamma   120.00954892
_symmetry_Int_Tables_number   1
_chemical_formula_structural   Dy3Ho5Si12(IrRh)2
_chemical_formula_sum   'Dy3 Ho5 Si12 Ir2 Rh2'
_cell_volume   455.32972825
_cell_formula_units_Z   1
loop_
 _symmetry_equiv_pos_site_id
 _symmetry_equiv_pos_as_xyz
  1  'x, y, z'
loop_
 _atom_site_type_symbol
 _atom_site_label
 _atom_site_symmetry_multiplicity
 _atom_site_fract_x
 _atom_site_fract_y
 _atom_site_fract_z
 _atom_site_occupancy
  Dy  Dy0  1  0.999982  0.000013  0.248669  1
  Dy  Dy1  1  0.000027  0.999975  0.751322  1
  Dy  Dy2  1  0.509383  0.490614  0.250250  1
  Ho  Ho3  1  0.509371  0.018657  0.250292  1
  Ho  Ho4  1  0.981328  0.490619  0.250290  1
  Ho  Ho5  1  0.490637  0.509370  0.749734  1
  Ho  Ho6  1  0.490627  0.981275  0.749713  1
  Ho  Ho7  1  0.018727  0.509374  0.749711  1
  Si  Si8  1  0.166790  0.833207  0.499124  1
  Si  Si9  1  0.166735  0.333566  0.499158  1
  Si  Si10  1  0.666435  0.833266  0.499161  1
  Si  Si11  1  0.833198  0.166801  0.500902  1
  Si  Si12  1  0.833307  0.666457  0.501039  1
  Si  Si13  1  0.333544  0.166693  0.501040  1
  Si  Si14  1  0.832944  0.167056  0.000057  1
  Si  Si15  1  0.833069  0.665966  0.999928  1
  Si  Si16  1  0.334031  0.166929  0.999925  1
  Si  Si17  1  0.167048  0.832953  0.999905  1
  Si  Si18  1  0.166968  0.334045  0.999860  1
  Si  Si19  1  0.665956  0.833035  0.999862  1
  Ir  Ir20  1  0.333209  0.666799  0.468589  1
  Ir  Ir21  1  0.666738  0.333268  0.531812  1
  Rh  Rh22  1  0.666731  0.333278  0.963108  1
  Rh  Rh23  1  0.333214  0.666784  0.036549  1
