# generated using pymatgen
data_CeZr9(NiSb9)2
_symmetry_space_group_name_H-M   'P 1'
_cell_length_a   8.99946800
_cell_length_b   8.99946800
_cell_length_c   8.81266300
_cell_angle_alpha   90.00000000
_cell_angle_beta   90.00000000
_cell_angle_gamma   90.00000000
_symmetry_Int_Tables_number   1
_chemical_formula_structural   CeZr9(NiSb9)2
_chemical_formula_sum   'Ce1 Zr9 Ni2 Sb18'
_cell_volume   713.74131543
_cell_formula_units_Z   1
loop_
 _symmetry_equiv_pos_site_id
 _symmetry_equiv_pos_as_xyz
  1  'x, y, z'
loop_
 _atom_site_type_symbol
 _atom_site_label
 _atom_site_symmetry_multiplicity
 _atom_site_fract_x
 _atom_site_fract_y
 _atom_site_fract_z
 _atom_site_occupancy
  Ce  Ce0  1  0.500000  0.000000  0.268318  1
  Zr  Zr1  1  0.000000  0.500000  0.746216  1
  Zr  Zr2  1  0.293181  0.606477  0.265196  1
  Zr  Zr3  1  0.706819  0.393523  0.265196  1
  Zr  Zr4  1  0.796594  0.103902  0.733672  1
  Zr  Zr5  1  0.203406  0.896098  0.733672  1
  Zr  Zr6  1  0.396098  0.296594  0.733672  1
  Zr  Zr7  1  0.603902  0.703406  0.733672  1
  Zr  Zr8  1  0.893523  0.793181  0.265196  1
  Zr  Zr9  1  0.106477  0.206819  0.265196  1
  Ni  Ni10  1  0.500000  0.500000  0.990851  1
  Ni  Ni11  1  0.000000  0.000000  0.990851  1
  Sb  Sb12  1  0.773846  0.585274  0.999290  1
  Sb  Sb13  1  0.226154  0.414726  0.999290  1
  Sb  Sb14  1  0.270965  0.087785  0.997730  1
  Sb  Sb15  1  0.729035  0.912215  0.997730  1
  Sb  Sb16  1  0.412215  0.770965  0.997730  1
  Sb  Sb17  1  0.587785  0.229035  0.997730  1
  Sb  Sb18  1  0.914726  0.273846  0.999290  1
  Sb  Sb19  1  0.085274  0.726154  0.999290  1
  Sb  Sb20  1  0.000000  0.500000  0.392703  1
  Sb  Sb21  1  0.500000  0.000000  0.631544  1
  Sb  Sb22  1  0.185819  0.899955  0.379152  1
  Sb  Sb23  1  0.814181  0.100045  0.379152  1
  Sb  Sb24  1  0.699228  0.403886  0.619839  1
  Sb  Sb25  1  0.300772  0.596114  0.619839  1
  Sb  Sb26  1  0.096114  0.199228  0.619839  1
  Sb  Sb27  1  0.903886  0.800772  0.619839  1
  Sb  Sb28  1  0.600045  0.685819  0.379152  1
  Sb  Sb29  1  0.399955  0.314181  0.379152  1
