# generated using pymatgen
data_Yb2P6O17
_symmetry_space_group_name_H-M   'P 1'
_cell_length_a   18.38817700
_cell_length_b   5.61178183
_cell_length_c   7.71471000
_cell_angle_alpha   68.63060177
_cell_angle_beta   90.00000000
_cell_angle_gamma   90.00000000
_symmetry_Int_Tables_number   1
_chemical_formula_structural   Yb2P6O17
_chemical_formula_sum   'Yb4 P12 O34'
_cell_volume   741.35395481
_cell_formula_units_Z   2
loop_
 _symmetry_equiv_pos_site_id
 _symmetry_equiv_pos_as_xyz
  1  'x, y, z'
loop_
 _atom_site_type_symbol
 _atom_site_label
 _atom_site_symmetry_multiplicity
 _atom_site_fract_x
 _atom_site_fract_y
 _atom_site_fract_z
 _atom_site_occupancy
  Yb  Yb0  1  0.072642  0.097049  0.140729  1
  Yb  Yb1  1  0.572642  0.902951  0.359271  1
  Yb  Yb2  1  0.927358  0.902951  0.859271  1
  Yb  Yb3  1  0.427358  0.097049  0.640729  1
  P  P4  1  0.030585  0.486266  0.695447  1
  P  P5  1  0.530585  0.513734  0.804553  1
  P  P6  1  0.969415  0.513734  0.304553  1
  P  P7  1  0.469415  0.486266  0.195447  1
  P  P8  1  0.167874  0.729030  0.577293  1
  P  P9  1  0.667874  0.270970  0.922707  1
  P  P10  1  0.832126  0.270970  0.422707  1
  P  P11  1  0.332126  0.729030  0.077293  1
  P  P12  1  0.178876  0.701945  0.972150  1
  P  P13  1  0.678876  0.298055  0.527850  1
  P  P14  1  0.821124  0.298055  0.027850  1
  P  P15  1  0.321124  0.701945  0.472150  1
  O  O16  1  0.013193  0.227954  0.839702  1
  O  O17  1  0.513193  0.772046  0.660298  1
  O  O18  1  0.986807  0.772046  0.160298  1
  O  O19  1  0.486807  0.227954  0.339702  1
  O  O20  1  0.011291  0.723807  0.728031  1
  O  O21  1  0.511291  0.276193  0.771969  1
  O  O22  1  0.988709  0.276193  0.271969  1
  O  O23  1  0.488709  0.723807  0.228031  1
  O  O24  1  0.000000  0.500000  0.500000  1
  O  O25  1  0.500000  0.500000  0.000000  1
  O  O26  1  0.118087  0.481661  0.656688  1
  O  O27  1  0.618087  0.518339  0.843312  1
  O  O28  1  0.881913  0.518339  0.343312  1
  O  O29  1  0.381913  0.481661  0.156688  1
  O  O30  1  0.136933  0.938701  0.416918  1
  O  O31  1  0.636933  0.061299  0.083082  1
  O  O32  1  0.238153  0.598714  0.533678  1
  O  O33  1  0.738153  0.401286  0.966322  1
  O  O34  1  0.761847  0.401286  0.466322  1
  O  O35  1  0.261847  0.598714  0.033678  1
  O  O36  1  0.335743  0.924381  0.527444  1
  O  O37  1  0.835743  0.075619  0.972556  1
  O  O38  1  0.664257  0.075619  0.472556  1
  O  O39  1  0.164257  0.924381  0.027444  1
  O  O40  1  0.367998  0.470683  0.533515  1
  O  O41  1  0.867998  0.529317  0.966485  1
  O  O42  1  0.632002  0.529317  0.466485  1
  O  O43  1  0.132002  0.470683  0.033515  1
  O  O44  1  0.312765  0.815669  0.244707  1
  O  O45  1  0.812765  0.184331  0.255293  1
  O  O46  1  0.687235  0.184331  0.755293  1
  O  O47  1  0.187235  0.815669  0.744707  1
  O  O48  1  0.363067  0.938701  0.916918  1
  O  O49  1  0.863067  0.061299  0.583082  1
