# generated using pymatgen
data_Sc10Sn6GeAs
_symmetry_space_group_name_H-M   'P 1'
_cell_length_a   8.72029500
_cell_length_b   8.72029475
_cell_length_c   6.09580700
_cell_angle_alpha   90.00000000
_cell_angle_beta   90.00000000
_cell_angle_gamma   119.99999715
_symmetry_Int_Tables_number   1
_chemical_formula_structural   Sc10Sn6GeAs
_chemical_formula_sum   'Sc10 Sn6 Ge1 As1'
_cell_volume   401.44328154
_cell_formula_units_Z   1
loop_
 _symmetry_equiv_pos_site_id
 _symmetry_equiv_pos_as_xyz
  1  'x, y, z'
loop_
 _atom_site_type_symbol
 _atom_site_label
 _atom_site_symmetry_multiplicity
 _atom_site_fract_x
 _atom_site_fract_y
 _atom_site_fract_z
 _atom_site_occupancy
  Sc  Sc0  1  0.666667  0.333333  0.000000  1
  Sc  Sc1  1  0.333333  0.666667  0.000000  1
  Sc  Sc2  1  0.333333  0.666667  0.500000  1
  Sc  Sc3  1  0.666667  0.333333  0.500000  1
  Sc  Sc4  1  0.745722  0.745722  0.749241  1
  Sc  Sc5  1  0.254278  0.000000  0.749241  1
  Sc  Sc6  1  0.000000  0.254278  0.749241  1
  Sc  Sc7  1  0.254278  0.254278  0.250759  1
  Sc  Sc8  1  0.745722  0.000000  0.250759  1
  Sc  Sc9  1  0.000000  0.745722  0.250759  1
  Sn  Sn10  1  0.395283  0.395283  0.750343  1
  Sn  Sn11  1  0.604717  0.000000  0.750343  1
  Sn  Sn12  1  0.000000  0.604717  0.750343  1
  Sn  Sn13  1  0.604717  0.604717  0.249657  1
  Sn  Sn14  1  0.395283  0.000000  0.249657  1
  Sn  Sn15  1  0.000000  0.395283  0.249657  1
  Ge  Ge16  1  0.000000  0.000000  0.000000  1
  As  As17  1  0.000000  0.000000  0.500000  1
