# generated using pymatgen
data_CeP4Ru5Rh
_symmetry_space_group_name_H-M   'P 1'
_cell_length_a   6.95929462
_cell_length_b   6.95929283
_cell_length_c   3.80542700
_cell_angle_alpha   90.00000000
_cell_angle_beta   90.00000000
_cell_angle_gamma   120.38184609
_symmetry_Int_Tables_number   1
_chemical_formula_structural   CeP4Ru5Rh
_chemical_formula_sum   'Ce1 P4 Ru5 Rh1'
_cell_volume   158.99388377
_cell_formula_units_Z   1
loop_
 _symmetry_equiv_pos_site_id
 _symmetry_equiv_pos_as_xyz
  1  'x, y, z'
loop_
 _atom_site_type_symbol
 _atom_site_label
 _atom_site_symmetry_multiplicity
 _atom_site_fract_x
 _atom_site_fract_y
 _atom_site_fract_z
 _atom_site_occupancy
  Ce  Ce0  1  0.331773  0.668227  0.000000  1
  P  P1  1  0.670320  0.329680  0.000000  1
  P  P2  1  0.722828  0.865385  0.500000  1
  P  P3  1  0.134615  0.277172  0.500000  1
  P  P4  1  0.139090  0.860910  0.500000  1
  Ru  Ru5  1  0.270169  0.134255  0.000000  1
  Ru  Ru6  1  0.865745  0.729831  0.000000  1
  Ru  Ru7  1  0.867375  0.132625  0.000000  1
  Ru  Ru8  1  0.935779  0.467484  0.500000  1
  Ru  Ru9  1  0.532516  0.064221  0.500000  1
  Rh  Rh10  1  0.529788  0.470212  0.500000  1
