# generated using pymatgen
data_Tb3Sm(CuRh)2
_symmetry_space_group_name_H-M   'P 1'
_cell_length_a   4.39570000
_cell_length_b   5.58346119
_cell_length_c   7.14213496
_cell_angle_alpha   90.47813859
_cell_angle_beta   90.00000000
_cell_angle_gamma   90.00000000
_symmetry_Int_Tables_number   1
_chemical_formula_structural   Tb3Sm(CuRh)2
_chemical_formula_sum   'Tb3 Sm1 Cu2 Rh2'
_cell_volume   175.28488830
_cell_formula_units_Z   1
loop_
 _symmetry_equiv_pos_site_id
 _symmetry_equiv_pos_as_xyz
  1  'x, y, z'
loop_
 _atom_site_type_symbol
 _atom_site_label
 _atom_site_symmetry_multiplicity
 _atom_site_fract_x
 _atom_site_fract_y
 _atom_site_fract_z
 _atom_site_occupancy
  Tb  Tb0  1  0.250000  0.632433  0.685840  1
  Tb  Tb1  1  0.750000  0.132422  0.815773  1
  Tb  Tb2  1  0.250000  0.864468  0.174623  1
  Sm  Sm3  1  0.750000  0.363384  0.323605  1
  Cu  Cu4  1  0.250000  0.367766  0.035778  1
  Cu  Cu5  1  0.750000  0.866129  0.461925  1
  Rh  Rh6  1  0.250000  0.131545  0.540578  1
  Rh  Rh7  1  0.750000  0.641856  0.961878  1
