# generated using pymatgen
data_Er6Sc2PdAu9
_symmetry_space_group_name_H-M   'P 1'
_cell_length_a   7.83856481
_cell_length_b   7.83856487
_cell_length_c   7.83856400
_cell_angle_alpha   66.44747511
_cell_angle_beta   66.44746693
_cell_angle_gamma   66.44745808
_symmetry_Int_Tables_number   1
_chemical_formula_structural   Er6Sc2PdAu9
_chemical_formula_sum   'Er6 Sc2 Pd1 Au9'
_cell_volume   387.87784235
_cell_formula_units_Z   1
loop_
 _symmetry_equiv_pos_site_id
 _symmetry_equiv_pos_as_xyz
  1  'x, y, z'
loop_
 _atom_site_type_symbol
 _atom_site_label
 _atom_site_symmetry_multiplicity
 _atom_site_fract_x
 _atom_site_fract_y
 _atom_site_fract_z
 _atom_site_occupancy
  Er  Er0  1  0.895402  0.175052  0.633616  1
  Er  Er1  1  0.633616  0.895402  0.175052  1
  Er  Er2  1  0.175052  0.633616  0.895402  1
  Er  Er3  1  0.108539  0.799447  0.395135  1
  Er  Er4  1  0.395135  0.108539  0.799447  1
  Er  Er5  1  0.799447  0.395135  0.108539  1
  Sc  Sc6  1  0.659686  0.659686  0.659686  1
  Sc  Sc7  1  0.336976  0.336976  0.336976  1
  Pd  Pd8  1  0.804069  0.804069  0.804069  1
  Au  Au9  1  0.010549  0.010549  0.010549  1
  Au  Au10  1  0.498409  0.498409  0.498409  1
  Au  Au11  1  0.186384  0.186384  0.186384  1
  Au  Au12  1  0.935650  0.540321  0.325497  1
  Au  Au13  1  0.325497  0.935650  0.540321  1
  Au  Au14  1  0.540321  0.325497  0.935650  1
  Au  Au15  1  0.060859  0.442013  0.692395  1
  Au  Au16  1  0.692395  0.060859  0.442013  1
  Au  Au17  1  0.442013  0.692395  0.060859  1
