# generated using pymatgen
data_La4YInSn2
_symmetry_space_group_name_H-M   'P 1'
_cell_length_a   9.42126776
_cell_length_b   9.42126654
_cell_length_c   9.42126700
_cell_angle_alpha   96.46111768
_cell_angle_beta   96.46112296
_cell_angle_gamma   140.79976682
_symmetry_Int_Tables_number   1
_chemical_formula_structural   La4YInSn2
_chemical_formula_sum   'La8 Y2 In2 Sn4'
_cell_volume   497.90265241
_cell_formula_units_Z   2
loop_
 _symmetry_equiv_pos_site_id
 _symmetry_equiv_pos_as_xyz
  1  'x, y, z'
loop_
 _atom_site_type_symbol
 _atom_site_label
 _atom_site_symmetry_multiplicity
 _atom_site_fract_x
 _atom_site_fract_y
 _atom_site_fract_z
 _atom_site_occupancy
  La  La0  1  0.910838  0.224192  0.134930  1
  La  La1  1  0.224141  0.089222  0.313370  1
  La  La2  1  0.775859  0.910778  0.686630  1
  La  La3  1  0.089162  0.775808  0.865070  1
  La  La4  1  0.724148  0.410778  0.134919  1
  La  La5  1  0.275852  0.589222  0.865081  1
  La  La6  1  0.589262  0.724192  0.313355  1
  La  La7  1  0.410738  0.275808  0.686645  1
  Y  Y8  1  0.749985  0.250000  0.499985  1
  Y  Y9  1  0.250015  0.750000  0.500015  1
  In  In10  1  0.749988  0.750000  0.999988  1
  In  In11  1  0.250012  0.250000  0.000012  1
  Sn  Sn12  1  0.845707  0.654304  0.499994  1
  Sn  Sn13  1  0.654310  0.154304  0.808599  1
  Sn  Sn14  1  0.345690  0.845696  0.191401  1
  Sn  Sn15  1  0.154293  0.345696  0.500006  1
