# generated using pymatgen
data_YRuF7
_symmetry_space_group_name_H-M   'P 1'
_cell_length_a   5.55618800
_cell_length_b   8.89813597
_cell_length_c   12.00879689
_cell_angle_alpha   63.37729031
_cell_angle_beta   90.00000000
_cell_angle_gamma   90.00000000
_symmetry_Int_Tables_number   1
_chemical_formula_structural   YRuF7
_chemical_formula_sum   'Y4 Ru4 F28'
_cell_volume   530.76425360
_cell_formula_units_Z   4
loop_
 _symmetry_equiv_pos_site_id
 _symmetry_equiv_pos_as_xyz
  1  'x, y, z'
loop_
 _atom_site_type_symbol
 _atom_site_label
 _atom_site_symmetry_multiplicity
 _atom_site_fract_x
 _atom_site_fract_y
 _atom_site_fract_z
 _atom_site_occupancy
  Y  Y0  1  0.259389  0.811213  0.267498  1
  Y  Y1  1  0.740611  0.188787  0.732502  1
  Y  Y2  1  0.759389  0.188787  0.232502  1
  Y  Y3  1  0.240611  0.811213  0.767498  1
  Ru  Ru4  1  0.756717  0.727227  0.043581  1
  Ru  Ru5  1  0.243283  0.272773  0.956419  1
  Ru  Ru6  1  0.256717  0.272773  0.456419  1
  Ru  Ru7  1  0.743283  0.727227  0.543581  1
  F  F8  1  0.942296  0.706937  0.415851  1
  F  F9  1  0.057704  0.293063  0.584149  1
  F  F10  1  0.442296  0.293063  0.084149  1
  F  F11  1  0.557704  0.706937  0.915851  1
  F  F12  1  0.467610  0.729497  0.137726  1
  F  F13  1  0.532390  0.270503  0.862274  1
  F  F14  1  0.967610  0.270503  0.362274  1
  F  F15  1  0.032390  0.729497  0.637726  1
  F  F16  1  0.954429  0.746761  0.173349  1
  F  F17  1  0.045571  0.253239  0.826651  1
  F  F18  1  0.454429  0.253239  0.326651  1
  F  F19  1  0.545571  0.746761  0.673349  1
  F  F20  1  0.769166  0.487535  0.138394  1
  F  F21  1  0.230834  0.512465  0.861606  1
  F  F22  1  0.269166  0.512465  0.361606  1
  F  F23  1  0.730834  0.487535  0.638394  1
  F  F24  1  0.947204  0.279645  0.045642  1
  F  F25  1  0.052796  0.720355  0.954358  1
  F  F26  1  0.447204  0.720355  0.454358  1
  F  F27  1  0.552796  0.279645  0.545642  1
  F  F28  1  0.742120  0.965698  0.451765  1
  F  F29  1  0.257880  0.034302  0.548235  1
  F  F30  1  0.242120  0.034302  0.048235  1
  F  F31  1  0.757880  0.965698  0.951765  1
  F  F32  1  0.583660  0.970525  0.231367  1
  F  F33  1  0.416340  0.029475  0.768633  1
  F  F34  1  0.083660  0.029475  0.268633  1
  F  F35  1  0.916340  0.970525  0.731367  1
