# generated using pymatgen
data_YbEr15(ZrIr3)4
_symmetry_space_group_name_H-M   'P 1'
_cell_length_a   10.76951757
_cell_length_b   10.76756382
_cell_length_c   6.23859900
_cell_angle_alpha   89.99638741
_cell_angle_beta   90.06481130
_cell_angle_gamma   89.89151807
_symmetry_Int_Tables_number   1
_chemical_formula_structural   YbEr15(ZrIr3)4
_chemical_formula_sum   'Yb1 Er15 Zr4 Ir12'
_cell_volume   723.43533503
_cell_formula_units_Z   1
loop_
 _symmetry_equiv_pos_site_id
 _symmetry_equiv_pos_as_xyz
  1  'x, y, z'
loop_
 _atom_site_type_symbol
 _atom_site_label
 _atom_site_symmetry_multiplicity
 _atom_site_fract_x
 _atom_site_fract_y
 _atom_site_fract_z
 _atom_site_occupancy
  Yb  Yb0  1  0.287677  0.087258  0.368788  1
  Er  Er1  1  0.290828  0.913172  0.873683  1
  Er  Er2  1  0.709314  0.085286  0.873052  1
  Er  Er3  1  0.709755  0.913631  0.373616  1
  Er  Er4  1  0.586793  0.791490  0.872490  1
  Er  Er5  1  0.585246  0.209288  0.372456  1
  Er  Er6  1  0.413062  0.791766  0.372508  1
  Er  Er7  1  0.414311  0.209332  0.872844  1
  Er  Er8  1  0.209711  0.414364  0.629088  1
  Er  Er9  1  0.210100  0.586581  0.127136  1
  Er  Er10  1  0.790265  0.413095  0.127029  1
  Er  Er11  1  0.790254  0.586475  0.626970  1
  Er  Er12  1  0.913593  0.709762  0.127241  1
  Er  Er13  1  0.913437  0.289856  0.627322  1
  Er  Er14  1  0.086554  0.709651  0.627828  1
  Er  Er15  1  0.086957  0.290405  0.126774  1
  Zr  Zr16  1  0.001158  0.999408  0.499987  1
  Zr  Zr17  1  0.999416  0.000349  0.999242  1
  Zr  Zr18  1  0.500200  0.500525  0.999554  1
  Zr  Zr19  1  0.500264  0.500487  0.499879  1
  Ir  Ir20  1  0.854224  0.146387  0.250568  1
  Ir  Ir21  1  0.854211  0.853566  0.749459  1
  Ir  Ir22  1  0.144914  0.146806  0.757199  1
  Ir  Ir23  1  0.143000  0.848841  0.246153  1
  Ir  Ir24  1  0.645470  0.353472  0.749983  1
  Ir  Ir25  1  0.646040  0.646241  0.250165  1
  Ir  Ir26  1  0.354746  0.357892  0.247730  1
  Ir  Ir27  1  0.353679  0.646760  0.749360  1
  Ir  Ir28  1  0.502151  0.999241  0.120412  1
  Ir  Ir29  1  0.502591  0.999079  0.621331  1
  Ir  Ir30  1  0.999970  0.499772  0.880141  1
  Ir  Ir31  1  0.000108  0.499760  0.380012  1
