# generated using pymatgen
data_SmGd3(B10Rh)2
_symmetry_space_group_name_H-M   'P 1'
_cell_length_a   4.17927700
_cell_length_b   5.69961705
_cell_length_c   11.36814056
_cell_angle_alpha   89.98953131
_cell_angle_beta   90.00000000
_cell_angle_gamma   90.00000000
_symmetry_Int_Tables_number   1
_chemical_formula_structural   SmGd3(B10Rh)2
_chemical_formula_sum   'Sm1 Gd3 B20 Rh2'
_cell_volume   270.79226910
_cell_formula_units_Z   1
loop_
 _symmetry_equiv_pos_site_id
 _symmetry_equiv_pos_as_xyz
  1  'x, y, z'
loop_
 _atom_site_type_symbol
 _atom_site_label
 _atom_site_symmetry_multiplicity
 _atom_site_fract_x
 _atom_site_fract_y
 _atom_site_fract_z
 _atom_site_occupancy
  Sm  Sm0  1  0.500000  0.201805  0.363867  1
  Gd  Gd1  1  0.500000  0.798625  0.636261  1
  Gd  Gd2  1  0.500000  0.299305  0.864108  1
  Gd  Gd3  1  0.500000  0.700271  0.135819  1
  B  B4  1  0.000000  0.380909  0.042459  1
  B  B5  1  0.000000  0.618605  0.957022  1
  B  B6  1  0.000000  0.118949  0.543357  1
  B  B7  1  0.000000  0.881435  0.457303  1
  B  B8  1  0.000000  0.361644  0.197094  1
  B  B9  1  0.000000  0.638610  0.802535  1
  B  B10  1  0.000000  0.138624  0.697930  1
  B  B11  1  0.000000  0.861515  0.302353  1
  B  B12  1  0.000000  0.054038  0.192343  1
  B  B13  1  0.000000  0.945707  0.807496  1
  B  B14  1  0.000000  0.445945  0.693008  1
  B  B15  1  0.000000  0.554511  0.307096  1
  B  B16  1  0.301113  0.218174  0.117969  1
  B  B17  1  0.698752  0.781629  0.881325  1
  B  B18  1  0.301248  0.781629  0.881325  1
  B  B19  1  0.698789  0.282252  0.619227  1
  B  B20  1  0.698887  0.218174  0.117969  1
  B  B21  1  0.301065  0.717662  0.381259  1
  B  B22  1  0.698935  0.717662  0.381259  1
  B  B23  1  0.301211  0.282252  0.619227  1
  Rh  Rh24  1  0.000000  0.999331  0.999962  1
  Rh  Rh25  1  0.000000  0.500739  0.500428  1
