# generated using pymatgen
data_Cs2Ge3PbO9
_symmetry_space_group_name_H-M   'P 1'
_cell_length_a   7.52560200
_cell_length_b   7.52560156
_cell_length_c   10.85141000
_cell_angle_alpha   90.00000000
_cell_angle_beta   90.00000000
_cell_angle_gamma   120.00000194
_symmetry_Int_Tables_number   1
_chemical_formula_structural   Cs2Ge3PbO9
_chemical_formula_sum   'Cs4 Ge6 Pb2 O18'
_cell_volume   532.22989302
_cell_formula_units_Z   2
loop_
 _symmetry_equiv_pos_site_id
 _symmetry_equiv_pos_as_xyz
  1  'x, y, z'
loop_
 _atom_site_type_symbol
 _atom_site_label
 _atom_site_symmetry_multiplicity
 _atom_site_fract_x
 _atom_site_fract_y
 _atom_site_fract_z
 _atom_site_occupancy
  Cs  Cs0  1  0.333333  0.666667  0.060610  1
  Cs  Cs1  1  0.666667  0.333333  0.560610  1
  Cs  Cs2  1  0.666667  0.333333  0.939390  1
  Cs  Cs3  1  0.333333  0.666667  0.439390  1
  Ge  Ge4  1  0.380420  0.238550  0.250000  1
  Ge  Ge5  1  0.141870  0.380420  0.750000  1
  Ge  Ge6  1  0.238550  0.858130  0.750000  1
  Ge  Ge7  1  0.761450  0.141870  0.250000  1
  Ge  Ge8  1  0.858130  0.619580  0.250000  1
  Ge  Ge9  1  0.619580  0.761450  0.750000  1
  Pb  Pb10  1  0.000000  0.000000  0.000000  1
  Pb  Pb11  1  0.000000  0.000000  0.500000  1
  O  O12  1  0.493885  0.078169  0.250000  1
  O  O13  1  0.415716  0.493885  0.750000  1
  O  O14  1  0.078169  0.584284  0.750000  1
  O  O15  1  0.921831  0.415716  0.250000  1
  O  O16  1  0.584284  0.506115  0.250000  1
  O  O17  1  0.506115  0.921831  0.750000  1
  O  O18  1  0.258346  0.227349  0.110381  1
  O  O19  1  0.030996  0.258346  0.610381  1
  O  O20  1  0.227349  0.969004  0.610381  1
  O  O21  1  0.772651  0.030996  0.110381  1
  O  O22  1  0.969004  0.741654  0.110381  1
  O  O23  1  0.741654  0.772651  0.610381  1
  O  O24  1  0.741654  0.772651  0.889619  1
  O  O25  1  0.969004  0.741654  0.389619  1
  O  O26  1  0.772651  0.030996  0.389619  1
  O  O27  1  0.227349  0.969004  0.889619  1
  O  O28  1  0.030996  0.258346  0.889619  1
  O  O29  1  0.258346  0.227349  0.389619  1
