# generated using pymatgen
data_Ce3IrAu3
_symmetry_space_group_name_H-M   'P 1'
_cell_length_a   8.24646576
_cell_length_b   8.24646558
_cell_length_c   8.24646497
_cell_angle_alpha   114.41187494
_cell_angle_beta   114.41186732
_cell_angle_gamma   114.41184372
_symmetry_Int_Tables_number   1
_chemical_formula_structural   Ce3IrAu3
_chemical_formula_sum   'Ce6 Ir2 Au6'
_cell_volume   330.04860513
_cell_formula_units_Z   2
loop_
 _symmetry_equiv_pos_site_id
 _symmetry_equiv_pos_as_xyz
  1  'x, y, z'
loop_
 _atom_site_type_symbol
 _atom_site_label
 _atom_site_symmetry_multiplicity
 _atom_site_fract_x
 _atom_site_fract_y
 _atom_site_fract_z
 _atom_site_occupancy
  Ce  Ce0  1  0.042696  0.392464  0.282641  1
  Ce  Ce1  1  0.392464  0.282641  0.042696  1
  Ce  Ce2  1  0.717359  0.957304  0.607536  1
  Ce  Ce3  1  0.282641  0.042696  0.392464  1
  Ce  Ce4  1  0.607536  0.717359  0.957304  1
  Ce  Ce5  1  0.957304  0.607536  0.717359  1
  Ir  Ir6  1  0.000000  0.000000  0.000000  1
  Ir  Ir7  1  0.500000  0.500000  0.500000  1
  Au  Au8  1  0.433535  0.940119  0.774111  1
  Au  Au9  1  0.940119  0.774111  0.433535  1
  Au  Au10  1  0.225889  0.566465  0.059881  1
  Au  Au11  1  0.774111  0.433535  0.940119  1
  Au  Au12  1  0.059881  0.225889  0.566465  1
  Au  Au13  1  0.566465  0.059881  0.225889  1
