# generated using pymatgen
data_CaLa8Ir5Pt
_symmetry_space_group_name_H-M   'P 1'
_cell_length_a   7.81880370
_cell_length_b   7.82686743
_cell_length_c   7.79295900
_cell_angle_alpha   69.84245228
_cell_angle_beta   70.03928545
_cell_angle_gamma   69.53097792
_symmetry_Int_Tables_number   1
_chemical_formula_structural   CaLa8Ir5Pt
_chemical_formula_sum   'Ca1 La8 Ir5 Pt1'
_cell_volume   405.98420792
_cell_formula_units_Z   1
loop_
 _symmetry_equiv_pos_site_id
 _symmetry_equiv_pos_as_xyz
  1  'x, y, z'
loop_
 _atom_site_type_symbol
 _atom_site_label
 _atom_site_symmetry_multiplicity
 _atom_site_fract_x
 _atom_site_fract_y
 _atom_site_fract_z
 _atom_site_occupancy
  Ca  Ca0  1  0.000957  0.001690  0.996153  1
  La  La1  1  0.800835  0.801294  0.808884  1
  La  La2  1  0.192079  0.193672  0.188733  1
  La  La3  1  0.150303  0.397206  0.680673  1
  La  La4  1  0.670270  0.145505  0.387249  1
  La  La5  1  0.388909  0.679156  0.150327  1
  La  La6  1  0.856786  0.615384  0.318561  1
  La  La7  1  0.329587  0.846827  0.609438  1
  La  La8  1  0.602855  0.323975  0.861816  1
  Ir  Ir9  1  0.581478  0.951502  0.176486  1
  Ir  Ir10  1  0.186821  0.580285  0.950384  1
  Ir  Ir11  1  0.050030  0.820826  0.421285  1
  Ir  Ir12  1  0.418681  0.053312  0.814423  1
  Ir  Ir13  1  0.818580  0.416199  0.053222  1
  Pt  Pt14  1  0.951831  0.173169  0.582365  1
