# generated using pymatgen
data_Tb2HoPa(Pd2Pb)2
_symmetry_space_group_name_H-M   'P 1'
_cell_length_a   7.96084972
_cell_length_b   7.96085005
_cell_length_c   3.61388800
_cell_angle_alpha   90.00000000
_cell_angle_beta   90.00000000
_cell_angle_gamma   91.84201933
_symmetry_Int_Tables_number   1
_chemical_formula_structural   Tb2HoPa(Pd2Pb)2
_chemical_formula_sum   'Tb2 Ho1 Pa1 Pd4 Pb2'
_cell_volume   228.91227466
_cell_formula_units_Z   1
loop_
 _symmetry_equiv_pos_site_id
 _symmetry_equiv_pos_as_xyz
  1  'x, y, z'
loop_
 _atom_site_type_symbol
 _atom_site_label
 _atom_site_symmetry_multiplicity
 _atom_site_fract_x
 _atom_site_fract_y
 _atom_site_fract_z
 _atom_site_occupancy
  Tb  Tb0  1  0.170432  0.330333  0.500000  1
  Tb  Tb1  1  0.830333  0.670432  0.500000  1
  Ho  Ho2  1  0.327166  0.827166  0.500000  1
  Pa  Pa3  1  0.669003  0.169003  0.500000  1
  Pd  Pd4  1  0.383666  0.129553  0.000000  1
  Pd  Pd5  1  0.122387  0.622387  0.000000  1
  Pd  Pd6  1  0.629553  0.883666  0.000000  1
  Pd  Pd7  1  0.864946  0.364946  0.000000  1
  Pb  Pb8  1  0.006527  0.995987  0.000000  1
  Pb  Pb9  1  0.495987  0.506527  0.000000  1
