# generated using pymatgen
data_CaDy2Y5(B6Ru)4
_symmetry_space_group_name_H-M   'P 1'
_cell_length_a   3.67000600
_cell_length_b   9.16499336
_cell_length_c   11.55641202
_cell_angle_alpha   89.88831405
_cell_angle_beta   90.00000000
_cell_angle_gamma   90.00000000
_symmetry_Int_Tables_number   1
_chemical_formula_structural   CaDy2Y5(B6Ru)4
_chemical_formula_sum   'Ca1 Dy2 Y5 B24 Ru4'
_cell_volume   388.70588956
_cell_formula_units_Z   1
loop_
 _symmetry_equiv_pos_site_id
 _symmetry_equiv_pos_as_xyz
  1  'x, y, z'
loop_
 _atom_site_type_symbol
 _atom_site_label
 _atom_site_symmetry_multiplicity
 _atom_site_fract_x
 _atom_site_fract_y
 _atom_site_fract_z
 _atom_site_occupancy
  Ca  Ca0  1  0.000000  0.323205  0.413835  1
  Dy  Dy1  1  0.000000  0.442976  0.129716  1
  Dy  Dy2  1  0.000000  0.556180  0.872141  1
  Y  Y3  1  0.000000  0.675403  0.585065  1
  Y  Y4  1  0.000000  0.822854  0.086272  1
  Y  Y5  1  0.000000  0.177564  0.914557  1
  Y  Y6  1  0.000000  0.944060  0.371268  1
  Y  Y7  1  0.000000  0.057832  0.628044  1
  B  B8  1  0.500000  0.554546  0.432466  1
  B  B9  1  0.500000  0.446015  0.567829  1
  B  B10  1  0.500000  0.053408  0.066711  1
  B  B11  1  0.500000  0.945642  0.932245  1
  B  B12  1  0.500000  0.748075  0.419110  1
  B  B13  1  0.500000  0.252631  0.581341  1
  B  B14  1  0.500000  0.247200  0.080458  1
  B  B15  1  0.500000  0.752131  0.919473  1
  B  B16  1  0.500000  0.791179  0.266071  1
  B  B17  1  0.500000  0.210034  0.734179  1
  B  B18  1  0.500000  0.289610  0.232938  1
  B  B19  1  0.500000  0.709423  0.766596  1
  B  B20  1  0.500000  0.632435  0.186063  1
  B  B21  1  0.500000  0.368176  0.814992  1
  B  B22  1  0.500000  0.131309  0.313389  1
  B  B23  1  0.500000  0.868139  0.685512  1
  B  B24  1  0.500000  0.983748  0.211527  1
  B  B25  1  0.500000  0.016020  0.787500  1
  B  B26  1  0.500000  0.484804  0.287560  1
  B  B27  1  0.500000  0.515925  0.712885  1
  B  B28  1  0.500000  0.609030  0.030374  1
  B  B29  1  0.500000  0.391181  0.970359  1
  B  B30  1  0.500000  0.104994  0.470904  1
  B  B31  1  0.500000  0.893793  0.529338  1
  Ru  Ru32  1  0.000000  0.639852  0.320409  1
  Ru  Ru33  1  0.000000  0.362148  0.680680  1
  Ru  Ru34  1  0.000000  0.136645  0.177031  1
  Ru  Ru35  1  0.000000  0.861834  0.821161  1
