# generated using pymatgen
data_BaVPdSe4
_symmetry_space_group_name_H-M   'P 1'
_cell_length_a   8.41535100
_cell_length_b   8.41535100
_cell_length_c   11.72435400
_cell_angle_alpha   90.00000000
_cell_angle_beta   90.00000000
_cell_angle_gamma   90.00000000
_symmetry_Int_Tables_number   1
_chemical_formula_structural   BaVPdSe4
_chemical_formula_sum   'Ba4 V4 Pd4 Se16'
_cell_volume   830.29685450
_cell_formula_units_Z   4
loop_
 _symmetry_equiv_pos_site_id
 _symmetry_equiv_pos_as_xyz
  1  'x, y, z'
loop_
 _atom_site_type_symbol
 _atom_site_label
 _atom_site_symmetry_multiplicity
 _atom_site_fract_x
 _atom_site_fract_y
 _atom_site_fract_z
 _atom_site_occupancy
  Ba  Ba0  1  0.000000  0.500000  0.750000  1
  Ba  Ba1  1  0.500000  0.000000  0.750000  1
  Ba  Ba2  1  0.500000  0.000000  0.250000  1
  Ba  Ba3  1  0.000000  0.500000  0.250000  1
  V  V4  1  0.749408  0.749408  0.000000  1
  V  V5  1  0.250592  0.250592  0.000000  1
  V  V6  1  0.249408  0.750592  0.500000  1
  V  V7  1  0.750592  0.249408  0.500000  1
  Pd  Pd8  1  0.500000  0.500000  0.500000  1
  Pd  Pd9  1  0.000000  0.000000  0.000000  1
  Pd  Pd10  1  0.500000  0.500000  0.000000  1
  Pd  Pd11  1  0.000000  0.000000  0.500000  1
  Se  Se12  1  0.355710  0.355710  0.164756  1
  Se  Se13  1  0.644290  0.644290  0.164756  1
  Se  Se14  1  0.144290  0.855710  0.335244  1
  Se  Se15  1  0.855710  0.144290  0.335244  1
  Se  Se16  1  0.644290  0.644290  0.835244  1
  Se  Se17  1  0.355710  0.355710  0.835244  1
  Se  Se18  1  0.144290  0.855710  0.664756  1
  Se  Se19  1  0.855710  0.144290  0.664756  1
  Se  Se20  1  0.477753  0.201719  0.500000  1
  Se  Se21  1  0.522247  0.798281  0.500000  1
  Se  Se22  1  0.022247  0.701719  0.000000  1
  Se  Se23  1  0.977753  0.298281  0.000000  1
  Se  Se24  1  0.798281  0.522247  0.500000  1
  Se  Se25  1  0.201719  0.477753  0.500000  1
  Se  Se26  1  0.298281  0.977753  0.000000  1
  Se  Se27  1  0.701719  0.022247  0.000000  1
