# generated using pymatgen
data_TbCe9(Sn3Os)2
_symmetry_space_group_name_H-M   'P 1'
_cell_length_a   6.32349700
_cell_length_b   9.60437833
_cell_length_c   9.51470194
_cell_angle_alpha   120.31228132
_cell_angle_beta   90.00020297
_cell_angle_gamma   89.99960421
_symmetry_Int_Tables_number   1
_chemical_formula_structural   TbCe9(Sn3Os)2
_chemical_formula_sum   'Tb1 Ce9 Sn6 Os2'
_cell_volume   498.85825009
_cell_formula_units_Z   1
loop_
 _symmetry_equiv_pos_site_id
 _symmetry_equiv_pos_as_xyz
  1  'x, y, z'
loop_
 _atom_site_type_symbol
 _atom_site_label
 _atom_site_symmetry_multiplicity
 _atom_site_fract_x
 _atom_site_fract_y
 _atom_site_fract_z
 _atom_site_occupancy
  Tb  Tb0  1  0.749991  0.250826  0.000000  1
  Ce  Ce1  1  0.749978  0.757984  0.759037  1
  Ce  Ce2  1  0.749978  0.998946  0.240963  1
  Ce  Ce3  1  0.250016  0.753840  0.000000  1
  Ce  Ce4  1  0.249987  0.242589  0.243009  1
  Ce  Ce5  1  0.249987  0.999581  0.756991  1
  Ce  Ce6  1  0.499883  0.333017  0.665289  1
  Ce  Ce7  1  0.499883  0.667728  0.334711  1
  Ce  Ce8  1  0.000163  0.667704  0.334677  1
  Ce  Ce9  1  0.000163  0.333027  0.665323  1
  Sn  Sn10  1  0.750009  0.602312  0.000000  1
  Sn  Sn11  1  0.750007  0.394904  0.393021  1
  Sn  Sn12  1  0.750007  0.001883  0.606979  1
  Sn  Sn13  1  0.250031  0.394494  0.000000  1
  Sn  Sn14  1  0.249992  0.603620  0.603199  1
  Sn  Sn15  1  0.249992  0.000420  0.396801  1
  Os  Os16  1  0.498306  0.998566  0.000000  1
  Os  Os17  1  0.001631  0.998556  0.000000  1
