# generated using pymatgen
data_Zr4AlCoTc6
_symmetry_space_group_name_H-M   'P 1'
_cell_length_a   5.19837400
_cell_length_b   5.19837218
_cell_length_c   8.63649000
_cell_angle_alpha   90.00000000
_cell_angle_beta   90.00000000
_cell_angle_gamma   119.99998610
_symmetry_Int_Tables_number   1
_chemical_formula_structural   Zr4AlCoTc6
_chemical_formula_sum   'Zr4 Al1 Co1 Tc6'
_cell_volume   202.11700724
_cell_formula_units_Z   1
loop_
 _symmetry_equiv_pos_site_id
 _symmetry_equiv_pos_as_xyz
  1  'x, y, z'
loop_
 _atom_site_type_symbol
 _atom_site_label
 _atom_site_symmetry_multiplicity
 _atom_site_fract_x
 _atom_site_fract_y
 _atom_site_fract_z
 _atom_site_occupancy
  Zr  Zr0  1  0.333333  0.666667  0.430925  1
  Zr  Zr1  1  0.666667  0.333333  0.935556  1
  Zr  Zr2  1  0.666667  0.333333  0.569075  1
  Zr  Zr3  1  0.333333  0.666667  0.064444  1
  Al  Al4  1  0.000000  0.000000  0.500000  1
  Co  Co5  1  0.000000  0.000000  0.000000  1
  Tc  Tc6  1  0.169859  0.339715  0.753226  1
  Tc  Tc7  1  0.830141  0.169859  0.246774  1
  Tc  Tc8  1  0.339715  0.169859  0.246774  1
  Tc  Tc9  1  0.660285  0.830141  0.753226  1
  Tc  Tc10  1  0.830141  0.660285  0.246774  1
  Tc  Tc11  1  0.169859  0.830141  0.753226  1
