# generated using pymatgen
data_Lu3Sc7Tl4(InRh)4
_symmetry_space_group_name_H-M   'P 1'
_cell_length_a   3.45862900
_cell_length_b   7.79499617
_cell_length_c   17.76737102
_cell_angle_alpha   90.18108918
_cell_angle_beta   90.00000000
_cell_angle_gamma   90.00000000
_symmetry_Int_Tables_number   1
_chemical_formula_structural   Lu3Sc7Tl4(InRh)4
_chemical_formula_sum   'Lu3 Sc7 Tl4 In4 Rh4'
_cell_volume   479.00592650
_cell_formula_units_Z   1
loop_
 _symmetry_equiv_pos_site_id
 _symmetry_equiv_pos_as_xyz
  1  'x, y, z'
loop_
 _atom_site_type_symbol
 _atom_site_label
 _atom_site_symmetry_multiplicity
 _atom_site_fract_x
 _atom_site_fract_y
 _atom_site_fract_z
 _atom_site_occupancy
  Lu  Lu0  1  0.000000  0.748225  0.781817  1
  Lu  Lu1  1  0.000000  0.253238  0.218965  1
  Lu  Lu2  1  0.000000  0.247910  0.717981  1
  Sc  Sc3  1  0.000000  0.000304  0.000973  1
  Sc  Sc4  1  0.000000  0.499593  0.499730  1
  Sc  Sc5  1  0.000000  0.753192  0.280560  1
  Sc  Sc6  1  0.000000  0.879436  0.587101  1
  Sc  Sc7  1  0.000000  0.118576  0.410539  1
  Sc  Sc8  1  0.000000  0.380176  0.912289  1
  Sc  Sc9  1  0.000000  0.620782  0.089324  1
  Tl  Tl10  1  0.500000  0.795611  0.436639  1
  Tl  Tl11  1  0.500000  0.201308  0.559474  1
  Tl  Tl12  1  0.500000  0.298236  0.061360  1
  Tl  Tl13  1  0.500000  0.702238  0.940409  1
  In  In14  1  0.500000  0.922393  0.149424  1
  In  In15  1  0.500000  0.075362  0.852954  1
  In  In16  1  0.500000  0.428759  0.352288  1
  In  In17  1  0.500000  0.575433  0.646982  1
  Rh  Rh18  1  0.500000  0.959163  0.694473  1
  Rh  Rh19  1  0.500000  0.034894  0.304321  1
  Rh  Rh20  1  0.500000  0.459261  0.805080  1
  Rh  Rh21  1  0.500000  0.545912  0.197318  1
