# generated using pymatgen
data_Rb4In5(GaAu4)3
_symmetry_space_group_name_H-M   'P 1'
_cell_length_a   6.54124971
_cell_length_b   7.10272330
_cell_length_c   13.45310687
_cell_angle_alpha   90.10382510
_cell_angle_beta   90.42349173
_cell_angle_gamma   90.26052843
_symmetry_Int_Tables_number   1
_chemical_formula_structural   Rb4In5(GaAu4)3
_chemical_formula_sum   'Rb4 In5 Ga3 Au12'
_cell_volume   625.01598427
_cell_formula_units_Z   1
loop_
 _symmetry_equiv_pos_site_id
 _symmetry_equiv_pos_as_xyz
  1  'x, y, z'
loop_
 _atom_site_type_symbol
 _atom_site_label
 _atom_site_symmetry_multiplicity
 _atom_site_fract_x
 _atom_site_fract_y
 _atom_site_fract_z
 _atom_site_occupancy
  Rb  Rb0  1  0.252541  0.106808  0.070482  1
  Rb  Rb1  1  0.245308  0.393435  0.573710  1
  Rb  Rb2  1  0.757806  0.893435  0.928205  1
  Rb  Rb3  1  0.746345  0.608119  0.426188  1
  In  In4  1  0.001444  0.894766  0.660503  1
  In  In5  1  0.501455  0.606413  0.154873  1
  In  In6  1  0.502603  0.102522  0.333250  1
  In  In7  1  0.001011  0.395961  0.836600  1
  In  In8  1  0.001082  0.105115  0.358802  1
  Ga  Ga9  1  0.493026  0.400933  0.851295  1
  Ga  Ga10  1  0.505004  0.897130  0.654687  1
  Ga  Ga11  1  0.998600  0.599972  0.151923  1
  Au  Au12  1  0.281636  0.111379  0.789475  1
  Au  Au13  1  0.236625  0.395714  0.286293  1
  Au  Au14  1  0.782360  0.888535  0.204854  1
  Au  Au15  1  0.720019  0.610690  0.711824  1
  Au  Au16  1  0.293537  0.708997  0.796377  1
  Au  Au17  1  0.226108  0.789111  0.295466  1
  Au  Au18  1  0.785081  0.292300  0.199203  1
  Au  Au19  1  0.710141  0.208146  0.710071  1
  Au  Au20  1  0.225100  0.597826  0.994789  1
  Au  Au21  1  0.270964  0.896733  0.498470  1
  Au  Au22  1  0.739167  0.402741  0.000967  1
  Au  Au23  1  0.723038  0.093219  0.511694  1
