# generated using pymatgen
data_Lu12TcNi4Sn
_symmetry_space_group_name_H-M   'P 1'
_cell_length_a   8.17682586
_cell_length_b   8.17682614
_cell_length_c   8.17682612
_cell_angle_alpha   111.92641987
_cell_angle_beta   110.06135610
_cell_angle_gamma   106.47267969
_symmetry_Int_Tables_number   1
_chemical_formula_structural   Lu12TcNi4Sn
_chemical_formula_sum   'Lu12 Tc1 Ni4 Sn1'
_cell_volume   419.87843115
_cell_formula_units_Z   1
loop_
 _symmetry_equiv_pos_site_id
 _symmetry_equiv_pos_as_xyz
  1  'x, y, z'
loop_
 _atom_site_type_symbol
 _atom_site_label
 _atom_site_symmetry_multiplicity
 _atom_site_fract_x
 _atom_site_fract_y
 _atom_site_fract_z
 _atom_site_occupancy
  Lu  Lu0  1  0.678652  0.871558  0.192906  1
  Lu  Lu1  1  0.321348  0.514253  0.192906  1
  Lu  Lu2  1  0.819680  0.779265  0.598946  1
  Lu  Lu3  1  0.180320  0.779265  0.959585  1
  Lu  Lu4  1  0.819680  0.220735  0.040415  1
  Lu  Lu5  1  0.180320  0.220735  0.401054  1
  Lu  Lu6  1  0.678652  0.485747  0.807094  1
  Lu  Lu7  1  0.321348  0.128442  0.807094  1
  Lu  Lu8  1  0.584419  0.276005  0.308413  1
  Lu  Lu9  1  0.415581  0.723995  0.691587  1
  Lu  Lu10  1  0.032408  0.723995  0.308413  1
  Lu  Lu11  1  0.967592  0.276005  0.691587  1
  Tc  Tc12  1  0.000000  0.500000  0.500000  1
  Ni  Ni13  1  0.353711  0.500000  0.853711  1
  Ni  Ni14  1  0.646289  0.500000  0.146289  1
  Ni  Ni15  1  0.879834  0.879834  0.000000  1
  Ni  Ni16  1  0.120166  0.120166  0.000000  1
  Sn  Sn17  1  0.500000  0.000000  0.500000  1
