# generated using pymatgen
data_Zr4Al2Re5W
_symmetry_space_group_name_H-M   'P 1'
_cell_length_a   5.28761264
_cell_length_b   5.28761319
_cell_length_c   8.71641700
_cell_angle_alpha   90.00000000
_cell_angle_beta   90.00000000
_cell_angle_gamma   119.97304798
_symmetry_Int_Tables_number   1
_chemical_formula_structural   Zr4Al2Re5W
_chemical_formula_sum   'Zr4 Al2 Re5 W1'
_cell_volume   211.10855081
_cell_formula_units_Z   1
loop_
 _symmetry_equiv_pos_site_id
 _symmetry_equiv_pos_as_xyz
  1  'x, y, z'
loop_
 _atom_site_type_symbol
 _atom_site_label
 _atom_site_symmetry_multiplicity
 _atom_site_fract_x
 _atom_site_fract_y
 _atom_site_fract_z
 _atom_site_occupancy
  Zr  Zr0  1  0.333361  0.666639  0.437231  1
  Zr  Zr1  1  0.666480  0.333520  0.565399  1
  Zr  Zr2  1  0.666480  0.333520  0.934601  1
  Zr  Zr3  1  0.333361  0.666639  0.062769  1
  Al  Al4  1  0.001098  0.998902  0.501131  1
  Al  Al5  1  0.001098  0.998902  0.998869  1
  Re  Re6  1  0.830589  0.661639  0.250000  1
  Re  Re7  1  0.338361  0.169411  0.250000  1
  Re  Re8  1  0.170230  0.829770  0.750000  1
  Re  Re9  1  0.169551  0.339893  0.750000  1
  Re  Re10  1  0.660107  0.830449  0.750000  1
  W  W11  1  0.829286  0.170714  0.250000  1
