# generated using pymatgen
data_Y3Ho2Pb3
_symmetry_space_group_name_H-M   'P 1'
_cell_length_a   9.05395900
_cell_length_b   9.05395968
_cell_length_c   6.64344000
_cell_angle_alpha   90.00000000
_cell_angle_beta   90.00000000
_cell_angle_gamma   120.00000115
_symmetry_Int_Tables_number   1
_chemical_formula_structural   Y3Ho2Pb3
_chemical_formula_sum   'Y6 Ho4 Pb6'
_cell_volume   471.62924100
_cell_formula_units_Z   2
loop_
 _symmetry_equiv_pos_site_id
 _symmetry_equiv_pos_as_xyz
  1  'x, y, z'
loop_
 _atom_site_type_symbol
 _atom_site_label
 _atom_site_symmetry_multiplicity
 _atom_site_fract_x
 _atom_site_fract_y
 _atom_site_fract_z
 _atom_site_occupancy
  Y  Y0  1  0.237804  0.000000  0.250000  1
  Y  Y1  1  0.237804  0.237804  0.750000  1
  Y  Y2  1  0.000000  0.762196  0.750000  1
  Y  Y3  1  0.000000  0.237804  0.250000  1
  Y  Y4  1  0.762196  0.762196  0.250000  1
  Y  Y5  1  0.762196  0.000000  0.750000  1
  Ho  Ho6  1  0.333333  0.666667  0.000000  1
  Ho  Ho7  1  0.666667  0.333333  0.500000  1
  Ho  Ho8  1  0.666667  0.333333  0.000000  1
  Ho  Ho9  1  0.333333  0.666667  0.500000  1
  Pb  Pb10  1  0.604733  0.000000  0.250000  1
  Pb  Pb11  1  0.604733  0.604733  0.750000  1
  Pb  Pb12  1  0.000000  0.395267  0.750000  1
  Pb  Pb13  1  0.000000  0.604733  0.250000  1
  Pb  Pb14  1  0.395267  0.395267  0.250000  1
  Pb  Pb15  1  0.395267  0.000000  0.750000  1
