# generated using pymatgen
data_DyThMnN3
_symmetry_space_group_name_H-M   'P 1'
_cell_length_a   3.47362466
_cell_length_b   3.82084408
_cell_length_c   6.75136739
_cell_angle_alpha   106.43743285
_cell_angle_beta   104.90716781
_cell_angle_gamma   90.00000350
_symmetry_Int_Tables_number   1
_chemical_formula_structural   DyThMnN3
_chemical_formula_sum   'Dy1 Th1 Mn1 N3'
_cell_volume   82.79406259
_cell_formula_units_Z   1
loop_
 _symmetry_equiv_pos_site_id
 _symmetry_equiv_pos_as_xyz
  1  'x, y, z'
loop_
 _atom_site_type_symbol
 _atom_site_label
 _atom_site_symmetry_multiplicity
 _atom_site_fract_x
 _atom_site_fract_y
 _atom_site_fract_z
 _atom_site_occupancy
  Dy  Dy0  1  0.642821  0.642818  0.285639  1
  Th  Th1  1  0.353044  0.353043  0.706087  1
  Mn  Mn2  1  0.006087  0.006087  0.012174  1
  N  N3  1  0.000102  0.500100  0.000204  1
  N  N4  1  0.162518  0.162518  0.325036  1
  N  N5  1  0.835430  0.835428  0.670860  1
