# generated using pymatgen
data_Y2Er7ScCd3Ru
_symmetry_space_group_name_H-M   'P 1'
_cell_length_a   9.47553219
_cell_length_b   9.47228350
_cell_length_c   9.71122900
_cell_angle_alpha   90.00000000
_cell_angle_beta   90.00000000
_cell_angle_gamma   119.98865812
_symmetry_Int_Tables_number   1
_chemical_formula_structural   Y2Er7ScCd3Ru
_chemical_formula_sum   'Y4 Er14 Sc2 Cd6 Ru2'
_cell_volume   754.94054343
_cell_formula_units_Z   2
loop_
 _symmetry_equiv_pos_site_id
 _symmetry_equiv_pos_as_xyz
  1  'x, y, z'
loop_
 _atom_site_type_symbol
 _atom_site_label
 _atom_site_symmetry_multiplicity
 _atom_site_fract_x
 _atom_site_fract_y
 _atom_site_fract_z
 _atom_site_occupancy
  Y  Y0  1  0.918029  0.459014  0.250000  1
  Y  Y1  1  0.459236  0.540666  0.750000  1
  Y  Y2  1  0.459236  0.918570  0.750000  1
  Y  Y3  1  0.081331  0.540666  0.750000  1
  Er  Er4  1  0.208815  0.791665  0.440530  1
  Er  Er5  1  0.208815  0.417149  0.440530  1
  Er  Er6  1  0.582909  0.791455  0.440357  1
  Er  Er7  1  0.791273  0.208424  0.559171  1
  Er  Er8  1  0.791273  0.582849  0.559171  1
  Er  Er9  1  0.417164  0.208582  0.559031  1
  Er  Er10  1  0.791273  0.208424  0.940829  1
  Er  Er11  1  0.791273  0.582849  0.940829  1
  Er  Er12  1  0.417164  0.208582  0.940969  1
  Er  Er13  1  0.208815  0.791665  0.059470  1
  Er  Er14  1  0.208815  0.417149  0.059470  1
  Er  Er15  1  0.582909  0.791455  0.059643  1
  Er  Er16  1  0.540665  0.459213  0.250000  1
  Er  Er17  1  0.540665  0.081451  0.250000  1
  Sc  Sc18  1  0.000036  0.000018  0.500077  1
  Sc  Sc19  1  0.000036  0.000018  0.999923  1
  Cd  Cd20  1  0.888552  0.110918  0.250000  1
  Cd  Cd21  1  0.888552  0.777636  0.250000  1
  Cd  Cd22  1  0.222739  0.111371  0.250000  1
  Cd  Cd23  1  0.111156  0.888981  0.750000  1
  Cd  Cd24  1  0.111156  0.222173  0.750000  1
  Cd  Cd25  1  0.777814  0.888906  0.750000  1
  Ru  Ru26  1  0.333535  0.666768  0.250000  1
  Ru  Ru27  1  0.666767  0.333383  0.750000  1
