# generated using pymatgen
data_Tm16Cd3InRu4
_symmetry_space_group_name_H-M   'P 1'
_cell_length_a   9.53993263
_cell_length_b   9.54013104
_cell_length_c   9.50851779
_cell_angle_alpha   59.37258547
_cell_angle_beta   59.37240648
_cell_angle_gamma   59.55158610
_symmetry_Int_Tables_number   1
_chemical_formula_structural   Tm16Cd3InRu4
_chemical_formula_sum   'Tm16 Cd3 In1 Ru4'
_cell_volume   604.01467379
_cell_formula_units_Z   1
loop_
 _symmetry_equiv_pos_site_id
 _symmetry_equiv_pos_as_xyz
  1  'x, y, z'
loop_
 _atom_site_type_symbol
 _atom_site_label
 _atom_site_symmetry_multiplicity
 _atom_site_fract_x
 _atom_site_fract_y
 _atom_site_fract_z
 _atom_site_occupancy
  Tm  Tm0  1  0.059633  0.059636  0.441872  1
  Tm  Tm1  1  0.440808  0.059388  0.442057  1
  Tm  Tm2  1  0.059681  0.439151  0.062514  1
  Tm  Tm3  1  0.040901  0.652423  0.654236  1
  Tm  Tm4  1  0.440136  0.440135  0.061243  1
  Tm  Tm5  1  0.652423  0.040895  0.654234  1
  Tm  Tm6  1  0.189015  0.813893  0.188996  1
  Tm  Tm7  1  0.190502  0.190500  0.812934  1
  Tm  Tm8  1  0.812069  0.812074  0.188025  1
  Tm  Tm9  1  0.439148  0.059680  0.062514  1
  Tm  Tm10  1  0.813892  0.189014  0.188998  1
  Tm  Tm11  1  0.059380  0.440817  0.442061  1
  Tm  Tm12  1  0.809912  0.189855  0.811019  1
  Tm  Tm13  1  0.189857  0.809915  0.811017  1
  Tm  Tm14  1  0.653729  0.653729  0.038032  1
  Tm  Tm15  1  0.649704  0.649710  0.650924  1
  Cd  Cd16  1  0.420341  0.420342  0.416872  1
  Cd  Cd17  1  0.742723  0.420353  0.417838  1
  Cd  Cd18  1  0.420350  0.742724  0.417840  1
  In  In19  1  0.418859  0.418856  0.744074  1
  Ru  Ru20  1  0.856938  0.856923  0.421493  1
  Ru  Ru21  1  0.861469  0.861464  0.858539  1
  Ru  Ru22  1  0.420759  0.857766  0.856337  1
  Ru  Ru23  1  0.857771  0.420757  0.856329  1
