# generated using pymatgen
data_Tb5PaAl18
_symmetry_space_group_name_H-M   'P 1'
_cell_length_a   14.62231479
_cell_length_b   14.62231531
_cell_length_c   14.62231564
_cell_angle_alpha   24.46178195
_cell_angle_beta   24.46177864
_cell_angle_gamma   24.46178273
_symmetry_Int_Tables_number   1
_chemical_formula_structural   Tb5PaAl18
_chemical_formula_sum   'Tb5 Pa1 Al18'
_cell_volume   471.30670285
_cell_formula_units_Z   1
loop_
 _symmetry_equiv_pos_site_id
 _symmetry_equiv_pos_as_xyz
  1  'x, y, z'
loop_
 _atom_site_type_symbol
 _atom_site_label
 _atom_site_symmetry_multiplicity
 _atom_site_fract_x
 _atom_site_fract_y
 _atom_site_fract_z
 _atom_site_occupancy
  Tb  Tb0  1  0.890680  0.890680  0.890680  1
  Tb  Tb1  1  0.391185  0.391185  0.391185  1
  Tb  Tb2  1  0.999730  0.999730  0.999730  1
  Tb  Tb3  1  0.499949  0.499949  0.499949  1
  Tb  Tb4  1  0.609206  0.609206  0.609206  1
  Pa  Pa5  1  0.108732  0.108732  0.108732  1
  Al  Al6  1  0.925969  0.370494  0.370494  1
  Al  Al7  1  0.422840  0.870488  0.870488  1
  Al  Al8  1  0.370494  0.370494  0.925969  1
  Al  Al9  1  0.870488  0.870488  0.422840  1
  Al  Al10  1  0.370494  0.925969  0.370494  1
  Al  Al11  1  0.870488  0.422840  0.870488  1
  Al  Al12  1  0.574800  0.129883  0.129883  1
  Al  Al13  1  0.075145  0.629978  0.629978  1
  Al  Al14  1  0.129883  0.129883  0.574800  1
  Al  Al15  1  0.629978  0.629978  0.075145  1
  Al  Al16  1  0.129883  0.574800  0.129883  1
  Al  Al17  1  0.629978  0.075145  0.629978  1
  Al  Al18  1  0.499313  0.499313  0.000522  1
  Al  Al19  1  0.002573  0.002573  0.495781  1
  Al  Al20  1  0.499313  0.000522  0.499313  1
  Al  Al21  1  0.002573  0.495781  0.002573  1
  Al  Al22  1  0.000522  0.499313  0.499313  1
  Al  Al23  1  0.495781  0.002573  0.002573  1
