# generated using pymatgen
data_Nd3Er4Sn23Ir6
_symmetry_space_group_name_H-M   'P 1'
_cell_length_a   9.90100595
_cell_length_b   9.90100648
_cell_length_c   10.13987600
_cell_angle_alpha   89.87138105
_cell_angle_beta   90.12861896
_cell_angle_gamma   119.75432390
_symmetry_Int_Tables_number   1
_chemical_formula_structural   Nd3Er4Sn23Ir6
_chemical_formula_sum   'Nd3 Er4 Sn23 Ir6'
_cell_volume   862.95927721
_cell_formula_units_Z   1
loop_
 _symmetry_equiv_pos_site_id
 _symmetry_equiv_pos_as_xyz
  1  'x, y, z'
loop_
 _atom_site_type_symbol
 _atom_site_label
 _atom_site_symmetry_multiplicity
 _atom_site_fract_x
 _atom_site_fract_y
 _atom_site_fract_z
 _atom_site_occupancy
  Nd  Nd0  1  0.000000  0.000000  0.000000  1
  Nd  Nd1  1  0.478982  0.521018  0.307913  1
  Nd  Nd2  1  0.521018  0.478982  0.692087  1
  Er  Er3  1  0.483278  0.963966  0.305622  1
  Er  Er4  1  0.516722  0.036034  0.694378  1
  Er  Er5  1  0.036034  0.516722  0.305622  1
  Er  Er6  1  0.963966  0.483278  0.694378  1
  Sn  Sn7  1  0.352134  0.998307  0.999429  1
  Sn  Sn8  1  0.647866  0.001693  0.000571  1
  Sn  Sn9  1  0.998307  0.352134  0.000571  1
  Sn  Sn10  1  0.001693  0.647866  0.999429  1
  Sn  Sn11  1  0.648136  0.648136  0.000000  1
  Sn  Sn12  1  0.351864  0.351864  0.000000  1
  Sn  Sn13  1  0.333631  0.666369  0.827243  1
  Sn  Sn14  1  0.666369  0.333631  0.172757  1
  Sn  Sn15  1  0.000000  0.000000  0.500000  1
  Sn  Sn16  1  0.777568  0.222432  0.458549  1
  Sn  Sn17  1  0.222432  0.777568  0.541451  1
  Sn  Sn18  1  0.783233  0.556704  0.457001  1
  Sn  Sn19  1  0.216767  0.443296  0.542999  1
  Sn  Sn20  1  0.443296  0.216767  0.457001  1
  Sn  Sn21  1  0.556704  0.783233  0.542999  1
  Sn  Sn22  1  0.329392  0.670608  0.122020  1
  Sn  Sn23  1  0.670608  0.329392  0.877980  1
  Sn  Sn24  1  0.120322  0.879678  0.284239  1
  Sn  Sn25  1  0.879678  0.120322  0.715761  1
  Sn  Sn26  1  0.117086  0.235265  0.283380  1
  Sn  Sn27  1  0.882914  0.764735  0.716620  1
  Sn  Sn28  1  0.764735  0.882914  0.283380  1
  Sn  Sn29  1  0.235265  0.117086  0.716620  1
  Ir  Ir30  1  0.829499  0.170501  0.200794  1
  Ir  Ir31  1  0.170501  0.829499  0.799206  1
  Ir  Ir32  1  0.834092  0.661367  0.198715  1
  Ir  Ir33  1  0.165908  0.338633  0.801285  1
  Ir  Ir34  1  0.338633  0.165908  0.198715  1
  Ir  Ir35  1  0.661367  0.834092  0.801285  1
