# generated using pymatgen
data_Rb4Lu5Np3Se16
_symmetry_space_group_name_H-M   'P 1'
_cell_length_a   7.06135820
_cell_length_b   8.11323588
_cell_length_c   17.40787900
_cell_angle_alpha   90.00473861
_cell_angle_beta   89.92408550
_cell_angle_gamma   89.97374974
_symmetry_Int_Tables_number   1
_chemical_formula_structural   Rb4Lu5Np3Se16
_chemical_formula_sum   'Rb4 Lu5 Np3 Se16'
_cell_volume   997.30449370
_cell_formula_units_Z   1
loop_
 _symmetry_equiv_pos_site_id
 _symmetry_equiv_pos_as_xyz
  1  'x, y, z'
loop_
 _atom_site_type_symbol
 _atom_site_label
 _atom_site_symmetry_multiplicity
 _atom_site_fract_x
 _atom_site_fract_y
 _atom_site_fract_z
 _atom_site_occupancy
  Rb  Rb0  1  0.347108  0.001605  0.001868  1
  Rb  Rb1  1  0.652901  0.498384  0.498131  1
  Rb  Rb2  1  0.028038  0.001068  0.498655  1
  Rb  Rb3  1  0.971959  0.498934  0.001341  1
  Lu  Lu4  1  0.001263  0.007943  0.248001  1
  Lu  Lu5  1  0.000229  0.000406  0.752076  1
  Lu  Lu6  1  0.998718  0.492035  0.251990  1
  Lu  Lu7  1  0.999778  0.499601  0.747923  1
  Lu  Lu8  1  0.499966  0.250010  0.250005  1
  Np  Np9  1  0.500015  0.749987  0.750007  1
  Np  Np10  1  0.500029  0.750054  0.249985  1
  Np  Np11  1  0.500008  0.250004  0.750005  1
  Se  Se12  1  0.834769  0.247727  0.341701  1
  Se  Se13  1  0.834820  0.751470  0.659141  1
  Se  Se14  1  0.174027  0.748603  0.160858  1
  Se  Se15  1  0.166209  0.251990  0.840954  1
  Se  Se16  1  0.165214  0.252275  0.158299  1
  Se  Se17  1  0.165182  0.748533  0.840854  1
  Se  Se18  1  0.825970  0.751383  0.339140  1
  Se  Se19  1  0.833793  0.248005  0.659047  1
  Se  Se20  1  0.663781  0.995259  0.160614  1
  Se  Se21  1  0.668243  0.000351  0.841209  1
  Se  Se22  1  0.336194  0.504749  0.339402  1
  Se  Se23  1  0.331767  0.499643  0.658794  1
  Se  Se24  1  0.334264  0.996655  0.338229  1
  Se  Se25  1  0.330138  0.000339  0.660088  1
  Se  Se26  1  0.665738  0.503335  0.161762  1
  Se  Se27  1  0.669879  0.499654  0.839921  1
