# generated using pymatgen
data_HfZr(PRh)2
_symmetry_space_group_name_H-M   'P 1'
_cell_length_a   3.80781600
_cell_length_b   6.51673600
_cell_length_c   7.45358800
_cell_angle_alpha   90.00000000
_cell_angle_beta   90.00000000
_cell_angle_gamma   90.00000000
_symmetry_Int_Tables_number   1
_chemical_formula_structural   HfZr(PRh)2
_chemical_formula_sum   'Hf2 Zr2 P4 Rh4'
_cell_volume   184.95729502
_cell_formula_units_Z   2
loop_
 _symmetry_equiv_pos_site_id
 _symmetry_equiv_pos_as_xyz
  1  'x, y, z'
loop_
 _atom_site_type_symbol
 _atom_site_label
 _atom_site_symmetry_multiplicity
 _atom_site_fract_x
 _atom_site_fract_y
 _atom_site_fract_z
 _atom_site_occupancy
  Hf  Hf0  1  0.250000  0.027950  0.819802  1
  Hf  Hf1  1  0.250000  0.527950  0.680198  1
  Zr  Zr2  1  0.750000  0.972391  0.179531  1
  Zr  Zr3  1  0.750000  0.472391  0.320469  1
  P  P4  1  0.250000  0.759484  0.377027  1
  P  P5  1  0.250000  0.259484  0.122973  1
  P  P6  1  0.750000  0.241532  0.623595  1
  P  P7  1  0.750000  0.741532  0.876405  1
  Rh  Rh8  1  0.250000  0.144803  0.440597  1
  Rh  Rh9  1  0.250000  0.644803  0.059403  1
  Rh  Rh10  1  0.750000  0.853840  0.565934  1
  Rh  Rh11  1  0.750000  0.353840  0.934066  1
