# generated using pymatgen
data_DyEr15In3HgIr4
_symmetry_space_group_name_H-M   'P 1'
_cell_length_a   9.56559387
_cell_length_b   9.57656932
_cell_length_c   9.57936000
_cell_angle_alpha   59.98901016
_cell_angle_beta   59.95105437
_cell_angle_gamma   59.96538387
_symmetry_Int_Tables_number   1
_chemical_formula_structural   DyEr15In3HgIr4
_chemical_formula_sum   'Dy1 Er15 In3 Hg1 Ir4'
_cell_volume   620.05867286
_cell_formula_units_Z   1
loop_
 _symmetry_equiv_pos_site_id
 _symmetry_equiv_pos_as_xyz
  1  'x, y, z'
loop_
 _atom_site_type_symbol
 _atom_site_label
 _atom_site_symmetry_multiplicity
 _atom_site_fract_x
 _atom_site_fract_y
 _atom_site_fract_z
 _atom_site_occupancy
  Dy  Dy0  1  0.058481  0.063579  0.438972  1
  Er  Er1  1  0.649483  0.049470  0.650514  1
  Er  Er2  1  0.191560  0.809171  0.190517  1
  Er  Er3  1  0.438342  0.061217  0.439419  1
  Er  Er4  1  0.191144  0.191111  0.808865  1
  Er  Er5  1  0.650092  0.650254  0.651216  1
  Er  Er6  1  0.048156  0.649896  0.650936  1
  Er  Er7  1  0.438364  0.061188  0.061032  1
  Er  Er8  1  0.649991  0.650253  0.048480  1
  Er  Er9  1  0.191545  0.809178  0.808774  1
  Er  Er10  1  0.809510  0.190944  0.809508  1
  Er  Er11  1  0.809503  0.190939  0.190054  1
  Er  Er12  1  0.809170  0.809647  0.190585  1
  Er  Er13  1  0.058577  0.438926  0.438850  1
  Er  Er14  1  0.437795  0.439323  0.061438  1
  Er  Er15  1  0.058549  0.438958  0.063633  1
  In  In16  1  0.417713  0.417030  0.748323  1
  In  In17  1  0.418098  0.748026  0.416949  1
  In  In18  1  0.417697  0.417012  0.416969  1
  Hg  Hg19  1  0.757640  0.414586  0.413887  1
  Ir  Ir20  1  0.857912  0.858441  0.859150  1
  Ir  Ir21  1  0.424678  0.858221  0.858561  1
  Ir  Ir22  1  0.857901  0.858454  0.424499  1
  Ir  Ir23  1  0.858101  0.424176  0.858868  1
