# generated using pymatgen
data_Sm3CoSn3PdPt
_symmetry_space_group_name_H-M   'P 1'
_cell_length_a   7.58773300
_cell_length_b   7.58773315
_cell_length_c   3.97213600
_cell_angle_alpha   90.00000000
_cell_angle_beta   90.00000000
_cell_angle_gamma   119.99999498
_symmetry_Int_Tables_number   1
_chemical_formula_structural   Sm3CoSn3PdPt
_chemical_formula_sum   'Sm3 Co1 Sn3 Pd1 Pt1'
_cell_volume   198.05182689
_cell_formula_units_Z   1
loop_
 _symmetry_equiv_pos_site_id
 _symmetry_equiv_pos_as_xyz
  1  'x, y, z'
loop_
 _atom_site_type_symbol
 _atom_site_label
 _atom_site_symmetry_multiplicity
 _atom_site_fract_x
 _atom_site_fract_y
 _atom_site_fract_z
 _atom_site_occupancy
  Sm  Sm0  1  0.406813  0.403723  0.000000  1
  Sm  Sm1  1  0.596277  0.003090  0.000000  1
  Sm  Sm2  1  0.996910  0.593187  0.000000  1
  Co  Co3  1  0.000000  0.000000  0.000000  1
  Sn  Sn4  1  0.002026  0.245806  0.500000  1
  Sn  Sn5  1  0.754194  0.756221  0.500000  1
  Sn  Sn6  1  0.243779  0.997974  0.500000  1
  Pd  Pd7  1  0.333333  0.666667  0.500000  1
  Pt  Pt8  1  0.666667  0.333333  0.500000  1
