# generated using pymatgen
data_Gd4Tm4Tc3B24Os
_symmetry_space_group_name_H-M   'P 1'
_cell_length_a   3.67114200
_cell_length_b   9.15359961
_cell_length_c   11.56927300
_cell_angle_alpha   89.95054227
_cell_angle_beta   90.00000000
_cell_angle_gamma   90.00000000
_symmetry_Int_Tables_number   1
_chemical_formula_structural   Gd4Tm4Tc3B24Os
_chemical_formula_sum   'Gd4 Tm4 Tc3 B24 Os1'
_cell_volume   388.77560247
_cell_formula_units_Z   1
loop_
 _symmetry_equiv_pos_site_id
 _symmetry_equiv_pos_as_xyz
  1  'x, y, z'
loop_
 _atom_site_type_symbol
 _atom_site_label
 _atom_site_symmetry_multiplicity
 _atom_site_fract_x
 _atom_site_fract_y
 _atom_site_fract_z
 _atom_site_occupancy
  Gd  Gd0  1  0.000000  0.323079  0.414006  1
  Gd  Gd1  1  0.000000  0.675869  0.584034  1
  Gd  Gd2  1  0.000000  0.822598  0.087166  1
  Gd  Gd3  1  0.000000  0.178269  0.915080  1
  Tm  Tm4  1  0.000000  0.942816  0.369852  1
  Tm  Tm5  1  0.000000  0.058225  0.630057  1
  Tm  Tm6  1  0.000000  0.442955  0.130469  1
  Tm  Tm7  1  0.000000  0.556721  0.869326  1
  Tc  Tc8  1  0.000000  0.639281  0.319780  1
  Tc  Tc9  1  0.000000  0.360706  0.681061  1
  Tc  Tc10  1  0.000000  0.138498  0.179514  1
  B  B11  1  0.500000  0.553828  0.432146  1
  B  B12  1  0.500000  0.446090  0.567794  1
  B  B13  1  0.500000  0.053857  0.067721  1
  B  B14  1  0.500000  0.945497  0.931998  1
  B  B15  1  0.500000  0.749821  0.417828  1
  B  B16  1  0.500000  0.250144  0.582351  1
  B  B17  1  0.500000  0.250333  0.082366  1
  B  B18  1  0.500000  0.750230  0.917296  1
  B  B19  1  0.500000  0.792106  0.265300  1
  B  B20  1  0.500000  0.208124  0.735165  1
  B  B21  1  0.500000  0.291814  0.234810  1
  B  B22  1  0.500000  0.708701  0.764971  1
  B  B23  1  0.500000  0.630247  0.185137  1
  B  B24  1  0.500000  0.369863  0.815313  1
  B  B25  1  0.500000  0.129806  0.314542  1
  B  B26  1  0.500000  0.869764  0.685159  1
  B  B27  1  0.500000  0.982163  0.212502  1
  B  B28  1  0.500000  0.016767  0.787573  1
  B  B29  1  0.500000  0.482481  0.287358  1
  B  B30  1  0.500000  0.517384  0.712403  1
  B  B31  1  0.500000  0.599167  0.027081  1
  B  B32  1  0.500000  0.401781  0.972739  1
  B  B33  1  0.500000  0.098852  0.472819  1
  B  B34  1  0.500000  0.901192  0.527641  1
  Os  Os35  1  0.000000  0.860967  0.819643  1
