# generated using pymatgen
data_Tb6Y2Re3B24Ir
_symmetry_space_group_name_H-M   'P 1'
_cell_length_a   3.69224000
_cell_length_b   9.20383216
_cell_length_c   11.59238000
_cell_angle_alpha   89.84996333
_cell_angle_beta   90.00000000
_cell_angle_gamma   90.00000000
_symmetry_Int_Tables_number   1
_chemical_formula_structural   Tb6Y2Re3B24Ir
_chemical_formula_sum   'Tb6 Y2 Re3 B24 Ir1'
_cell_volume   393.93968486
_cell_formula_units_Z   1
loop_
 _symmetry_equiv_pos_site_id
 _symmetry_equiv_pos_as_xyz
  1  'x, y, z'
loop_
 _atom_site_type_symbol
 _atom_site_label
 _atom_site_symmetry_multiplicity
 _atom_site_fract_x
 _atom_site_fract_y
 _atom_site_fract_z
 _atom_site_occupancy
  Tb  Tb0  1  0.000000  0.818641  0.084522  1
  Tb  Tb1  1  0.000000  0.178379  0.908828  1
  Tb  Tb2  1  0.000000  0.327093  0.418509  1
  Tb  Tb3  1  0.000000  0.677157  0.587393  1
  Tb  Tb4  1  0.000000  0.443625  0.129825  1
  Tb  Tb5  1  0.000000  0.556215  0.871022  1
  Y  Y6  1  0.000000  0.940928  0.371780  1
  Y  Y7  1  0.000000  0.056882  0.628238  1
  Re  Re8  1  0.000000  0.863136  0.822458  1
  Re  Re9  1  0.000000  0.638045  0.320262  1
  Re  Re10  1  0.000000  0.362102  0.678756  1
  B  B11  1  0.500000  0.053701  0.066593  1
  B  B12  1  0.500000  0.946871  0.932936  1
  B  B13  1  0.500000  0.553333  0.433102  1
  B  B14  1  0.500000  0.447107  0.567602  1
  B  B15  1  0.500000  0.248215  0.080247  1
  B  B16  1  0.500000  0.751656  0.918600  1
  B  B17  1  0.500000  0.748185  0.418432  1
  B  B18  1  0.500000  0.252460  0.581429  1
  B  B19  1  0.500000  0.290129  0.234510  1
  B  B20  1  0.500000  0.709469  0.766124  1
  B  B21  1  0.500000  0.790968  0.265222  1
  B  B22  1  0.500000  0.208785  0.733833  1
  B  B23  1  0.500000  0.131513  0.315300  1
  B  B24  1  0.500000  0.869542  0.686244  1
  B  B25  1  0.500000  0.630969  0.185681  1
  B  B26  1  0.500000  0.368368  0.813921  1
  B  B27  1  0.500000  0.483490  0.288203  1
  B  B28  1  0.500000  0.516947  0.712806  1
  B  B29  1  0.500000  0.982994  0.212054  1
  B  B30  1  0.500000  0.017996  0.787598  1
  B  B31  1  0.500000  0.104358  0.470308  1
  B  B32  1  0.500000  0.896545  0.528406  1
  B  B33  1  0.500000  0.603176  0.029330  1
  B  B34  1  0.500000  0.394011  0.971304  1
  Ir  Ir35  1  0.000000  0.137013  0.178624  1
