# generated using pymatgen
data_Hf6Ga6NiRu11
_symmetry_space_group_name_H-M   'P 1'
_cell_length_a   4.44140601
_cell_length_b   6.30896701
_cell_length_c   13.26567700
_cell_angle_alpha   89.99934915
_cell_angle_beta   90.00080589
_cell_angle_gamma   89.99332584
_symmetry_Int_Tables_number   1
_chemical_formula_structural   Hf6Ga6NiRu11
_chemical_formula_sum   'Hf6 Ga6 Ni1 Ru11'
_cell_volume   371.71334048
_cell_formula_units_Z   1
loop_
 _symmetry_equiv_pos_site_id
 _symmetry_equiv_pos_as_xyz
  1  'x, y, z'
loop_
 _atom_site_type_symbol
 _atom_site_label
 _atom_site_symmetry_multiplicity
 _atom_site_fract_x
 _atom_site_fract_y
 _atom_site_fract_z
 _atom_site_occupancy
  Hf  Hf0  1  0.000019  0.998525  0.000014  1
  Hf  Hf1  1  0.499830  0.501139  0.166956  1
  Hf  Hf2  1  0.999812  0.999896  0.333341  1
  Hf  Hf3  1  0.500032  0.498439  0.499960  1
  Hf  Hf4  1  0.000155  0.999878  0.666635  1
  Hf  Hf5  1  0.500146  0.501146  0.833083  1
  Ga  Ga6  1  0.000036  0.500161  0.000017  1
  Ga  Ga7  1  0.499822  0.999349  0.166736  1
  Ga  Ga8  1  0.999847  0.500320  0.332867  1
  Ga  Ga9  1  0.500026  0.000396  0.499970  1
  Ga  Ga10  1  0.000182  0.500313  0.667124  1
  Ga  Ga11  1  0.500124  0.999350  0.833285  1
  Ni  Ni12  1  0.499955  0.247903  0.000037  1
  Ru  Ru13  1  0.500042  0.753639  0.000001  1
  Ru  Ru14  1  0.999867  0.252182  0.163893  1
  Ru  Ru15  1  0.999754  0.748419  0.164611  1
  Ru  Ru16  1  0.499746  0.248473  0.331437  1
  Ru  Ru17  1  0.499878  0.750596  0.332247  1
  Ru  Ru18  1  0.000077  0.251731  0.499997  1
  Ru  Ru19  1  0.999987  0.748502  0.499990  1
  Ru  Ru20  1  0.500101  0.248422  0.668564  1
  Ru  Ru21  1  0.500225  0.750638  0.667751  1
  Ru  Ru22  1  0.000252  0.252198  0.836093  1
  Ru  Ru23  1  0.000088  0.748383  0.835395  1
