# generated using pymatgen
data_CePr3(NdRh)16
_symmetry_space_group_name_H-M   'P 1'
_cell_length_a   7.51855027
_cell_length_b   7.70064811
_cell_length_c   15.06489353
_cell_angle_alpha   90.00114234
_cell_angle_beta   90.03049244
_cell_angle_gamma   89.99172372
_symmetry_Int_Tables_number   1
_chemical_formula_structural   CePr3(NdRh)16
_chemical_formula_sum   'Ce1 Pr3 Nd16 Rh16'
_cell_volume   872.22270317
_cell_formula_units_Z   1
loop_
 _symmetry_equiv_pos_site_id
 _symmetry_equiv_pos_as_xyz
  1  'x, y, z'
loop_
 _atom_site_type_symbol
 _atom_site_label
 _atom_site_symmetry_multiplicity
 _atom_site_fract_x
 _atom_site_fract_y
 _atom_site_fract_z
 _atom_site_occupancy
  Ce  Ce0  1  0.317206  0.519890  0.250121  1
  Pr  Pr1  1  0.012804  0.680459  0.088589  1
  Pr  Pr2  1  0.836340  0.832460  0.622142  1
  Pr  Pr3  1  0.986328  0.319017  0.592636  1
  Nd  Nd4  1  0.175216  0.012910  0.750320  1
  Nd  Nd5  1  0.511860  0.819455  0.411157  1
  Nd  Nd6  1  0.485622  0.181348  0.593014  1
  Nd  Nd7  1  0.165124  0.169738  0.377125  1
  Nd  Nd8  1  0.335845  0.667941  0.877429  1
  Nd  Nd9  1  0.674551  0.488118  0.750260  1
  Nd  Nd10  1  0.336036  0.668067  0.622954  1
  Nd  Nd11  1  0.013503  0.681265  0.410622  1
  Nd  Nd12  1  0.486594  0.181165  0.907224  1
  Nd  Nd13  1  0.823560  0.978188  0.250152  1
  Nd  Nd14  1  0.512402  0.819674  0.088941  1
  Nd  Nd15  1  0.986047  0.318045  0.906899  1
  Nd  Nd16  1  0.836082  0.832553  0.877524  1
  Nd  Nd17  1  0.664403  0.331908  0.123342  1
  Nd  Nd18  1  0.164923  0.169734  0.122559  1
  Nd  Nd19  1  0.664740  0.332084  0.376801  1
  Rh  Rh20  1  0.041123  0.603623  0.750483  1
  Rh  Rh21  1  0.825567  0.028980  0.455570  1
  Rh  Rh22  1  0.461105  0.101242  0.250093  1
  Rh  Rh23  1  0.177754  0.970472  0.959838  1
  Rh  Rh24  1  0.672236  0.639013  0.250347  1
  Rh  Rh25  1  0.300126  0.355777  0.750311  1
  Rh  Rh26  1  0.972285  0.421443  0.250428  1
  Rh  Rh27  1  0.674709  0.529841  0.540089  1
  Rh  Rh28  1  0.324693  0.467891  0.041481  1
  Rh  Rh29  1  0.323196  0.469287  0.458219  1
  Rh  Rh30  1  0.539424  0.897347  0.750430  1
  Rh  Rh31  1  0.676761  0.529750  0.959413  1
  Rh  Rh32  1  0.824832  0.030252  0.043104  1
  Rh  Rh33  1  0.798334  0.144361  0.750917  1
  Rh  Rh34  1  0.179479  0.968682  0.538992  1
  Rh  Rh35  1  0.219189  0.838022  0.250474  1
