# generated using pymatgen
data_Zr3Ga3NiRuPt
_symmetry_space_group_name_H-M   'P 1'
_cell_length_a   7.32743600
_cell_length_b   7.32743538
_cell_length_c   3.30998300
_cell_angle_alpha   90.00000000
_cell_angle_beta   90.00000000
_cell_angle_gamma   120.00001064
_symmetry_Int_Tables_number   1
_chemical_formula_structural   Zr3Ga3NiRuPt
_chemical_formula_sum   'Zr3 Ga3 Ni1 Ru1 Pt1'
_cell_volume   153.90771100
_cell_formula_units_Z   1
loop_
 _symmetry_equiv_pos_site_id
 _symmetry_equiv_pos_as_xyz
  1  'x, y, z'
loop_
 _atom_site_type_symbol
 _atom_site_label
 _atom_site_symmetry_multiplicity
 _atom_site_fract_x
 _atom_site_fract_y
 _atom_site_fract_z
 _atom_site_occupancy
  Zr  Zr0  1  0.397409  0.012767  0.500000  1
  Zr  Zr1  1  0.987233  0.384642  0.500000  1
  Zr  Zr2  1  0.615358  0.602591  0.500000  1
  Ga  Ga3  1  0.738804  0.998808  0.000000  1
  Ga  Ga4  1  0.001192  0.739996  0.000000  1
  Ga  Ga5  1  0.260004  0.261196  0.000000  1
  Ni  Ni6  1  0.000000  0.000000  0.500000  1
  Ru  Ru7  1  0.666667  0.333333  0.000000  1
  Pt  Pt8  1  0.333333  0.666667  0.000000  1
