# generated using pymatgen
data_ErTm3NiAg
_symmetry_space_group_name_H-M   'P 1'
_cell_length_a   9.32045269
_cell_length_b   9.32045355
_cell_length_c   9.32045300
_cell_angle_alpha   60.00000551
_cell_angle_beta   60.00000244
_cell_angle_gamma   60.00000470
_symmetry_Int_Tables_number   1
_chemical_formula_structural   ErTm3NiAg
_chemical_formula_sum   'Er4 Tm12 Ni4 Ag4'
_cell_volume   572.52719081
_cell_formula_units_Z   4
loop_
 _symmetry_equiv_pos_site_id
 _symmetry_equiv_pos_as_xyz
  1  'x, y, z'
loop_
 _atom_site_type_symbol
 _atom_site_label
 _atom_site_symmetry_multiplicity
 _atom_site_fract_x
 _atom_site_fract_y
 _atom_site_fract_z
 _atom_site_occupancy
  Er  Er0  1  0.350427  0.350427  0.350427  1
  Er  Er1  1  0.350427  0.350427  0.948719  1
  Er  Er2  1  0.350427  0.948719  0.350427  1
  Er  Er3  1  0.948719  0.350427  0.350427  1
  Tm  Tm4  1  0.811624  0.188376  0.188376  1
  Tm  Tm5  1  0.188376  0.811624  0.811624  1
  Tm  Tm6  1  0.188376  0.811624  0.188376  1
  Tm  Tm7  1  0.811624  0.188376  0.811624  1
  Tm  Tm8  1  0.188376  0.188376  0.811624  1
  Tm  Tm9  1  0.811624  0.811624  0.188376  1
  Tm  Tm10  1  0.935599  0.564401  0.564401  1
  Tm  Tm11  1  0.564401  0.935599  0.935599  1
  Tm  Tm12  1  0.564401  0.935599  0.564401  1
  Tm  Tm13  1  0.935599  0.564401  0.935599  1
  Tm  Tm14  1  0.564401  0.564401  0.935599  1
  Tm  Tm15  1  0.935599  0.935599  0.564401  1
  Ni  Ni16  1  0.142731  0.142731  0.142731  1
  Ni  Ni17  1  0.142731  0.142731  0.571809  1
  Ni  Ni18  1  0.142731  0.571809  0.142731  1
  Ni  Ni19  1  0.571809  0.142731  0.142731  1
  Ag  Ag20  1  0.582392  0.582392  0.582392  1
  Ag  Ag21  1  0.582392  0.582392  0.252823  1
  Ag  Ag22  1  0.582392  0.252823  0.582392  1
  Ag  Ag23  1  0.252823  0.582392  0.582392  1
