# generated using pymatgen
data_Li4Ta3W5N12
_symmetry_space_group_name_H-M   'P 1'
_cell_length_a   5.07850638
_cell_length_b   5.09244411
_cell_length_c   10.44183200
_cell_angle_alpha   90.00000000
_cell_angle_beta   90.00000000
_cell_angle_gamma   120.09083081
_symmetry_Int_Tables_number   1
_chemical_formula_structural   Li4Ta3W5N12
_chemical_formula_sum   'Li4 Ta3 W5 N12'
_cell_volume   233.65301085
_cell_formula_units_Z   1
loop_
 _symmetry_equiv_pos_site_id
 _symmetry_equiv_pos_as_xyz
  1  'x, y, z'
loop_
 _atom_site_type_symbol
 _atom_site_label
 _atom_site_symmetry_multiplicity
 _atom_site_fract_x
 _atom_site_fract_y
 _atom_site_fract_z
 _atom_site_occupancy
  Li  Li0  1  0.333580  0.666679  0.999243  1
  Li  Li1  1  0.333580  0.666679  0.500757  1
  Li  Li2  1  0.666420  0.333098  0.500757  1
  Li  Li3  1  0.666420  0.333098  0.999243  1
  Ta  Ta4  1  0.000000  0.998829  0.504493  1
  Ta  Ta5  1  0.000000  0.998829  0.995507  1
  Ta  Ta6  1  0.000000  0.661485  0.750000  1
  W  W7  1  0.000000  0.337970  0.250000  1
  W  W8  1  0.661302  0.000448  0.750000  1
  W  W9  1  0.338698  0.339146  0.750000  1
  W  W10  1  0.662168  0.662070  0.250000  1
  W  W11  1  0.337832  0.999902  0.250000  1
  N  N12  1  0.667270  0.670541  0.622836  1
  N  N13  1  0.667270  0.670541  0.877164  1
  N  N14  1  0.328896  0.328943  0.125374  1
  N  N15  1  0.328896  0.328943  0.374626  1
  N  N16  1  0.332730  0.003270  0.877164  1
  N  N17  1  0.332730  0.003270  0.622836  1
  N  N18  1  0.000000  0.670425  0.374602  1
  N  N19  1  0.000000  0.670425  0.125398  1
  N  N20  1  0.671104  0.000047  0.125374  1
  N  N21  1  0.671104  0.000047  0.374626  1
  N  N22  1  0.000000  0.327657  0.876997  1
  N  N23  1  0.000000  0.327657  0.623003  1
