# generated using pymatgen
data_Pr4NdDyTaNbO14
_symmetry_space_group_name_H-M   'P 1'
_cell_length_a   6.69793200
_cell_length_b   6.66944895
_cell_length_c   7.71640400
_cell_angle_alpha   90.00000000
_cell_angle_beta   90.00000000
_cell_angle_gamma   108.69749705
_symmetry_Int_Tables_number   1
_chemical_formula_structural   Pr4NdDyTaNbO14
_chemical_formula_sum   'Pr4 Nd1 Dy1 Ta1 Nb1 O14'
_cell_volume   326.51148893
_cell_formula_units_Z   1
loop_
 _symmetry_equiv_pos_site_id
 _symmetry_equiv_pos_as_xyz
  1  'x, y, z'
loop_
 _atom_site_type_symbol
 _atom_site_label
 _atom_site_symmetry_multiplicity
 _atom_site_fract_x
 _atom_site_fract_y
 _atom_site_fract_z
 _atom_site_occupancy
  Pr  Pr0  1  0.535992  0.529362  0.498960  1
  Pr  Pr1  1  0.535036  0.528429  0.001010  1
  Pr  Pr2  1  0.007614  0.461504  0.750753  1
  Pr  Pr3  1  0.462270  0.004427  0.249564  1
  Nd  Nd4  1  0.533298  0.003566  0.750564  1
  Dy  Dy5  1  0.003661  0.532307  0.249000  1
  Ta  Ta6  1  0.000916  0.001383  0.002258  1
  Nb  Nb7  1  0.002059  0.002168  0.497984  1
  O  O8  1  0.944417  0.056657  0.751632  1
  O  O9  1  0.059116  0.934744  0.248651  1
  O  O10  1  0.353084  0.633380  0.250002  1
  O  O11  1  0.642293  0.367630  0.750036  1
  O  O12  1  0.373398  0.633500  0.750074  1
  O  O13  1  0.646187  0.377987  0.249897  1
  O  O14  1  0.306730  0.069221  0.967691  1
  O  O15  1  0.676686  0.918325  0.474646  1
  O  O16  1  0.308167  0.070050  0.531897  1
  O  O17  1  0.679066  0.919011  0.026127  1
  O  O18  1  0.034433  0.298796  0.456977  1
  O  O19  1  0.930957  0.680555  0.977091  1
  O  O20  1  0.930138  0.678572  0.521960  1
  O  O21  1  0.034483  0.298423  0.043225  1
