# generated using pymatgen
data_Tb2NdP4Pd7
_symmetry_space_group_name_H-M   'P 1'
_cell_length_a   7.97895110
_cell_length_b   7.97895203
_cell_length_c   9.50520478
_cell_angle_alpha   55.78186984
_cell_angle_beta   55.78186554
_cell_angle_gamma   29.24234937
_symmetry_Int_Tables_number   1
_chemical_formula_structural   Tb2NdP4Pd7
_chemical_formula_sum   'Tb2 Nd1 P4 Pd7'
_cell_volume   240.56462531
_cell_formula_units_Z   1
loop_
 _symmetry_equiv_pos_site_id
 _symmetry_equiv_pos_as_xyz
  1  'x, y, z'
loop_
 _atom_site_type_symbol
 _atom_site_label
 _atom_site_symmetry_multiplicity
 _atom_site_fract_x
 _atom_site_fract_y
 _atom_site_fract_z
 _atom_site_occupancy
  Tb  Tb0  1  0.679426  0.679426  0.323837  1
  Tb  Tb1  1  0.320574  0.320574  0.676163  1
  Nd  Nd2  1  0.000000  0.000000  0.000000  1
  P  P3  1  0.338034  0.338034  0.258475  1
  P  P4  1  0.661966  0.661966  0.741525  1
  P  P5  1  0.893485  0.893485  0.817420  1
  P  P6  1  0.106515  0.106515  0.182580  1
  Pd  Pd7  1  0.304637  0.304637  0.030394  1
  Pd  Pd8  1  0.695363  0.695363  0.969606  1
  Pd  Pd9  1  0.509641  0.509641  0.713226  1
  Pd  Pd10  1  0.830384  0.830384  0.424465  1
  Pd  Pd11  1  0.490359  0.490359  0.286774  1
  Pd  Pd12  1  0.169616  0.169616  0.575535  1
  Pd  Pd13  1  0.000000  0.000000  0.500000  1
