# generated using pymatgen
data_Tc(Sb4Pd)3
_symmetry_space_group_name_H-M   'P 1'
_cell_length_a   8.23093479
_cell_length_b   8.25709221
_cell_length_c   8.23093520
_cell_angle_alpha   109.53561302
_cell_angle_beta   109.40675639
_cell_angle_gamma   109.53560843
_symmetry_Int_Tables_number   1
_chemical_formula_structural   Tc(Sb4Pd)3
_chemical_formula_sum   'Tc1 Sb12 Pd3'
_cell_volume   430.28661809
_cell_formula_units_Z   1
loop_
 _symmetry_equiv_pos_site_id
 _symmetry_equiv_pos_as_xyz
  1  'x, y, z'
loop_
 _atom_site_type_symbol
 _atom_site_label
 _atom_site_symmetry_multiplicity
 _atom_site_fract_x
 _atom_site_fract_y
 _atom_site_fract_z
 _atom_site_occupancy
  Tc  Tc0  1  0.000000  0.500000  0.000000  1
  Sb  Sb1  1  0.653433  0.845620  0.498608  1
  Sb  Sb2  1  0.850783  0.507446  0.665661  1
  Sb  Sb3  1  0.498608  0.652987  0.845174  1
  Sb  Sb4  1  0.665661  0.158215  0.814879  1
  Sb  Sb5  1  0.845174  0.192186  0.346567  1
  Sb  Sb6  1  0.154826  0.807814  0.653433  1
  Sb  Sb7  1  0.185121  0.343337  0.850783  1
  Sb  Sb8  1  0.149217  0.492554  0.334339  1
  Sb  Sb9  1  0.346567  0.154380  0.501392  1
  Sb  Sb10  1  0.501392  0.347013  0.154826  1
  Sb  Sb11  1  0.334339  0.841785  0.185121  1
  Sb  Sb12  1  0.814879  0.656663  0.149217  1
  Pd  Pd13  1  0.500000  0.500000  0.500000  1
  Pd  Pd14  1  0.500000  0.000000  0.000000  1
  Pd  Pd15  1  0.000000  0.000000  0.500000  1
