# generated using pymatgen
data_CaTb2Si3(Ni3Sn)3
_symmetry_space_group_name_H-M   'P 1'
_cell_length_a   3.88962800
_cell_length_b   9.25762344
_cell_length_c   9.25723431
_cell_angle_alpha   60.03226153
_cell_angle_beta   90.00000000
_cell_angle_gamma   90.00000000
_symmetry_Int_Tables_number   1
_chemical_formula_structural   CaTb2Si3(Ni3Sn)3
_chemical_formula_sum   'Ca1 Tb2 Si3 Ni9 Sn3'
_cell_volume   288.77564315
_cell_formula_units_Z   1
loop_
 _symmetry_equiv_pos_site_id
 _symmetry_equiv_pos_as_xyz
  1  'x, y, z'
loop_
 _atom_site_type_symbol
 _atom_site_label
 _atom_site_symmetry_multiplicity
 _atom_site_fract_x
 _atom_site_fract_y
 _atom_site_fract_z
 _atom_site_occupancy
  Ca  Ca0  1  0.500000  0.333443  0.333306  1
  Tb  Tb1  1  0.500000  0.666677  0.666773  1
  Tb  Tb2  1  0.000000  0.999898  0.999924  1
  Si  Si3  1  0.500000  0.752476  0.247869  1
  Si  Si4  1  0.500000  0.248228  0.999475  1
  Si  Si5  1  0.500000  0.999432  0.752417  1
  Ni  Ni6  1  0.000000  0.214032  0.152204  1
  Ni  Ni7  1  0.000000  0.152043  0.633718  1
  Ni  Ni8  1  0.000000  0.633662  0.214254  1
  Ni  Ni9  1  0.000000  0.847437  0.782380  1
  Ni  Ni10  1  0.000000  0.370048  0.847716  1
  Ni  Ni11  1  0.000000  0.782367  0.370116  1
  Ni  Ni12  1  0.500000  0.261082  0.739330  1
  Ni  Ni13  1  0.500000  0.739322  0.999444  1
  Ni  Ni14  1  0.500000  0.999712  0.261044  1
  Sn  Sn15  1  0.000000  0.460189  0.541631  1
  Sn  Sn16  1  0.000000  0.541605  0.998253  1
  Sn  Sn17  1  0.000000  0.998242  0.460248  1
