# generated using pymatgen
data_Th4SnGe3Pd4
_symmetry_space_group_name_H-M   'P 1'
_cell_length_a   4.45594700
_cell_length_b   7.75928062
_cell_length_c   7.86361300
_cell_angle_alpha   90.13526319
_cell_angle_beta   90.00000000
_cell_angle_gamma   90.00000000
_symmetry_Int_Tables_number   1
_chemical_formula_structural   Th4SnGe3Pd4
_chemical_formula_sum   'Th4 Sn1 Ge3 Pd4'
_cell_volume   271.88321527
_cell_formula_units_Z   1
loop_
 _symmetry_equiv_pos_site_id
 _symmetry_equiv_pos_as_xyz
  1  'x, y, z'
loop_
 _atom_site_type_symbol
 _atom_site_label
 _atom_site_symmetry_multiplicity
 _atom_site_fract_x
 _atom_site_fract_y
 _atom_site_fract_z
 _atom_site_occupancy
  Th  Th0  1  0.750000  0.000652  0.750719  1
  Th  Th1  1  0.750000  0.493815  0.762713  1
  Th  Th2  1  0.250000  0.997022  0.253444  1
  Th  Th3  1  0.250000  0.485067  0.228971  1
  Sn  Sn4  1  0.750000  0.717073  0.416593  1
  Ge  Ge5  1  0.250000  0.727864  0.919272  1
  Ge  Ge6  1  0.250000  0.225470  0.578417  1
  Ge  Ge7  1  0.750000  0.219742  0.086437  1
  Pd  Pd8  1  0.750000  0.787395  0.076214  1
  Pd  Pd9  1  0.250000  0.785789  0.600213  1
  Pd  Pd10  1  0.250000  0.264972  0.910921  1
  Pd  Pd11  1  0.750000  0.295136  0.416086  1
