# generated using pymatgen
data_Tm3Mg2AlSi2Pt
_symmetry_space_group_name_H-M   'P 1'
_cell_length_a   7.01944183
_cell_length_b   6.94536789
_cell_length_c   4.28018600
_cell_angle_alpha   90.00000000
_cell_angle_beta   90.00000000
_cell_angle_gamma   119.65152744
_symmetry_Int_Tables_number   1
_chemical_formula_structural   Tm3Mg2AlSi2Pt
_chemical_formula_sum   'Tm3 Mg2 Al1 Si2 Pt1'
_cell_volume   181.34493170
_cell_formula_units_Z   1
loop_
 _symmetry_equiv_pos_site_id
 _symmetry_equiv_pos_as_xyz
  1  'x, y, z'
loop_
 _atom_site_type_symbol
 _atom_site_label
 _atom_site_symmetry_multiplicity
 _atom_site_fract_x
 _atom_site_fract_y
 _atom_site_fract_z
 _atom_site_occupancy
  Tm  Tm0  1  0.415805  0.000370  0.000000  1
  Tm  Tm1  1  0.000000  0.418948  0.000000  1
  Tm  Tm2  1  0.584195  0.584566  0.000000  1
  Mg  Mg3  1  0.760675  0.999523  0.500000  1
  Mg  Mg4  1  0.239324  0.238848  0.500000  1
  Al  Al5  1  0.000000  0.759339  0.500000  1
  Si  Si6  1  0.674568  0.344282  0.500000  1
  Si  Si7  1  0.325431  0.669713  0.500000  1
  Pt  Pt8  1  0.000000  0.984412  0.000000  1
