# generated using pymatgen
data_TbY3InPt11
_symmetry_space_group_name_H-M   'P 1'
_cell_length_a   4.20512300
_cell_length_b   5.87907147
_cell_length_c   11.70305944
_cell_angle_alpha   87.95915588
_cell_angle_beta   90.00000000
_cell_angle_gamma   90.00000000
_symmetry_Int_Tables_number   1
_chemical_formula_structural   TbY3InPt11
_chemical_formula_sum   'Tb1 Y3 In1 Pt11'
_cell_volume   289.14207341
_cell_formula_units_Z   1
loop_
 _symmetry_equiv_pos_site_id
 _symmetry_equiv_pos_as_xyz
  1  'x, y, z'
loop_
 _atom_site_type_symbol
 _atom_site_label
 _atom_site_symmetry_multiplicity
 _atom_site_fract_x
 _atom_site_fract_y
 _atom_site_fract_z
 _atom_site_occupancy
  Tb  Tb0  1  0.500000  0.244842  0.624071  1
  Y  Y1  1  0.500000  0.755152  0.375927  1
  Y  Y2  1  0.500000  0.719210  0.862336  1
  Y  Y3  1  0.500000  0.280791  0.137670  1
  In  In4  1  0.000000  0.999985  0.000018  1
  Pt  Pt5  1  0.000000  0.014364  0.249670  1
  Pt  Pt6  1  0.000000  0.985640  0.750312  1
  Pt  Pt7  1  0.000000  0.500025  0.000022  1
  Pt  Pt8  1  0.000000  0.499949  0.500014  1
  Pt  Pt9  1  0.000000  0.516986  0.249850  1
  Pt  Pt10  1  0.000000  0.483035  0.750100  1
  Pt  Pt11  1  0.500000  0.253987  0.377758  1
  Pt  Pt12  1  0.500000  0.228736  0.881173  1
  Pt  Pt13  1  0.500000  0.771275  0.118841  1
  Pt  Pt14  1  0.500000  0.746030  0.622224  1
  Pt  Pt15  1  0.000000  0.999994  0.500014  1
