# generated using pymatgen
data_YLuPa2(Al3Co)6
_symmetry_space_group_name_H-M   'P 1'
_cell_length_a   7.39506334
_cell_length_b   7.39884104
_cell_length_c   9.17409400
_cell_angle_alpha   90.00000000
_cell_angle_beta   90.00000000
_cell_angle_gamma   119.21537809
_symmetry_Int_Tables_number   1
_chemical_formula_structural   YLuPa2(Al3Co)6
_chemical_formula_sum   'Y1 Lu1 Pa2 Al18 Co6'
_cell_volume   438.10589079
_cell_formula_units_Z   1
loop_
 _symmetry_equiv_pos_site_id
 _symmetry_equiv_pos_as_xyz
  1  'x, y, z'
loop_
 _atom_site_type_symbol
 _atom_site_label
 _atom_site_symmetry_multiplicity
 _atom_site_fract_x
 _atom_site_fract_y
 _atom_site_fract_z
 _atom_site_occupancy
  Y  Y0  1  0.993771  0.672686  0.250000  1
  Lu  Lu1  1  0.672897  0.993857  0.250000  1
  Pa  Pa2  1  0.006942  0.323734  0.750000  1
  Pa  Pa3  1  0.323869  0.007055  0.750000  1
  Al  Al4  1  0.662670  0.998583  0.929927  1
  Al  Al5  1  0.998305  0.662450  0.571184  1
  Al  Al6  1  0.121445  0.122308  0.250000  1
  Al  Al7  1  0.669875  0.670798  0.049445  1
  Al  Al8  1  0.337173  0.337185  0.539401  1
  Al  Al9  1  0.337173  0.337185  0.960599  1
  Al  Al10  1  0.669875  0.670798  0.450555  1
  Al  Al11  1  0.336806  0.997538  0.076224  1
  Al  Al12  1  0.996235  0.334366  0.423838  1
  Al  Al13  1  0.342415  0.559451  0.250000  1
  Al  Al14  1  0.996235  0.334366  0.076162  1
  Al  Al15  1  0.558209  0.339816  0.250000  1
  Al  Al16  1  0.658479  0.447372  0.750000  1
  Al  Al17  1  0.866292  0.866667  0.750000  1
  Al  Al18  1  0.998305  0.662450  0.928816  1
  Al  Al19  1  0.662670  0.998583  0.570073  1
  Al  Al20  1  0.336806  0.997538  0.423776  1
  Al  Al21  1  0.447446  0.659005  0.750000  1
  Co  Co22  1  0.671009  0.325424  0.504500  1
  Co  Co23  1  0.671009  0.325424  0.995500  1
  Co  Co24  1  0.326209  0.671439  0.504427  1
  Co  Co25  1  0.005836  0.006243  0.991386  1
  Co  Co26  1  0.005836  0.006243  0.508614  1
  Co  Co27  1  0.326209  0.671439  0.995573  1
