# generated using pymatgen
data_Eu4Y3Tm(BO4)4
_symmetry_space_group_name_H-M   'P 1'
_cell_length_a   3.66092500
_cell_length_b   9.67476699
_cell_length_c   10.90492825
_cell_angle_alpha   90.10261708
_cell_angle_beta   90.00000000
_cell_angle_gamma   90.00000000
_symmetry_Int_Tables_number   1
_chemical_formula_structural   Eu4Y3Tm(BO4)4
_chemical_formula_sum   'Eu4 Y3 Tm1 B4 O16'
_cell_volume   386.23663235
_cell_formula_units_Z   1
loop_
 _symmetry_equiv_pos_site_id
 _symmetry_equiv_pos_as_xyz
  1  'x, y, z'
loop_
 _atom_site_type_symbol
 _atom_site_label
 _atom_site_symmetry_multiplicity
 _atom_site_fract_x
 _atom_site_fract_y
 _atom_site_fract_z
 _atom_site_occupancy
  Eu  Eu0  1  0.250000  0.656544  0.081530  1
  Eu  Eu1  1  0.750000  0.343132  0.919640  1
  Eu  Eu2  1  0.750000  0.154993  0.417457  1
  Eu  Eu3  1  0.250000  0.844713  0.581130  1
  Y  Y4  1  0.750000  0.917584  0.890749  1
  Y  Y5  1  0.750000  0.582689  0.388444  1
  Y  Y6  1  0.250000  0.416573  0.611162  1
  Tm  Tm7  1  0.250000  0.082725  0.110988  1
  B  B8  1  0.250000  0.362542  0.205210  1
  B  B9  1  0.750000  0.636453  0.793608  1
  B  B10  1  0.750000  0.865214  0.292094  1
  B  B11  1  0.250000  0.135402  0.706868  1
  O  O12  1  0.250000  0.490385  0.262979  1
  O  O13  1  0.750000  0.507916  0.737305  1
  O  O14  1  0.750000  0.992617  0.234201  1
  O  O15  1  0.250000  0.007697  0.764310  1
  O  O16  1  0.250000  0.239045  0.270768  1
  O  O17  1  0.750000  0.758808  0.726614  1
  O  O18  1  0.750000  0.741718  0.226061  1
  O  O19  1  0.250000  0.258057  0.773830  1
  O  O20  1  0.250000  0.355373  0.076966  1
  O  O21  1  0.750000  0.645758  0.922084  1
  O  O22  1  0.750000  0.858236  0.420642  1
  O  O23  1  0.250000  0.143108  0.578444  1
  O  O24  1  0.250000  0.615175  0.502797  1
  O  O25  1  0.750000  0.384472  0.496507  1
  O  O26  1  0.750000  0.115252  0.001726  1
  O  O27  1  0.250000  0.887820  0.005887  1
