# generated using pymatgen
data_Ho2ThCoSn3Ir2
_symmetry_space_group_name_H-M   'P 1'
_cell_length_a   7.44723126
_cell_length_b   7.44723177
_cell_length_c   3.94627300
_cell_angle_alpha   90.00000000
_cell_angle_beta   90.00000000
_cell_angle_gamma   119.49979716
_symmetry_Int_Tables_number   1
_chemical_formula_structural   Ho2ThCoSn3Ir2
_chemical_formula_sum   'Ho2 Th1 Co1 Sn3 Ir2'
_cell_volume   190.49100888
_cell_formula_units_Z   1
loop_
 _symmetry_equiv_pos_site_id
 _symmetry_equiv_pos_as_xyz
  1  'x, y, z'
loop_
 _atom_site_type_symbol
 _atom_site_label
 _atom_site_symmetry_multiplicity
 _atom_site_fract_x
 _atom_site_fract_y
 _atom_site_fract_z
 _atom_site_occupancy
  Ho  Ho0  1  0.593245  0.999328  0.500000  1
  Ho  Ho1  1  0.999328  0.593245  0.500000  1
  Th  Th2  1  0.412581  0.412581  0.500000  1
  Co  Co3  1  0.006691  0.006691  0.500000  1
  Sn  Sn4  1  0.762735  0.762735  0.000000  1
  Sn  Sn5  1  0.246819  0.989085  0.000000  1
  Sn  Sn6  1  0.989085  0.246819  0.000000  1
  Ir  Ir7  1  0.656028  0.333488  0.000000  1
  Ir  Ir8  1  0.333488  0.656028  0.000000  1
