# generated using pymatgen
data_Tb16Cd3InPd4
_symmetry_space_group_name_H-M   'P 1'
_cell_length_a   9.74381461
_cell_length_b   9.74381436
_cell_length_c   9.74381467
_cell_angle_alpha   60.16777611
_cell_angle_beta   60.16777534
_cell_angle_gamma   60.16777576
_symmetry_Int_Tables_number   1
_chemical_formula_structural   Tb16Cd3InPd4
_chemical_formula_sum   'Tb16 Cd3 In1 Pd4'
_cell_volume   656.62763709
_cell_formula_units_Z   1
loop_
 _symmetry_equiv_pos_site_id
 _symmetry_equiv_pos_as_xyz
  1  'x, y, z'
loop_
 _atom_site_type_symbol
 _atom_site_label
 _atom_site_symmetry_multiplicity
 _atom_site_fract_x
 _atom_site_fract_y
 _atom_site_fract_z
 _atom_site_occupancy
  Tb  Tb0  1  0.350344  0.350344  0.350344  1
  Tb  Tb1  1  0.355500  0.355500  0.938307  1
  Tb  Tb2  1  0.355500  0.938307  0.355500  1
  Tb  Tb3  1  0.938307  0.355500  0.355500  1
  Tb  Tb4  1  0.811200  0.190039  0.190039  1
  Tb  Tb5  1  0.190410  0.808862  0.808862  1
  Tb  Tb6  1  0.190039  0.811200  0.190039  1
  Tb  Tb7  1  0.808862  0.190410  0.808862  1
  Tb  Tb8  1  0.190039  0.190039  0.811200  1
  Tb  Tb9  1  0.808862  0.808862  0.190410  1
  Tb  Tb10  1  0.936633  0.567038  0.567038  1
  Tb  Tb11  1  0.563564  0.936096  0.936096  1
  Tb  Tb12  1  0.567038  0.936633  0.567038  1
  Tb  Tb13  1  0.936096  0.563564  0.936096  1
  Tb  Tb14  1  0.567038  0.567038  0.936633  1
  Tb  Tb15  1  0.936096  0.936096  0.563564  1
  Cd  Cd16  1  0.580168  0.580168  0.254112  1
  Cd  Cd17  1  0.580168  0.254112  0.580168  1
  Cd  Cd18  1  0.254112  0.580168  0.580168  1
  In  In19  1  0.581474  0.581474  0.581474  1
  Pd  Pd20  1  0.145949  0.145949  0.145949  1
  Pd  Pd21  1  0.141986  0.141986  0.568630  1
  Pd  Pd22  1  0.141986  0.568630  0.141986  1
  Pd  Pd23  1  0.568630  0.141986  0.141986  1
