# generated using pymatgen
data_DyPaSnRh2
_symmetry_space_group_name_H-M   'P 1'
_cell_length_a   7.66893546
_cell_length_b   7.66893580
_cell_length_c   3.64341700
_cell_angle_alpha   90.00000000
_cell_angle_beta   90.00000000
_cell_angle_gamma   84.92525661
_symmetry_Int_Tables_number   1
_chemical_formula_structural   DyPaSnRh2
_chemical_formula_sum   'Dy2 Pa2 Sn2 Rh4'
_cell_volume   213.43879108
_cell_formula_units_Z   2
loop_
 _symmetry_equiv_pos_site_id
 _symmetry_equiv_pos_as_xyz
  1  'x, y, z'
loop_
 _atom_site_type_symbol
 _atom_site_label
 _atom_site_symmetry_multiplicity
 _atom_site_fract_x
 _atom_site_fract_y
 _atom_site_fract_z
 _atom_site_occupancy
  Dy  Dy0  1  0.173964  0.673964  0.500000  1
  Dy  Dy1  1  0.826036  0.326036  0.500000  1
  Pa  Pa2  1  0.327396  0.172604  0.500000  1
  Pa  Pa3  1  0.672604  0.827396  0.500000  1
  Sn  Sn4  1  0.000000  0.000000  0.000000  1
  Sn  Sn5  1  0.500000  0.500000  0.000000  1
  Rh  Rh6  1  0.623115  0.123115  0.000000  1
  Rh  Rh7  1  0.857295  0.642705  0.000000  1
  Rh  Rh8  1  0.376885  0.876885  0.000000  1
  Rh  Rh9  1  0.142705  0.357295  0.000000  1
