# generated using pymatgen
data_Er3Mg3IrPb2
_symmetry_space_group_name_H-M   'P 1'
_cell_length_a   7.46345500
_cell_length_b   7.46345507
_cell_length_c   4.53326200
_cell_angle_alpha   90.00000000
_cell_angle_beta   90.00000000
_cell_angle_gamma   119.99999526
_symmetry_Int_Tables_number   1
_chemical_formula_structural   Er3Mg3IrPb2
_chemical_formula_sum   'Er3 Mg3 Ir1 Pb2'
_cell_volume   218.68616754
_cell_formula_units_Z   1
loop_
 _symmetry_equiv_pos_site_id
 _symmetry_equiv_pos_as_xyz
  1  'x, y, z'
loop_
 _atom_site_type_symbol
 _atom_site_label
 _atom_site_symmetry_multiplicity
 _atom_site_fract_x
 _atom_site_fract_y
 _atom_site_fract_z
 _atom_site_occupancy
  Er  Er0  1  0.385828  0.385828  0.500000  1
  Er  Er1  1  0.614172  0.000000  0.500000  1
  Er  Er2  1  0.000000  0.614172  0.500000  1
  Mg  Mg3  1  0.775138  0.775138  0.000000  1
  Mg  Mg4  1  0.224862  0.000000  0.000000  1
  Mg  Mg5  1  0.000000  0.224862  0.000000  1
  Ir  Ir6  1  0.000000  0.000000  0.500000  1
  Pb  Pb7  1  0.666667  0.333333  0.000000  1
  Pb  Pb8  1  0.333333  0.666667  0.000000  1
