# generated using pymatgen
data_Er20Os7Pd5
_symmetry_space_group_name_H-M   'P 1'
_cell_length_a   10.86432927
_cell_length_b   10.86433022
_cell_length_c   6.36773965
_cell_angle_alpha   89.95541438
_cell_angle_beta   89.95541501
_cell_angle_gamma   89.71363582
_symmetry_Int_Tables_number   1
_chemical_formula_structural   Er20Os7Pd5
_chemical_formula_sum   'Er20 Os7 Pd5'
_cell_volume   751.59778123
_cell_formula_units_Z   1
loop_
 _symmetry_equiv_pos_site_id
 _symmetry_equiv_pos_as_xyz
  1  'x, y, z'
loop_
 _atom_site_type_symbol
 _atom_site_label
 _atom_site_symmetry_multiplicity
 _atom_site_fract_x
 _atom_site_fract_y
 _atom_site_fract_z
 _atom_site_occupancy
  Er  Er0  1  0.296680  0.088341  0.367591  1
  Er  Er1  1  0.296962  0.908764  0.867006  1
  Er  Er2  1  0.699817  0.080705  0.864543  1
  Er  Er3  1  0.700066  0.908808  0.365459  1
  Er  Er4  1  0.579091  0.787131  0.872865  1
  Er  Er5  1  0.577380  0.204916  0.365360  1
  Er  Er6  1  0.418043  0.790024  0.371073  1
  Er  Er7  1  0.411815  0.205090  0.875581  1
  Er  Er8  1  0.212869  0.420909  0.627135  1
  Er  Er9  1  0.209976  0.581957  0.128927  1
  Er  Er10  1  0.795084  0.422620  0.134640  1
  Er  Er11  1  0.794910  0.588185  0.624419  1
  Er  Er12  1  0.911659  0.703320  0.132409  1
  Er  Er13  1  0.919295  0.300183  0.635457  1
  Er  Er14  1  0.091236  0.703038  0.632994  1
  Er  Er15  1  0.091192  0.299934  0.134541  1
  Er  Er16  1  0.997597  0.000651  0.499487  1
  Er  Er17  1  0.999349  0.002403  0.000513  1
  Er  Er18  1  0.497456  0.500067  0.002901  1
  Er  Er19  1  0.499933  0.502544  0.497099  1
  Os  Os20  1  0.654862  0.651403  0.247721  1
  Os  Os21  1  0.348597  0.345138  0.252279  1
  Os  Os22  1  0.346142  0.653858  0.750000  1
  Os  Os23  1  0.498674  0.999467  0.116206  1
  Os  Os24  1  0.498894  0.999357  0.618366  1
  Os  Os25  1  0.000643  0.501106  0.881634  1
  Os  Os26  1  0.000533  0.501326  0.383794  1
  Pd  Pd27  1  0.845270  0.154730  0.250000  1
  Pd  Pd28  1  0.848025  0.850186  0.750476  1
  Pd  Pd29  1  0.149814  0.151975  0.749524  1
  Pd  Pd30  1  0.150700  0.849300  0.250000  1
  Pd  Pd31  1  0.657439  0.342561  0.750000  1
