# generated using pymatgen
data_Co3Sn16Ir
_symmetry_space_group_name_H-M   'P 1'
_cell_length_a   12.63181612
_cell_length_b   12.63181597
_cell_length_c   12.63292510
_cell_angle_alpha   151.34699200
_cell_angle_beta   151.34699043
_cell_angle_gamma   40.95421287
_symmetry_Int_Tables_number   1
_chemical_formula_structural   Co3Sn16Ir
_chemical_formula_sum   'Co3 Sn16 Ir1'
_cell_volume   462.50145370
_cell_formula_units_Z   1
loop_
 _symmetry_equiv_pos_site_id
 _symmetry_equiv_pos_as_xyz
  1  'x, y, z'
loop_
 _atom_site_type_symbol
 _atom_site_label
 _atom_site_symmetry_multiplicity
 _atom_site_fract_x
 _atom_site_fract_y
 _atom_site_fract_z
 _atom_site_occupancy
  Co  Co0  1  0.500000  0.000000  0.500000  1
  Co  Co1  1  0.750000  0.750000  0.000000  1
  Co  Co2  1  0.250000  0.250000  0.000000  1
  Sn  Sn3  1  0.999775  0.499025  0.873668  1
  Sn  Sn4  1  0.373892  0.874642  0.873668  1
  Sn  Sn5  1  0.000975  0.500225  0.126332  1
  Sn  Sn6  1  0.260818  0.621782  0.009501  1
  Sn  Sn7  1  0.122524  0.111816  0.360809  1
  Sn  Sn8  1  0.874009  0.000428  0.498986  1
  Sn  Sn9  1  0.501442  0.375023  0.501014  1
  Sn  Sn10  1  0.124977  0.998558  0.498986  1
  Sn  Sn11  1  0.499572  0.625991  0.501014  1
  Sn  Sn12  1  0.738285  0.748993  0.360809  1
  Sn  Sn13  1  0.388184  0.377476  0.639191  1
  Sn  Sn14  1  0.751007  0.761715  0.639191  1
  Sn  Sn15  1  0.625358  0.126108  0.126332  1
  Sn  Sn16  1  0.878218  0.239182  0.990499  1
  Sn  Sn17  1  0.248683  0.887719  0.009501  1
  Sn  Sn18  1  0.612281  0.251317  0.990499  1
  Ir  Ir19  1  0.000000  0.500000  0.500000  1
