# generated using pymatgen
data_TbDyMgCuNi
_symmetry_space_group_name_H-M   'P 1'
_cell_length_a   7.56717907
_cell_length_b   7.56717997
_cell_length_c   3.66381100
_cell_angle_alpha   90.00000000
_cell_angle_beta   90.00000000
_cell_angle_gamma   88.83424059
_symmetry_Int_Tables_number   1
_chemical_formula_structural   TbDyMgCuNi
_chemical_formula_sum   'Tb2 Dy2 Mg2 Cu2 Ni2'
_cell_volume   209.75447591
_cell_formula_units_Z   2
loop_
 _symmetry_equiv_pos_site_id
 _symmetry_equiv_pos_as_xyz
  1  'x, y, z'
loop_
 _atom_site_type_symbol
 _atom_site_label
 _atom_site_symmetry_multiplicity
 _atom_site_fract_x
 _atom_site_fract_y
 _atom_site_fract_z
 _atom_site_occupancy
  Tb  Tb0  1  0.182352  0.317648  0.500000  1
  Tb  Tb1  1  0.817648  0.682352  0.500000  1
  Dy  Dy2  1  0.663787  0.163787  0.500000  1
  Dy  Dy3  1  0.336213  0.836213  0.500000  1
  Mg  Mg4  1  0.000000  0.000000  0.000000  1
  Mg  Mg5  1  0.500000  0.500000  0.000000  1
  Cu  Cu6  1  0.120883  0.620883  0.000000  1
  Cu  Cu7  1  0.879117  0.379117  0.000000  1
  Ni  Ni8  1  0.619950  0.880050  0.000000  1
  Ni  Ni9  1  0.380050  0.119950  0.000000  1
