# generated using pymatgen
data_PrCrCo(PRh)3
_symmetry_space_group_name_H-M   'P 1'
_cell_length_a   3.85775300
_cell_length_b   10.84310900
_cell_length_c   12.53978700
_cell_angle_alpha   90.00000000
_cell_angle_beta   90.00000000
_cell_angle_gamma   90.00000000
_symmetry_Int_Tables_number   1
_chemical_formula_structural   PrCrCo(PRh)3
_chemical_formula_sum   'Pr4 Cr4 Co4 P12 Rh12'
_cell_volume   524.53974508
_cell_formula_units_Z   4
loop_
 _symmetry_equiv_pos_site_id
 _symmetry_equiv_pos_as_xyz
  1  'x, y, z'
loop_
 _atom_site_type_symbol
 _atom_site_label
 _atom_site_symmetry_multiplicity
 _atom_site_fract_x
 _atom_site_fract_y
 _atom_site_fract_z
 _atom_site_occupancy
  Pr  Pr0  1  0.250000  0.582401  0.707607  1
  Pr  Pr1  1  0.250000  0.917599  0.207607  1
  Pr  Pr2  1  0.750000  0.417599  0.292393  1
  Pr  Pr3  1  0.750000  0.082401  0.792393  1
  Cr  Cr4  1  0.250000  0.705940  0.987251  1
  Cr  Cr5  1  0.250000  0.794060  0.487251  1
  Cr  Cr6  1  0.750000  0.294060  0.012749  1
  Cr  Cr7  1  0.750000  0.205940  0.512749  1
  Co  Co8  1  0.250000  0.464462  0.935748  1
  Co  Co9  1  0.250000  0.035538  0.435748  1
  Co  Co10  1  0.750000  0.535538  0.064252  1
  Co  Co11  1  0.750000  0.964462  0.564252  1
  P  P12  1  0.250000  0.423613  0.104676  1
  P  P13  1  0.250000  0.076387  0.604676  1
  P  P14  1  0.750000  0.576387  0.895324  1
  P  P15  1  0.750000  0.923613  0.395324  1
  P  P16  1  0.250000  0.273998  0.874509  1
  P  P17  1  0.250000  0.226002  0.374509  1
  P  P18  1  0.750000  0.726002  0.125491  1
  P  P19  1  0.750000  0.773998  0.625491  1
  P  P20  1  0.250000  0.603262  0.390881  1
  P  P21  1  0.250000  0.896738  0.890881  1
  P  P22  1  0.750000  0.396738  0.609119  1
  P  P23  1  0.750000  0.103262  0.109119  1
  Rh  Rh24  1  0.250000  0.404470  0.488087  1
  Rh  Rh25  1  0.250000  0.095530  0.988087  1
  Rh  Rh26  1  0.750000  0.595530  0.511913  1
  Rh  Rh27  1  0.750000  0.904470  0.011913  1
  Rh  Rh28  1  0.250000  0.227965  0.177848  1
  Rh  Rh29  1  0.250000  0.272035  0.677848  1
  Rh  Rh30  1  0.750000  0.772035  0.822152  1
  Rh  Rh31  1  0.750000  0.727965  0.322152  1
  Rh  Rh32  1  0.250000  0.884313  0.695707  1
  Rh  Rh33  1  0.250000  0.615687  0.195707  1
  Rh  Rh34  1  0.750000  0.115687  0.304293  1
  Rh  Rh35  1  0.750000  0.384313  0.804293  1
