# generated using pymatgen
data_Li4Dy4Co5P12Ir11
_symmetry_space_group_name_H-M   'P 1'
_cell_length_a   3.85766100
_cell_length_b   10.64271517
_cell_length_c   12.52192026
_cell_angle_alpha   90.09534714
_cell_angle_beta   90.00000000
_cell_angle_gamma   90.00000000
_symmetry_Int_Tables_number   1
_chemical_formula_structural   Li4Dy4Co5P12Ir11
_chemical_formula_sum   'Li4 Dy4 Co5 P12 Ir11'
_cell_volume   514.09908683
_cell_formula_units_Z   1
loop_
 _symmetry_equiv_pos_site_id
 _symmetry_equiv_pos_as_xyz
  1  'x, y, z'
loop_
 _atom_site_type_symbol
 _atom_site_label
 _atom_site_symmetry_multiplicity
 _atom_site_fract_x
 _atom_site_fract_y
 _atom_site_fract_z
 _atom_site_occupancy
  Li  Li0  1  0.250000  0.704505  0.985526  1
  Li  Li1  1  0.250000  0.793229  0.488209  1
  Li  Li2  1  0.750000  0.293567  0.007692  1
  Li  Li3  1  0.750000  0.209072  0.514200  1
  Dy  Dy4  1  0.250000  0.578912  0.711633  1
  Dy  Dy5  1  0.250000  0.918873  0.209689  1
  Dy  Dy6  1  0.750000  0.418912  0.290233  1
  Dy  Dy7  1  0.750000  0.083689  0.791665  1
  Co  Co8  1  0.750000  0.381539  0.807343  1
  Co  Co9  1  0.250000  0.464250  0.933143  1
  Co  Co10  1  0.250000  0.034161  0.437316  1
  Co  Co11  1  0.750000  0.532364  0.061475  1
  Co  Co12  1  0.750000  0.967624  0.565209  1
  P  P13  1  0.250000  0.423316  0.105145  1
  P  P14  1  0.250000  0.078396  0.608445  1
  P  P15  1  0.750000  0.568194  0.887602  1
  P  P16  1  0.750000  0.923727  0.393713  1
  P  P17  1  0.250000  0.274863  0.863491  1
  P  P18  1  0.250000  0.229551  0.365932  1
  P  P19  1  0.750000  0.729531  0.133937  1
  P  P20  1  0.750000  0.770355  0.635462  1
  P  P21  1  0.250000  0.600284  0.386366  1
  P  P22  1  0.250000  0.899059  0.886887  1
  P  P23  1  0.750000  0.400744  0.621478  1
  P  P24  1  0.750000  0.101518  0.112845  1
  Ir  Ir25  1  0.250000  0.405212  0.473499  1
  Ir  Ir26  1  0.250000  0.096114  0.972726  1
  Ir  Ir27  1  0.750000  0.593789  0.528152  1
  Ir  Ir28  1  0.750000  0.905042  0.025596  1
  Ir  Ir29  1  0.250000  0.222770  0.173025  1
  Ir  Ir30  1  0.250000  0.282095  0.676081  1
  Ir  Ir31  1  0.750000  0.774815  0.826728  1
  Ir  Ir32  1  0.750000  0.721201  0.327520  1
  Ir  Ir33  1  0.250000  0.883593  0.693888  1
  Ir  Ir34  1  0.250000  0.617873  0.191044  1
  Ir  Ir35  1  0.750000  0.117258  0.307106  1
