# generated using pymatgen
data_Dy16Hg4IrRh3
_symmetry_space_group_name_H-M   'P 1'
_cell_length_a   9.60322430
_cell_length_b   9.60322504
_cell_length_c   9.60322478
_cell_angle_alpha   59.84145604
_cell_angle_beta   59.84145233
_cell_angle_gamma   59.84145709
_symmetry_Int_Tables_number   1
_chemical_formula_structural   Dy16Hg4IrRh3
_chemical_formula_sum   'Dy16 Hg4 Ir1 Rh3'
_cell_volume   623.98017103
_cell_formula_units_Z   1
loop_
 _symmetry_equiv_pos_site_id
 _symmetry_equiv_pos_as_xyz
  1  'x, y, z'
loop_
 _atom_site_type_symbol
 _atom_site_label
 _atom_site_symmetry_multiplicity
 _atom_site_fract_x
 _atom_site_fract_y
 _atom_site_fract_z
 _atom_site_occupancy
  Dy  Dy0  1  0.690371  0.310246  0.310246  1
  Dy  Dy1  1  0.689784  0.689784  0.311858  1
  Dy  Dy2  1  0.310246  0.690371  0.310246  1
  Dy  Dy3  1  0.936962  0.936962  0.562311  1
  Dy  Dy4  1  0.147964  0.147964  0.554269  1
  Dy  Dy5  1  0.562292  0.938927  0.562292  1
  Dy  Dy6  1  0.149455  0.149455  0.149455  1
  Dy  Dy7  1  0.310246  0.310246  0.690371  1
  Dy  Dy8  1  0.938927  0.562292  0.562292  1
  Dy  Dy9  1  0.562292  0.562292  0.938927  1
  Dy  Dy10  1  0.562311  0.936962  0.936962  1
  Dy  Dy11  1  0.936962  0.562311  0.936962  1
  Dy  Dy12  1  0.147964  0.554269  0.147964  1
  Dy  Dy13  1  0.311858  0.689784  0.689784  1
  Dy  Dy14  1  0.689784  0.311858  0.689784  1
  Dy  Dy15  1  0.554269  0.147964  0.147964  1
  Hg  Hg16  1  0.914808  0.914808  0.255740  1
  Hg  Hg17  1  0.255740  0.914808  0.914808  1
  Hg  Hg18  1  0.914808  0.255740  0.914808  1
  Hg  Hg19  1  0.915245  0.915245  0.915245  1
  Ir  Ir20  1  0.357608  0.357608  0.357608  1
  Rh  Rh21  1  0.927404  0.356350  0.356350  1
  Rh  Rh22  1  0.356350  0.356350  0.927404  1
  Rh  Rh23  1  0.356350  0.927404  0.356350  1
