# generated using pymatgen
data_PrYTm2Ir2(RhO7)2
_symmetry_space_group_name_H-M   'P 1'
_cell_length_a   7.31105553
_cell_length_b   7.30733189
_cell_length_c   7.30733266
_cell_angle_alpha   59.28579957
_cell_angle_beta   59.28570787
_cell_angle_gamma   59.28572207
_symmetry_Int_Tables_number   1
_chemical_formula_structural   PrYTm2Ir2(RhO7)2
_chemical_formula_sum   'Pr1 Y1 Tm2 Ir2 Rh2 O14'
_cell_volume   271.55692799
_cell_formula_units_Z   1
loop_
 _symmetry_equiv_pos_site_id
 _symmetry_equiv_pos_as_xyz
  1  'x, y, z'
loop_
 _atom_site_type_symbol
 _atom_site_label
 _atom_site_symmetry_multiplicity
 _atom_site_fract_x
 _atom_site_fract_y
 _atom_site_fract_z
 _atom_site_occupancy
  Pr  Pr0  1  0.125000  0.125000  0.125000  1
  Y  Y1  1  0.625000  0.125000  0.125000  1
  Tm  Tm2  1  0.125000  0.625000  0.125000  1
  Tm  Tm3  1  0.125000  0.125000  0.625000  1
  Ir  Ir4  1  0.125000  0.625000  0.625000  1
  Ir  Ir5  1  0.625000  0.625000  0.625000  1
  Rh  Rh6  1  0.625000  0.125000  0.625000  1
  Rh  Rh7  1  0.625000  0.625000  0.125000  1
  O  O8  1  0.718728  0.704986  0.291562  1
  O  O9  1  0.286192  0.291988  0.696296  1
  O  O10  1  0.718728  0.291562  0.704986  1
  O  O11  1  0.286192  0.696296  0.291988  1
  O  O12  1  0.292014  0.708806  0.708806  1
  O  O13  1  0.704674  0.285433  0.285433  1
  O  O14  1  0.531272  0.545014  0.958438  1
  O  O15  1  0.963808  0.958012  0.553704  1
  O  O16  1  0.531272  0.958438  0.545014  1
  O  O17  1  0.963808  0.553704  0.958012  1
  O  O18  1  0.957986  0.541194  0.541194  1
  O  O19  1  0.545326  0.964567  0.964567  1
  O  O20  1  0.249184  0.257948  0.257948  1
  O  O21  1  0.000816  0.992052  0.992052  1
