# generated using pymatgen
data_ZnGa2NiPt4
_symmetry_space_group_name_H-M   'P 1'
_cell_length_a   5.40743499
_cell_length_b   5.40743468
_cell_length_c   3.98456400
_cell_angle_alpha   90.00000000
_cell_angle_beta   90.00000000
_cell_angle_gamma   95.66800484
_symmetry_Int_Tables_number   1
_chemical_formula_structural   ZnGa2NiPt4
_chemical_formula_sum   'Zn1 Ga2 Ni1 Pt4'
_cell_volume   115.94041999
_cell_formula_units_Z   1
loop_
 _symmetry_equiv_pos_site_id
 _symmetry_equiv_pos_as_xyz
  1  'x, y, z'
loop_
 _atom_site_type_symbol
 _atom_site_label
 _atom_site_symmetry_multiplicity
 _atom_site_fract_x
 _atom_site_fract_y
 _atom_site_fract_z
 _atom_site_occupancy
  Zn  Zn0  1  0.000000  0.000000  0.000000  1
  Ga  Ga1  1  0.723090  0.276910  0.500000  1
  Ga  Ga2  1  0.276910  0.723090  0.500000  1
  Ni  Ni3  1  0.500000  0.500000  0.000000  1
  Pt  Pt4  1  0.500000  0.000000  0.000000  1
  Pt  Pt5  1  0.000000  0.500000  0.000000  1
  Pt  Pt6  1  0.766579  0.766579  0.500000  1
  Pt  Pt7  1  0.233421  0.233421  0.500000  1
