# generated using pymatgen
data_NaHoMnPt3
_symmetry_space_group_name_H-M   'P 1'
_cell_length_a   5.21643302
_cell_length_b   5.21643287
_cell_length_c   5.21643328
_cell_angle_alpha   63.99561499
_cell_angle_beta   63.99561128
_cell_angle_gamma   63.99561402
_symmetry_Int_Tables_number   1
_chemical_formula_structural   NaHoMnPt3
_chemical_formula_sum   'Na1 Ho1 Mn1 Pt3'
_cell_volume   109.20319806
_cell_formula_units_Z   1
loop_
 _symmetry_equiv_pos_site_id
 _symmetry_equiv_pos_as_xyz
  1  'x, y, z'
loop_
 _atom_site_type_symbol
 _atom_site_label
 _atom_site_symmetry_multiplicity
 _atom_site_fract_x
 _atom_site_fract_y
 _atom_site_fract_z
 _atom_site_occupancy
  Na  Na0  1  0.998576  0.998576  0.998576  1
  Ho  Ho1  1  0.247147  0.247147  0.247147  1
  Mn  Mn2  1  0.626273  0.626273  0.626273  1
  Pt  Pt3  1  0.626647  0.626647  0.124712  1
  Pt  Pt4  1  0.626647  0.124712  0.626647  1
  Pt  Pt5  1  0.124712  0.626647  0.626647  1
