# generated using pymatgen
data_Nb12CuNi7(SnN)4
_symmetry_space_group_name_H-M   'P 1'
_cell_length_a   8.28673595
_cell_length_b   8.30374261
_cell_length_c   8.29773107
_cell_angle_alpha   60.01017989
_cell_angle_beta   59.94541175
_cell_angle_gamma   60.01366015
_symmetry_Int_Tables_number   1
_chemical_formula_structural   Nb12CuNi7(SnN)4
_chemical_formula_sum   'Nb12 Cu1 Ni7 Sn4 N4'
_cell_volume   403.64577113
_cell_formula_units_Z   1
loop_
 _symmetry_equiv_pos_site_id
 _symmetry_equiv_pos_as_xyz
  1  'x, y, z'
loop_
 _atom_site_type_symbol
 _atom_site_label
 _atom_site_symmetry_multiplicity
 _atom_site_fract_x
 _atom_site_fract_y
 _atom_site_fract_z
 _atom_site_occupancy
  Nb  Nb0  1  0.819271  0.818909  0.180877  1
  Nb  Nb1  1  0.182474  0.185043  0.816190  1
  Nb  Nb2  1  0.819492  0.180740  0.819007  1
  Nb  Nb3  1  0.182571  0.816169  0.185081  1
  Nb  Nb4  1  0.182388  0.816351  0.816242  1
  Nb  Nb5  1  0.819220  0.180945  0.180962  1
  Nb  Nb6  1  0.433787  0.433409  0.066486  1
  Nb  Nb7  1  0.068140  0.069828  0.431078  1
  Nb  Nb8  1  0.433538  0.066523  0.433317  1
  Nb  Nb9  1  0.067974  0.431136  0.069783  1
  Nb  Nb10  1  0.068083  0.431009  0.431130  1
  Nb  Nb11  1  0.433742  0.066342  0.066560  1
  Cu  Cu12  1  0.748548  0.417052  0.417179  1
  Ni  Ni13  1  0.413673  0.762684  0.411953  1
  Ni  Ni14  1  0.413444  0.411667  0.763299  1
  Ni  Ni15  1  0.413324  0.411336  0.411810  1
  Ni  Ni16  1  0.481392  0.839707  0.839472  1
  Ni  Ni17  1  0.839277  0.487950  0.836328  1
  Ni  Ni18  1  0.839032  0.836693  0.487804  1
  Ni  Ni19  1  0.839100  0.836893  0.835882  1
  Sn  Sn20  1  0.126767  0.624423  0.624390  1
  Sn  Sn21  1  0.624192  0.121323  0.627288  1
  Sn  Sn22  1  0.624253  0.627302  0.121213  1
  Sn  Sn23  1  0.624264  0.627248  0.627307  1
  N  N24  1  0.623633  0.125457  0.125468  1
  N  N25  1  0.126134  0.625436  0.124232  1
  N  N26  1  0.126154  0.124215  0.625452  1
  N  N27  1  0.126136  0.124208  0.124208  1
