# generated using pymatgen
data_Lu4Al3(CoO4)5
_symmetry_space_group_name_H-M   'P 1'
_cell_length_a   5.62090000
_cell_length_b   7.08918212
_cell_length_c   8.24998439
_cell_angle_alpha   89.85983044
_cell_angle_beta   90.00000000
_cell_angle_gamma   90.00000000
_symmetry_Int_Tables_number   1
_chemical_formula_structural   Lu4Al3(CoO4)5
_chemical_formula_sum   'Lu4 Al3 Co5 O20'
_cell_volume   328.74096037
_cell_formula_units_Z   1
loop_
 _symmetry_equiv_pos_site_id
 _symmetry_equiv_pos_as_xyz
  1  'x, y, z'
loop_
 _atom_site_type_symbol
 _atom_site_label
 _atom_site_symmetry_multiplicity
 _atom_site_fract_x
 _atom_site_fract_y
 _atom_site_fract_z
 _atom_site_occupancy
  Lu  Lu0  1  0.000000  0.138381  0.169062  1
  Lu  Lu1  1  0.000000  0.862866  0.831783  1
  Lu  Lu2  1  0.000000  0.634897  0.330142  1
  Lu  Lu3  1  0.000000  0.371475  0.669755  1
  Al  Al4  1  0.500000  0.393439  0.355772  1
  Al  Al5  1  0.500000  0.607858  0.644226  1
  Al  Al6  1  0.500000  0.892366  0.145718  1
  Co  Co7  1  0.252061  0.000290  0.499574  1
  Co  Co8  1  0.746492  0.499759  0.000658  1
  Co  Co9  1  0.747939  0.000290  0.499574  1
  Co  Co10  1  0.253508  0.499759  0.000658  1
  Co  Co11  1  0.500000  0.091115  0.848324  1
  O  O12  1  0.273706  0.999448  0.002149  1
  O  O13  1  0.723924  0.500649  0.499857  1
  O  O14  1  0.726294  0.999448  0.002149  1
  O  O15  1  0.276076  0.500649  0.499857  1
  O  O16  1  0.000000  0.163884  0.442355  1
  O  O17  1  0.000000  0.836638  0.556952  1
  O  O18  1  0.000000  0.664929  0.057543  1
  O  O19  1  0.000000  0.336870  0.942565  1
  O  O20  1  0.500000  0.153085  0.427491  1
  O  O21  1  0.500000  0.848578  0.574869  1
  O  O22  1  0.500000  0.654056  0.073427  1
  O  O23  1  0.500000  0.347500  0.930496  1
  O  O24  1  0.246354  0.392397  0.208906  1
  O  O25  1  0.246528  0.607657  0.791144  1
  O  O26  1  0.754145  0.892490  0.291180  1
  O  O27  1  0.761866  0.108342  0.706291  1
  O  O28  1  0.753472  0.607657  0.791144  1
  O  O29  1  0.753646  0.392397  0.208906  1
  O  O30  1  0.238134  0.108342  0.706291  1
  O  O31  1  0.245855  0.892490  0.291180  1
