# generated using pymatgen
data_LaPmPSe
_symmetry_space_group_name_H-M   'P 1'
_cell_length_a   5.91664900
_cell_length_b   5.91664900
_cell_length_c   5.97415500
_cell_angle_alpha   90.00000000
_cell_angle_beta   90.00000000
_cell_angle_gamma   90.00000000
_symmetry_Int_Tables_number   1
_chemical_formula_structural   LaPmPSe
_chemical_formula_sum   'La2 Pm2 P2 Se2'
_cell_volume   209.13566326
_cell_formula_units_Z   2
loop_
 _symmetry_equiv_pos_site_id
 _symmetry_equiv_pos_as_xyz
  1  'x, y, z'
loop_
 _atom_site_type_symbol
 _atom_site_label
 _atom_site_symmetry_multiplicity
 _atom_site_fract_x
 _atom_site_fract_y
 _atom_site_fract_z
 _atom_site_occupancy
  La  La0  1  0.500000  0.000000  0.001031  1
  La  La1  1  0.000000  0.500000  0.998969  1
  Pm  Pm2  1  0.000000  0.000000  0.500000  1
  Pm  Pm3  1  0.500000  0.500000  0.500000  1
  P  P4  1  0.000000  0.500000  0.498759  1
  P  P5  1  0.500000  0.000000  0.501241  1
  Se  Se6  1  0.000000  0.000000  0.000000  1
  Se  Se7  1  0.500000  0.500000  0.000000  1
