# generated using pymatgen
data_Li6Tb2NpN6
_symmetry_space_group_name_H-M   'P 1'
_cell_length_a   6.01025200
_cell_length_b   6.01025257
_cell_length_c   5.47412700
_cell_angle_alpha   90.00000000
_cell_angle_beta   90.00000000
_cell_angle_gamma   120.00000785
_symmetry_Int_Tables_number   1
_chemical_formula_structural   Li6Tb2NpN6
_chemical_formula_sum   'Li6 Tb2 Np1 N6'
_cell_volume   171.25011464
_cell_formula_units_Z   1
loop_
 _symmetry_equiv_pos_site_id
 _symmetry_equiv_pos_as_xyz
  1  'x, y, z'
loop_
 _atom_site_type_symbol
 _atom_site_label
 _atom_site_symmetry_multiplicity
 _atom_site_fract_x
 _atom_site_fract_y
 _atom_site_fract_z
 _atom_site_occupancy
  Li  Li0  1  0.978976  0.649358  0.606093  1
  Li  Li1  1  0.350642  0.329618  0.606093  1
  Li  Li2  1  0.670382  0.021024  0.606093  1
  Li  Li3  1  0.004250  0.337568  0.391577  1
  Li  Li4  1  0.662432  0.666681  0.391577  1
  Li  Li5  1  0.333319  0.995750  0.391577  1
  Tb  Tb6  1  0.000000  0.000000  0.998839  1
  Tb  Tb7  1  0.333333  0.666667  0.993176  1
  Np  Np8  1  0.666667  0.333333  0.005271  1
  N  N9  1  0.974095  0.640916  0.226856  1
  N  N10  1  0.359084  0.333178  0.226856  1
  N  N11  1  0.666822  0.025905  0.226856  1
  N  N12  1  0.971651  0.333727  0.776378  1
  N  N13  1  0.666273  0.637925  0.776378  1
  N  N14  1  0.362075  0.028349  0.776378  1
