# generated using pymatgen
data_La5Tm3(Sc3Pt4)4
_symmetry_space_group_name_H-M   'P 1'
_cell_length_a   7.51386102
_cell_length_b   7.48281306
_cell_length_c   13.85320098
_cell_angle_alpha   89.85470584
_cell_angle_beta   90.46730516
_cell_angle_gamma   89.97201178
_symmetry_Int_Tables_number   1
_chemical_formula_structural   La5Tm3(Sc3Pt4)4
_chemical_formula_sum   'La5 Tm3 Sc12 Pt16'
_cell_volume   778.86518373
_cell_formula_units_Z   1
loop_
 _symmetry_equiv_pos_site_id
 _symmetry_equiv_pos_as_xyz
  1  'x, y, z'
loop_
 _atom_site_type_symbol
 _atom_site_label
 _atom_site_symmetry_multiplicity
 _atom_site_fract_x
 _atom_site_fract_y
 _atom_site_fract_z
 _atom_site_occupancy
  La  La0  1  0.006523  0.175890  0.098072  1
  La  La1  1  0.993499  0.824721  0.902807  1
  La  La2  1  0.493463  0.676087  0.904117  1
  La  La3  1  0.991467  0.826369  0.591763  1
  La  La4  1  0.506541  0.323783  0.097874  1
  Tm  Tm5  1  0.008317  0.179264  0.402878  1
  Tm  Tm6  1  0.506497  0.325448  0.405125  1
  Tm  Tm7  1  0.489644  0.672061  0.594632  1
  Sc  Sc8  1  0.168012  0.494629  0.744586  1
  Sc  Sc9  1  0.833222  0.504252  0.255666  1
  Sc  Sc10  1  0.332917  0.997092  0.255888  1
  Sc  Sc11  1  0.664496  0.004584  0.744739  1
  Sc  Sc12  1  0.336527  0.166616  0.621059  1
  Sc  Sc13  1  0.665342  0.834726  0.379739  1
  Sc  Sc14  1  0.171605  0.661431  0.377630  1
  Sc  Sc15  1  0.665508  0.837651  0.131105  1
  Sc  Sc16  1  0.832932  0.335199  0.620157  1
  Sc  Sc17  1  0.336701  0.163435  0.871181  1
  Sc  Sc18  1  0.834868  0.337939  0.871048  1
  Sc  Sc19  1  0.164129  0.663750  0.130621  1
  Pt  Pt20  1  0.035322  0.134552  0.747669  1
  Pt  Pt21  1  0.967718  0.870921  0.256581  1
  Pt  Pt22  1  0.468844  0.628966  0.254720  1
  Pt  Pt23  1  0.531683  0.369882  0.745065  1
  Pt  Pt24  1  0.302555  0.860345  0.743814  1
  Pt  Pt25  1  0.703059  0.140675  0.259482  1
  Pt  Pt26  1  0.204199  0.358699  0.258329  1
  Pt  Pt27  1  0.792539  0.637178  0.744296  1
  Pt  Pt28  1  0.176183  0.449696  0.539666  1
  Pt  Pt29  1  0.822828  0.534213  0.453971  1
  Pt  Pt30  1  0.326896  0.961590  0.453592  1
  Pt  Pt31  1  0.832302  0.550151  0.046385  1
  Pt  Pt32  1  0.664525  0.048950  0.541149  1
  Pt  Pt33  1  0.168207  0.449188  0.954110  1
  Pt  Pt34  1  0.668512  0.050109  0.954151  1
  Pt  Pt35  1  0.332417  0.949958  0.046334  1
