# generated using pymatgen
data_La8Nd2GaSn5
_symmetry_space_group_name_H-M   'P 1'
_cell_length_a   9.44485451
_cell_length_b   9.44481741
_cell_length_c   9.44485400
_cell_angle_alpha   96.35505082
_cell_angle_beta   96.35573380
_cell_angle_gamma   141.13374883
_symmetry_Int_Tables_number   1
_chemical_formula_structural   La8Nd2GaSn5
_chemical_formula_sum   'La8 Nd2 Ga1 Sn5'
_cell_volume   498.56969442
_cell_formula_units_Z   1
loop_
 _symmetry_equiv_pos_site_id
 _symmetry_equiv_pos_as_xyz
  1  'x, y, z'
loop_
 _atom_site_type_symbol
 _atom_site_label
 _atom_site_symmetry_multiplicity
 _atom_site_fract_x
 _atom_site_fract_y
 _atom_site_fract_z
 _atom_site_occupancy
  La  La0  1  0.907138  0.213330  0.131435  1
  La  La1  1  0.213197  0.081821  0.306206  1
  La  La2  1  0.775654  0.907017  0.693825  1
  La  La3  1  0.081819  0.775633  0.868560  1
  La  La4  1  0.724387  0.418179  0.131376  1
  La  La5  1  0.286807  0.592983  0.868636  1
  La  La6  1  0.592927  0.724367  0.306185  1
  La  La7  1  0.418104  0.286670  0.693808  1
  Nd  Nd8  1  0.750006  0.250000  0.500006  1
  Nd  Nd9  1  0.249997  0.750000  0.499997  1
  Ga  Ga10  1  0.749997  0.750000  0.999997  1
  Sn  Sn11  1  0.249991  0.250000  0.999991  1
  Sn  Sn12  1  0.842102  0.657622  0.499886  1
  Sn  Sn13  1  0.657880  0.157769  0.815502  1
  Sn  Sn14  1  0.342264  0.842378  0.184479  1
  Sn  Sn15  1  0.157732  0.342231  0.500111  1
