# generated using pymatgen
data_K2MnSiSe4
_symmetry_space_group_name_H-M   'P 1'
_cell_length_a   13.55376274
_cell_length_b   12.07480826
_cell_length_c   7.52038967
_cell_angle_alpha   84.10503738
_cell_angle_beta   62.39598462
_cell_angle_gamma   33.49897456
_symmetry_Int_Tables_number   1
_chemical_formula_structural   K2MnSiSe4
_chemical_formula_sum   'K4 Mn2 Si2 Se8'
_cell_volume   490.36630139
_cell_formula_units_Z   2
loop_
 _symmetry_equiv_pos_site_id
 _symmetry_equiv_pos_as_xyz
  1  'x, y, z'
loop_
 _atom_site_type_symbol
 _atom_site_label
 _atom_site_symmetry_multiplicity
 _atom_site_fract_x
 _atom_site_fract_y
 _atom_site_fract_z
 _atom_site_occupancy
  K  K0  1  0.680666  0.680666  0.319334  1
  K  K1  1  0.319334  0.319334  0.680666  1
  K  K2  1  0.569334  0.569334  0.930666  1
  K  K3  1  0.930666  0.930666  0.569334  1
  Mn  Mn4  1  0.000000  0.000000  0.000000  1
  Mn  Mn5  1  0.250000  0.250000  0.250000  1
  Si  Si6  1  0.500000  0.500000  0.500000  1
  Si  Si7  1  0.750000  0.750000  0.750000  1
  Se  Se8  1  0.376988  0.010895  0.927634  1
  Se  Se9  1  0.684482  0.927634  0.010895  1
  Se  Se10  1  0.927634  0.684482  0.376988  1
  Se  Se11  1  0.010895  0.376988  0.684482  1
  Se  Se12  1  0.873012  0.239105  0.322366  1
  Se  Se13  1  0.565518  0.322366  0.239105  1
  Se  Se14  1  0.322366  0.565518  0.873012  1
  Se  Se15  1  0.239105  0.873012  0.565518  1
