# generated using pymatgen
data_Tb3YTm(SiB4)2
_symmetry_space_group_name_H-M   'P 1'
_cell_length_a   7.23345403
_cell_length_b   7.23345403
_cell_length_c   8.08590400
_cell_angle_alpha   90.00000000
_cell_angle_beta   90.00000000
_cell_angle_gamma   90.01015465
_symmetry_Int_Tables_number   1
_chemical_formula_structural   Tb3YTm(SiB4)2
_chemical_formula_sum   'Tb6 Y2 Tm2 Si4 B16'
_cell_volume   423.07759353
_cell_formula_units_Z   2
loop_
 _symmetry_equiv_pos_site_id
 _symmetry_equiv_pos_as_xyz
  1  'x, y, z'
loop_
 _atom_site_type_symbol
 _atom_site_label
 _atom_site_symmetry_multiplicity
 _atom_site_fract_x
 _atom_site_fract_y
 _atom_site_fract_z
 _atom_site_occupancy
  Tb  Tb0  1  0.680334  0.180353  0.225423  1
  Tb  Tb1  1  0.319647  0.819666  0.774577  1
  Tb  Tb2  1  0.319647  0.819666  0.225423  1
  Tb  Tb3  1  0.819637  0.680363  0.225320  1
  Tb  Tb4  1  0.819637  0.680363  0.774680  1
  Tb  Tb5  1  0.680334  0.180353  0.774577  1
  Y  Y6  1  0.180301  0.319699  0.775166  1
  Y  Y7  1  0.180301  0.319699  0.224834  1
  Tm  Tm8  1  0.000024  0.000100  0.500000  1
  Tm  Tm9  1  0.499900  0.499976  0.500000  1
  Si  Si10  1  0.115569  0.615219  0.500000  1
  Si  Si11  1  0.884781  0.384431  0.500000  1
  Si  Si12  1  0.384374  0.115626  0.500000  1
  Si  Si13  1  0.615335  0.884665  0.500000  1
  B  B14  1  0.172412  0.039152  0.000000  1
  B  B15  1  0.827740  0.960991  0.000000  1
  B  B16  1  0.960889  0.172349  0.000000  1
  B  B17  1  0.327651  0.539111  0.000000  1
  B  B18  1  0.039120  0.827740  0.000000  1
  B  B19  1  0.672260  0.460880  0.000000  1
  B  B20  1  0.539009  0.672260  0.000000  1
  B  B21  1  0.460848  0.327588  0.000000  1
  B  B22  1  0.089940  0.589803  0.000000  1
  B  B23  1  0.910197  0.410060  0.000000  1
  B  B24  1  0.410170  0.089830  0.000000  1
  B  B25  1  0.589933  0.910067  0.000000  1
  B  B26  1  0.000106  0.000102  0.162527  1
  B  B27  1  0.000106  0.000102  0.837473  1
  B  B28  1  0.499898  0.499894  0.837473  1
  B  B29  1  0.499898  0.499894  0.162527  1
