# generated using pymatgen
data_Ho4VRe2B16W
_symmetry_space_group_name_H-M   'P 1'
_cell_length_a   3.56696400
_cell_length_b   5.98940933
_cell_length_c   11.57454909
_cell_angle_alpha   90.09933622
_cell_angle_beta   90.00000000
_cell_angle_gamma   90.00000000
_symmetry_Int_Tables_number   1
_chemical_formula_structural   Ho4VRe2B16W
_chemical_formula_sum   'Ho4 V1 Re2 B16 W1'
_cell_volume   247.27838129
_cell_formula_units_Z   1
loop_
 _symmetry_equiv_pos_site_id
 _symmetry_equiv_pos_as_xyz
  1  'x, y, z'
loop_
 _atom_site_type_symbol
 _atom_site_label
 _atom_site_symmetry_multiplicity
 _atom_site_fract_x
 _atom_site_fract_y
 _atom_site_fract_z
 _atom_site_occupancy
  Ho  Ho0  1  0.500000  0.125777  0.647380  1
  Ho  Ho1  1  0.500000  0.875391  0.351458  1
  Ho  Ho2  1  0.500000  0.627088  0.847914  1
  Ho  Ho3  1  0.500000  0.372980  0.153456  1
  V  V4  1  0.500000  0.371576  0.417136  1
  Re  Re5  1  0.500000  0.868756  0.084941  1
  Re  Re6  1  0.500000  0.627192  0.583165  1
  B  B7  1  0.000000  0.477365  0.691706  1
  B  B8  1  0.000000  0.523616  0.307634  1
  B  B9  1  0.000000  0.973969  0.805476  1
  B  B10  1  0.000000  0.023717  0.194140  1
  B  B11  1  0.000000  0.288869  0.811893  1
  B  B12  1  0.000000  0.714046  0.186610  1
  B  B13  1  0.000000  0.785481  0.684072  1
  B  B14  1  0.000000  0.213840  0.315140  1
  B  B15  1  0.000000  0.367704  0.968937  1
  B  B16  1  0.000000  0.634686  0.032962  1
  B  B17  1  0.000000  0.864569  0.531957  1
  B  B18  1  0.000000  0.135089  0.467386  1
  B  B19  1  0.000000  0.385702  0.546613  1
  B  B20  1  0.000000  0.613999  0.452659  1
  B  B21  1  0.000000  0.883039  0.953350  1
  B  B22  1  0.000000  0.113884  0.049304  1
  W  W23  1  0.500000  0.131667  0.914711  1
