# generated using pymatgen
data_La2CoBr
_symmetry_space_group_name_H-M   'P 1'
_cell_length_a   4.06375800
_cell_length_b   4.06375829
_cell_length_c   15.97197400
_cell_angle_alpha   90.00000000
_cell_angle_beta   90.00000000
_cell_angle_gamma   119.99999762
_symmetry_Int_Tables_number   1
_chemical_formula_structural   La2CoBr
_chemical_formula_sum   'La4 Co2 Br2'
_cell_volume   228.42568860
_cell_formula_units_Z   2
loop_
 _symmetry_equiv_pos_site_id
 _symmetry_equiv_pos_as_xyz
  1  'x, y, z'
loop_
 _atom_site_type_symbol
 _atom_site_label
 _atom_site_symmetry_multiplicity
 _atom_site_fract_x
 _atom_site_fract_y
 _atom_site_fract_z
 _atom_site_occupancy
  La  La0  1  0.666665  0.333332  0.095793  1
  La  La1  1  0.666665  0.333332  0.404207  1
  La  La2  1  0.333334  0.666667  0.595792  1
  La  La3  1  0.333334  0.666667  0.904207  1
  Co  Co4  1  0.000000  0.000000  0.000000  1
  Co  Co5  1  0.000000  0.000000  0.500000  1
  Br  Br6  1  0.333334  0.666667  0.250000  1
  Br  Br7  1  0.666665  0.333332  0.750000  1
