# generated using pymatgen
data_Dy6Ta5Ga11Os7
_symmetry_space_group_name_H-M   'P 1'
_cell_length_a   9.09021531
_cell_length_b   9.09021361
_cell_length_c   9.01807194
_cell_angle_alpha   59.73501093
_cell_angle_beta   59.73501659
_cell_angle_gamma   59.99999466
_symmetry_Int_Tables_number   1
_chemical_formula_structural   Dy6Ta5Ga11Os7
_chemical_formula_sum   'Dy6 Ta5 Ga11 Os7'
_cell_volume   524.80240037
_cell_formula_units_Z   1
loop_
 _symmetry_equiv_pos_site_id
 _symmetry_equiv_pos_as_xyz
  1  'x, y, z'
loop_
 _atom_site_type_symbol
 _atom_site_label
 _atom_site_symmetry_multiplicity
 _atom_site_fract_x
 _atom_site_fract_y
 _atom_site_fract_z
 _atom_site_occupancy
  Dy  Dy0  1  0.707252  0.707252  0.294438  1
  Dy  Dy1  1  0.291057  0.707252  0.294438  1
  Dy  Dy2  1  0.707252  0.291057  0.294438  1
  Dy  Dy3  1  0.297477  0.297477  0.710361  1
  Dy  Dy4  1  0.694684  0.297477  0.710361  1
  Dy  Dy5  1  0.297477  0.694684  0.710361  1
  Ta  Ta6  1  0.878028  0.878028  0.365916  1
  Ta  Ta7  1  0.876184  0.368862  0.878770  1
  Ta  Ta8  1  0.368862  0.876184  0.878770  1
  Ta  Ta9  1  0.876184  0.876184  0.878770  1
  Ta  Ta10  1  0.127072  0.127072  0.618786  1
  Ga  Ga11  1  0.116021  0.647744  0.120215  1
  Ga  Ga12  1  0.647744  0.116021  0.120215  1
  Ga  Ga13  1  0.116021  0.116021  0.120215  1
  Ga  Ga14  1  0.662350  0.662350  0.012950  1
  Ga  Ga15  1  0.663663  0.010791  0.661885  1
  Ga  Ga16  1  0.010791  0.663663  0.661885  1
  Ga  Ga17  1  0.663663  0.663663  0.661885  1
  Ga  Ga18  1  0.332800  0.332800  0.001600  1
  Ga  Ga19  1  0.337388  0.992768  0.332454  1
  Ga  Ga20  1  0.992768  0.337388  0.332454  1
  Ga  Ga21  1  0.337388  0.337388  0.332454  1
  Os  Os22  1  0.006491  0.006491  0.980526  1
  Os  Os23  1  0.997796  0.997796  0.509483  1
  Os  Os24  1  0.494927  0.997796  0.509483  1
  Os  Os25  1  0.997796  0.494927  0.509483  1
  Os  Os26  1  0.502965  0.502965  0.999135  1
  Os  Os27  1  0.994935  0.502965  0.999135  1
  Os  Os28  1  0.502965  0.994935  0.999135  1
