# generated using pymatgen
data_Sc2Pa(InPt)3
_symmetry_space_group_name_H-M   'P 1'
_cell_length_a   7.60990100
_cell_length_b   7.65654661
_cell_length_c   3.69143900
_cell_angle_alpha   90.00000000
_cell_angle_beta   90.00000000
_cell_angle_gamma   119.79866944
_symmetry_Int_Tables_number   1
_chemical_formula_structural   Sc2Pa(InPt)3
_chemical_formula_sum   'Sc2 Pa1 In3 Pt3'
_cell_volume   186.64474459
_cell_formula_units_Z   1
loop_
 _symmetry_equiv_pos_site_id
 _symmetry_equiv_pos_as_xyz
  1  'x, y, z'
loop_
 _atom_site_type_symbol
 _atom_site_label
 _atom_site_symmetry_multiplicity
 _atom_site_fract_x
 _atom_site_fract_y
 _atom_site_fract_z
 _atom_site_occupancy
  Sc  Sc0  1  0.402424  0.394728  0.000000  1
  Sc  Sc1  1  0.007696  0.605272  0.000000  1
  Pa  Pa2  1  0.594995  0.000000  0.000000  1
  In  In3  1  0.733907  0.713457  0.500000  1
  In  In4  1  0.020451  0.286543  0.500000  1
  In  In5  1  0.248219  0.000000  0.500000  1
  Pt  Pt6  1  0.663166  0.316866  0.500000  1
  Pt  Pt7  1  0.982844  0.000000  0.000000  1
  Pt  Pt8  1  0.346298  0.683134  0.500000  1
