# generated using pymatgen
data_Tm4Al16Ga2PtRh5
_symmetry_space_group_name_H-M   'P 1'
_cell_length_a   7.52297624
_cell_length_b   7.52297620
_cell_length_c   9.44805119
_cell_angle_alpha   89.97508397
_cell_angle_beta   89.97508682
_cell_angle_gamma   119.29855431
_symmetry_Int_Tables_number   1
_chemical_formula_structural   Tm4Al16Ga2PtRh5
_chemical_formula_sum   'Tm4 Al16 Ga2 Pt1 Rh5'
_cell_volume   466.31414431
_cell_formula_units_Z   1
loop_
 _symmetry_equiv_pos_site_id
 _symmetry_equiv_pos_as_xyz
  1  'x, y, z'
loop_
 _atom_site_type_symbol
 _atom_site_label
 _atom_site_symmetry_multiplicity
 _atom_site_fract_x
 _atom_site_fract_y
 _atom_site_fract_z
 _atom_site_occupancy
  Tm  Tm0  1  0.993510  0.673296  0.250281  1
  Tm  Tm1  1  0.004200  0.324766  0.749921  1
  Tm  Tm2  1  0.675234  0.995800  0.250079  1
  Tm  Tm3  1  0.326704  0.006490  0.749719  1
  Al  Al4  1  0.005045  0.336318  0.076657  1
  Al  Al5  1  0.002529  0.667503  0.923525  1
  Al  Al6  1  0.000661  0.664145  0.574739  1
  Al  Al7  1  0.335855  0.999339  0.425261  1
  Al  Al8  1  0.001304  0.336178  0.424674  1
  Al  Al9  1  0.663822  0.998696  0.575326  1
  Al  Al10  1  0.663682  0.994955  0.923343  1
  Al  Al11  1  0.332497  0.997471  0.076475  1
  Al  Al12  1  0.332874  0.332839  0.553202  1
  Al  Al13  1  0.667161  0.667126  0.446798  1
  Al  Al14  1  0.666036  0.669417  0.056143  1
  Al  Al15  1  0.330583  0.333964  0.943857  1
  Al  Al16  1  0.338709  0.552988  0.250375  1
  Al  Al17  1  0.661933  0.452133  0.746795  1
  Al  Al18  1  0.547867  0.338067  0.253205  1
  Al  Al19  1  0.447012  0.661291  0.749625  1
  Ga  Ga20  1  0.131395  0.130368  0.250263  1
  Ga  Ga21  1  0.869632  0.868605  0.749737  1
  Pt  Pt22  1  0.672518  0.327482  0.000000  1
  Rh  Rh23  1  0.328250  0.671750  0.000000  1
  Rh  Rh24  1  0.328704  0.671296  0.500000  1
  Rh  Rh25  1  0.672126  0.327874  0.500000  1
  Rh  Rh26  1  0.999987  0.000013  0.000000  1
  Rh  Rh27  1  0.000170  0.999830  0.500000  1
