# generated using pymatgen
data_LaHo(ZnNi4)2
_symmetry_space_group_name_H-M   'P 1'
_cell_length_a   4.04908900
_cell_length_b   5.07594800
_cell_length_c   8.42797500
_cell_angle_alpha   90.00000000
_cell_angle_beta   90.00000000
_cell_angle_gamma   90.00000000
_symmetry_Int_Tables_number   1
_chemical_formula_structural   LaHo(ZnNi4)2
_chemical_formula_sum   'La1 Ho1 Zn2 Ni8'
_cell_volume   173.21987698
_cell_formula_units_Z   1
loop_
 _symmetry_equiv_pos_site_id
 _symmetry_equiv_pos_as_xyz
  1  'x, y, z'
loop_
 _atom_site_type_symbol
 _atom_site_label
 _atom_site_symmetry_multiplicity
 _atom_site_fract_x
 _atom_site_fract_y
 _atom_site_fract_z
 _atom_site_occupancy
  La  La0  1  0.000000  0.000000  0.000000  1
  Ho  Ho1  1  0.000000  0.500000  0.500000  1
  Zn  Zn2  1  0.500000  0.500000  0.000000  1
  Zn  Zn3  1  0.500000  0.000000  0.500000  1
  Ni  Ni4  1  0.000000  0.000000  0.329953  1
  Ni  Ni5  1  0.000000  0.500000  0.823358  1
  Ni  Ni6  1  0.000000  0.500000  0.176642  1
  Ni  Ni7  1  0.000000  0.000000  0.670047  1
  Ni  Ni8  1  0.500000  0.257096  0.255994  1
  Ni  Ni9  1  0.500000  0.742904  0.744006  1
  Ni  Ni10  1  0.500000  0.742904  0.255994  1
  Ni  Ni11  1  0.500000  0.257096  0.744006  1
