# generated using pymatgen
data_LaCdCu5
_symmetry_space_group_name_H-M   'P 1'
_cell_length_a   5.12067500
_cell_length_b   8.42595600
_cell_length_c   10.63475500
_cell_angle_alpha   90.00000000
_cell_angle_beta   90.00000000
_cell_angle_gamma   90.00000000
_symmetry_Int_Tables_number   1
_chemical_formula_structural   LaCdCu5
_chemical_formula_sum   'La4 Cd4 Cu20'
_cell_volume   458.85333121
_cell_formula_units_Z   4
loop_
 _symmetry_equiv_pos_site_id
 _symmetry_equiv_pos_as_xyz
  1  'x, y, z'
loop_
 _atom_site_type_symbol
 _atom_site_label
 _atom_site_symmetry_multiplicity
 _atom_site_fract_x
 _atom_site_fract_y
 _atom_site_fract_z
 _atom_site_occupancy
  La  La0  1  0.250000  0.757423  0.061350  1
  La  La1  1  0.750000  0.242577  0.938650  1
  La  La2  1  0.750000  0.742577  0.561350  1
  La  La3  1  0.250000  0.257423  0.438650  1
  Cd  Cd4  1  0.250000  0.639491  0.362942  1
  Cd  Cd5  1  0.750000  0.360509  0.637058  1
  Cd  Cd6  1  0.750000  0.860509  0.862942  1
  Cd  Cd7  1  0.250000  0.139491  0.137058  1
  Cu  Cu8  1  0.250000  0.817076  0.744787  1
  Cu  Cu9  1  0.750000  0.182924  0.255213  1
  Cu  Cu10  1  0.750000  0.682924  0.244787  1
  Cu  Cu11  1  0.250000  0.317076  0.755213  1
  Cu  Cu12  1  0.500770  0.566938  0.813440  1
  Cu  Cu13  1  0.499230  0.433062  0.186560  1
  Cu  Cu14  1  0.499230  0.933062  0.313440  1
  Cu  Cu15  1  0.000770  0.433062  0.186560  1
  Cu  Cu16  1  0.500770  0.066938  0.686560  1
  Cu  Cu17  1  0.999230  0.566938  0.813440  1
  Cu  Cu18  1  0.999230  0.066938  0.686560  1
  Cu  Cu19  1  0.000770  0.933062  0.313440  1
  Cu  Cu20  1  0.250000  0.915735  0.516087  1
  Cu  Cu21  1  0.750000  0.084265  0.483913  1
  Cu  Cu22  1  0.750000  0.584265  0.016087  1
  Cu  Cu23  1  0.250000  0.415735  0.983913  1
  Cu  Cu24  1  0.250000  0.556558  0.609800  1
  Cu  Cu25  1  0.750000  0.443442  0.390200  1
  Cu  Cu26  1  0.750000  0.943442  0.109800  1
  Cu  Cu27  1  0.250000  0.056558  0.890200  1
