# generated using pymatgen
data_Nd3GeAuS7
_symmetry_space_group_name_H-M   'P 1'
_cell_length_a   10.31571200
_cell_length_b   10.31565991
_cell_length_c   5.88680600
_cell_angle_alpha   90.00000000
_cell_angle_beta   90.00000000
_cell_angle_gamma   120.00014485
_symmetry_Int_Tables_number   1
_chemical_formula_structural   Nd3GeAuS7
_chemical_formula_sum   'Nd6 Ge2 Au2 S14'
_cell_volume   542.50774941
_cell_formula_units_Z   2
loop_
 _symmetry_equiv_pos_site_id
 _symmetry_equiv_pos_as_xyz
  1  'x, y, z'
loop_
 _atom_site_type_symbol
 _atom_site_label
 _atom_site_symmetry_multiplicity
 _atom_site_fract_x
 _atom_site_fract_y
 _atom_site_fract_z
 _atom_site_occupancy
  Nd  Nd0  1  0.358452  0.230333  0.248246  1
  Nd  Nd1  1  0.769663  0.128127  0.248246  1
  Nd  Nd2  1  0.871871  0.641534  0.248247  1
  Nd  Nd3  1  0.641548  0.769667  0.748246  1
  Nd  Nd4  1  0.230337  0.871874  0.748246  1
  Nd  Nd5  1  0.128130  0.358467  0.748247  1
  Ge  Ge6  1  0.333343  0.666674  0.332574  1
  Ge  Ge7  1  0.666657  0.333325  0.832574  1
  Au  Au8  1  0.000001  0.000002  0.218960  1
  Au  Au9  1  0.999999  0.999998  0.718960  1
  S  S10  1  0.097144  0.270389  0.231551  1
  S  S11  1  0.729612  0.826758  0.231549  1
  S  S12  1  0.173237  0.902850  0.231549  1
  S  S13  1  0.666657  0.333327  0.456521  1
  S  S14  1  0.106281  0.584486  0.489081  1
  S  S15  1  0.415522  0.521792  0.489090  1
  S  S16  1  0.478216  0.893734  0.489087  1
  S  S17  1  0.826763  0.097151  0.731549  1
  S  S18  1  0.270388  0.173242  0.731549  1
  S  S19  1  0.902856  0.729610  0.731551  1
  S  S20  1  0.333343  0.666672  0.956521  1
  S  S21  1  0.893719  0.415515  0.989081  1
  S  S22  1  0.521785  0.106266  0.989087  1
  S  S23  1  0.584479  0.478208  0.989090  1
