# generated using pymatgen
data_Ho7Tc2Sn23Ir4
_symmetry_space_group_name_H-M   'P 1'
_cell_length_a   9.86891811
_cell_length_b   9.88620831
_cell_length_c   10.12120572
_cell_angle_alpha   89.99999886
_cell_angle_beta   90.00352250
_cell_angle_gamma   120.05797774
_symmetry_Int_Tables_number   1
_chemical_formula_structural   Ho7Tc2Sn23Ir4
_chemical_formula_sum   'Ho7 Tc2 Sn23 Ir4'
_cell_volume   854.68909722
_cell_formula_units_Z   1
loop_
 _symmetry_equiv_pos_site_id
 _symmetry_equiv_pos_as_xyz
  1  'x, y, z'
loop_
 _atom_site_type_symbol
 _atom_site_label
 _atom_site_symmetry_multiplicity
 _atom_site_fract_x
 _atom_site_fract_y
 _atom_site_fract_z
 _atom_site_occupancy
  Ho  Ho0  1  0.006819  0.003409  0.992190  1
  Ho  Ho1  1  0.514631  0.481791  0.694088  1
  Ho  Ho2  1  0.514631  0.032839  0.694088  1
  Ho  Ho3  1  0.965938  0.482969  0.694444  1
  Ho  Ho4  1  0.035663  0.517831  0.304648  1
  Ho  Ho5  1  0.481985  0.965026  0.305731  1
  Ho  Ho6  1  0.481985  0.516960  0.305731  1
  Tc  Tc7  1  0.168817  0.831800  0.798586  1
  Tc  Tc8  1  0.168817  0.337016  0.798586  1
  Sn  Sn9  1  0.666973  0.333486  0.178328  1
  Sn  Sn10  1  0.666846  0.333423  0.873662  1
  Sn  Sn11  1  0.334547  0.667275  0.126551  1
  Sn  Sn12  1  0.348778  0.352090  0.999804  1
  Sn  Sn13  1  0.002510  0.651170  0.999765  1
  Sn  Sn14  1  0.647859  0.000230  0.000039  1
  Sn  Sn15  1  0.647859  0.647629  0.000039  1
  Sn  Sn16  1  0.330458  0.665229  0.818040  1
  Sn  Sn17  1  0.441776  0.220888  0.460420  1
  Sn  Sn18  1  0.220326  0.779492  0.540505  1
  Sn  Sn19  1  0.220326  0.440834  0.540505  1
  Sn  Sn20  1  0.558792  0.779395  0.540568  1
  Sn  Sn21  1  0.119152  0.882691  0.279831  1
  Sn  Sn22  1  0.779193  0.559194  0.460770  1
  Sn  Sn23  1  0.779193  0.219999  0.460770  1
  Sn  Sn24  1  0.348778  0.996688  0.999804  1
  Sn  Sn25  1  0.119152  0.236461  0.279831  1
  Sn  Sn26  1  0.762018  0.881009  0.275874  1
  Sn  Sn27  1  0.238307  0.119153  0.729653  1
  Sn  Sn28  1  0.882195  0.764650  0.723844  1
  Sn  Sn29  1  0.882195  0.117545  0.723844  1
  Sn  Sn30  1  0.998609  0.999305  0.498923  1
  Sn  Sn31  1  0.002510  0.351340  0.999765  1
  Ir  Ir32  1  0.660350  0.830176  0.799999  1
  Ir  Ir33  1  0.342274  0.171137  0.199152  1
  Ir  Ir34  1  0.829871  0.658754  0.200809  1
  Ir  Ir35  1  0.829871  0.171117  0.200809  1
