# generated using pymatgen
data_CaAc2(HoSn2)2
_symmetry_space_group_name_H-M   'P 1'
_cell_length_a   8.22921000
_cell_length_b   8.55389800
_cell_length_c   16.07792500
_cell_angle_alpha   90.00000000
_cell_angle_beta   90.00000000
_cell_angle_gamma   90.00000000
_symmetry_Int_Tables_number   1
_chemical_formula_structural   CaAc2(HoSn2)2
_chemical_formula_sum   'Ca4 Ac8 Ho8 Sn16'
_cell_volume   1131.75445017
_cell_formula_units_Z   4
loop_
 _symmetry_equiv_pos_site_id
 _symmetry_equiv_pos_as_xyz
  1  'x, y, z'
loop_
 _atom_site_type_symbol
 _atom_site_label
 _atom_site_symmetry_multiplicity
 _atom_site_fract_x
 _atom_site_fract_y
 _atom_site_fract_z
 _atom_site_occupancy
  Ca  Ca0  1  0.827400  0.501326  0.750000  1
  Ca  Ca1  1  0.327400  0.998674  0.750000  1
  Ca  Ca2  1  0.172600  0.498674  0.250000  1
  Ca  Ca3  1  0.672600  0.001326  0.250000  1
  Ac  Ac4  1  0.503027  0.677537  0.595952  1
  Ac  Ac5  1  0.003027  0.822463  0.904048  1
  Ac  Ac6  1  0.496973  0.322463  0.095952  1
  Ac  Ac7  1  0.996973  0.177537  0.404048  1
  Ac  Ac8  1  0.496973  0.322463  0.404048  1
  Ac  Ac9  1  0.996973  0.177537  0.095952  1
  Ac  Ac10  1  0.503027  0.677537  0.904048  1
  Ac  Ac11  1  0.003027  0.822463  0.595952  1
  Ho  Ho12  1  0.664031  0.169765  0.624562  1
  Ho  Ho13  1  0.164031  0.330235  0.875438  1
  Ho  Ho14  1  0.335969  0.830235  0.124562  1
  Ho  Ho15  1  0.835969  0.669765  0.375438  1
  Ho  Ho16  1  0.335969  0.830235  0.375438  1
  Ho  Ho17  1  0.835969  0.669765  0.124562  1
  Ho  Ho18  1  0.664031  0.169765  0.875438  1
  Ho  Ho19  1  0.164031  0.330235  0.624562  1
  Sn  Sn20  1  0.670912  0.958447  0.461225  1
  Sn  Sn21  1  0.170912  0.541553  0.038775  1
  Sn  Sn22  1  0.329088  0.041553  0.961225  1
  Sn  Sn23  1  0.829088  0.458447  0.538775  1
  Sn  Sn24  1  0.329088  0.041553  0.538775  1
  Sn  Sn25  1  0.829088  0.458447  0.961225  1
  Sn  Sn26  1  0.670912  0.958447  0.038775  1
  Sn  Sn27  1  0.170912  0.541553  0.461225  1
  Sn  Sn28  1  0.463520  0.372309  0.750000  1
  Sn  Sn29  1  0.963520  0.127691  0.750000  1
  Sn  Sn30  1  0.536480  0.627691  0.250000  1
  Sn  Sn31  1  0.036480  0.872309  0.250000  1
  Sn  Sn32  1  0.701348  0.875099  0.750000  1
  Sn  Sn33  1  0.201348  0.624901  0.750000  1
  Sn  Sn34  1  0.298652  0.124901  0.250000  1
  Sn  Sn35  1  0.798652  0.375099  0.250000  1
