# generated using pymatgen
data_TiNbSiB2Ru5
_symmetry_space_group_name_H-M   'P 1'
_cell_length_a   9.24599322
_cell_length_b   9.24599322
_cell_length_c   2.95445500
_cell_angle_alpha   90.00000000
_cell_angle_beta   90.00000000
_cell_angle_gamma   89.35334574
_symmetry_Int_Tables_number   1
_chemical_formula_structural   TiNbSiB2Ru5
_chemical_formula_sum   'Ti2 Nb2 Si2 B4 Ru10'
_cell_volume   252.55551699
_cell_formula_units_Z   2
loop_
 _symmetry_equiv_pos_site_id
 _symmetry_equiv_pos_as_xyz
  1  'x, y, z'
loop_
 _atom_site_type_symbol
 _atom_site_label
 _atom_site_symmetry_multiplicity
 _atom_site_fract_x
 _atom_site_fract_y
 _atom_site_fract_z
 _atom_site_occupancy
  Ti  Ti0  1  0.825083  0.674917  0.000000  1
  Ti  Ti1  1  0.174917  0.325083  0.000000  1
  Nb  Nb2  1  0.322544  0.822544  0.000000  1
  Nb  Nb3  1  0.677456  0.177456  0.000000  1
  Si  Si4  1  0.500000  0.500000  0.000000  1
  Si  Si5  1  0.000000  0.000000  0.000000  1
  B  B6  1  0.626020  0.873980  0.000000  1
  B  B7  1  0.373980  0.126020  0.000000  1
  B  B8  1  0.123412  0.623412  0.000000  1
  B  B9  1  0.876588  0.376588  0.000000  1
  Ru  Ru10  1  0.570310  0.709674  0.500000  1
  Ru  Ru11  1  0.429690  0.290326  0.500000  1
  Ru  Ru12  1  0.065802  0.788963  0.500000  1
  Ru  Ru13  1  0.934198  0.211037  0.500000  1
  Ru  Ru14  1  0.288963  0.565802  0.500000  1
  Ru  Ru15  1  0.711037  0.434198  0.500000  1
  Ru  Ru16  1  0.209674  0.070310  0.500000  1
  Ru  Ru17  1  0.790326  0.929690  0.500000  1
  Ru  Ru18  1  0.500000  0.000000  0.500000  1
  Ru  Ru19  1  0.000000  0.500000  0.500000  1
