# generated using pymatgen
data_SmTcBr
_symmetry_space_group_name_H-M   'P 1'
_cell_length_a   4.11469000
_cell_length_b   4.11468894
_cell_length_c   12.14255300
_cell_angle_alpha   90.00000000
_cell_angle_beta   90.00000000
_cell_angle_gamma   119.99997636
_symmetry_Int_Tables_number   1
_chemical_formula_structural   SmTcBr
_chemical_formula_sum   'Sm2 Tc2 Br2'
_cell_volume   178.03888809
_cell_formula_units_Z   2
loop_
 _symmetry_equiv_pos_site_id
 _symmetry_equiv_pos_as_xyz
  1  'x, y, z'
loop_
 _atom_site_type_symbol
 _atom_site_label
 _atom_site_symmetry_multiplicity
 _atom_site_fract_x
 _atom_site_fract_y
 _atom_site_fract_z
 _atom_site_occupancy
  Sm  Sm0  1  0.000000  0.000000  0.184125  1
  Sm  Sm1  1  0.000000  0.000000  0.815875  1
  Tc  Tc2  1  0.666666  0.333333  0.012569  1
  Tc  Tc3  1  0.333333  0.666665  0.987431  1
  Br  Br4  1  0.333333  0.666665  0.338999  1
  Br  Br5  1  0.666666  0.333333  0.661001  1
