# generated using pymatgen
data_Pr4CdOs
_symmetry_space_group_name_H-M   'P 1'
_cell_length_a   10.02472430
_cell_length_b   10.02472505
_cell_length_c   10.02472400
_cell_angle_alpha   60.00000347
_cell_angle_beta   60.00000100
_cell_angle_gamma   60.00000123
_symmetry_Int_Tables_number   1
_chemical_formula_structural   Pr4CdOs
_chemical_formula_sum   'Pr16 Cd4 Os4'
_cell_volume   712.36463842
_cell_formula_units_Z   4
loop_
 _symmetry_equiv_pos_site_id
 _symmetry_equiv_pos_as_xyz
  1  'x, y, z'
loop_
 _atom_site_type_symbol
 _atom_site_label
 _atom_site_symmetry_multiplicity
 _atom_site_fract_x
 _atom_site_fract_y
 _atom_site_fract_z
 _atom_site_occupancy
  Pr  Pr0  1  0.345696  0.345696  0.345696  1
  Pr  Pr1  1  0.345696  0.345696  0.962912  1
  Pr  Pr2  1  0.345696  0.962912  0.345696  1
  Pr  Pr3  1  0.962912  0.345696  0.345696  1
  Pr  Pr4  1  0.809205  0.190795  0.190795  1
  Pr  Pr5  1  0.190795  0.809205  0.809205  1
  Pr  Pr6  1  0.190795  0.809205  0.190795  1
  Pr  Pr7  1  0.809205  0.190795  0.809205  1
  Pr  Pr8  1  0.190795  0.190795  0.809205  1
  Pr  Pr9  1  0.809205  0.809205  0.190795  1
  Pr  Pr10  1  0.940350  0.559650  0.559650  1
  Pr  Pr11  1  0.559650  0.940350  0.940350  1
  Pr  Pr12  1  0.559650  0.940350  0.559650  1
  Pr  Pr13  1  0.940350  0.559650  0.940350  1
  Pr  Pr14  1  0.559650  0.559650  0.940350  1
  Pr  Pr15  1  0.940350  0.940350  0.559650  1
  Cd  Cd16  1  0.579268  0.579268  0.579268  1
  Cd  Cd17  1  0.579268  0.579268  0.262194  1
  Cd  Cd18  1  0.579268  0.262194  0.579268  1
  Cd  Cd19  1  0.262194  0.579268  0.579268  1
  Os  Os20  1  0.138242  0.138242  0.138242  1
  Os  Os21  1  0.138242  0.138242  0.585272  1
  Os  Os22  1  0.138242  0.585272  0.138242  1
  Os  Os23  1  0.585272  0.138242  0.138242  1
