# generated using pymatgen
data_Nb9CrSiB4P
_symmetry_space_group_name_H-M   'P 1'
_cell_length_a   7.27154312
_cell_length_b   7.27154384
_cell_length_c   7.27154501
_cell_angle_alpha   129.80900690
_cell_angle_beta   129.80901360
_cell_angle_gamma   73.71227641
_symmetry_Int_Tables_number   1
_chemical_formula_structural   Nb9CrSiB4P
_chemical_formula_sum   'Nb9 Cr1 Si1 B4 P1'
_cell_volume   221.36166906
_cell_formula_units_Z   1
loop_
 _symmetry_equiv_pos_site_id
 _symmetry_equiv_pos_as_xyz
  1  'x, y, z'
loop_
 _atom_site_type_symbol
 _atom_site_label
 _atom_site_symmetry_multiplicity
 _atom_site_fract_x
 _atom_site_fract_y
 _atom_site_fract_z
 _atom_site_occupancy
  Nb  Nb0  1  0.500560  0.500560  0.000000  1
  Nb  Nb1  1  0.813980  0.301955  0.839726  1
  Nb  Nb2  1  0.189474  0.695236  0.160544  1
  Nb  Nb3  1  0.462229  0.974254  0.160274  1
  Nb  Nb4  1  0.301955  0.462229  0.487975  1
  Nb  Nb5  1  0.028930  0.189474  0.494239  1
  Nb  Nb6  1  0.534691  0.028930  0.839456  1
  Nb  Nb7  1  0.695236  0.534691  0.505761  1
  Nb  Nb8  1  0.974254  0.813980  0.512025  1
  Cr  Cr9  1  0.996825  0.996825  0.000000  1
  Si  Si10  1  0.745765  0.745765  0.000000  1
  B  B11  1  0.113369  0.619462  0.732857  1
  B  B12  1  0.886605  0.380512  0.267143  1
  B  B13  1  0.619462  0.886605  0.506093  1
  B  B14  1  0.380512  0.113369  0.493907  1
  P  P15  1  0.256154  0.256154  0.000000  1
