# generated using pymatgen
data_Dy10SnBi3Rh2
_symmetry_space_group_name_H-M   'P 1'
_cell_length_a   7.99349551
_cell_length_b   9.01904703
_cell_length_c   12.41092927
_cell_angle_alpha   90.05429717
_cell_angle_beta   90.09038213
_cell_angle_gamma   89.99043653
_symmetry_Int_Tables_number   1
_chemical_formula_structural   Dy10SnBi3Rh2
_chemical_formula_sum   'Dy20 Sn2 Bi6 Rh4'
_cell_volume   894.74843302
_cell_formula_units_Z   2
loop_
 _symmetry_equiv_pos_site_id
 _symmetry_equiv_pos_as_xyz
  1  'x, y, z'
loop_
 _atom_site_type_symbol
 _atom_site_label
 _atom_site_symmetry_multiplicity
 _atom_site_fract_x
 _atom_site_fract_y
 _atom_site_fract_z
 _atom_site_occupancy
  Dy  Dy0  1  0.837330  0.745561  0.792672  1
  Dy  Dy1  1  0.162670  0.254439  0.207328  1
  Dy  Dy2  1  0.344294  0.253869  0.709559  1
  Dy  Dy3  1  0.655706  0.746131  0.290441  1
  Dy  Dy4  1  0.378610  0.745525  0.696212  1
  Dy  Dy5  1  0.621390  0.254475  0.303788  1
  Dy  Dy6  1  0.869039  0.253726  0.805342  1
  Dy  Dy7  1  0.130961  0.746274  0.194658  1
  Dy  Dy8  1  0.951233  0.750642  0.501665  1
  Dy  Dy9  1  0.048767  0.249358  0.498335  1
  Dy  Dy10  1  0.453606  0.257318  0.997622  1
  Dy  Dy11  1  0.546394  0.742682  0.002378  1
  Dy  Dy12  1  0.678603  0.042626  0.565751  1
  Dy  Dy13  1  0.321397  0.957374  0.434249  1
  Dy  Dy14  1  0.178269  0.959465  0.934222  1
  Dy  Dy15  1  0.324302  0.540847  0.429507  1
  Dy  Dy16  1  0.821731  0.040535  0.065778  1
  Dy  Dy17  1  0.675698  0.459153  0.570493  1
  Dy  Dy18  1  0.816912  0.459030  0.063855  1
  Dy  Dy19  1  0.183088  0.540970  0.936145  1
  Sn  Sn20  1  0.569419  0.492332  0.827417  1
  Sn  Sn21  1  0.430581  0.507668  0.172583  1
  Bi  Bi22  1  0.070412  0.508401  0.672147  1
  Bi  Bi23  1  0.430353  0.992443  0.171420  1
  Bi  Bi24  1  0.929588  0.491599  0.327853  1
  Bi  Bi25  1  0.569647  0.007557  0.828580  1
  Bi  Bi26  1  0.930007  0.008314  0.325859  1
  Bi  Bi27  1  0.069993  0.991686  0.674141  1
  Rh  Rh28  1  0.572551  0.750181  0.510301  1
  Rh  Rh29  1  0.427449  0.249819  0.489699  1
  Rh  Rh30  1  0.069710  0.250021  0.989243  1
  Rh  Rh31  1  0.930290  0.749979  0.010757  1
