# generated using pymatgen
data_Sc8V9Si16MoW2
_symmetry_space_group_name_H-M   'P 1'
_cell_length_a   6.65715736
_cell_length_b   6.65715774
_cell_length_c   12.33501305
_cell_angle_alpha   89.95153490
_cell_angle_beta   90.04846396
_cell_angle_gamma   90.00678629
_symmetry_Int_Tables_number   1
_chemical_formula_structural   Sc8V9Si16MoW2
_chemical_formula_sum   'Sc8 V9 Si16 Mo1 W2'
_cell_volume   546.65958854
_cell_formula_units_Z   1
loop_
 _symmetry_equiv_pos_site_id
 _symmetry_equiv_pos_as_xyz
  1  'x, y, z'
loop_
 _atom_site_type_symbol
 _atom_site_label
 _atom_site_symmetry_multiplicity
 _atom_site_fract_x
 _atom_site_fract_y
 _atom_site_fract_z
 _atom_site_occupancy
  Sc  Sc0  1  0.002587  0.663253  0.029709  1
  Sc  Sc1  1  0.837540  0.501897  0.279782  1
  Sc  Sc2  1  0.162050  0.497358  0.778849  1
  Sc  Sc3  1  0.501897  0.837540  0.720218  1
  Sc  Sc4  1  0.497358  0.162050  0.221151  1
  Sc  Sc5  1  0.997355  0.336567  0.529969  1
  Sc  Sc6  1  0.663253  0.002587  0.970291  1
  Sc  Sc7  1  0.336567  0.997355  0.470031  1
  V  V8  1  0.667484  0.667484  0.500000  1
  V  V9  1  0.004973  0.156287  0.127158  1
  V  V10  1  0.343666  0.506010  0.377049  1
  V  V11  1  0.658212  0.493939  0.875899  1
  V  V12  1  0.506010  0.343666  0.622951  1
  V  V13  1  0.493939  0.658212  0.124101  1
  V  V14  1  0.993362  0.842389  0.625848  1
  V  V15  1  0.156287  0.004973  0.872842  1
  V  V16  1  0.842389  0.993362  0.374152  1
  Si  Si17  1  0.294994  0.960205  0.063460  1
  Si  Si18  1  0.542761  0.793388  0.316172  1
  Si  Si19  1  0.458756  0.205336  0.813493  1
  Si  Si20  1  0.793388  0.542761  0.683828  1
  Si  Si21  1  0.205336  0.458756  0.186507  1
  Si  Si22  1  0.704430  0.037944  0.562868  1
  Si  Si23  1  0.960205  0.294994  0.936540  1
  Si  Si24  1  0.037944  0.704430  0.437132  1
  Si  Si25  1  0.706611  0.371743  0.071788  1
  Si  Si26  1  0.128184  0.206164  0.322008  1
  Si  Si27  1  0.871466  0.793146  0.820825  1
  Si  Si28  1  0.206164  0.128184  0.677992  1
  Si  Si29  1  0.793146  0.871466  0.179175  1
  Si  Si30  1  0.296073  0.629364  0.570298  1
  Si  Si31  1  0.371743  0.706611  0.928212  1
  Si  Si32  1  0.629364  0.296073  0.429702  1
  Mo  Mo33  1  0.333284  0.333284  0.000000  1
  W  W34  1  0.168556  0.832664  0.249969  1
  W  W35  1  0.832664  0.168556  0.750031  1
