# generated using pymatgen
data_Tm6U2Re(B8Mo)3
_symmetry_space_group_name_H-M   'P 1'
_cell_length_a   3.67487500
_cell_length_b   9.12550101
_cell_length_c   11.47428945
_cell_angle_alpha   90.32649553
_cell_angle_beta   90.00000000
_cell_angle_gamma   90.00000000
_symmetry_Int_Tables_number   1
_chemical_formula_structural   Tm6U2Re(B8Mo)3
_chemical_formula_sum   'Tm6 U2 Re1 B24 Mo3'
_cell_volume   384.78491564
_cell_formula_units_Z   1
loop_
 _symmetry_equiv_pos_site_id
 _symmetry_equiv_pos_as_xyz
  1  'x, y, z'
loop_
 _atom_site_type_symbol
 _atom_site_label
 _atom_site_symmetry_multiplicity
 _atom_site_fract_x
 _atom_site_fract_y
 _atom_site_fract_z
 _atom_site_occupancy
  Tm  Tm0  1  0.000000  0.822782  0.085669  1
  Tm  Tm1  1  0.000000  0.176241  0.913943  1
  Tm  Tm2  1  0.000000  0.944351  0.372897  1
  Tm  Tm3  1  0.000000  0.055499  0.627505  1
  Tm  Tm4  1  0.000000  0.444473  0.127110  1
  Tm  Tm5  1  0.000000  0.556471  0.872464  1
  U  U6  1  0.000000  0.322306  0.413975  1
  U  U7  1  0.000000  0.677921  0.586203  1
  Re  Re8  1  0.000000  0.857623  0.816666  1
  B  B9  1  0.500000  0.551888  0.435047  1
  B  B10  1  0.500000  0.448442  0.565500  1
  B  B11  1  0.500000  0.051885  0.065123  1
  B  B12  1  0.500000  0.946163  0.932378  1
  B  B13  1  0.500000  0.748988  0.421671  1
  B  B14  1  0.500000  0.251072  0.578942  1
  B  B15  1  0.500000  0.250706  0.078574  1
  B  B16  1  0.500000  0.750958  0.919246  1
  B  B17  1  0.500000  0.793201  0.265139  1
  B  B18  1  0.500000  0.206462  0.735412  1
  B  B19  1  0.500000  0.294720  0.236646  1
  B  B20  1  0.500000  0.706795  0.764469  1
  B  B21  1  0.500000  0.631328  0.184454  1
  B  B22  1  0.500000  0.368835  0.815889  1
  B  B23  1  0.500000  0.133091  0.316372  1
  B  B24  1  0.500000  0.867356  0.684949  1
  B  B25  1  0.500000  0.979439  0.212331  1
  B  B26  1  0.500000  0.017974  0.787689  1
  B  B27  1  0.500000  0.479957  0.288325  1
  B  B28  1  0.500000  0.520416  0.711945  1
  B  B29  1  0.500000  0.602575  0.028498  1
  B  B30  1  0.500000  0.398522  0.970968  1
  B  B31  1  0.500000  0.111486  0.469393  1
  B  B32  1  0.500000  0.888634  0.531387  1
  Mo  Mo33  1  0.000000  0.635174  0.326136  1
  Mo  Mo34  1  0.000000  0.364701  0.674775  1
  Mo  Mo35  1  0.000000  0.141565  0.182311  1
