# generated using pymatgen
data_Dy10PdPt3Rh2
_symmetry_space_group_name_H-M   'P 1'
_cell_length_a   11.02438372
_cell_length_b   11.02705600
_cell_length_c   6.34391400
_cell_angle_alpha   90.00000000
_cell_angle_beta   90.03204066
_cell_angle_gamma   90.00000000
_symmetry_Int_Tables_number   1
_chemical_formula_structural   Dy10PdPt3Rh2
_chemical_formula_sum   'Dy20 Pd2 Pt6 Rh4'
_cell_volume   771.20727968
_cell_formula_units_Z   2
loop_
 _symmetry_equiv_pos_site_id
 _symmetry_equiv_pos_as_xyz
  1  'x, y, z'
loop_
 _atom_site_type_symbol
 _atom_site_label
 _atom_site_symmetry_multiplicity
 _atom_site_fract_x
 _atom_site_fract_y
 _atom_site_fract_z
 _atom_site_occupancy
  Dy  Dy0  1  0.292703  0.086833  0.375689  1
  Dy  Dy1  1  0.292703  0.913167  0.875689  1
  Dy  Dy2  1  0.706325  0.088784  0.874822  1
  Dy  Dy3  1  0.706325  0.911216  0.374822  1
  Dy  Dy4  1  0.590336  0.794061  0.875067  1
  Dy  Dy5  1  0.590336  0.205939  0.375067  1
  Dy  Dy6  1  0.411560  0.794664  0.372010  1
  Dy  Dy7  1  0.411560  0.205336  0.872010  1
  Dy  Dy8  1  0.205073  0.409959  0.627681  1
  Dy  Dy9  1  0.205073  0.590041  0.127681  1
  Dy  Dy10  1  0.793829  0.411139  0.125222  1
  Dy  Dy11  1  0.793829  0.588861  0.625222  1
  Dy  Dy12  1  0.911250  0.706534  0.124678  1
  Dy  Dy13  1  0.911250  0.293466  0.624678  1
  Dy  Dy14  1  0.086971  0.707061  0.624874  1
  Dy  Dy15  1  0.086971  0.292939  0.124874  1
  Dy  Dy16  1  0.999663  0.999616  0.499997  1
  Dy  Dy17  1  0.999663  0.000384  0.999997  1
  Dy  Dy18  1  0.501388  0.499580  0.000087  1
  Dy  Dy19  1  0.501388  0.500420  0.500087  1
  Pd  Pd20  1  0.345415  0.345199  0.250346  1
  Pd  Pd21  1  0.345415  0.654801  0.750346  1
  Pt  Pt22  1  0.845208  0.154443  0.250130  1
  Pt  Pt23  1  0.845208  0.845557  0.750130  1
  Pt  Pt24  1  0.154642  0.154877  0.749917  1
  Pt  Pt25  1  0.154642  0.845123  0.249917  1
  Pt  Pt26  1  0.654649  0.345529  0.749502  1
  Pt  Pt27  1  0.654649  0.654471  0.249502  1
  Rh  Rh28  1  0.499241  0.000412  0.121521  1
  Rh  Rh29  1  0.499241  0.999588  0.621521  1
  Rh  Rh30  1  0.001750  0.499923  0.878457  1
  Rh  Rh31  1  0.001750  0.500077  0.378457  1
