# generated using pymatgen
data_La7Tb2ErSi8O3
_symmetry_space_group_name_H-M   'P 1'
_cell_length_a   10.77983591
_cell_length_b   10.74982342
_cell_length_c   4.55338300
_cell_angle_alpha   90.00000000
_cell_angle_beta   90.00000000
_cell_angle_gamma   119.90794442
_symmetry_Int_Tables_number   1
_chemical_formula_structural   La7Tb2ErSi8O3
_chemical_formula_sum   'La7 Tb2 Er1 Si8 O3'
_cell_volume   457.38340627
_cell_formula_units_Z   1
loop_
 _symmetry_equiv_pos_site_id
 _symmetry_equiv_pos_as_xyz
  1  'x, y, z'
loop_
 _atom_site_type_symbol
 _atom_site_label
 _atom_site_symmetry_multiplicity
 _atom_site_fract_x
 _atom_site_fract_y
 _atom_site_fract_z
 _atom_site_occupancy
  La  La0  1  0.211345  0.787791  0.000000  1
  La  La1  1  0.576528  0.788264  0.000000  1
  La  La2  1  0.788655  0.576447  0.000000  1
  La  La3  1  0.000000  0.000000  0.000000  1
  La  La4  1  0.211345  0.423553  0.000000  1
  La  La5  1  0.423472  0.211736  0.000000  1
  La  La6  1  0.788655  0.212209  0.000000  1
  Tb  Tb7  1  0.500000  0.500000  0.500000  1
  Tb  Tb8  1  0.500000  0.000000  0.500000  1
  Er  Er9  1  0.000000  0.500000  0.500000  1
  Si  Si10  1  0.000000  0.776240  0.500000  1
  Si  Si11  1  0.000000  0.223760  0.500000  1
  Si  Si12  1  0.222768  0.223015  0.500000  1
  Si  Si13  1  0.777232  0.000247  0.500000  1
  Si  Si14  1  0.331419  0.665710  0.500000  1
  Si  Si15  1  0.222768  0.999753  0.500000  1
  Si  Si16  1  0.668581  0.334290  0.500000  1
  Si  Si17  1  0.777232  0.776985  0.500000  1
  O  O18  1  0.000000  0.500000  0.000000  1
  O  O19  1  0.500000  0.500000  0.000000  1
  O  O20  1  0.500000  0.000000  0.000000  1
