# generated using pymatgen
data_Ac6Ga3Si8Pd
_symmetry_space_group_name_H-M   'P 1'
_cell_length_a   4.55313516
_cell_length_b   4.43776193
_cell_length_c   22.00649900
_cell_angle_alpha   84.21311725
_cell_angle_beta   95.93787390
_cell_angle_gamma   89.99999648
_symmetry_Int_Tables_number   1
_chemical_formula_structural   Ac6Ga3Si8Pd
_chemical_formula_sum   'Ac6 Ga3 Si8 Pd1'
_cell_volume   439.99328989
_cell_formula_units_Z   1
loop_
 _symmetry_equiv_pos_site_id
 _symmetry_equiv_pos_as_xyz
  1  'x, y, z'
loop_
 _atom_site_type_symbol
 _atom_site_label
 _atom_site_symmetry_multiplicity
 _atom_site_fract_x
 _atom_site_fract_y
 _atom_site_fract_z
 _atom_site_occupancy
  Ac  Ac0  1  0.375901  0.874103  0.251803  1
  Ac  Ac1  1  0.040729  0.208495  0.582057  1
  Ac  Ac2  1  0.705227  0.544913  0.909977  1
  Ac  Ac3  1  0.292694  0.458066  0.084864  1
  Ac  Ac4  1  0.959547  0.790431  0.419640  1
  Ac  Ac5  1  0.625930  0.124270  0.751586  1
  Ga  Ga6  1  0.570338  0.678505  0.640786  1
  Ga  Ga7  1  0.234398  0.014685  0.969226  1
  Ga  Ga8  1  0.762900  0.987792  0.025081  1
  Si  Si9  1  0.432227  0.318291  0.363732  1
  Si  Si10  1  0.097241  0.653740  0.694818  1
  Si  Si11  1  0.847383  0.402870  0.195589  1
  Si  Si12  1  0.514024  0.735848  0.528253  1
  Si  Si13  1  0.177908  0.071800  0.856544  1
  Si  Si14  1  0.819984  0.930091  0.139263  1
  Si  Si15  1  0.487565  0.263020  0.473928  1
  Si  Si16  1  0.151609  0.598431  0.803409  1
  Pd  Pd17  1  0.904397  0.344645  0.309444  1
