# generated using pymatgen
data_Tb2Er6Zn3Si12Pd
_symmetry_space_group_name_H-M   'P 1'
_cell_length_a   8.10284600
_cell_length_b   8.10284559
_cell_length_c   8.01097700
_cell_angle_alpha   90.00000000
_cell_angle_beta   90.00000000
_cell_angle_gamma   120.00000169
_symmetry_Int_Tables_number   1
_chemical_formula_structural   Tb2Er6Zn3Si12Pd
_chemical_formula_sum   'Tb2 Er6 Zn3 Si12 Pd1'
_cell_volume   455.50301587
_cell_formula_units_Z   1
loop_
 _symmetry_equiv_pos_site_id
 _symmetry_equiv_pos_as_xyz
  1  'x, y, z'
loop_
 _atom_site_type_symbol
 _atom_site_label
 _atom_site_symmetry_multiplicity
 _atom_site_fract_x
 _atom_site_fract_y
 _atom_site_fract_z
 _atom_site_occupancy
  Tb  Tb0  1  0.000000  0.000000  0.250060  1
  Tb  Tb1  1  0.000000  0.000000  0.750425  1
  Er  Er2  1  0.500761  0.001522  0.248831  1
  Er  Er3  1  0.499559  0.999118  0.750971  1
  Er  Er4  1  0.998478  0.499239  0.248831  1
  Er  Er5  1  0.000882  0.500441  0.750971  1
  Er  Er6  1  0.500761  0.499239  0.248831  1
  Er  Er7  1  0.499559  0.500441  0.750971  1
  Zn  Zn8  1  0.333333  0.666667  0.005348  1
  Zn  Zn9  1  0.666667  0.333333  0.994603  1
  Zn  Zn10  1  0.666667  0.333333  0.499807  1
  Si  Si11  1  0.166992  0.333986  0.997661  1
  Si  Si12  1  0.832622  0.665245  0.002394  1
  Si  Si13  1  0.666014  0.833008  0.997661  1
  Si  Si14  1  0.834583  0.669164  0.502148  1
  Si  Si15  1  0.334755  0.167378  0.002394  1
  Si  Si16  1  0.167739  0.335477  0.497889  1
  Si  Si17  1  0.166992  0.833008  0.997661  1
  Si  Si18  1  0.330836  0.165417  0.502148  1
  Si  Si19  1  0.832622  0.167378  0.002394  1
  Si  Si20  1  0.664523  0.832261  0.497889  1
  Si  Si21  1  0.834583  0.165417  0.502148  1
  Si  Si22  1  0.167739  0.832261  0.497889  1
  Pd  Pd23  1  0.333333  0.666667  0.500076  1
