# generated using pymatgen
data_CeZnCd2As3
_symmetry_space_group_name_H-M   'P 1'
_cell_length_a   4.32872952
_cell_length_b   4.32984371
_cell_length_c   21.99909700
_cell_angle_alpha   90.00000000
_cell_angle_beta   90.00000000
_cell_angle_gamma   60.01656111
_symmetry_Int_Tables_number   1
_chemical_formula_structural   CeZnCd2As3
_chemical_formula_sum   'Ce2 Zn2 Cd4 As6'
_cell_volume   357.14173832
_cell_formula_units_Z   2
loop_
 _symmetry_equiv_pos_site_id
 _symmetry_equiv_pos_as_xyz
  1  'x, y, z'
loop_
 _atom_site_type_symbol
 _atom_site_label
 _atom_site_symmetry_multiplicity
 _atom_site_fract_x
 _atom_site_fract_y
 _atom_site_fract_z
 _atom_site_occupancy
  Ce  Ce0  1  0.998715  0.000367  0.500020  1
  Ce  Ce1  1  0.998715  0.000367  0.999980  1
  Zn  Zn2  1  0.267088  0.365640  0.750000  1
  Zn  Zn3  1  0.634999  0.633607  0.250000  1
  Cd  Cd4  1  0.334111  0.335124  0.128072  1
  Cd  Cd5  1  0.668814  0.665464  0.871882  1
  Cd  Cd6  1  0.668814  0.665464  0.628118  1
  Cd  Cd7  1  0.334111  0.335124  0.371928  1
  As  As8  1  0.333301  0.332999  0.576470  1
  As  As9  1  0.666146  0.667678  0.423560  1
  As  As10  1  0.666146  0.667678  0.076440  1
  As  As11  1  0.333301  0.332999  0.923530  1
  As  As12  1  0.595330  0.701757  0.750000  1
  As  As13  1  0.299906  0.297733  0.250000  1
