# generated using pymatgen
data_Be8Cd3P8PbO32
_symmetry_space_group_name_H-M   'P 1'
_cell_length_a   8.82466907
_cell_length_b   7.93901576
_cell_length_c   8.48038506
_cell_angle_alpha   89.44510476
_cell_angle_beta   89.69420324
_cell_angle_gamma   89.86328688
_symmetry_Int_Tables_number   1
_chemical_formula_structural   Be8Cd3P8PbO32
_chemical_formula_sum   'Be8 Cd3 P8 Pb1 O32'
_cell_volume   594.09093891
_cell_formula_units_Z   1
loop_
 _symmetry_equiv_pos_site_id
 _symmetry_equiv_pos_as_xyz
  1  'x, y, z'
loop_
 _atom_site_type_symbol
 _atom_site_label
 _atom_site_symmetry_multiplicity
 _atom_site_fract_x
 _atom_site_fract_y
 _atom_site_fract_z
 _atom_site_occupancy
  Be  Be0  1  0.198894  0.427175  0.053416  1
  Be  Be1  1  0.695518  0.573233  0.441795  1
  Be  Be2  1  0.800124  0.575392  0.947738  1
  Be  Be3  1  0.304682  0.427231  0.555306  1
  Be  Be4  1  0.419951  0.928372  0.268223  1
  Be  Be5  1  0.919588  0.070632  0.227856  1
  Be  Be6  1  0.578035  0.069303  0.730798  1
  Be  Be7  1  0.083877  0.926316  0.772401  1
  Cd  Cd8  1  0.585018  0.243482  0.105839  1
  Cd  Cd9  1  0.086305  0.756063  0.393363  1
  Cd  Cd10  1  0.416189  0.757658  0.894680  1
  P  P11  1  0.916750  0.439157  0.231033  1
  P  P12  1  0.416322  0.559787  0.262670  1
  P  P13  1  0.089002  0.566795  0.766781  1
  P  P14  1  0.580484  0.442112  0.735882  1
  P  P15  1  0.201468  0.061663  0.059032  1
  P  P16  1  0.697439  0.936982  0.437631  1
  P  P17  1  0.796378  0.935033  0.945450  1
  P  P18  1  0.302214  0.058848  0.560218  1
  Pb  Pb19  1  0.913891  0.245049  0.612965  1
  O  O20  1  0.073186  0.501182  0.176980  1
  O  O21  1  0.573251  0.499419  0.316138  1
  O  O22  1  0.929694  0.513531  0.820795  1
  O  O23  1  0.423155  0.500294  0.683929  1
  O  O24  1  0.800282  0.437572  0.094375  1
  O  O25  1  0.300883  0.560571  0.401655  1
  O  O26  1  0.202022  0.566488  0.906113  1
  O  O27  1  0.691905  0.446182  0.595331  1
  O  O28  1  0.919458  0.258856  0.304293  1
  O  O29  1  0.416312  0.739574  0.185520  1
  O  O30  1  0.090497  0.743765  0.686075  1
  O  O31  1  0.584738  0.260777  0.810849  1
  O  O32  1  0.370565  0.433449  0.131196  1
  O  O33  1  0.870226  0.561781  0.366415  1
  O  O34  1  0.627799  0.565857  0.868820  1
  O  O35  1  0.137578  0.441875  0.636428  1
  O  O36  1  0.365381  0.057277  0.127913  1
  O  O37  1  0.864484  0.946232  0.373562  1
  O  O38  1  0.633076  0.944577  0.874764  1
  O  O39  1  0.139646  0.051378  0.630884  1
  O  O40  1  0.802669  0.070145  0.077995  1
  O  O41  1  0.305211  0.930993  0.420840  1
  O  O42  1  0.199466  0.931355  0.922331  1
  O  O43  1  0.686286  0.062164  0.576542  1
  O  O44  1  0.587054  0.999028  0.306983  1
  O  O45  1  0.086698  0.998665  0.186540  1
  O  O46  1  0.414174  0.996402  0.689037  1
  O  O47  1  0.913479  0.985458  0.816718  1
  O  O48  1  0.162134  0.238091  0.998793  1
  O  O49  1  0.658977  0.759983  0.493806  1
  O  O50  1  0.827816  0.760262  0.012904  1
  O  O51  1  0.339767  0.236531  0.502397  1
