# generated using pymatgen
data_Hf8FeBi4Ir
_symmetry_space_group_name_H-M   'P 1'
_cell_length_a   8.29482885
_cell_length_b   8.29483291
_cell_length_c   8.29482891
_cell_angle_alpha   95.87282716
_cell_angle_beta   95.87308860
_cell_angle_gamma   142.68863702
_symmetry_Int_Tables_number   1
_chemical_formula_structural   Hf8FeBi4Ir
_chemical_formula_sum   'Hf8 Fe1 Bi4 Ir1'
_cell_volume   327.76302903
_cell_formula_units_Z   1
loop_
 _symmetry_equiv_pos_site_id
 _symmetry_equiv_pos_as_xyz
  1  'x, y, z'
loop_
 _atom_site_type_symbol
 _atom_site_label
 _atom_site_symmetry_multiplicity
 _atom_site_fract_x
 _atom_site_fract_y
 _atom_site_fract_z
 _atom_site_occupancy
  Hf  Hf0  1  0.577032  0.691355  0.279416  1
  Hf  Hf1  1  0.922966  0.202381  0.114323  1
  Hf  Hf2  1  0.297618  0.577033  0.885677  1
  Hf  Hf3  1  0.808644  0.922967  0.720585  1
  Hf  Hf4  1  0.691357  0.411941  0.114323  1
  Hf  Hf5  1  0.088061  0.808645  0.885677  1
  Hf  Hf6  1  0.411941  0.297619  0.720584  1
  Hf  Hf7  1  0.202382  0.088059  0.279416  1
  Fe  Fe8  1  0.250000  0.250000  0.000000  1
  Bi  Bi9  1  0.361146  0.861146  0.222292  1
  Bi  Bi10  1  0.138854  0.361145  0.500000  1
  Bi  Bi11  1  0.638854  0.138855  0.777708  1
  Bi  Bi12  1  0.861145  0.638854  0.500000  1
  Ir  Ir13  1  0.750000  0.750000  0.000000  1
