# generated using pymatgen
data_Tb3Zn3IrPdPt
_symmetry_space_group_name_H-M   'P 1'
_cell_length_a   7.29417700
_cell_length_b   7.29417661
_cell_length_c   3.87355200
_cell_angle_alpha   90.00000000
_cell_angle_beta   90.00000000
_cell_angle_gamma   119.99998815
_symmetry_Int_Tables_number   1
_chemical_formula_structural   Tb3Zn3IrPdPt
_chemical_formula_sum   'Tb3 Zn3 Ir1 Pd1 Pt1'
_cell_volume   178.48126947
_cell_formula_units_Z   1
loop_
 _symmetry_equiv_pos_site_id
 _symmetry_equiv_pos_as_xyz
  1  'x, y, z'
loop_
 _atom_site_type_symbol
 _atom_site_label
 _atom_site_symmetry_multiplicity
 _atom_site_fract_x
 _atom_site_fract_y
 _atom_site_fract_z
 _atom_site_occupancy
  Tb  Tb0  1  0.992009  0.405951  0.000000  1
  Tb  Tb1  1  0.594049  0.586058  0.000000  1
  Tb  Tb2  1  0.413942  0.007991  0.000000  1
  Zn  Zn3  1  0.997127  0.746637  0.500000  1
  Zn  Zn4  1  0.253363  0.250490  0.500000  1
  Zn  Zn5  1  0.749510  0.002873  0.500000  1
  Ir  Ir6  1  0.666667  0.333333  0.500000  1
  Pd  Pd7  1  0.000000  0.000000  0.000000  1
  Pt  Pt8  1  0.333333  0.666667  0.500000  1
