# generated using pymatgen
data_SrTb3(Mo2O7)2
_symmetry_space_group_name_H-M   'P 1'
_cell_length_a   7.47588081
_cell_length_b   7.47588111
_cell_length_c   7.47588075
_cell_angle_alpha   59.10305888
_cell_angle_beta   59.10305481
_cell_angle_gamma   59.10305062
_symmetry_Int_Tables_number   1
_chemical_formula_structural   SrTb3(Mo2O7)2
_chemical_formula_sum   'Sr1 Tb3 Mo4 O14'
_cell_volume   289.40090837
_cell_formula_units_Z   1
loop_
 _symmetry_equiv_pos_site_id
 _symmetry_equiv_pos_as_xyz
  1  'x, y, z'
loop_
 _atom_site_type_symbol
 _atom_site_label
 _atom_site_symmetry_multiplicity
 _atom_site_fract_x
 _atom_site_fract_y
 _atom_site_fract_z
 _atom_site_occupancy
  Sr  Sr0  1  0.125000  0.125000  0.125000  1
  Tb  Tb1  1  0.625000  0.125000  0.125000  1
  Tb  Tb2  1  0.125000  0.125000  0.625000  1
  Tb  Tb3  1  0.125000  0.625000  0.125000  1
  Mo  Mo4  1  0.625000  0.625000  0.625000  1
  Mo  Mo5  1  0.125000  0.625000  0.625000  1
  Mo  Mo6  1  0.625000  0.625000  0.125000  1
  Mo  Mo7  1  0.625000  0.125000  0.625000  1
  O  O8  1  0.992867  0.992867  0.992867  1
  O  O9  1  0.257133  0.257133  0.257133  1
  O  O10  1  0.291661  0.291661  0.691701  1
  O  O11  1  0.543289  0.543289  0.950417  1
  O  O12  1  0.706711  0.299583  0.706711  1
  O  O13  1  0.691701  0.291661  0.291661  1
  O  O14  1  0.299583  0.706711  0.706711  1
  O  O15  1  0.291661  0.691701  0.291661  1
  O  O16  1  0.706711  0.706711  0.299583  1
  O  O17  1  0.950417  0.543289  0.543289  1
  O  O18  1  0.558299  0.958339  0.958339  1
  O  O19  1  0.958339  0.958339  0.558299  1
  O  O20  1  0.958339  0.558299  0.958339  1
  O  O21  1  0.543289  0.950417  0.543289  1
