# generated using pymatgen
data_ThCuHgPt3
_symmetry_space_group_name_H-M   'P 1'
_cell_length_a   5.29354813
_cell_length_b   5.29354653
_cell_length_c   5.29354653
_cell_angle_alpha   62.57984897
_cell_angle_beta   62.57985232
_cell_angle_gamma   62.57984289
_symmetry_Int_Tables_number   1
_chemical_formula_structural   ThCuHgPt3
_chemical_formula_sum   'Th1 Cu1 Hg1 Pt3'
_cell_volume   110.91454723
_cell_formula_units_Z   1
loop_
 _symmetry_equiv_pos_site_id
 _symmetry_equiv_pos_as_xyz
  1  'x, y, z'
loop_
 _atom_site_type_symbol
 _atom_site_label
 _atom_site_symmetry_multiplicity
 _atom_site_fract_x
 _atom_site_fract_y
 _atom_site_fract_z
 _atom_site_occupancy
  Th  Th0  1  0.001408  0.001408  0.001408  1
  Cu  Cu1  1  0.623833  0.623833  0.623833  1
  Hg  Hg2  1  0.252107  0.252107  0.252107  1
  Pt  Pt3  1  0.623416  0.623416  0.125820  1
  Pt  Pt4  1  0.623416  0.125820  0.623416  1
  Pt  Pt5  1  0.125820  0.623416  0.623416  1
