# generated using pymatgen
data_Sc4TlB4Rh10Pb
_symmetry_space_group_name_H-M   'P 1'
_cell_length_a   9.49112000
_cell_length_b   9.49112000
_cell_length_c   3.22498500
_cell_angle_alpha   90.00000000
_cell_angle_beta   90.00000000
_cell_angle_gamma   90.00000000
_symmetry_Int_Tables_number   1
_chemical_formula_structural   Sc4TlB4Rh10Pb
_chemical_formula_sum   'Sc4 Tl1 B4 Rh10 Pb1'
_cell_volume   290.51103109
_cell_formula_units_Z   1
loop_
 _symmetry_equiv_pos_site_id
 _symmetry_equiv_pos_as_xyz
  1  'x, y, z'
loop_
 _atom_site_type_symbol
 _atom_site_label
 _atom_site_symmetry_multiplicity
 _atom_site_fract_x
 _atom_site_fract_y
 _atom_site_fract_z
 _atom_site_occupancy
  Sc  Sc0  1  0.827166  0.325256  0.000000  1
  Sc  Sc1  1  0.325256  0.172834  0.000000  1
  Sc  Sc2  1  0.674744  0.827166  0.000000  1
  Sc  Sc3  1  0.172834  0.674744  0.000000  1
  Tl  Tl4  1  0.000000  0.000000  0.000000  1
  B  B5  1  0.622292  0.120253  0.000000  1
  B  B6  1  0.120253  0.377708  0.000000  1
  B  B7  1  0.879747  0.622292  0.000000  1
  B  B8  1  0.377708  0.879747  0.000000  1
  Rh  Rh9  1  0.072899  0.226142  0.500000  1
  Rh  Rh10  1  0.226142  0.927101  0.500000  1
  Rh  Rh11  1  0.773858  0.072899  0.500000  1
  Rh  Rh12  1  0.927101  0.773858  0.500000  1
  Rh  Rh13  1  0.427527  0.725697  0.500000  1
  Rh  Rh14  1  0.572473  0.274303  0.500000  1
  Rh  Rh15  1  0.725697  0.572473  0.500000  1
  Rh  Rh16  1  0.274303  0.427527  0.500000  1
  Rh  Rh17  1  0.500000  0.000000  0.500000  1
  Rh  Rh18  1  0.000000  0.500000  0.500000  1
  Pb  Pb19  1  0.500000  0.500000  0.000000  1
