# generated using pymatgen
data_Y4Pa2Fe5Co13P12
_symmetry_space_group_name_H-M   'P 1'
_cell_length_a   3.71397000
_cell_length_b   10.58237042
_cell_length_c   12.06890189
_cell_angle_alpha   89.92163987
_cell_angle_beta   90.00000000
_cell_angle_gamma   90.00000000
_symmetry_Int_Tables_number   1
_chemical_formula_structural   Y4Pa2Fe5Co13P12
_chemical_formula_sum   'Y4 Pa2 Fe5 Co13 P12'
_cell_volume   474.33885524
_cell_formula_units_Z   1
loop_
 _symmetry_equiv_pos_site_id
 _symmetry_equiv_pos_as_xyz
  1  'x, y, z'
loop_
 _atom_site_type_symbol
 _atom_site_label
 _atom_site_symmetry_multiplicity
 _atom_site_fract_x
 _atom_site_fract_y
 _atom_site_fract_z
 _atom_site_occupancy
  Y  Y0  1  0.500000  0.817207  0.204262  1
  Y  Y1  1  0.500000  0.182939  0.204076  1
  Y  Y2  1  0.000000  0.682502  0.796173  1
  Y  Y3  1  0.000000  0.317189  0.796234  1
  Pa  Pa4  1  0.000000  0.500015  0.528101  1
  Pa  Pa5  1  0.500000  0.000191  0.471617  1
  Fe  Fe6  1  0.500000  0.501402  0.153505  1
  Fe  Fe7  1  0.000000  0.999121  0.846072  1
  Fe  Fe8  1  0.000000  0.501908  0.987510  1
  Fe  Fe9  1  0.500000  0.999316  0.012709  1
  Fe  Fe10  1  0.500000  0.332574  0.995613  1
  Co  Co11  1  0.500000  0.499885  0.695746  1
  Co  Co12  1  0.000000  0.000284  0.304465  1
  Co  Co13  1  0.500000  0.668903  0.994110  1
  Co  Co14  1  0.000000  0.165048  0.005606  1
  Co  Co15  1  0.000000  0.832623  0.005981  1
  Co  Co16  1  0.500000  0.301489  0.431798  1
  Co  Co17  1  0.500000  0.698591  0.431871  1
  Co  Co18  1  0.000000  0.198732  0.567975  1
  Co  Co19  1  0.000000  0.801088  0.568091  1
  Co  Co20  1  0.500000  0.879980  0.709644  1
  Co  Co21  1  0.500000  0.119639  0.710478  1
  Co  Co22  1  0.000000  0.619986  0.290234  1
  Co  Co23  1  0.000000  0.380043  0.288820  1
  P  P24  1  0.500000  0.499027  0.883829  1
  P  P25  1  0.000000  0.999326  0.117170  1
  P  P26  1  0.500000  0.499840  0.340078  1
  P  P27  1  0.000000  0.999891  0.659298  1
  P  P28  1  0.500000  0.305812  0.617668  1
  P  P29  1  0.500000  0.693764  0.617365  1
  P  P30  1  0.000000  0.194423  0.382624  1
  P  P31  1  0.000000  0.806019  0.382914  1
  P  P32  1  0.500000  0.847941  0.894199  1
  P  P33  1  0.500000  0.154009  0.895742  1
  P  P34  1  0.000000  0.652936  0.105647  1
  P  P35  1  0.000000  0.346356  0.102772  1
