# generated using pymatgen
data_LiHo9Se10
_symmetry_space_group_name_H-M   'P 1'
_cell_length_a   6.97418237
_cell_length_b   8.07878737
_cell_length_c   9.07965483
_cell_angle_alpha   103.39811563
_cell_angle_beta   97.08494367
_cell_angle_gamma   106.65979332
_symmetry_Int_Tables_number   1
_chemical_formula_structural   LiHo9Se10
_chemical_formula_sum   'Li1 Ho9 Se10'
_cell_volume   466.77276294
_cell_formula_units_Z   1
loop_
 _symmetry_equiv_pos_site_id
 _symmetry_equiv_pos_as_xyz
  1  'x, y, z'
loop_
 _atom_site_type_symbol
 _atom_site_label
 _atom_site_symmetry_multiplicity
 _atom_site_fract_x
 _atom_site_fract_y
 _atom_site_fract_z
 _atom_site_occupancy
  Li  Li0  1  0.000000  0.500000  0.000000  1
  Ho  Ho1  1  0.799367  0.600147  0.597642  1
  Ho  Ho2  1  0.598758  0.199986  0.204790  1
  Ho  Ho3  1  0.401242  0.800014  0.795210  1
  Ho  Ho4  1  0.601011  0.703903  0.205633  1
  Ho  Ho5  1  0.200633  0.399853  0.402358  1
  Ho  Ho6  1  0.398989  0.296097  0.794367  1
  Ho  Ho7  1  0.000000  0.000000  0.000000  1
  Ho  Ho8  1  0.202938  0.902074  0.405122  1
  Ho  Ho9  1  0.797062  0.097926  0.594878  1
  Se  Se10  1  0.704845  0.646451  0.903581  1
  Se  Se11  1  0.500765  0.251400  0.499777  1
  Se  Se12  1  0.706286  0.158209  0.904127  1
  Se  Se13  1  0.293714  0.841791  0.095873  1
  Se  Se14  1  0.499235  0.748600  0.500223  1
  Se  Se15  1  0.096387  0.451298  0.708128  1
  Se  Se16  1  0.295155  0.353549  0.096419  1
  Se  Se17  1  0.903004  0.050295  0.298598  1
  Se  Se18  1  0.096996  0.949705  0.701402  1
  Se  Se19  1  0.903613  0.548702  0.291872  1
