# generated using pymatgen
data_LiNb6VS12
_symmetry_space_group_name_H-M   'P 1'
_cell_length_a   5.81709700
_cell_length_b   5.81709658
_cell_length_c   12.54578000
_cell_angle_alpha   90.00000000
_cell_angle_beta   90.00000000
_cell_angle_gamma   120.00000810
_symmetry_Int_Tables_number   1
_chemical_formula_structural   LiNb6VS12
_chemical_formula_sum   'Li1 Nb6 V1 S12'
_cell_volume   367.65531067
_cell_formula_units_Z   1
loop_
 _symmetry_equiv_pos_site_id
 _symmetry_equiv_pos_as_xyz
  1  'x, y, z'
loop_
 _atom_site_type_symbol
 _atom_site_label
 _atom_site_symmetry_multiplicity
 _atom_site_fract_x
 _atom_site_fract_y
 _atom_site_fract_z
 _atom_site_occupancy
  Li  Li0  1  0.666667  0.333333  0.750000  1
  Nb  Nb1  1  0.333333  0.666667  0.496339  1
  Nb  Nb2  1  0.666667  0.333333  0.006611  1
  Nb  Nb3  1  0.666667  0.333333  0.493389  1
  Nb  Nb4  1  0.333333  0.666667  0.003661  1
  Nb  Nb5  1  0.000000  0.000000  0.493909  1
  Nb  Nb6  1  0.000000  0.000000  0.006091  1
  V  V7  1  0.333333  0.666667  0.250000  1
  S  S8  1  0.663863  0.667058  0.368755  1
  S  S9  1  0.332942  0.996806  0.368755  1
  S  S10  1  0.003194  0.336137  0.368755  1
  S  S11  1  0.000237  0.668846  0.880573  1
  S  S12  1  0.331154  0.999763  0.619427  1
  S  S13  1  0.331154  0.331389  0.880573  1
  S  S14  1  0.668611  0.999763  0.880573  1
  S  S15  1  0.332942  0.336137  0.131245  1
  S  S16  1  0.663863  0.996806  0.131245  1
  S  S17  1  0.668611  0.668846  0.619427  1
  S  S18  1  0.000237  0.331389  0.619427  1
  S  S19  1  0.003194  0.667058  0.131245  1
