# generated using pymatgen
data_Ho5Tm11(AlRh)4
_symmetry_space_group_name_H-M   'P 1'
_cell_length_a   9.42058975
_cell_length_b   9.42079294
_cell_length_c   9.42079234
_cell_angle_alpha   60.03151935
_cell_angle_beta   59.97053392
_cell_angle_gamma   59.97054037
_symmetry_Int_Tables_number   1
_chemical_formula_structural   Ho5Tm11(AlRh)4
_chemical_formula_sum   'Ho5 Tm11 Al4 Rh4'
_cell_volume   591.08193614
_cell_formula_units_Z   1
loop_
 _symmetry_equiv_pos_site_id
 _symmetry_equiv_pos_as_xyz
  1  'x, y, z'
loop_
 _atom_site_type_symbol
 _atom_site_label
 _atom_site_symmetry_multiplicity
 _atom_site_fract_x
 _atom_site_fract_y
 _atom_site_fract_z
 _atom_site_occupancy
  Ho  Ho0  1  0.063781  0.064081  0.436058  1
  Ho  Ho1  1  0.436502  0.063515  0.436431  1
  Ho  Ho2  1  0.063781  0.436058  0.064081  1
  Ho  Ho3  1  0.057852  0.647636  0.647636  1
  Ho  Ho4  1  0.436502  0.436431  0.063515  1
  Tm  Tm5  1  0.647743  0.057809  0.646840  1
  Tm  Tm6  1  0.192710  0.807423  0.192408  1
  Tm  Tm7  1  0.192710  0.192408  0.807423  1
  Tm  Tm8  1  0.806993  0.807104  0.192953  1
  Tm  Tm9  1  0.438344  0.061721  0.061721  1
  Tm  Tm10  1  0.807310  0.192614  0.192614  1
  Tm  Tm11  1  0.062024  0.437811  0.437811  1
  Tm  Tm12  1  0.806993  0.192953  0.807104  1
  Tm  Tm13  1  0.192356  0.807801  0.807801  1
  Tm  Tm14  1  0.647743  0.646840  0.057809  1
  Tm  Tm15  1  0.647047  0.647593  0.647593  1
  Al  Al16  1  0.422329  0.421938  0.421938  1
  Al  Al17  1  0.734017  0.422168  0.422168  1
  Al  Al18  1  0.422841  0.733792  0.421434  1
  Al  Al19  1  0.422841  0.421434  0.733792  1
  Rh  Rh20  1  0.856858  0.857528  0.427187  1
  Rh  Rh21  1  0.855734  0.858517  0.858517  1
  Rh  Rh22  1  0.428129  0.857637  0.857637  1
  Rh  Rh23  1  0.856858  0.427187  0.857528  1
