# generated using pymatgen
data_Er2Tm3Rh2
_symmetry_space_group_name_H-M   'P 1'
_cell_length_a   6.33766979
_cell_length_b   7.11219386
_cell_length_c   8.49426745
_cell_angle_alpha   96.83087750
_cell_angle_beta   111.90419972
_cell_angle_gamma   90.00000459
_symmetry_Int_Tables_number   1
_chemical_formula_structural   Er2Tm3Rh2
_chemical_formula_sum   'Er4 Tm6 Rh4'
_cell_volume   352.30557030
_cell_formula_units_Z   2
loop_
 _symmetry_equiv_pos_site_id
 _symmetry_equiv_pos_as_xyz
  1  'x, y, z'
loop_
 _atom_site_type_symbol
 _atom_site_label
 _atom_site_symmetry_multiplicity
 _atom_site_fract_x
 _atom_site_fract_y
 _atom_site_fract_z
 _atom_site_occupancy
  Er  Er0  1  0.790230  0.082199  0.811917  1
  Er  Er1  1  0.978312  0.417801  0.188083  1
  Er  Er2  1  0.209770  0.917801  0.188083  1
  Er  Er3  1  0.021688  0.582199  0.811917  1
  Tm  Tm4  1  0.209216  0.185858  0.561777  1
  Tm  Tm5  1  0.647439  0.314142  0.438223  1
  Tm  Tm6  1  0.790784  0.814142  0.438223  1
  Tm  Tm7  1  0.352561  0.685858  0.561777  1
  Tm  Tm8  1  0.422913  0.250000  0.000000  1
  Tm  Tm9  1  0.577087  0.750000  0.000000  1
  Rh  Rh10  1  0.597507  0.425922  0.779076  1
  Rh  Rh11  1  0.818431  0.074078  0.220924  1
  Rh  Rh12  1  0.402493  0.574078  0.220924  1
  Rh  Rh13  1  0.181569  0.925922  0.779076  1
