# generated using pymatgen
data_La15YbCd4(CoOs)2
_symmetry_space_group_name_H-M   'P 1'
_cell_length_a   10.06873084
_cell_length_b   9.99128084
_cell_length_c   9.98978037
_cell_angle_alpha   60.18538771
_cell_angle_beta   60.57845698
_cell_angle_gamma   59.76840634
_symmetry_Int_Tables_number   1
_chemical_formula_structural   La15YbCd4(CoOs)2
_chemical_formula_sum   'La15 Yb1 Cd4 Co2 Os2'
_cell_volume   713.40335151
_cell_formula_units_Z   1
loop_
 _symmetry_equiv_pos_site_id
 _symmetry_equiv_pos_as_xyz
  1  'x, y, z'
loop_
 _atom_site_type_symbol
 _atom_site_label
 _atom_site_symmetry_multiplicity
 _atom_site_fract_x
 _atom_site_fract_y
 _atom_site_fract_z
 _atom_site_occupancy
  La  La0  1  0.562366  0.938085  0.559370  1
  La  La1  1  0.562326  0.943806  0.934656  1
  La  La2  1  0.681793  0.692222  0.310350  1
  La  La3  1  0.157706  0.151270  0.538786  1
  La  La4  1  0.305531  0.693394  0.684686  1
  La  La5  1  0.157461  0.150919  0.159450  1
  La  La6  1  0.538509  0.153470  0.158944  1
  La  La7  1  0.305032  0.690245  0.311730  1
  La  La8  1  0.309229  0.312186  0.685198  1
  La  La9  1  0.689395  0.308290  0.687931  1
  La  La10  1  0.936513  0.560248  0.556166  1
  La  La11  1  0.557323  0.559446  0.936309  1
  La  La12  1  0.157793  0.537134  0.155929  1
  La  La13  1  0.685740  0.308523  0.311462  1
  La  La14  1  0.940525  0.559092  0.941999  1
  Yb  Yb15  1  0.935262  0.942557  0.560767  1
  Cd  Cd16  1  0.236827  0.921311  0.921838  1
  Cd  Cd17  1  0.921979  0.922076  0.919994  1
  Cd  Cd18  1  0.920798  0.922044  0.237050  1
  Cd  Cd19  1  0.921619  0.236336  0.922189  1
  Co  Co20  1  0.369278  0.914194  0.363636  1
  Co  Co21  1  0.364606  0.356662  0.364202  1
  Os  Os22  1  0.916422  0.366495  0.361729  1
  Os  Os23  1  0.365965  0.359990  0.915628  1
