# generated using pymatgen
data_Mg4Zn5Ni2Rh
_symmetry_space_group_name_H-M   'P 1'
_cell_length_a   5.12629600
_cell_length_b   5.12568015
_cell_length_c   8.17459000
_cell_angle_alpha   90.00000000
_cell_angle_beta   90.00000000
_cell_angle_gamma   120.00396172
_symmetry_Int_Tables_number   1
_chemical_formula_structural   Mg4Zn5Ni2Rh
_chemical_formula_sum   'Mg4 Zn5 Ni2 Rh1'
_cell_volume   186.00921232
_cell_formula_units_Z   1
loop_
 _symmetry_equiv_pos_site_id
 _symmetry_equiv_pos_as_xyz
  1  'x, y, z'
loop_
 _atom_site_type_symbol
 _atom_site_label
 _atom_site_symmetry_multiplicity
 _atom_site_fract_x
 _atom_site_fract_y
 _atom_site_fract_z
 _atom_site_occupancy
  Mg  Mg0  1  0.329512  0.659025  0.072897  1
  Mg  Mg1  1  0.663015  0.326028  0.558335  1
  Mg  Mg2  1  0.663015  0.326028  0.941665  1
  Mg  Mg3  1  0.329512  0.659025  0.427103  1
  Zn  Zn4  1  0.014373  0.028746  0.011511  1
  Zn  Zn5  1  0.014373  0.028746  0.488489  1
  Zn  Zn6  1  0.662074  0.826696  0.750000  1
  Zn  Zn7  1  0.164622  0.826696  0.750000  1
  Zn  Zn8  1  0.827341  0.654681  0.250000  1
  Ni  Ni9  1  0.815495  0.161696  0.250000  1
  Ni  Ni10  1  0.346202  0.161696  0.250000  1
  Rh  Rh11  1  0.170469  0.340940  0.750000  1
