# generated using pymatgen
data_Hf6Al16Cu4Rh3
_symmetry_space_group_name_H-M   'P 1'
_cell_length_a   8.65817459
_cell_length_b   8.65817424
_cell_length_c   8.63401500
_cell_angle_alpha   60.09225700
_cell_angle_beta   60.09225835
_cell_angle_gamma   59.81547645
_symmetry_Int_Tables_number   1
_chemical_formula_structural   Hf6Al16Cu4Rh3
_chemical_formula_sum   'Hf6 Al16 Cu4 Rh3'
_cell_volume   457.66077384
_cell_formula_units_Z   1
loop_
 _symmetry_equiv_pos_site_id
 _symmetry_equiv_pos_as_xyz
  1  'x, y, z'
loop_
 _atom_site_type_symbol
 _atom_site_label
 _atom_site_symmetry_multiplicity
 _atom_site_fract_x
 _atom_site_fract_y
 _atom_site_fract_z
 _atom_site_occupancy
  Hf  Hf0  1  0.685146  0.314854  0.314854  1
  Hf  Hf1  1  0.314854  0.685146  0.685146  1
  Hf  Hf2  1  0.314854  0.685146  0.314854  1
  Hf  Hf3  1  0.685146  0.314854  0.685146  1
  Hf  Hf4  1  0.309613  0.309613  0.690387  1
  Hf  Hf5  1  0.690387  0.690387  0.309613  1
  Al  Al6  1  0.333101  0.333101  0.335554  1
  Al  Al7  1  0.666899  0.666899  0.664446  1
  Al  Al8  1  0.333101  0.333101  0.998244  1
  Al  Al9  1  0.335554  0.998244  0.333101  1
  Al  Al10  1  0.666899  0.666899  0.001756  1
  Al  Al11  1  0.664446  0.001756  0.666899  1
  Al  Al12  1  0.998244  0.335554  0.333101  1
  Al  Al13  1  0.001756  0.664446  0.666899  1
  Al  Al14  1  0.116690  0.116690  0.124243  1
  Al  Al15  1  0.883310  0.883310  0.875757  1
  Al  Al16  1  0.116690  0.116690  0.642375  1
  Al  Al17  1  0.124243  0.642375  0.116690  1
  Al  Al18  1  0.883310  0.883310  0.357625  1
  Al  Al19  1  0.875757  0.357625  0.883310  1
  Al  Al20  1  0.642375  0.124243  0.116690  1
  Al  Al21  1  0.357625  0.875757  0.883310  1
  Cu  Cu22  1  0.500000  0.000000  0.000000  1
  Cu  Cu23  1  0.000000  0.500000  0.500000  1
  Cu  Cu24  1  0.000000  0.500000  0.000000  1
  Cu  Cu25  1  0.500000  0.000000  0.500000  1
  Rh  Rh26  1  0.000000  0.000000  0.500000  1
  Rh  Rh27  1  0.500000  0.500000  0.000000  1
  Rh  Rh28  1  0.000000  0.000000  0.000000  1
