# generated using pymatgen
data_HfTlHgF7
_symmetry_space_group_name_H-M   'P 1'
_cell_length_a   6.68465800
_cell_length_b   6.68465744
_cell_length_c   8.82862100
_cell_angle_alpha   90.00000000
_cell_angle_beta   90.00000000
_cell_angle_gamma   117.22994537
_symmetry_Int_Tables_number   1
_chemical_formula_structural   HfTlHgF7
_chemical_formula_sum   'Hf2 Tl2 Hg2 F14'
_cell_volume   350.78387000
_cell_formula_units_Z   2
loop_
 _symmetry_equiv_pos_site_id
 _symmetry_equiv_pos_as_xyz
  1  'x, y, z'
loop_
 _atom_site_type_symbol
 _atom_site_label
 _atom_site_symmetry_multiplicity
 _atom_site_fract_x
 _atom_site_fract_y
 _atom_site_fract_z
 _atom_site_occupancy
  Hf  Hf0  1  0.692407  0.307593  0.750000  1
  Hf  Hf1  1  0.307593  0.692407  0.250000  1
  Tl  Tl2  1  0.000000  0.000000  0.000000  1
  Tl  Tl3  1  0.000000  0.000000  0.500000  1
  Hg  Hg4  1  0.308860  0.691140  0.750000  1
  Hg  Hg5  1  0.691140  0.308860  0.250000  1
  F  F6  1  0.352248  0.069010  0.750000  1
  F  F7  1  0.647752  0.930990  0.250000  1
  F  F8  1  0.930990  0.647752  0.750000  1
  F  F9  1  0.069010  0.352248  0.250000  1
  F  F10  1  0.514755  0.485245  0.750000  1
  F  F11  1  0.485245  0.514755  0.250000  1
  F  F12  1  0.703338  0.296662  0.976585  1
  F  F13  1  0.296662  0.703338  0.023415  1
  F  F14  1  0.296662  0.703338  0.476585  1
  F  F15  1  0.703338  0.296662  0.523415  1
  F  F16  1  0.672982  0.979944  0.750000  1
  F  F17  1  0.327018  0.020056  0.250000  1
  F  F18  1  0.020056  0.327018  0.750000  1
  F  F19  1  0.979944  0.672982  0.250000  1
