# generated using pymatgen
data_Y10Sn5Bi
_symmetry_space_group_name_H-M   'P 1'
_cell_length_a   9.01969249
_cell_length_b   9.01969242
_cell_length_c   6.54367600
_cell_angle_alpha   90.00000000
_cell_angle_beta   90.00000000
_cell_angle_gamma   120.03762271
_symmetry_Int_Tables_number   1
_chemical_formula_structural   Y10Sn5Bi
_chemical_formula_sum   'Y10 Sn5 Bi1'
_cell_volume   460.86222001
_cell_formula_units_Z   1
loop_
 _symmetry_equiv_pos_site_id
 _symmetry_equiv_pos_as_xyz
  1  'x, y, z'
loop_
 _atom_site_type_symbol
 _atom_site_label
 _atom_site_symmetry_multiplicity
 _atom_site_fract_x
 _atom_site_fract_y
 _atom_site_fract_z
 _atom_site_occupancy
  Y  Y0  1  0.760502  0.760502  0.250000  1
  Y  Y1  1  0.999633  0.240416  0.250000  1
  Y  Y2  1  0.761100  0.004704  0.750000  1
  Y  Y3  1  0.330696  0.667304  0.499471  1
  Y  Y4  1  0.240416  0.999633  0.250000  1
  Y  Y5  1  0.667304  0.330696  0.499471  1
  Y  Y6  1  0.004704  0.761100  0.750000  1
  Y  Y7  1  0.330696  0.667304  0.000529  1
  Y  Y8  1  0.237615  0.237615  0.750000  1
  Y  Y9  1  0.667304  0.330696  0.000529  1
  Sn  Sn10  1  0.394785  0.000184  0.750000  1
  Sn  Sn11  1  0.605731  0.999259  0.250000  1
  Sn  Sn12  1  0.000184  0.394785  0.750000  1
  Sn  Sn13  1  0.393705  0.393705  0.250000  1
  Sn  Sn14  1  0.999259  0.605731  0.250000  1
  Bi  Bi15  1  0.606367  0.606367  0.750000  1
