# generated using pymatgen
data_Ta4Be15(NbNi4)2
_symmetry_space_group_name_H-M   'P 1'
_cell_length_a   7.56915519
_cell_length_b   7.56915501
_cell_length_c   7.57314300
_cell_angle_alpha   59.98256527
_cell_angle_beta   59.98256605
_cell_angle_gamma   60.03485657
_symmetry_Int_Tables_number   1
_chemical_formula_structural   Ta4Be15(NbNi4)2
_chemical_formula_sum   'Ta4 Be15 Nb2 Ni8'
_cell_volume   306.80023507
_cell_formula_units_Z   1
loop_
 _symmetry_equiv_pos_site_id
 _symmetry_equiv_pos_as_xyz
  1  'x, y, z'
loop_
 _atom_site_type_symbol
 _atom_site_label
 _atom_site_symmetry_multiplicity
 _atom_site_fract_x
 _atom_site_fract_y
 _atom_site_fract_z
 _atom_site_occupancy
  Ta  Ta0  1  0.704489  0.295511  0.295511  1
  Ta  Ta1  1  0.295511  0.704489  0.704489  1
  Ta  Ta2  1  0.295511  0.704489  0.295511  1
  Ta  Ta3  1  0.704489  0.295511  0.704489  1
  Be  Be4  1  0.326538  0.326538  0.326048  1
  Be  Be5  1  0.673462  0.673462  0.673952  1
  Be  Be6  1  0.326538  0.326538  0.020877  1
  Be  Be7  1  0.326048  0.020877  0.326538  1
  Be  Be8  1  0.673462  0.673462  0.979123  1
  Be  Be9  1  0.673952  0.979123  0.673462  1
  Be  Be10  1  0.020877  0.326048  0.326538  1
  Be  Be11  1  0.979123  0.673952  0.673462  1
  Be  Be12  1  0.500000  0.000000  0.000000  1
  Be  Be13  1  0.000000  0.500000  0.500000  1
  Be  Be14  1  0.000000  0.500000  0.000000  1
  Be  Be15  1  0.500000  0.000000  0.500000  1
  Be  Be16  1  0.000000  0.000000  0.500000  1
  Be  Be17  1  0.500000  0.500000  0.000000  1
  Be  Be18  1  0.000000  0.000000  0.000000  1
  Nb  Nb19  1  0.299288  0.299288  0.700712  1
  Nb  Nb20  1  0.700712  0.700712  0.299288  1
  Ni  Ni21  1  0.122666  0.122666  0.122603  1
  Ni  Ni22  1  0.877334  0.877334  0.877397  1
  Ni  Ni23  1  0.122666  0.122666  0.632064  1
  Ni  Ni24  1  0.122603  0.632064  0.122666  1
  Ni  Ni25  1  0.877334  0.877334  0.367936  1
  Ni  Ni26  1  0.877397  0.367936  0.877334  1
  Ni  Ni27  1  0.632064  0.122603  0.122666  1
  Ni  Ni28  1  0.367936  0.877397  0.877334  1
