# generated using pymatgen
data_Hf18Ti2FeRe6Se
_symmetry_space_group_name_H-M   'P 1'
_cell_length_a   8.64578000
_cell_length_b   8.64577990
_cell_length_c   8.51061000
_cell_angle_alpha   90.00000000
_cell_angle_beta   90.00000000
_cell_angle_gamma   120.00000038
_symmetry_Int_Tables_number   1
_chemical_formula_structural   Hf18Ti2FeRe6Se
_chemical_formula_sum   'Hf18 Ti2 Fe1 Re6 Se1'
_cell_volume   550.93412684
_cell_formula_units_Z   1
loop_
 _symmetry_equiv_pos_site_id
 _symmetry_equiv_pos_as_xyz
  1  'x, y, z'
loop_
 _atom_site_type_symbol
 _atom_site_label
 _atom_site_symmetry_multiplicity
 _atom_site_fract_x
 _atom_site_fract_y
 _atom_site_fract_z
 _atom_site_occupancy
  Hf  Hf0  1  0.200861  0.799139  0.440481  1
  Hf  Hf1  1  0.200861  0.401722  0.440481  1
  Hf  Hf2  1  0.598278  0.799139  0.440481  1
  Hf  Hf3  1  0.807281  0.192719  0.547642  1
  Hf  Hf4  1  0.807281  0.614562  0.547642  1
  Hf  Hf5  1  0.385438  0.192719  0.547642  1
  Hf  Hf6  1  0.807281  0.192719  0.952358  1
  Hf  Hf7  1  0.807281  0.614562  0.952358  1
  Hf  Hf8  1  0.385438  0.192719  0.952358  1
  Hf  Hf9  1  0.200861  0.799139  0.059519  1
  Hf  Hf10  1  0.200861  0.401722  0.059519  1
  Hf  Hf11  1  0.598278  0.799139  0.059519  1
  Hf  Hf12  1  0.540960  0.459040  0.250000  1
  Hf  Hf13  1  0.540960  0.081921  0.250000  1
  Hf  Hf14  1  0.918079  0.459040  0.250000  1
  Hf  Hf15  1  0.455018  0.544982  0.750000  1
  Hf  Hf16  1  0.455018  0.910035  0.750000  1
  Hf  Hf17  1  0.089965  0.544982  0.750000  1
  Ti  Ti18  1  0.000000  0.000000  0.498517  1
  Ti  Ti19  1  0.000000  0.000000  0.001483  1
  Fe  Fe20  1  0.333333  0.666667  0.250000  1
  Re  Re21  1  0.886814  0.113186  0.250000  1
  Re  Re22  1  0.886814  0.773629  0.250000  1
  Re  Re23  1  0.226371  0.113186  0.250000  1
  Re  Re24  1  0.112789  0.887211  0.750000  1
  Re  Re25  1  0.112789  0.225577  0.750000  1
  Re  Re26  1  0.774423  0.887211  0.750000  1
  Se  Se27  1  0.666667  0.333333  0.750000  1
