# generated using pymatgen
data_Y3AlNiRu2
_symmetry_space_group_name_H-M   'P 1'
_cell_length_a   5.61206100
_cell_length_b   7.69213800
_cell_length_c   13.56884600
_cell_angle_alpha   90.00000000
_cell_angle_beta   90.00000000
_cell_angle_gamma   90.00000000
_symmetry_Int_Tables_number   1
_chemical_formula_structural   Y3AlNiRu2
_chemical_formula_sum   'Y12 Al4 Ni4 Ru8'
_cell_volume   585.75008923
_cell_formula_units_Z   4
loop_
 _symmetry_equiv_pos_site_id
 _symmetry_equiv_pos_as_xyz
  1  'x, y, z'
loop_
 _atom_site_type_symbol
 _atom_site_label
 _atom_site_symmetry_multiplicity
 _atom_site_fract_x
 _atom_site_fract_y
 _atom_site_fract_z
 _atom_site_occupancy
  Y  Y0  1  0.144898  0.600134  0.101215  1
  Y  Y1  1  0.144898  0.899866  0.898785  1
  Y  Y2  1  0.855102  0.100134  0.398785  1
  Y  Y3  1  0.855102  0.399866  0.601215  1
  Y  Y4  1  0.855102  0.399866  0.898785  1
  Y  Y5  1  0.855102  0.100134  0.101215  1
  Y  Y6  1  0.144898  0.899866  0.601215  1
  Y  Y7  1  0.144898  0.600134  0.398785  1
  Y  Y8  1  0.364612  0.243780  0.250000  1
  Y  Y9  1  0.364612  0.256220  0.750000  1
  Y  Y10  1  0.635388  0.743780  0.250000  1
  Y  Y11  1  0.635388  0.756220  0.750000  1
  Al  Al12  1  0.385710  0.250000  0.000000  1
  Al  Al13  1  0.614290  0.750000  0.500000  1
  Al  Al14  1  0.614290  0.750000  0.000000  1
  Al  Al15  1  0.385710  0.250000  0.500000  1
  Ni  Ni16  1  0.873203  0.390517  0.250000  1
  Ni  Ni17  1  0.873203  0.109483  0.750000  1
  Ni  Ni18  1  0.126797  0.890517  0.250000  1
  Ni  Ni19  1  0.126797  0.609483  0.750000  1
  Ru  Ru20  1  0.653669  0.464953  0.098604  1
  Ru  Ru21  1  0.653669  0.035047  0.901396  1
  Ru  Ru22  1  0.346331  0.964953  0.401396  1
  Ru  Ru23  1  0.346331  0.535047  0.598604  1
  Ru  Ru24  1  0.346331  0.535047  0.901396  1
  Ru  Ru25  1  0.346331  0.964953  0.098604  1
  Ru  Ru26  1  0.653669  0.035047  0.598604  1
  Ru  Ru27  1  0.653669  0.464953  0.401396  1
