# generated using pymatgen
data_Ac4CdHg3
_symmetry_space_group_name_H-M   'P 1'
_cell_length_a   4.00194000
_cell_length_b   4.00194000
_cell_length_c   16.84168600
_cell_angle_alpha   90.00000000
_cell_angle_beta   90.00000000
_cell_angle_gamma   90.00000000
_symmetry_Int_Tables_number   1
_chemical_formula_structural   Ac4CdHg3
_chemical_formula_sum   'Ac4 Cd1 Hg3'
_cell_volume   269.72842235
_cell_formula_units_Z   1
loop_
 _symmetry_equiv_pos_site_id
 _symmetry_equiv_pos_as_xyz
  1  'x, y, z'
loop_
 _atom_site_type_symbol
 _atom_site_label
 _atom_site_symmetry_multiplicity
 _atom_site_fract_x
 _atom_site_fract_y
 _atom_site_fract_z
 _atom_site_occupancy
  Ac  Ac0  1  0.500000  0.500000  0.126053  1
  Ac  Ac1  1  0.500000  0.500000  0.374479  1
  Ac  Ac2  1  0.500000  0.500000  0.625521  1
  Ac  Ac3  1  0.500000  0.500000  0.873947  1
  Cd  Cd4  1  0.000000  0.000000  0.000000  1
  Hg  Hg5  1  0.000000  0.000000  0.248322  1
  Hg  Hg6  1  0.000000  0.000000  0.500000  1
  Hg  Hg7  1  0.000000  0.000000  0.751678  1
