# generated using pymatgen
data_Ho4ErGaCo5
_symmetry_space_group_name_H-M   'P 1'
_cell_length_a   5.42716003
_cell_length_b   5.42715947
_cell_length_c   20.43131200
_cell_angle_alpha   90.00000000
_cell_angle_beta   90.00000000
_cell_angle_gamma   136.69129837
_symmetry_Int_Tables_number   1
_chemical_formula_structural   Ho4ErGaCo5
_chemical_formula_sum   'Ho8 Er2 Ga2 Co10'
_cell_volume   412.78181011
_cell_formula_units_Z   2
loop_
 _symmetry_equiv_pos_site_id
 _symmetry_equiv_pos_as_xyz
  1  'x, y, z'
loop_
 _atom_site_type_symbol
 _atom_site_label
 _atom_site_symmetry_multiplicity
 _atom_site_fract_x
 _atom_site_fract_y
 _atom_site_fract_z
 _atom_site_occupancy
  Ho  Ho0  1  0.291050  0.708950  0.065907  1
  Ho  Ho1  1  0.998900  0.001100  0.842747  1
  Ho  Ho2  1  0.708950  0.291050  0.565907  1
  Ho  Ho3  1  0.001100  0.998900  0.342747  1
  Ho  Ho4  1  0.998900  0.001100  0.657253  1
  Ho  Ho5  1  0.708950  0.291050  0.934093  1
  Ho  Ho6  1  0.001100  0.998900  0.157253  1
  Ho  Ho7  1  0.291050  0.708950  0.434093  1
  Er  Er8  1  0.288158  0.711842  0.250000  1
  Er  Er9  1  0.711842  0.288158  0.750000  1
  Ga  Ga10  1  0.000000  0.000000  0.500000  1
  Ga  Ga11  1  0.000000  0.000000  0.000000  1
  Co  Co12  1  0.294225  0.705775  0.654481  1
  Co  Co13  1  0.581723  0.418277  0.441478  1
  Co  Co14  1  0.414702  0.585298  0.750000  1
  Co  Co15  1  0.418277  0.581723  0.941478  1
  Co  Co16  1  0.585298  0.414702  0.250000  1
  Co  Co17  1  0.418277  0.581723  0.558522  1
  Co  Co18  1  0.705775  0.294225  0.345519  1
  Co  Co19  1  0.705775  0.294225  0.154481  1
  Co  Co20  1  0.581723  0.418277  0.058522  1
  Co  Co21  1  0.294225  0.705775  0.845519  1
