# generated using pymatgen
data_Lu3AlAg3Ge2
_symmetry_space_group_name_H-M   'P 1'
_cell_length_a   7.11587000
_cell_length_b   7.11586968
_cell_length_c   4.13332100
_cell_angle_alpha   90.00000000
_cell_angle_beta   90.00000000
_cell_angle_gamma   120.00080385
_symmetry_Int_Tables_number   1
_chemical_formula_structural   Lu3AlAg3Ge2
_chemical_formula_sum   'Lu3 Al1 Ag3 Ge2'
_cell_volume   181.25176312
_cell_formula_units_Z   1
loop_
 _symmetry_equiv_pos_site_id
 _symmetry_equiv_pos_as_xyz
  1  'x, y, z'
loop_
 _atom_site_type_symbol
 _atom_site_label
 _atom_site_symmetry_multiplicity
 _atom_site_fract_x
 _atom_site_fract_y
 _atom_site_fract_z
 _atom_site_occupancy
  Lu  Lu0  1  0.573398  0.999964  0.000000  1
  Lu  Lu1  1  0.999964  0.573398  0.000000  1
  Lu  Lu2  1  0.426607  0.426607  0.000000  1
  Al  Al3  1  0.000008  0.000008  0.000000  1
  Ag  Ag4  1  0.247583  0.000051  0.500000  1
  Ag  Ag5  1  0.000051  0.247583  0.500000  1
  Ag  Ag6  1  0.752374  0.752374  0.500000  1
  Ge  Ge7  1  0.333309  0.666706  0.500000  1
  Ge  Ge8  1  0.666706  0.333309  0.500000  1
