# generated using pymatgen
data_CaEu3(Ga2Ag)4
_symmetry_space_group_name_H-M   'P 1'
_cell_length_a   4.45147800
_cell_length_b   7.09448365
_cell_length_c   10.55078646
_cell_angle_alpha   89.85639896
_cell_angle_beta   90.00000000
_cell_angle_gamma   90.00000000
_symmetry_Int_Tables_number   1
_chemical_formula_structural   CaEu3(Ga2Ag)4
_chemical_formula_sum   'Ca1 Eu3 Ga8 Ag4'
_cell_volume   333.20268528
_cell_formula_units_Z   1
loop_
 _symmetry_equiv_pos_site_id
 _symmetry_equiv_pos_as_xyz
  1  'x, y, z'
loop_
 _atom_site_type_symbol
 _atom_site_label
 _atom_site_symmetry_multiplicity
 _atom_site_fract_x
 _atom_site_fract_y
 _atom_site_fract_z
 _atom_site_occupancy
  Ca  Ca0  1  0.250000  0.280474  0.672198  1
  Eu  Eu1  1  0.250000  0.784220  0.824590  1
  Eu  Eu2  1  0.750000  0.216609  0.173020  1
  Eu  Eu3  1  0.750000  0.716838  0.328057  1
  Ga  Ga4  1  0.250000  0.920056  0.147710  1
  Ga  Ga5  1  0.750000  0.082579  0.852235  1
  Ga  Ga6  1  0.750000  0.577963  0.648471  1
  Ga  Ga7  1  0.250000  0.418589  0.351367  1
  Ga  Ga8  1  0.250000  0.696163  0.533580  1
  Ga  Ga9  1  0.750000  0.298104  0.466781  1
  Ga  Ga10  1  0.750000  0.797638  0.034407  1
  Ga  Ga11  1  0.250000  0.206465  0.963706  1
  Ag  Ag12  1  0.250000  0.539741  0.098153  1
  Ag  Ag13  1  0.750000  0.462276  0.900367  1
  Ag  Ag14  1  0.750000  0.963694  0.600306  1
  Ag  Ag15  1  0.250000  0.038594  0.405053  1
