# generated using pymatgen
data_YbCd(AuO2)4
_symmetry_space_group_name_H-M   'P 1'
_cell_length_a   6.63912833
_cell_length_b   6.63912820
_cell_length_c   6.63912857
_cell_angle_alpha   125.79171248
_cell_angle_beta   125.79170925
_cell_angle_gamma   80.23074842
_symmetry_Int_Tables_number   1
_chemical_formula_structural   YbCd(AuO2)4
_chemical_formula_sum   'Yb1 Cd1 Au4 O8'
_cell_volume   185.82194637
_cell_formula_units_Z   1
loop_
 _symmetry_equiv_pos_site_id
 _symmetry_equiv_pos_as_xyz
  1  'x, y, z'
loop_
 _atom_site_type_symbol
 _atom_site_label
 _atom_site_symmetry_multiplicity
 _atom_site_fract_x
 _atom_site_fract_y
 _atom_site_fract_z
 _atom_site_occupancy
  Yb  Yb0  1  0.000000  0.000000  0.000000  1
  Cd  Cd1  1  0.750000  0.250000  0.500000  1
  Au  Au2  1  0.375153  0.624989  0.749963  1
  Au  Au3  1  0.375011  0.124974  0.750163  1
  Au  Au4  1  0.875026  0.625189  0.250037  1
  Au  Au5  1  0.374811  0.624847  0.249837  1
  O  O6  1  0.041601  0.399798  0.042476  1
  O  O7  1  0.749061  0.289913  0.137589  1
  O  O8  1  0.152323  0.611472  0.862411  1
  O  O9  1  0.357324  0.999126  0.957524  1
  O  O10  1  0.710087  0.847677  0.459148  1
  O  O11  1  0.000874  0.958399  0.358198  1
  O  O12  1  0.388528  0.250939  0.540852  1
  O  O13  1  0.600202  0.642676  0.641802  1
