# generated using pymatgen
data_Sr5Pr2Ho13Sn16
_symmetry_space_group_name_H-M   'P 1'
_cell_length_a   8.06442579
_cell_length_b   8.40923653
_cell_length_c   15.91343324
_cell_angle_alpha   90.15378005
_cell_angle_beta   90.74182920
_cell_angle_gamma   89.62048627
_symmetry_Int_Tables_number   1
_chemical_formula_structural   Sr5Pr2Ho13Sn16
_chemical_formula_sum   'Sr5 Pr2 Ho13 Sn16'
_cell_volume   1079.06227366
_cell_formula_units_Z   1
loop_
 _symmetry_equiv_pos_site_id
 _symmetry_equiv_pos_as_xyz
  1  'x, y, z'
loop_
 _atom_site_type_symbol
 _atom_site_label
 _atom_site_symmetry_multiplicity
 _atom_site_fract_x
 _atom_site_fract_y
 _atom_site_fract_z
 _atom_site_occupancy
  Sr  Sr0  1  0.005230  0.174281  0.598767  1
  Sr  Sr1  1  0.499324  0.675242  0.409279  1
  Sr  Sr2  1  0.998489  0.821326  0.088289  1
  Sr  Sr3  1  0.494668  0.677619  0.088660  1
  Sr  Sr4  1  0.999436  0.824337  0.408873  1
  Pr  Pr5  1  0.500749  0.321859  0.601435  1
  Pr  Pr6  1  0.002383  0.180752  0.902353  1
  Ho  Ho7  1  0.337833  0.834819  0.872918  1
  Ho  Ho8  1  0.831347  0.664317  0.627197  1
  Ho  Ho9  1  0.664955  0.164556  0.376078  1
  Ho  Ho10  1  0.157251  0.340947  0.120584  1
  Ho  Ho11  1  0.658404  0.162627  0.123507  1
  Ho  Ho12  1  0.165130  0.336064  0.376628  1
  Ho  Ho13  1  0.332760  0.834440  0.629148  1
  Ho  Ho14  1  0.839173  0.660026  0.876172  1
  Ho  Ho15  1  0.508813  0.320285  0.899978  1
  Ho  Ho16  1  0.173264  0.497291  0.753109  1
  Ho  Ho17  1  0.672195  0.001498  0.751424  1
  Ho  Ho18  1  0.823462  0.503929  0.247402  1
  Ho  Ho19  1  0.326571  0.998144  0.248591  1
  Sn  Sn20  1  0.328469  0.055191  0.033942  1
  Sn  Sn21  1  0.832655  0.454588  0.461151  1
  Sn  Sn22  1  0.664118  0.965757  0.546244  1
  Sn  Sn23  1  0.188398  0.529933  0.951077  1
  Sn  Sn24  1  0.673970  0.970033  0.952418  1
  Sn  Sn25  1  0.170154  0.537537  0.546515  1
  Sn  Sn26  1  0.336836  0.048243  0.462850  1
  Sn  Sn27  1  0.814320  0.446071  0.036022  1
  Sn  Sn28  1  0.535343  0.624235  0.750428  1
  Sn  Sn29  1  0.031651  0.869612  0.752694  1
  Sn  Sn30  1  0.459700  0.368137  0.250841  1
  Sn  Sn31  1  0.963821  0.133500  0.248685  1
  Sn  Sn32  1  0.311973  0.146054  0.755259  1
  Sn  Sn33  1  0.803325  0.357130  0.753284  1
  Sn  Sn34  1  0.696720  0.864163  0.249273  1
  Sn  Sn35  1  0.197112  0.635456  0.248926  1
