# generated using pymatgen
data_Tb5Lu(Sc2Sn3)2
_symmetry_space_group_name_H-M   'P 1'
_cell_length_a   8.81234300
_cell_length_b   8.79979970
_cell_length_c   6.29342400
_cell_angle_alpha   90.00000000
_cell_angle_beta   90.00000000
_cell_angle_gamma   120.04715954
_symmetry_Int_Tables_number   1
_chemical_formula_structural   Tb5Lu(Sc2Sn3)2
_chemical_formula_sum   'Tb5 Lu1 Sc4 Sn6'
_cell_volume   422.44991379
_cell_formula_units_Z   1
loop_
 _symmetry_equiv_pos_site_id
 _symmetry_equiv_pos_as_xyz
  1  'x, y, z'
loop_
 _atom_site_type_symbol
 _atom_site_label
 _atom_site_symmetry_multiplicity
 _atom_site_fract_x
 _atom_site_fract_y
 _atom_site_fract_z
 _atom_site_occupancy
  Tb  Tb0  1  0.760737  0.761557  0.250000  1
  Tb  Tb1  1  0.240533  0.000000  0.250000  1
  Tb  Tb2  1  0.238958  0.239137  0.750000  1
  Tb  Tb3  1  0.999820  0.760863  0.750000  1
  Tb  Tb4  1  0.999180  0.238443  0.250000  1
  Lu  Lu5  1  0.760464  0.000000  0.750000  1
  Sc  Sc6  1  0.333227  0.666258  0.500255  1
  Sc  Sc7  1  0.666970  0.333742  0.999745  1
  Sc  Sc8  1  0.666970  0.333742  0.500255  1
  Sc  Sc9  1  0.333227  0.666258  0.999745  1
  Sn  Sn10  1  0.402343  0.000000  0.750000  1
  Sn  Sn11  1  0.400825  0.401185  0.250000  1
  Sn  Sn12  1  0.999640  0.598815  0.250000  1
  Sn  Sn13  1  0.998154  0.398701  0.750000  1
  Sn  Sn14  1  0.599453  0.601299  0.750000  1
  Sn  Sn15  1  0.599497  0.000000  0.250000  1
