# generated using pymatgen
data_TmMg3Ge4P2Ir7
_symmetry_space_group_name_H-M   'P 1'
_cell_length_a   7.06566006
_cell_length_b   7.09477698
_cell_length_c   6.96522350
_cell_angle_alpha   108.60841430
_cell_angle_beta   109.43187958
_cell_angle_gamma   110.16832089
_symmetry_Int_Tables_number   1
_chemical_formula_structural   TmMg3Ge4P2Ir7
_chemical_formula_sum   'Tm1 Mg3 Ge4 P2 Ir7'
_cell_volume   269.42528916
_cell_formula_units_Z   1
loop_
 _symmetry_equiv_pos_site_id
 _symmetry_equiv_pos_as_xyz
  1  'x, y, z'
loop_
 _atom_site_type_symbol
 _atom_site_label
 _atom_site_symmetry_multiplicity
 _atom_site_fract_x
 _atom_site_fract_y
 _atom_site_fract_z
 _atom_site_occupancy
  Tm  Tm0  1  0.000000  0.999761  0.474744  1
  Mg  Mg1  1  0.000000  0.523433  0.000051  1
  Mg  Mg2  1  0.497397  0.000434  0.000604  1
  Mg  Mg3  1  0.502603  0.503037  0.503208  1
  Ge  Ge4  1  0.000000  0.319707  0.304556  1
  Ge  Ge5  1  0.300594  0.303056  0.002928  1
  Ge  Ge6  1  0.699406  0.002462  0.702334  1
  Ge  Ge7  1  0.000000  0.687608  0.686925  1
  P  P8  1  0.669544  0.668189  0.994278  1
  P  P9  1  0.330456  0.998645  0.324734  1
  Ir  Ir10  1  0.743321  0.249154  0.496949  1
  Ir  Ir11  1  0.741511  0.496103  0.242507  1
  Ir  Ir12  1  0.505189  0.254806  0.750124  1
  Ir  Ir13  1  0.256679  0.505832  0.753628  1
  Ir  Ir14  1  0.258489  0.754591  0.500996  1
  Ir  Ir15  1  0.494811  0.749616  0.244934  1
  Ir  Ir16  1  0.000000  0.983565  0.016499  1
