# generated using pymatgen
data_Sc4Be2B4RuRh9
_symmetry_space_group_name_H-M   'P 1'
_cell_length_a   9.24767419
_cell_length_b   2.99176800
_cell_length_c   9.24767419
_cell_angle_alpha   90.00000000
_cell_angle_beta   90.55684658
_cell_angle_gamma   90.00000000
_symmetry_Int_Tables_number   1
_chemical_formula_structural   Sc4Be2B4RuRh9
_chemical_formula_sum   'Sc4 Be2 B4 Ru1 Rh9'
_cell_volume   255.84235392
_cell_formula_units_Z   1
loop_
 _symmetry_equiv_pos_site_id
 _symmetry_equiv_pos_as_xyz
  1  'x, y, z'
loop_
 _atom_site_type_symbol
 _atom_site_label
 _atom_site_symmetry_multiplicity
 _atom_site_fract_x
 _atom_site_fract_y
 _atom_site_fract_z
 _atom_site_occupancy
  Sc  Sc0  1  0.672554  0.000000  0.172553  1
  Sc  Sc1  1  0.177042  0.000000  0.322957  1
  Sc  Sc2  1  0.822958  0.000000  0.677043  1
  Sc  Sc3  1  0.327446  0.000000  0.827447  1
  Be  Be4  1  0.000000  0.000000  0.000000  1
  Be  Be5  1  0.500000  0.000000  0.500000  1
  B  B6  1  0.374817  0.000000  0.125182  1
  B  B7  1  0.870468  0.000000  0.370467  1
  B  B8  1  0.129532  0.000000  0.629531  1
  B  B9  1  0.625181  0.000000  0.874818  1
  Ru  Ru10  1  0.500000  0.500000  0.000000  1
  Rh  Rh11  1  0.207815  0.500000  0.069903  1
  Rh  Rh12  1  0.930753  0.500000  0.209686  1
  Rh  Rh13  1  0.430097  0.500000  0.292184  1
  Rh  Rh14  1  0.709687  0.500000  0.430753  1
  Rh  Rh15  1  0.000000  0.500000  0.500000  1
  Rh  Rh16  1  0.290313  0.500000  0.569247  1
  Rh  Rh17  1  0.569903  0.500000  0.707816  1
  Rh  Rh18  1  0.069247  0.500000  0.790313  1
  Rh  Rh19  1  0.792184  0.500000  0.930097  1
