# generated using pymatgen
data_Na2Pt3O8
_symmetry_space_group_name_H-M   'P 1'
_cell_length_a   6.38140299
_cell_length_b   6.38140260
_cell_length_c   6.38140230
_cell_angle_alpha   58.79271226
_cell_angle_beta   58.79271821
_cell_angle_gamma   58.79271046
_symmetry_Int_Tables_number   1
_chemical_formula_structural   Na2Pt3O8
_chemical_formula_sum   'Na2 Pt3 O8'
_cell_volume   178.68618101
_cell_formula_units_Z   1
loop_
 _symmetry_equiv_pos_site_id
 _symmetry_equiv_pos_as_xyz
  1  'x, y, z'
loop_
 _atom_site_type_symbol
 _atom_site_label
 _atom_site_symmetry_multiplicity
 _atom_site_fract_x
 _atom_site_fract_y
 _atom_site_fract_z
 _atom_site_occupancy
  Na  Na0  1  0.855707  0.855707  0.855707  1
  Na  Na1  1  0.144293  0.144293  0.144293  1
  Pt  Pt2  1  0.000000  0.500000  0.500000  1
  Pt  Pt3  1  0.500000  0.000000  0.500000  1
  Pt  Pt4  1  0.500000  0.500000  0.000000  1
  O  O5  1  0.602987  0.602987  0.602987  1
  O  O6  1  0.397013  0.397013  0.397013  1
  O  O7  1  0.118825  0.118825  0.568821  1
  O  O8  1  0.568821  0.118825  0.118825  1
  O  O9  1  0.118825  0.568821  0.118825  1
  O  O10  1  0.431179  0.881175  0.881175  1
  O  O11  1  0.881175  0.881175  0.431179  1
  O  O12  1  0.881175  0.431179  0.881175  1
