# generated using pymatgen
data_LiY2Co8TcP6
_symmetry_space_group_name_H-M   'P 1'
_cell_length_a   3.70321300
_cell_length_b   10.32652010
_cell_length_c   11.86929939
_cell_angle_alpha   89.78133260
_cell_angle_beta   90.00000000
_cell_angle_gamma   90.00000000
_symmetry_Int_Tables_number   1
_chemical_formula_structural   LiY2Co8TcP6
_chemical_formula_sum   'Li2 Y4 Co16 Tc2 P12'
_cell_volume   453.89417441
_cell_formula_units_Z   2
loop_
 _symmetry_equiv_pos_site_id
 _symmetry_equiv_pos_as_xyz
  1  'x, y, z'
loop_
 _atom_site_type_symbol
 _atom_site_label
 _atom_site_symmetry_multiplicity
 _atom_site_fract_x
 _atom_site_fract_y
 _atom_site_fract_z
 _atom_site_occupancy
  Li  Li0  1  0.750000  0.296980  0.008962  1
  Li  Li1  1  0.250000  0.703020  0.991038  1
  Y  Y2  1  0.250000  0.918199  0.202828  1
  Y  Y3  1  0.750000  0.081801  0.797172  1
  Y  Y4  1  0.750000  0.416999  0.296581  1
  Y  Y5  1  0.250000  0.583001  0.703419  1
  Co  Co6  1  0.250000  0.093986  0.988036  1
  Co  Co7  1  0.750000  0.906014  0.011964  1
  Co  Co8  1  0.750000  0.592905  0.512027  1
  Co  Co9  1  0.250000  0.407095  0.487973  1
  Co  Co10  1  0.250000  0.280494  0.673290  1
  Co  Co11  1  0.750000  0.719506  0.326710  1
  Co  Co12  1  0.750000  0.778344  0.822158  1
  Co  Co13  1  0.250000  0.221656  0.177842  1
  Co  Co14  1  0.250000  0.619664  0.199434  1
  Co  Co15  1  0.750000  0.380336  0.800566  1
  Co  Co16  1  0.750000  0.112386  0.299274  1
  Co  Co17  1  0.250000  0.887614  0.700726  1
  Co  Co18  1  0.250000  0.034673  0.433681  1
  Co  Co19  1  0.750000  0.965327  0.566319  1
  Co  Co20  1  0.750000  0.532722  0.067979  1
  Co  Co21  1  0.250000  0.467278  0.932021  1
  Tc  Tc22  1  0.250000  0.789053  0.489715  1
  Tc  Tc23  1  0.750000  0.210947  0.510285  1
  P  P24  1  0.250000  0.080371  0.613909  1
  P  P25  1  0.750000  0.919629  0.386091  1
  P  P26  1  0.750000  0.577244  0.885807  1
  P  P27  1  0.250000  0.422756  0.114193  1
  P  P28  1  0.250000  0.229337  0.364385  1
  P  P29  1  0.750000  0.770663  0.635615  1
  P  P30  1  0.750000  0.728786  0.137474  1
  P  P31  1  0.250000  0.271214  0.862526  1
  P  P32  1  0.250000  0.899449  0.892958  1
  P  P33  1  0.750000  0.100551  0.107042  1
  P  P34  1  0.750000  0.402701  0.609524  1
  P  P35  1  0.250000  0.597299  0.390476  1
