# generated using pymatgen
data_Nd8Nb9Si16Mo3
_symmetry_space_group_name_H-M   'P 1'
_cell_length_a   6.92856204
_cell_length_b   7.21867783
_cell_length_c   13.51969400
_cell_angle_alpha   90.00000000
_cell_angle_beta   90.00000000
_cell_angle_gamma   89.96536313
_symmetry_Int_Tables_number   1
_chemical_formula_structural   Nd8Nb9Si16Mo3
_chemical_formula_sum   'Nd8 Nb9 Si16 Mo3'
_cell_volume   676.18814492
_cell_formula_units_Z   1
loop_
 _symmetry_equiv_pos_site_id
 _symmetry_equiv_pos_as_xyz
  1  'x, y, z'
loop_
 _atom_site_type_symbol
 _atom_site_label
 _atom_site_symmetry_multiplicity
 _atom_site_fract_x
 _atom_site_fract_y
 _atom_site_fract_z
 _atom_site_occupancy
  Nd  Nd0  1  0.504228  0.330955  0.096346  1
  Nd  Nd1  1  0.004179  0.169530  0.403680  1
  Nd  Nd2  1  0.495057  0.669378  0.595953  1
  Nd  Nd3  1  0.995674  0.830325  0.904548  1
  Nd  Nd4  1  0.495057  0.669378  0.904047  1
  Nd  Nd5  1  0.995674  0.830325  0.595452  1
  Nd  Nd6  1  0.504228  0.330955  0.403654  1
  Nd  Nd7  1  0.004179  0.169530  0.096320  1
  Nb  Nb8  1  0.835231  0.327592  0.626491  1
  Nb  Nb9  1  0.334975  0.173342  0.873707  1
  Nb  Nb10  1  0.165243  0.672502  0.127057  1
  Nb  Nb11  1  0.665697  0.827519  0.372420  1
  Nb  Nb12  1  0.165243  0.672502  0.372943  1
  Nb  Nb13  1  0.665697  0.827519  0.127580  1
  Nb  Nb14  1  0.835231  0.327592  0.873509  1
  Nb  Nb15  1  0.334975  0.173342  0.626293  1
  Nb  Nb16  1  0.661433  0.012663  0.750000  1
  Si  Si17  1  0.658449  0.040973  0.542702  1
  Si  Si18  1  0.158043  0.457747  0.955806  1
  Si  Si19  1  0.342568  0.958598  0.044767  1
  Si  Si20  1  0.842130  0.541739  0.455438  1
  Si  Si21  1  0.342568  0.958598  0.455233  1
  Si  Si22  1  0.842130  0.541739  0.044562  1
  Si  Si23  1  0.658449  0.040973  0.957298  1
  Si  Si24  1  0.158043  0.457747  0.544194  1
  Si  Si25  1  0.535541  0.372734  0.750000  1
  Si  Si26  1  0.039875  0.129727  0.750000  1
  Si  Si27  1  0.463075  0.629544  0.250000  1
  Si  Si28  1  0.963921  0.871114  0.250000  1
  Si  Si29  1  0.801740  0.615903  0.750000  1
  Si  Si30  1  0.297314  0.881886  0.750000  1
  Si  Si31  1  0.197076  0.384076  0.250000  1
  Si  Si32  1  0.697265  0.116427  0.250000  1
  Mo  Mo33  1  0.160306  0.484914  0.750000  1
  Mo  Mo34  1  0.339828  0.984648  0.250000  1
  Mo  Mo35  1  0.839682  0.515964  0.250000  1
