# generated using pymatgen
data_Tb12Sm7HoPb16
_symmetry_space_group_name_H-M   'P 1'
_cell_length_a   8.26621929
_cell_length_b   8.36630030
_cell_length_c   15.78227606
_cell_angle_alpha   90.01973639
_cell_angle_beta   90.10196544
_cell_angle_gamma   89.94835725
_symmetry_Int_Tables_number   1
_chemical_formula_structural   Tb12Sm7HoPb16
_chemical_formula_sum   'Tb12 Sm7 Ho1 Pb16'
_cell_volume   1091.46325118
_cell_formula_units_Z   1
loop_
 _symmetry_equiv_pos_site_id
 _symmetry_equiv_pos_as_xyz
  1  'x, y, z'
loop_
 _atom_site_type_symbol
 _atom_site_label
 _atom_site_symmetry_multiplicity
 _atom_site_fract_x
 _atom_site_fract_y
 _atom_site_fract_z
 _atom_site_occupancy
  Tb  Tb0  1  0.624698  0.159081  0.620563  1
  Tb  Tb1  1  0.125225  0.341051  0.879148  1
  Tb  Tb2  1  0.375305  0.841125  0.120789  1
  Tb  Tb3  1  0.875610  0.659252  0.379584  1
  Tb  Tb4  1  0.376191  0.840974  0.379549  1
  Tb  Tb5  1  0.874662  0.659205  0.120662  1
  Tb  Tb6  1  0.624971  0.158660  0.878945  1
  Tb  Tb7  1  0.124587  0.340952  0.620520  1
  Tb  Tb8  1  0.466233  0.676306  0.600545  1
  Tb  Tb9  1  0.791585  0.496126  0.749643  1
  Tb  Tb10  1  0.291757  0.003944  0.749711  1
  Tb  Tb11  1  0.208297  0.503976  0.250302  1
  Sm  Sm12  1  0.968364  0.822475  0.899820  1
  Sm  Sm13  1  0.531717  0.322498  0.099706  1
  Sm  Sm14  1  0.032115  0.176966  0.400244  1
  Sm  Sm15  1  0.532190  0.323082  0.400394  1
  Sm  Sm16  1  0.031323  0.177135  0.099699  1
  Sm  Sm17  1  0.468716  0.677222  0.900397  1
  Sm  Sm18  1  0.968087  0.822427  0.599723  1
  Ho  Ho19  1  0.708678  0.995662  0.250055  1
  Pb  Pb20  1  0.716125  0.965155  0.456522  1
  Pb  Pb21  1  0.215551  0.535837  0.042975  1
  Pb  Pb22  1  0.284444  0.035749  0.956988  1
  Pb  Pb23  1  0.781982  0.466429  0.543343  1
  Pb  Pb24  1  0.284923  0.034298  0.543211  1
  Pb  Pb25  1  0.784622  0.463779  0.957044  1
  Pb  Pb26  1  0.715573  0.964451  0.043130  1
  Pb  Pb27  1  0.216991  0.536751  0.458012  1
  Pb  Pb28  1  0.428057  0.373323  0.749931  1
  Pb  Pb29  1  0.928058  0.127209  0.749881  1
  Pb  Pb30  1  0.572216  0.627672  0.250115  1
  Pb  Pb31  1  0.071271  0.872995  0.250061  1
  Pb  Pb32  1  0.655843  0.848707  0.748979  1
  Pb  Pb33  1  0.157902  0.650311  0.749699  1
  Pb  Pb34  1  0.343280  0.150138  0.250074  1
  Pb  Pb35  1  0.842849  0.349075  0.250037  1
