# generated using pymatgen
data_Dy5V3Co16(Si3P)3
_symmetry_space_group_name_H-M   'P 1'
_cell_length_a   12.24492300
_cell_length_b   12.24492415
_cell_length_c   3.73828300
_cell_angle_alpha   90.00000000
_cell_angle_beta   90.00000000
_cell_angle_gamma   119.99999420
_symmetry_Int_Tables_number   1
_chemical_formula_structural   Dy5V3Co16(Si3P)3
_chemical_formula_sum   'Dy5 V3 Co16 Si9 P3'
_cell_volume   485.41700971
_cell_formula_units_Z   1
loop_
 _symmetry_equiv_pos_site_id
 _symmetry_equiv_pos_as_xyz
  1  'x, y, z'
loop_
 _atom_site_type_symbol
 _atom_site_label
 _atom_site_symmetry_multiplicity
 _atom_site_fract_x
 _atom_site_fract_y
 _atom_site_fract_z
 _atom_site_occupancy
  Dy  Dy0  1  0.666667  0.333333  0.000000  1
  Dy  Dy1  1  0.333333  0.666667  0.000000  1
  Dy  Dy2  1  0.183638  0.183638  0.500000  1
  Dy  Dy3  1  0.816362  0.000000  0.500000  1
  Dy  Dy4  1  0.000000  0.816362  0.500000  1
  V  V5  1  0.567130  0.567130  0.000000  1
  V  V6  1  0.432870  0.000000  0.000000  1
  V  V7  1  0.000000  0.432870  0.000000  1
  Co  Co8  1  0.824201  0.197080  0.000000  1
  Co  Co9  1  0.802920  0.627121  0.000000  1
  Co  Co10  1  0.372879  0.175799  0.000000  1
  Co  Co11  1  0.197080  0.824201  0.000000  1
  Co  Co12  1  0.627121  0.802920  0.000000  1
  Co  Co13  1  0.175799  0.372879  0.000000  1
  Co  Co14  1  0.643896  0.122654  0.500000  1
  Co  Co15  1  0.877346  0.521241  0.500000  1
  Co  Co16  1  0.478759  0.356104  0.500000  1
  Co  Co17  1  0.122654  0.643896  0.500000  1
  Co  Co18  1  0.521241  0.877346  0.500000  1
  Co  Co19  1  0.356104  0.478759  0.500000  1
  Co  Co20  1  0.721928  0.721928  0.500000  1
  Co  Co21  1  0.278072  0.000000  0.500000  1
  Co  Co22  1  0.000000  0.278072  0.500000  1
  Co  Co23  1  0.000000  0.000000  0.000000  1
  Si  Si24  1  0.366146  0.366146  0.000000  1
  Si  Si25  1  0.633854  0.000000  0.000000  1
  Si  Si26  1  0.000000  0.633854  0.000000  1
  Si  Si27  1  0.835039  0.313256  0.500000  1
  Si  Si28  1  0.686744  0.521783  0.500000  1
  Si  Si29  1  0.478217  0.164961  0.500000  1
  Si  Si30  1  0.313256  0.835039  0.500000  1
  Si  Si31  1  0.521783  0.686744  0.500000  1
  Si  Si32  1  0.164961  0.478217  0.500000  1
  P  P33  1  0.818377  0.818377  0.000000  1
  P  P34  1  0.181623  0.000000  0.000000  1
  P  P35  1  0.000000  0.181623  0.000000  1
