# generated using pymatgen
data_Ho2Er2Ga12Tc
_symmetry_space_group_name_H-M   'P 1'
_cell_length_a   7.47084886
_cell_length_b   7.46357549
_cell_length_c   7.46357550
_cell_angle_alpha   109.42917812
_cell_angle_beta   109.47250796
_cell_angle_gamma   109.47249284
_symmetry_Int_Tables_number   1
_chemical_formula_structural   Ho2Er2Ga12Tc
_chemical_formula_sum   'Ho2 Er2 Ga12 Tc1'
_cell_volume   320.51864439
_cell_formula_units_Z   1
loop_
 _symmetry_equiv_pos_site_id
 _symmetry_equiv_pos_as_xyz
  1  'x, y, z'
loop_
 _atom_site_type_symbol
 _atom_site_label
 _atom_site_symmetry_multiplicity
 _atom_site_fract_x
 _atom_site_fract_y
 _atom_site_fract_z
 _atom_site_occupancy
  Ho  Ho0  1  0.000000  0.000000  0.500000  1
  Ho  Ho1  1  0.000000  0.500000  0.000000  1
  Er  Er2  1  0.500000  0.000000  0.000000  1
  Er  Er3  1  0.500000  0.500000  0.500000  1
  Ga  Ga4  1  0.749793  0.249996  0.499798  1
  Ga  Ga5  1  0.749793  0.499798  0.249996  1
  Ga  Ga6  1  0.500000  0.250000  0.750000  1
  Ga  Ga7  1  0.250207  0.500202  0.750004  1
  Ga  Ga8  1  0.250207  0.750004  0.500202  1
  Ga  Ga9  1  0.500000  0.750000  0.250000  1
  Ga  Ga10  1  0.708577  0.708739  0.999837  1
  Ga  Ga11  1  0.291423  0.000163  0.291261  1
  Ga  Ga12  1  0.000000  0.291250  0.291250  1
  Ga  Ga13  1  0.291423  0.291261  0.000163  1
  Ga  Ga14  1  0.708577  0.999837  0.708739  1
  Ga  Ga15  1  0.000000  0.708750  0.708750  1
  Tc  Tc16  1  0.000000  0.000000  0.000000  1
