# generated using pymatgen
data_Tb16Al4Ni3Ir
_symmetry_space_group_name_H-M   'P 1'
_cell_length_a   9.50655010
_cell_length_b   9.50679447
_cell_length_c   9.50689103
_cell_angle_alpha   60.09869198
_cell_angle_beta   60.09670740
_cell_angle_gamma   60.09697477
_symmetry_Int_Tables_number   1
_chemical_formula_structural   Tb16Al4Ni3Ir
_chemical_formula_sum   'Tb16 Al4 Ni3 Ir1'
_cell_volume   608.88957757
_cell_formula_units_Z   1
loop_
 _symmetry_equiv_pos_site_id
 _symmetry_equiv_pos_as_xyz
  1  'x, y, z'
loop_
 _atom_site_type_symbol
 _atom_site_label
 _atom_site_symmetry_multiplicity
 _atom_site_fract_x
 _atom_site_fract_y
 _atom_site_fract_z
 _atom_site_occupancy
  Tb  Tb0  1  0.185845  0.814447  0.814448  1
  Tb  Tb1  1  0.809554  0.187669  0.187667  1
  Tb  Tb2  1  0.814444  0.185841  0.814452  1
  Tb  Tb3  1  0.187665  0.809552  0.187658  1
  Tb  Tb4  1  0.814450  0.814457  0.185839  1
  Tb  Tb5  1  0.187665  0.187659  0.809553  1
  Tb  Tb6  1  0.055472  0.442764  0.442765  1
  Tb  Tb7  1  0.442321  0.057327  0.057404  1
  Tb  Tb8  1  0.442763  0.055461  0.442751  1
  Tb  Tb9  1  0.057349  0.442328  0.057385  1
  Tb  Tb10  1  0.442771  0.442756  0.055485  1
  Tb  Tb11  1  0.057389  0.057351  0.442328  1
  Tb  Tb12  1  0.598977  0.599017  0.598952  1
  Tb  Tb13  1  0.602758  0.602806  0.196071  1
  Tb  Tb14  1  0.602803  0.196031  0.602771  1
  Tb  Tb15  1  0.196048  0.602829  0.602749  1
  Al  Al16  1  0.827592  0.827589  0.827584  1
  Al  Al17  1  0.826522  0.826514  0.521229  1
  Al  Al18  1  0.826522  0.521229  0.826516  1
  Al  Al19  1  0.521216  0.826525  0.826524  1
  Ni  Ni20  1  0.391817  0.391807  0.823609  1
  Ni  Ni21  1  0.391802  0.823596  0.391804  1
  Ni  Ni22  1  0.823634  0.391810  0.391818  1
  Ir  Ir23  1  0.392621  0.392636  0.392637  1
