# generated using pymatgen
data_Ho16In4FePd3
_symmetry_space_group_name_H-M   'P 1'
_cell_length_a   9.65065259
_cell_length_b   9.65065176
_cell_length_c   9.65065351
_cell_angle_alpha   59.88932611
_cell_angle_beta   59.88933442
_cell_angle_gamma   59.88932514
_symmetry_Int_Tables_number   1
_chemical_formula_structural   Ho16In4FePd3
_chemical_formula_sum   'Ho16 In4 Fe1 Pd3'
_cell_volume   633.96195069
_cell_formula_units_Z   1
loop_
 _symmetry_equiv_pos_site_id
 _symmetry_equiv_pos_as_xyz
  1  'x, y, z'
loop_
 _atom_site_type_symbol
 _atom_site_label
 _atom_site_symmetry_multiplicity
 _atom_site_fract_x
 _atom_site_fract_y
 _atom_site_fract_z
 _atom_site_occupancy
  Ho  Ho0  1  0.353385  0.353385  0.353385  1
  Ho  Ho1  1  0.345342  0.345342  0.950370  1
  Ho  Ho2  1  0.345342  0.950370  0.345342  1
  Ho  Ho3  1  0.950370  0.345342  0.345342  1
  Ho  Ho4  1  0.822201  0.187927  0.187927  1
  Ho  Ho5  1  0.189616  0.810274  0.810274  1
  Ho  Ho6  1  0.187927  0.822201  0.187927  1
  Ho  Ho7  1  0.810274  0.189616  0.810274  1
  Ho  Ho8  1  0.187927  0.187927  0.822201  1
  Ho  Ho9  1  0.810274  0.810274  0.189616  1
  Ho  Ho10  1  0.934692  0.563561  0.563561  1
  Ho  Ho11  1  0.558964  0.937429  0.937429  1
  Ho  Ho12  1  0.563561  0.934692  0.563561  1
  Ho  Ho13  1  0.937429  0.558964  0.937429  1
  Ho  Ho14  1  0.563561  0.563561  0.934692  1
  Ho  Ho15  1  0.937429  0.937429  0.558964  1
  In  In16  1  0.582105  0.582105  0.582105  1
  In  In17  1  0.583174  0.583174  0.251442  1
  In  In18  1  0.583174  0.251442  0.583174  1
  In  In19  1  0.251442  0.583174  0.583174  1
  Fe  Fe20  1  0.142701  0.142701  0.142701  1
  Pd  Pd21  1  0.144651  0.144651  0.569811  1
  Pd  Pd22  1  0.144651  0.569811  0.144651  1
  Pd  Pd23  1  0.569811  0.144651  0.144651  1
