# generated using pymatgen
data_TiMn8Nb6Si14W
_symmetry_space_group_name_H-M   'P 1'
_cell_length_a   9.35955291
_cell_length_b   9.35954811
_cell_length_c   9.37339259
_cell_angle_alpha   94.05317995
_cell_angle_beta   94.08870151
_cell_angle_gamma   149.07399200
_symmetry_Int_Tables_number   1
_chemical_formula_structural   TiMn8Nb6Si14W
_chemical_formula_sum   'Ti1 Mn8 Nb6 Si14 W1'
_cell_volume   406.76424645
_cell_formula_units_Z   1
loop_
 _symmetry_equiv_pos_site_id
 _symmetry_equiv_pos_as_xyz
  1  'x, y, z'
loop_
 _atom_site_type_symbol
 _atom_site_label
 _atom_site_symmetry_multiplicity
 _atom_site_fract_x
 _atom_site_fract_y
 _atom_site_fract_z
 _atom_site_occupancy
  Ti  Ti0  1  0.693262  0.500989  0.194192  1
  Mn  Mn1  1  0.399618  0.899647  0.799444  1
  Mn  Mn2  1  0.100081  0.600623  0.201749  1
  Mn  Mn3  1  0.099381  0.899455  0.498269  1
  Mn  Mn4  1  0.398285  0.598292  0.498559  1
  Mn  Mn5  1  0.598787  0.398812  0.498282  1
  Mn  Mn6  1  0.900257  0.100097  0.498602  1
  Mn  Mn7  1  0.899989  0.399925  0.799505  1
  Mn  Mn8  1  0.601242  0.101878  0.201718  1
  Nb  Nb9  1  0.865193  0.865251  0.730354  1
  Nb  Nb10  1  0.864273  0.134841  0.999091  1
  Nb  Nb11  1  0.134783  0.864582  0.999367  1
  Nb  Nb12  1  0.500937  0.691066  0.192014  1
  Nb  Nb13  1  0.500311  0.309665  0.810033  1
  Nb  Nb14  1  0.309011  0.500103  0.809247  1
  Si  Si15  1  0.293908  0.293653  0.586736  1
  Si  Si16  1  0.704876  0.704501  0.410384  1
  Si  Si17  1  0.706456  0.294676  0.001086  1
  Si  Si18  1  0.294226  0.707130  0.001084  1
  Si  Si19  1  0.001093  0.291049  0.292101  1
  Si  Si20  1  0.999327  0.705827  0.705534  1
  Si  Si21  1  0.706124  0.999205  0.705915  1
  Si  Si22  1  0.290257  0.001396  0.291141  1
  Si  Si23  1  0.500291  0.906798  0.407128  1
  Si  Si24  1  0.499830  0.094449  0.593804  1
  Si  Si25  1  0.093758  0.499847  0.592873  1
  Si  Si26  1  0.905689  0.499794  0.406469  1
  Si  Si27  1  0.754368  0.753593  0.003475  1
  Si  Si28  1  0.249824  0.249074  0.003439  1
  W  W29  1  0.134561  0.133786  0.268403  1
