# generated using pymatgen
data_Tb3Zr2Pt3O
_symmetry_space_group_name_H-M   'P 1'
_cell_length_a   8.45096300
_cell_length_b   8.45096356
_cell_length_c   5.70055500
_cell_angle_alpha   90.00000000
_cell_angle_beta   90.00000000
_cell_angle_gamma   120.00000173
_symmetry_Int_Tables_number   1
_chemical_formula_structural   Tb3Zr2Pt3O
_chemical_formula_sum   'Tb6 Zr4 Pt6 O2'
_cell_volume   352.58204594
_cell_formula_units_Z   2
loop_
 _symmetry_equiv_pos_site_id
 _symmetry_equiv_pos_as_xyz
  1  'x, y, z'
loop_
 _atom_site_type_symbol
 _atom_site_label
 _atom_site_symmetry_multiplicity
 _atom_site_fract_x
 _atom_site_fract_y
 _atom_site_fract_z
 _atom_site_occupancy
  Tb  Tb0  1  0.000000  0.760782  0.750000  1
  Tb  Tb1  1  0.000000  0.239218  0.250000  1
  Tb  Tb2  1  0.239218  0.239218  0.750000  1
  Tb  Tb3  1  0.239218  0.000000  0.250000  1
  Tb  Tb4  1  0.760782  0.760782  0.250000  1
  Tb  Tb5  1  0.760782  0.000000  0.750000  1
  Zr  Zr6  1  0.333333  0.666667  0.000000  1
  Zr  Zr7  1  0.333333  0.666667  0.500000  1
  Zr  Zr8  1  0.666667  0.333333  0.000000  1
  Zr  Zr9  1  0.666667  0.333333  0.500000  1
  Pt  Pt10  1  0.000000  0.591636  0.250000  1
  Pt  Pt11  1  0.000000  0.408364  0.750000  1
  Pt  Pt12  1  0.408364  0.408364  0.250000  1
  Pt  Pt13  1  0.591636  0.591636  0.750000  1
  Pt  Pt14  1  0.408364  0.000000  0.750000  1
  Pt  Pt15  1  0.591636  0.000000  0.250000  1
  O  O16  1  0.000000  0.000000  0.000000  1
  O  O17  1  0.000000  0.000000  0.500000  1
