# generated using pymatgen
data_Er3Sc(Co4P3)2
_symmetry_space_group_name_H-M   'P 1'
_cell_length_a   3.71872900
_cell_length_b   10.65067900
_cell_length_c   12.33576400
_cell_angle_alpha   90.00000000
_cell_angle_beta   90.00000000
_cell_angle_gamma   90.00000000
_symmetry_Int_Tables_number   1
_chemical_formula_structural   Er3Sc(Co4P3)2
_chemical_formula_sum   'Er6 Sc2 Co16 P12'
_cell_volume   488.58246741
_cell_formula_units_Z   2
loop_
 _symmetry_equiv_pos_site_id
 _symmetry_equiv_pos_as_xyz
  1  'x, y, z'
loop_
 _atom_site_type_symbol
 _atom_site_label
 _atom_site_symmetry_multiplicity
 _atom_site_fract_x
 _atom_site_fract_y
 _atom_site_fract_z
 _atom_site_occupancy
  Er  Er0  1  0.750000  0.250000  0.472231  1
  Er  Er1  1  0.250000  0.750000  0.527769  1
  Er  Er2  1  0.250000  0.927296  0.794390  1
  Er  Er3  1  0.250000  0.572704  0.794390  1
  Er  Er4  1  0.750000  0.072704  0.205610  1
  Er  Er5  1  0.750000  0.427296  0.205610  1
  Sc  Sc6  1  0.250000  0.250000  0.842442  1
  Sc  Sc7  1  0.750000  0.750000  0.157558  1
  Co  Co8  1  0.250000  0.250000  0.295252  1
  Co  Co9  1  0.750000  0.750000  0.704748  1
  Co  Co10  1  0.750000  0.250000  0.012716  1
  Co  Co11  1  0.250000  0.750000  0.987284  1
  Co  Co12  1  0.250000  0.418865  0.005647  1
  Co  Co13  1  0.250000  0.081135  0.005647  1
  Co  Co14  1  0.750000  0.581135  0.994353  1
  Co  Co15  1  0.750000  0.918865  0.994353  1
  Co  Co16  1  0.250000  0.454498  0.566971  1
  Co  Co17  1  0.250000  0.045502  0.566971  1
  Co  Co18  1  0.750000  0.545502  0.433029  1
  Co  Co19  1  0.750000  0.954498  0.433029  1
  Co  Co20  1  0.250000  0.872597  0.297276  1
  Co  Co21  1  0.250000  0.627403  0.297276  1
  Co  Co22  1  0.750000  0.127403  0.702724  1
  Co  Co23  1  0.750000  0.372597  0.702724  1
  P  P24  1  0.250000  0.250000  0.115168  1
  P  P25  1  0.750000  0.750000  0.884832  1
  P  P26  1  0.250000  0.250000  0.639249  1
  P  P27  1  0.750000  0.750000  0.360751  1
  P  P28  1  0.250000  0.439582  0.384120  1
  P  P29  1  0.250000  0.060418  0.384120  1
  P  P30  1  0.750000  0.560418  0.615880  1
  P  P31  1  0.750000  0.939582  0.615880  1
  P  P32  1  0.250000  0.911047  0.107715  1
  P  P33  1  0.250000  0.588953  0.107715  1
  P  P34  1  0.750000  0.088953  0.892285  1
  P  P35  1  0.750000  0.411047  0.892285  1
