# generated using pymatgen
data_KRb5Lu2F12
_symmetry_space_group_name_H-M   'P 1'
_cell_length_a   6.77411581
_cell_length_b   6.54079899
_cell_length_c   11.37265428
_cell_angle_alpha   55.19139388
_cell_angle_beta   90.09176270
_cell_angle_gamma   90.18427661
_symmetry_Int_Tables_number   1
_chemical_formula_structural   KRb5Lu2F12
_chemical_formula_sum   'K1 Rb5 Lu2 F12'
_cell_volume   413.73258469
_cell_formula_units_Z   1
loop_
 _symmetry_equiv_pos_site_id
 _symmetry_equiv_pos_as_xyz
  1  'x, y, z'
loop_
 _atom_site_type_symbol
 _atom_site_label
 _atom_site_symmetry_multiplicity
 _atom_site_fract_x
 _atom_site_fract_y
 _atom_site_fract_z
 _atom_site_occupancy
  K  K0  1  0.000000  0.500000  0.500000  1
  Rb  Rb1  1  0.500000  0.500000  0.000000  1
  Rb  Rb2  1  0.049572  0.735415  0.751303  1
  Rb  Rb3  1  0.950428  0.264585  0.248697  1
  Rb  Rb4  1  0.550397  0.266831  0.746570  1
  Rb  Rb5  1  0.449603  0.733169  0.253430  1
  Lu  Lu6  1  0.500000  0.000000  0.500000  1
  Lu  Lu7  1  0.000000  0.000000  0.000000  1
  F  F8  1  0.759668  0.774939  0.559078  1
  F  F9  1  0.240332  0.225061  0.440922  1
  F  F10  1  0.260651  0.222647  0.939054  1
  F  F11  1  0.739349  0.777353  0.060946  1
  F  F12  1  0.454422  0.884373  0.714799  1
  F  F13  1  0.545578  0.115627  0.285201  1
  F  F14  1  0.955873  0.121204  0.782594  1
  F  F15  1  0.044127  0.878796  0.217406  1
  F  F16  1  0.325656  0.691579  0.542509  1
  F  F17  1  0.674344  0.308421  0.457491  1
  F  F18  1  0.830852  0.309990  0.955976  1
  F  F19  1  0.169148  0.690010  0.044024  1
