# generated using pymatgen
data_NdSm4U5O19
_symmetry_space_group_name_H-M   'P 1'
_cell_length_a   6.77426136
_cell_length_b   7.59122325
_cell_length_c   8.54904900
_cell_angle_alpha   100.38013240
_cell_angle_beta   97.62133809
_cell_angle_gamma   107.27848716
_symmetry_Int_Tables_number   1
_chemical_formula_structural   NdSm4U5O19
_chemical_formula_sum   'Nd1 Sm4 U5 O19'
_cell_volume   404.73400259
_cell_formula_units_Z   1
loop_
 _symmetry_equiv_pos_site_id
 _symmetry_equiv_pos_as_xyz
  1  'x, y, z'
loop_
 _atom_site_type_symbol
 _atom_site_label
 _atom_site_symmetry_multiplicity
 _atom_site_fract_x
 _atom_site_fract_y
 _atom_site_fract_z
 _atom_site_occupancy
  Nd  Nd0  1  0.207662  0.909649  0.389412  1
  Sm  Sm1  1  0.801679  0.102995  0.602925  1
  Sm  Sm2  1  0.387758  0.299151  0.800650  1
  Sm  Sm3  1  0.606629  0.701666  0.202235  1
  Sm  Sm4  1  0.998574  0.499565  0.996168  1
  U  U5  1  0.775130  0.597019  0.601373  1
  U  U6  1  0.608384  0.206253  0.198101  1
  U  U7  1  0.999407  0.001851  0.995227  1
  U  U8  1  0.410053  0.809852  0.816253  1
  U  U9  1  0.198988  0.387260  0.389682  1
  O  O10  1  0.344874  0.063191  0.953118  1
  O  O11  1  0.431818  0.992279  0.651979  1
  O  O12  1  0.041730  0.218855  0.854457  1
  O  O13  1  0.726033  0.381629  0.737452  1
  O  O14  1  0.148800  0.181597  0.537977  1
  O  O15  1  0.357268  0.591396  0.954482  1
  O  O16  1  0.952518  0.269159  0.157117  1
  O  O17  1  0.895529  0.386076  0.462567  1
  O  O18  1  0.748415  0.865442  0.759804  1
  O  O19  1  0.546907  0.459651  0.360089  1
  O  O20  1  0.411593  0.551324  0.635532  1
  O  O21  1  0.256102  0.133050  0.236319  1
  O  O22  1  0.060006  0.716831  0.801264  1
  O  O23  1  0.647020  0.414407  0.057162  1
  O  O24  1  0.863139  0.803348  0.462514  1
  O  O25  1  0.249211  0.617678  0.270845  1
  O  O26  1  0.953874  0.782772  0.128077  1
  O  O27  1  0.575162  0.001792  0.347914  1
  O  O28  1  0.659652  0.941901  0.047543  1
