# generated using pymatgen
data_LaPa3(GePt)4
_symmetry_space_group_name_H-M   'P 1'
_cell_length_a   4.44783600
_cell_length_b   7.24720011
_cell_length_c   7.63069750
_cell_angle_alpha   89.95407026
_cell_angle_beta   90.00000000
_cell_angle_gamma   90.00000000
_symmetry_Int_Tables_number   1
_chemical_formula_structural   LaPa3(GePt)4
_chemical_formula_sum   'La1 Pa3 Ge4 Pt4'
_cell_volume   245.97055242
_cell_formula_units_Z   1
loop_
 _symmetry_equiv_pos_site_id
 _symmetry_equiv_pos_as_xyz
  1  'x, y, z'
loop_
 _atom_site_type_symbol
 _atom_site_label
 _atom_site_symmetry_multiplicity
 _atom_site_fract_x
 _atom_site_fract_y
 _atom_site_fract_z
 _atom_site_occupancy
  La  La0  1  0.250000  0.506893  0.206610  1
  Pa  Pa1  1  0.750000  0.492317  0.786209  1
  Pa  Pa2  1  0.250000  0.006459  0.291674  1
  Pa  Pa3  1  0.750000  0.993235  0.711995  1
  Ge  Ge4  1  0.250000  0.687851  0.590651  1
  Ge  Ge5  1  0.250000  0.196081  0.911613  1
  Ge  Ge6  1  0.750000  0.282791  0.413131  1
  Ge  Ge7  1  0.750000  0.806909  0.087559  1
  Pt  Pt8  1  0.250000  0.804132  0.909462  1
  Pt  Pt9  1  0.250000  0.281723  0.585266  1
  Pt  Pt10  1  0.750000  0.736454  0.426303  1
  Pt  Pt11  1  0.750000  0.205155  0.079525  1
