# generated using pymatgen
data_Sr3CaMnO6
_symmetry_space_group_name_H-M   'P 1'
_cell_length_a   6.81266501
_cell_length_b   6.81266549
_cell_length_c   6.81266586
_cell_angle_alpha   91.39087136
_cell_angle_beta   91.39086619
_cell_angle_gamma   91.39086314
_symmetry_Int_Tables_number   1
_chemical_formula_structural   Sr3CaMnO6
_chemical_formula_sum   'Sr6 Ca2 Mn2 O12'
_cell_volume   315.90814031
_cell_formula_units_Z   2
loop_
 _symmetry_equiv_pos_site_id
 _symmetry_equiv_pos_as_xyz
  1  'x, y, z'
loop_
 _atom_site_type_symbol
 _atom_site_label
 _atom_site_symmetry_multiplicity
 _atom_site_fract_x
 _atom_site_fract_y
 _atom_site_fract_z
 _atom_site_occupancy
  Sr  Sr0  1  0.885488  0.250000  0.614512  1
  Sr  Sr1  1  0.385488  0.114512  0.750000  1
  Sr  Sr2  1  0.750000  0.385488  0.114512  1
  Sr  Sr3  1  0.250000  0.614512  0.885488  1
  Sr  Sr4  1  0.614512  0.885488  0.250000  1
  Sr  Sr5  1  0.114512  0.750000  0.385488  1
  Ca  Ca6  1  0.750000  0.750000  0.750000  1
  Ca  Ca7  1  0.250000  0.250000  0.250000  1
  Mn  Mn8  1  0.500000  0.500000  0.500000  1
  Mn  Mn9  1  0.000000  0.000000  0.000000  1
  O  O10  1  0.921300  0.723767  0.049279  1
  O  O11  1  0.450721  0.776233  0.578700  1
  O  O12  1  0.049279  0.921300  0.723767  1
  O  O13  1  0.276233  0.950721  0.078700  1
  O  O14  1  0.950721  0.078700  0.276233  1
  O  O15  1  0.723767  0.049279  0.921300  1
  O  O16  1  0.578700  0.450721  0.776233  1
  O  O17  1  0.776233  0.578700  0.450721  1
  O  O18  1  0.421300  0.549279  0.223767  1
  O  O19  1  0.223767  0.421300  0.549279  1
  O  O20  1  0.549279  0.223767  0.421300  1
  O  O21  1  0.078700  0.276233  0.950721  1
