# generated using pymatgen
data_Ce4CuPd(PtPb)2
_symmetry_space_group_name_H-M   'P 1'
_cell_length_a   7.92808996
_cell_length_b   7.92711298
_cell_length_c   3.76797000
_cell_angle_alpha   90.00000000
_cell_angle_beta   90.00000000
_cell_angle_gamma   89.68490756
_symmetry_Int_Tables_number   1
_chemical_formula_structural   Ce4CuPd(PtPb)2
_chemical_formula_sum   'Ce4 Cu1 Pd1 Pt2 Pb2'
_cell_volume   236.80152036
_cell_formula_units_Z   1
loop_
 _symmetry_equiv_pos_site_id
 _symmetry_equiv_pos_as_xyz
  1  'x, y, z'
loop_
 _atom_site_type_symbol
 _atom_site_label
 _atom_site_symmetry_multiplicity
 _atom_site_fract_x
 _atom_site_fract_y
 _atom_site_fract_z
 _atom_site_occupancy
  Ce  Ce0  1  0.667235  0.177328  0.500000  1
  Ce  Ce1  1  0.181967  0.325589  0.500000  1
  Ce  Ce2  1  0.833173  0.674779  0.500000  1
  Ce  Ce3  1  0.317727  0.827192  0.500000  1
  Cu  Cu4  1  0.623047  0.875093  0.000000  1
  Pd  Pd5  1  0.870733  0.369931  0.000000  1
  Pt  Pt6  1  0.384015  0.114330  0.000000  1
  Pt  Pt7  1  0.123494  0.622358  0.000000  1
  Pb  Pb8  1  0.992250  0.005374  0.000000  1
  Pb  Pb9  1  0.506359  0.508027  0.000000  1
