# generated using pymatgen
data_LaPr3(TcO5)2
_symmetry_space_group_name_H-M   'P 1'
_cell_length_a   7.01260815
_cell_length_b   7.01260737
_cell_length_c   6.99452960
_cell_angle_alpha   100.46840123
_cell_angle_beta   100.40172938
_cell_angle_gamma   129.69433695
_symmetry_Int_Tables_number   1
_chemical_formula_structural   LaPr3(TcO5)2
_chemical_formula_sum   'La1 Pr3 Tc2 O10'
_cell_volume   239.43672000
_cell_formula_units_Z   1
loop_
 _symmetry_equiv_pos_site_id
 _symmetry_equiv_pos_as_xyz
  1  'x, y, z'
loop_
 _atom_site_type_symbol
 _atom_site_label
 _atom_site_symmetry_multiplicity
 _atom_site_fract_x
 _atom_site_fract_y
 _atom_site_fract_z
 _atom_site_occupancy
  La  La0  1  0.183093  0.603094  0.786187  1
  Pr  Pr1  1  0.816387  0.397681  0.214069  1
  Pr  Pr2  1  0.397401  0.182599  0.580001  1
  Pr  Pr3  1  0.602532  0.817047  0.419579  1
  Tc  Tc4  1  0.186517  0.186692  0.000168  1
  Tc  Tc5  1  0.813476  0.813651  0.000168  1
  O  O6  1  0.352541  0.068747  0.907094  1
  O  O7  1  0.064578  0.156681  0.714998  1
  O  O8  1  0.443737  0.350450  0.284975  1
  O  O9  1  0.158572  0.442671  0.093881  1
  O  O10  1  0.651212  0.935309  0.093881  1
  O  O11  1  0.934524  0.841237  0.284975  1
  O  O12  1  0.249893  0.750095  0.498966  1
  O  O13  1  0.748872  0.249073  0.498966  1
  O  O14  1  0.838347  0.554551  0.907094  1
  O  O15  1  0.558318  0.650422  0.714998  1
