# generated using pymatgen
data_Tb2Dy10Co6Sn
_symmetry_space_group_name_H-M   'P 1'
_cell_length_a   8.36316288
_cell_length_b   8.36287407
_cell_length_c   8.36287401
_cell_angle_alpha   109.47527223
_cell_angle_beta   109.47087602
_cell_angle_gamma   109.46611430
_symmetry_Int_Tables_number   1
_chemical_formula_structural   Tb2Dy10Co6Sn
_chemical_formula_sum   'Tb2 Dy10 Co6 Sn1'
_cell_volume   450.26404983
_cell_formula_units_Z   1
loop_
 _symmetry_equiv_pos_site_id
 _symmetry_equiv_pos_as_xyz
  1  'x, y, z'
loop_
 _atom_site_type_symbol
 _atom_site_label
 _atom_site_symmetry_multiplicity
 _atom_site_fract_x
 _atom_site_fract_y
 _atom_site_fract_z
 _atom_site_occupancy
  Tb  Tb0  1  0.108887  0.805796  0.303092  1
  Tb  Tb1  1  0.891113  0.194204  0.696908  1
  Dy  Dy2  1  0.805776  0.696845  0.502674  1
  Dy  Dy3  1  0.194224  0.303155  0.497326  1
  Dy  Dy4  1  0.194224  0.696897  0.891070  1
  Dy  Dy5  1  0.805776  0.303103  0.108930  1
  Dy  Dy6  1  0.696845  0.502681  0.805793  1
  Dy  Dy7  1  0.303155  0.497319  0.194207  1
  Dy  Dy8  1  0.696845  0.891053  0.194165  1
  Dy  Dy9  1  0.303155  0.108947  0.805835  1
  Dy  Dy10  1  0.502675  0.805786  0.696888  1
  Dy  Dy11  1  0.497325  0.194214  0.303112  1
  Co  Co12  1  0.886845  0.386857  0.499988  1
  Co  Co13  1  0.113155  0.613143  0.500012  1
  Co  Co14  1  0.386852  0.500011  0.886841  1
  Co  Co15  1  0.613148  0.499989  0.113159  1
  Co  Co16  1  0.500000  0.886823  0.386823  1
  Co  Co17  1  0.500000  0.113177  0.613177  1
  Sn  Sn18  1  0.000000  0.000000  0.000000  1
