# generated using pymatgen
data_InPdBr18
_symmetry_space_group_name_H-M   'P 1'
_cell_length_a   9.13152884
_cell_length_b   9.15326050
_cell_length_c   9.50559150
_cell_angle_alpha   87.48122062
_cell_angle_beta   89.88810999
_cell_angle_gamma   89.54856096
_symmetry_Int_Tables_number   1
_chemical_formula_structural   InPdBr18
_chemical_formula_sum   'In1 Pd1 Br18'
_cell_volume   793.71508577
_cell_formula_units_Z   1
loop_
 _symmetry_equiv_pos_site_id
 _symmetry_equiv_pos_as_xyz
  1  'x, y, z'
loop_
 _atom_site_type_symbol
 _atom_site_label
 _atom_site_symmetry_multiplicity
 _atom_site_fract_x
 _atom_site_fract_y
 _atom_site_fract_z
 _atom_site_occupancy
  In  In0  1  0.000000  0.000000  0.000000  1
  Pd  Pd1  1  0.500000  0.500000  0.500000  1
  Br  Br2  1  0.773754  0.470096  0.516562  1
  Br  Br3  1  0.515672  0.774363  0.463778  1
  Br  Br4  1  0.464684  0.519886  0.785093  1
  Br  Br5  1  0.226246  0.529904  0.483438  1
  Br  Br6  1  0.484328  0.225637  0.536222  1
  Br  Br7  1  0.535316  0.480114  0.214907  1
  Br  Br8  1  0.885367  0.380975  0.752543  1
  Br  Br9  1  0.756129  0.886600  0.373512  1
  Br  Br10  1  0.376952  0.747794  0.890109  1
  Br  Br11  1  0.114633  0.619025  0.247457  1
  Br  Br12  1  0.243871  0.113400  0.626488  1
  Br  Br13  1  0.623048  0.252206  0.109891  1
  Br  Br14  1  0.018986  0.969220  0.711435  1
  Br  Br15  1  0.708177  0.021017  0.968052  1
  Br  Br16  1  0.966946  0.700943  0.028786  1
  Br  Br17  1  0.981014  0.030780  0.288565  1
  Br  Br18  1  0.291823  0.978983  0.031948  1
  Br  Br19  1  0.033054  0.299057  0.971214  1
