# generated using pymatgen
data_AcTh(Ni2B)12
_symmetry_space_group_name_H-M   'P 1'
_cell_length_a   6.06032155
_cell_length_b   6.06032048
_cell_length_c   11.07194694
_cell_angle_alpha   90.03847740
_cell_angle_beta   90.03848142
_cell_angle_gamma   104.74572532
_symmetry_Int_Tables_number   1
_chemical_formula_structural   AcTh(Ni2B)12
_chemical_formula_sum   'Ac1 Th1 Ni24 B12'
_cell_volume   393.25171568
_cell_formula_units_Z   1
loop_
 _symmetry_equiv_pos_site_id
 _symmetry_equiv_pos_as_xyz
  1  'x, y, z'
loop_
 _atom_site_type_symbol
 _atom_site_label
 _atom_site_symmetry_multiplicity
 _atom_site_fract_x
 _atom_site_fract_y
 _atom_site_fract_z
 _atom_site_occupancy
  Ac  Ac0  1  0.832875  0.832875  0.501191  1
  Th  Th1  1  0.166610  0.166610  0.997614  1
  Ni  Ni2  1  0.564867  0.564867  0.917813  1
  Ni  Ni3  1  0.427861  0.427861  0.414126  1
  Ni  Ni4  1  0.780473  0.780473  0.097805  1
  Ni  Ni5  1  0.226931  0.226931  0.600211  1
  Ni  Ni6  1  0.538921  0.805319  0.737048  1
  Ni  Ni7  1  0.805319  0.538921  0.737048  1
  Ni  Ni8  1  0.458745  0.195067  0.232833  1
  Ni  Ni9  1  0.195067  0.458745  0.232833  1
  Ni  Ni10  1  0.146978  0.880268  0.757687  1
  Ni  Ni11  1  0.880268  0.146978  0.757687  1
  Ni  Ni12  1  0.853764  0.122097  0.253673  1
  Ni  Ni13  1  0.122097  0.853764  0.253673  1
  Ni  Ni14  1  0.654995  0.276510  0.567520  1
  Ni  Ni15  1  0.276510  0.654995  0.567520  1
  Ni  Ni16  1  0.342074  0.727233  0.066590  1
  Ni  Ni17  1  0.727233  0.342074  0.066590  1
  Ni  Ni18  1  0.629848  0.993660  0.937738  1
  Ni  Ni19  1  0.993660  0.629848  0.937738  1
  Ni  Ni20  1  0.371564  0.007103  0.436616  1
  Ni  Ni21  1  0.007103  0.371564  0.436616  1
  Ni  Ni22  1  0.473491  0.209055  0.777423  1
  Ni  Ni23  1  0.209055  0.473491  0.777423  1
  Ni  Ni24  1  0.524477  0.788810  0.272097  1
  Ni  Ni25  1  0.788810  0.524477  0.272097  1
  B  B26  1  0.836420  0.836420  0.835080  1
  B  B27  1  0.164817  0.164817  0.330053  1
  B  B28  1  0.485361  0.485361  0.665645  1
  B  B29  1  0.512569  0.512569  0.156729  1
  B  B30  1  0.323778  0.753797  0.886766  1
  B  B31  1  0.753797  0.323778  0.886766  1
  B  B32  1  0.676724  0.252821  0.384950  1
  B  B33  1  0.252821  0.676724  0.384950  1
  B  B34  1  0.395451  0.985677  0.622556  1
  B  B35  1  0.985677  0.395451  0.622556  1
  B  B36  1  0.600377  0.012614  0.121367  1
  B  B37  1  0.012614  0.600377  0.121367  1
