# generated using pymatgen
data_Tb11NdInGaCo4
_symmetry_space_group_name_H-M   'P 1'
_cell_length_a   8.36178654
_cell_length_b   8.43913904
_cell_length_c   8.43913743
_cell_angle_alpha   112.70099583
_cell_angle_beta   109.22779037
_cell_angle_gamma   106.88396229
_symmetry_Int_Tables_number   1
_chemical_formula_structural   Tb11NdInGaCo4
_chemical_formula_sum   'Tb11 Nd1 In1 Ga1 Co4'
_cell_volume   455.26313426
_cell_formula_units_Z   1
loop_
 _symmetry_equiv_pos_site_id
 _symmetry_equiv_pos_as_xyz
  1  'x, y, z'
loop_
 _atom_site_type_symbol
 _atom_site_label
 _atom_site_symmetry_multiplicity
 _atom_site_fract_x
 _atom_site_fract_y
 _atom_site_fract_z
 _atom_site_occupancy
  Tb  Tb0  1  0.971052  0.268271  0.702782  1
  Tb  Tb1  1  0.567530  0.266550  0.300981  1
  Tb  Tb2  1  0.435809  0.734792  0.701016  1
  Tb  Tb3  1  0.673004  0.862277  0.184077  1
  Tb  Tb4  1  0.329019  0.511307  0.187809  1
  Tb  Tb5  1  0.329019  0.141209  0.817712  1
  Tb  Tb6  1  0.673004  0.488926  0.810727  1
  Tb  Tb7  1  0.179967  0.216782  0.397146  1
  Tb  Tb8  1  0.819890  0.216111  0.035669  1
  Tb  Tb9  1  0.179967  0.782820  0.963184  1
  Tb  Tb10  1  0.819890  0.784222  0.603780  1
  Nd  Nd11  1  0.029709  0.727859  0.301850  1
  In  In12  1  0.503035  0.001274  0.501761  1
  Ga  Ga13  1  0.002368  0.495444  0.506924  1
  Co  Co14  1  0.654296  0.498553  0.155744  1
  Co  Co15  1  0.336309  0.500922  0.835388  1
  Co  Co16  1  0.878713  0.888497  0.990216  1
  Co  Co17  1  0.117418  0.114186  0.003232  1
