# generated using pymatgen
data_Ac2Ga6CoNi3
_symmetry_space_group_name_H-M   'P 1'
_cell_length_a   5.25127827
_cell_length_b   6.44674868
_cell_length_c   6.44674984
_cell_angle_alpha   76.41291200
_cell_angle_beta   89.95130030
_cell_angle_gamma   90.04869036
_symmetry_Int_Tables_number   1
_chemical_formula_structural   Ac2Ga6CoNi3
_chemical_formula_sum   'Ac2 Ga6 Co1 Ni3'
_cell_volume   212.13810547
_cell_formula_units_Z   1
loop_
 _symmetry_equiv_pos_site_id
 _symmetry_equiv_pos_as_xyz
  1  'x, y, z'
loop_
 _atom_site_type_symbol
 _atom_site_label
 _atom_site_symmetry_multiplicity
 _atom_site_fract_x
 _atom_site_fract_y
 _atom_site_fract_z
 _atom_site_occupancy
  Ac  Ac0  1  0.749076  0.341269  0.655539  1
  Ac  Ac1  1  0.250924  0.655539  0.341269  1
  Ga  Ga2  1  0.751576  0.940584  0.061165  1
  Ga  Ga3  1  0.248424  0.061165  0.940584  1
  Ga  Ga4  1  0.752305  0.530241  0.081898  1
  Ga  Ga5  1  0.247695  0.081898  0.530241  1
  Ga  Ga6  1  0.246074  0.474194  0.909633  1
  Ga  Ga7  1  0.753926  0.909633  0.474194  1
  Co  Co8  1  0.000000  0.797599  0.797599  1
  Ni  Ni9  1  0.500000  0.205885  0.205885  1
  Ni  Ni10  1  0.000000  0.206559  0.206559  1
  Ni  Ni11  1  0.500000  0.795433  0.795433  1
