# generated using pymatgen
data_Sr3PrTi4O12
_symmetry_space_group_name_H-M   'P 1'
_cell_length_a   5.57298757
_cell_length_b   5.57298746
_cell_length_c   9.63239309
_cell_angle_alpha   73.26017792
_cell_angle_beta   73.26017940
_cell_angle_gamma   60.24590885
_symmetry_Int_Tables_number   1
_chemical_formula_structural   Sr3PrTi4O12
_chemical_formula_sum   'Sr3 Pr1 Ti4 O12'
_cell_volume   244.90081665
_cell_formula_units_Z   1
loop_
 _symmetry_equiv_pos_site_id
 _symmetry_equiv_pos_as_xyz
  1  'x, y, z'
loop_
 _atom_site_type_symbol
 _atom_site_label
 _atom_site_symmetry_multiplicity
 _atom_site_fract_x
 _atom_site_fract_y
 _atom_site_fract_z
 _atom_site_occupancy
  Sr  Sr0  1  0.121948  0.878052  0.500000  1
  Sr  Sr1  1  0.376790  0.123563  0.748316  1
  Sr  Sr2  1  0.876437  0.623210  0.251684  1
  Pr  Pr3  1  0.617418  0.382582  0.000000  1
  Ti  Ti4  1  0.247660  0.001552  0.127076  1
  Ti  Ti5  1  0.751764  0.499781  0.623007  1
  Ti  Ti6  1  0.998448  0.752340  0.872924  1
  Ti  Ti7  1  0.500219  0.248236  0.376993  1
  O  O8  1  0.916516  0.575259  0.755698  1
  O  O9  1  0.424741  0.083484  0.244302  1
  O  O10  1  0.056416  0.943584  0.000000  1
  O  O11  1  0.584041  0.415959  0.500000  1
  O  O12  1  0.634482  0.883963  0.510119  1
  O  O13  1  0.157936  0.386264  0.011185  1
  O  O14  1  0.613736  0.842064  0.988815  1
  O  O15  1  0.116037  0.365518  0.489881  1
  O  O16  1  0.391574  0.632995  0.768869  1
  O  O17  1  0.886530  0.139699  0.258262  1
  O  O18  1  0.367005  0.608426  0.231131  1
  O  O19  1  0.860301  0.113470  0.741738  1
