# generated using pymatgen
data_Ta8VGaS16
_symmetry_space_group_name_H-M   'P 1'
_cell_length_a   6.68879800
_cell_length_b   6.68879851
_cell_length_c   13.24188800
_cell_angle_alpha   90.00000000
_cell_angle_beta   90.00000000
_cell_angle_gamma   120.00000737
_symmetry_Int_Tables_number   1
_chemical_formula_structural   Ta8VGaS16
_chemical_formula_sum   'Ta8 V1 Ga1 S16'
_cell_volume   513.07009740
_cell_formula_units_Z   1
loop_
 _symmetry_equiv_pos_site_id
 _symmetry_equiv_pos_as_xyz
  1  'x, y, z'
loop_
 _atom_site_type_symbol
 _atom_site_label
 _atom_site_symmetry_multiplicity
 _atom_site_fract_x
 _atom_site_fract_y
 _atom_site_fract_z
 _atom_site_occupancy
  Ta  Ta0  1  0.504028  0.495972  0.733038  1
  Ta  Ta1  1  0.008055  0.504028  0.266962  1
  Ta  Ta2  1  0.495972  0.991945  0.266962  1
  Ta  Ta3  1  0.504028  0.008055  0.733038  1
  Ta  Ta4  1  0.991945  0.495972  0.733038  1
  Ta  Ta5  1  0.495972  0.504028  0.266962  1
  Ta  Ta6  1  0.000000  0.000000  0.733237  1
  Ta  Ta7  1  0.000000  0.000000  0.266763  1
  V  V8  1  0.000000  0.000000  0.500000  1
  Ga  Ga9  1  0.000000  0.000000  0.000000  1
  S  S10  1  0.834256  0.165744  0.385332  1
  S  S11  1  0.834256  0.668512  0.385332  1
  S  S12  1  0.331488  0.165744  0.385332  1
  S  S13  1  0.665412  0.832706  0.850299  1
  S  S14  1  0.165744  0.331488  0.614668  1
  S  S15  1  0.167294  0.832706  0.850299  1
  S  S16  1  0.167294  0.334588  0.850299  1
  S  S17  1  0.832706  0.167294  0.149701  1
  S  S18  1  0.334588  0.167294  0.149701  1
  S  S19  1  0.668512  0.834256  0.614668  1
  S  S20  1  0.333333  0.666667  0.147614  1
  S  S21  1  0.666667  0.333333  0.614108  1
  S  S22  1  0.666667  0.333333  0.852386  1
  S  S23  1  0.333333  0.666667  0.385892  1
  S  S24  1  0.832706  0.665412  0.149701  1
  S  S25  1  0.165744  0.834256  0.614668  1
