# generated using pymatgen
data_Nb5Al16GaIr7
_symmetry_space_group_name_H-M   'P 1'
_cell_length_a   8.58308809
_cell_length_b   8.65249912
_cell_length_c   8.65246550
_cell_angle_alpha   59.47005081
_cell_angle_beta   60.26479935
_cell_angle_gamma   60.26513878
_symmetry_Int_Tables_number   1
_chemical_formula_structural   Nb5Al16GaIr7
_chemical_formula_sum   'Nb5 Al16 Ga1 Ir7'
_cell_volume   454.31234418
_cell_formula_units_Z   1
loop_
 _symmetry_equiv_pos_site_id
 _symmetry_equiv_pos_as_xyz
  1  'x, y, z'
loop_
 _atom_site_type_symbol
 _atom_site_label
 _atom_site_symmetry_multiplicity
 _atom_site_fract_x
 _atom_site_fract_y
 _atom_site_fract_z
 _atom_site_occupancy
  Nb  Nb0  1  0.317222  0.682778  0.682778  1
  Nb  Nb1  1  0.288850  0.711149  0.291756  1
  Nb  Nb2  1  0.708241  0.291757  0.711149  1
  Nb  Nb3  1  0.288853  0.291755  0.711150  1
  Nb  Nb4  1  0.708246  0.711146  0.291758  1
  Al  Al5  1  0.376259  0.339550  0.339503  1
  Al  Al6  1  0.671861  0.651128  0.651077  1
  Al  Al7  1  0.348877  0.328142  0.974087  1
  Al  Al8  1  0.348913  0.974022  0.328132  1
  Al  Al9  1  0.660453  0.623750  0.055325  1
  Al  Al10  1  0.660488  0.055284  0.623723  1
  Al  Al11  1  0.944703  0.339537  0.339492  1
  Al  Al12  1  0.025956  0.651117  0.651062  1
  Al  Al13  1  0.116348  0.117638  0.117692  1
  Al  Al14  1  0.883068  0.871025  0.871059  1
  Al  Al15  1  0.128971  0.116919  0.625150  1
  Al  Al16  1  0.128951  0.625159  0.116951  1
  Al  Al17  1  0.882353  0.883639  0.351674  1
  Al  Al18  1  0.882327  0.351683  0.883678  1
  Al  Al19  1  0.648320  0.117648  0.117699  1
  Al  Al20  1  0.374845  0.871031  0.871066  1
  Ga  Ga21  1  0.544964  0.455051  0.455005  1
  Ir  Ir22  1  0.510468  0.989569  0.989510  1
  Ir  Ir23  1  0.010450  0.489517  0.489562  1
  Ir  Ir24  1  0.010398  0.496299  0.989590  1
  Ir  Ir25  1  0.503688  0.989617  0.496299  1
  Ir  Ir26  1  0.010385  0.989621  0.496311  1
  Ir  Ir27  1  0.503717  0.496289  0.989586  1
  Ir  Ir28  1  0.011821  0.988180  0.988178  1
