# generated using pymatgen
data_Dy3Mg3AgSn2
_symmetry_space_group_name_H-M   'P 1'
_cell_length_a   7.51980200
_cell_length_b   7.51980151
_cell_length_c   4.50800300
_cell_angle_alpha   90.00000000
_cell_angle_beta   90.00000000
_cell_angle_gamma   120.00000215
_symmetry_Int_Tables_number   1
_chemical_formula_structural   Dy3Mg3AgSn2
_chemical_formula_sum   'Dy3 Mg3 Ag1 Sn2'
_cell_volume   220.76366818
_cell_formula_units_Z   1
loop_
 _symmetry_equiv_pos_site_id
 _symmetry_equiv_pos_as_xyz
  1  'x, y, z'
loop_
 _atom_site_type_symbol
 _atom_site_label
 _atom_site_symmetry_multiplicity
 _atom_site_fract_x
 _atom_site_fract_y
 _atom_site_fract_z
 _atom_site_occupancy
  Dy  Dy0  1  0.413490  0.413490  0.500000  1
  Dy  Dy1  1  0.586510  0.000000  0.500000  1
  Dy  Dy2  1  0.000000  0.586510  0.500000  1
  Mg  Mg3  1  0.761749  0.761749  0.000000  1
  Mg  Mg4  1  0.238251  0.000000  0.000000  1
  Mg  Mg5  1  0.000000  0.238251  0.000000  1
  Ag  Ag6  1  0.000000  0.000000  0.500000  1
  Sn  Sn7  1  0.666667  0.333333  0.000000  1
  Sn  Sn8  1  0.333333  0.666667  0.000000  1
