# generated using pymatgen
data_VCo4SbO8
_symmetry_space_group_name_H-M   'P 1'
_cell_length_a   6.06551967
_cell_length_b   6.05975987
_cell_length_c   6.18770546
_cell_angle_alpha   60.74189565
_cell_angle_beta   60.67636533
_cell_angle_gamma   59.64728851
_symmetry_Int_Tables_number   1
_chemical_formula_structural   VCo4SbO8
_chemical_formula_sum   'V1 Co4 Sb1 O8'
_cell_volume   162.07481618
_cell_formula_units_Z   1
loop_
 _symmetry_equiv_pos_site_id
 _symmetry_equiv_pos_as_xyz
  1  'x, y, z'
loop_
 _atom_site_type_symbol
 _atom_site_label
 _atom_site_symmetry_multiplicity
 _atom_site_fract_x
 _atom_site_fract_y
 _atom_site_fract_z
 _atom_site_occupancy
  V  V0  1  0.000000  0.000000  0.500000  1
  Co  Co1  1  0.361660  0.361975  0.903203  1
  Co  Co2  1  0.638340  0.638025  0.096797  1
  Co  Co3  1  0.000000  0.500000  0.500000  1
  Co  Co4  1  0.500000  0.000000  0.500000  1
  Sb  Sb5  1  0.000000  0.000000  0.000000  1
  O  O6  1  0.229827  0.229681  0.290631  1
  O  O7  1  0.230680  0.230866  0.758674  1
  O  O8  1  0.228450  0.772717  0.757031  1
  O  O9  1  0.772953  0.228075  0.756675  1
  O  O10  1  0.770173  0.770319  0.709369  1
  O  O11  1  0.769320  0.769134  0.241326  1
  O  O12  1  0.771550  0.227283  0.242969  1
  O  O13  1  0.227047  0.771925  0.243325  1
