# generated using pymatgen
data_HgMo(PO4)2
_symmetry_space_group_name_H-M   'P 1'
_cell_length_a   5.09010985
_cell_length_b   5.06072308
_cell_length_c   8.47861988
_cell_angle_alpha   85.94683752
_cell_angle_beta   87.08756703
_cell_angle_gamma   60.13609673
_symmetry_Int_Tables_number   1
_chemical_formula_structural   HgMo(PO4)2
_chemical_formula_sum   'Hg1 Mo1 P2 O8'
_cell_volume   188.89964813
_cell_formula_units_Z   1
loop_
 _symmetry_equiv_pos_site_id
 _symmetry_equiv_pos_as_xyz
  1  'x, y, z'
loop_
 _atom_site_type_symbol
 _atom_site_label
 _atom_site_symmetry_multiplicity
 _atom_site_fract_x
 _atom_site_fract_y
 _atom_site_fract_z
 _atom_site_occupancy
  Hg  Hg0  1  0.519498  0.509615  0.487076  1
  Mo  Mo1  1  0.012866  0.014341  0.987689  1
  P  P2  1  0.683866  0.705004  0.789151  1
  P  P3  1  0.342488  0.323772  0.186213  1
  O  O4  1  0.293381  0.064689  0.138949  1
  O  O5  1  0.330157  0.308240  0.373237  1
  O  O6  1  0.086487  0.638368  0.125707  1
  O  O7  1  0.702446  0.715453  0.602300  1
  O  O8  1  0.938827  0.391662  0.851913  1
  O  O9  1  0.731479  0.965271  0.836319  1
  O  O10  1  0.657010  0.278924  0.133221  1
  O  O11  1  0.367877  0.751565  0.840815  1
