# generated using pymatgen
data_Dy3HoCo16Mo(P4W)3
_symmetry_space_group_name_H-M   'P 1'
_cell_length_a   3.70427500
_cell_length_b   10.41200100
_cell_length_c   11.86185600
_cell_angle_alpha   89.99844269
_cell_angle_beta   90.00000000
_cell_angle_gamma   90.00000000
_symmetry_Int_Tables_number   1
_chemical_formula_structural   Dy3HoCo16Mo(P4W)3
_chemical_formula_sum   'Dy3 Ho1 Co16 Mo1 P12 W3'
_cell_volume   457.49891586
_cell_formula_units_Z   1
loop_
 _symmetry_equiv_pos_site_id
 _symmetry_equiv_pos_as_xyz
  1  'x, y, z'
loop_
 _atom_site_type_symbol
 _atom_site_label
 _atom_site_symmetry_multiplicity
 _atom_site_fract_x
 _atom_site_fract_y
 _atom_site_fract_z
 _atom_site_occupancy
  Dy  Dy0  1  0.250000  0.917068  0.204109  1
  Dy  Dy1  1  0.750000  0.417069  0.295839  1
  Dy  Dy2  1  0.750000  0.082815  0.795710  1
  Ho  Ho3  1  0.250000  0.582776  0.704151  1
  Co  Co4  1  0.250000  0.406137  0.489463  1
  Co  Co5  1  0.250000  0.094547  0.989166  1
  Co  Co6  1  0.750000  0.594615  0.511360  1
  Co  Co7  1  0.750000  0.905386  0.010857  1
  Co  Co8  1  0.250000  0.222196  0.177495  1
  Co  Co9  1  0.250000  0.278379  0.677977  1
  Co  Co10  1  0.750000  0.777558  0.822275  1
  Co  Co11  1  0.750000  0.722278  0.322479  1
  Co  Co12  1  0.250000  0.887124  0.700346  1
  Co  Co13  1  0.250000  0.612588  0.200078  1
  Co  Co14  1  0.750000  0.112627  0.299673  1
  Co  Co15  1  0.750000  0.387748  0.799424  1
  Co  Co16  1  0.250000  0.465830  0.933011  1
  Co  Co17  1  0.250000  0.034073  0.433270  1
  Co  Co18  1  0.750000  0.534335  0.066453  1
  Co  Co19  1  0.750000  0.965330  0.567004  1
  Mo  Mo20  1  0.750000  0.208570  0.512462  1
  P  P21  1  0.250000  0.420051  0.115574  1
  P  P22  1  0.250000  0.079962  0.615468  1
  P  P23  1  0.750000  0.579952  0.883924  1
  P  P24  1  0.750000  0.920436  0.384611  1
  P  P25  1  0.250000  0.268854  0.864784  1
  P  P26  1  0.250000  0.230882  0.364898  1
  P  P27  1  0.750000  0.731053  0.135145  1
  P  P28  1  0.750000  0.768621  0.635327  1
  P  P29  1  0.250000  0.595004  0.391043  1
  P  P30  1  0.250000  0.905054  0.891052  1
  P  P31  1  0.750000  0.404719  0.608808  1
  P  P32  1  0.750000  0.095136  0.109026  1
  W  W33  1  0.250000  0.708520  0.987631  1
  W  W34  1  0.250000  0.791224  0.487891  1
  W  W35  1  0.750000  0.291485  0.012218  1
