# generated using pymatgen
data_Ba2NaLi3S5
_symmetry_space_group_name_H-M   'P 1'
_cell_length_a   8.91019415
_cell_length_b   8.91019423
_cell_length_c   10.59264704
_cell_angle_alpha   81.91389364
_cell_angle_beta   81.91389368
_cell_angle_gamma   36.77447468
_symmetry_Int_Tables_number   1
_chemical_formula_structural   Ba2NaLi3S5
_chemical_formula_sum   'Ba4 Na2 Li6 S10'
_cell_volume   497.89723845
_cell_formula_units_Z   2
loop_
 _symmetry_equiv_pos_site_id
 _symmetry_equiv_pos_as_xyz
  1  'x, y, z'
loop_
 _atom_site_type_symbol
 _atom_site_label
 _atom_site_symmetry_multiplicity
 _atom_site_fract_x
 _atom_site_fract_y
 _atom_site_fract_z
 _atom_site_occupancy
  Ba  Ba0  1  0.761553  0.761553  0.695577  1
  Ba  Ba1  1  0.238447  0.238447  0.304423  1
  Ba  Ba2  1  0.458870  0.458870  0.707957  1
  Ba  Ba3  1  0.541130  0.541130  0.292043  1
  Na  Na4  1  0.105966  0.105966  0.763959  1
  Na  Na5  1  0.894034  0.894034  0.236041  1
  Li  Li6  1  0.754339  0.245661  0.000000  1
  Li  Li7  1  0.245661  0.754339  0.000000  1
  Li  Li8  1  0.919753  0.415530  0.008985  1
  Li  Li9  1  0.415530  0.919753  0.008985  1
  Li  Li10  1  0.080247  0.584470  0.991015  1
  Li  Li11  1  0.584470  0.080247  0.991015  1
  S  S12  1  0.435132  0.812597  0.529669  1
  S  S13  1  0.812597  0.435132  0.529669  1
  S  S14  1  0.564868  0.187403  0.470331  1
  S  S15  1  0.187403  0.564868  0.470331  1
  S  S16  1  0.597197  0.597197  0.881041  1
  S  S17  1  0.402803  0.402803  0.118959  1
  S  S18  1  0.069639  0.069639  0.146173  1
  S  S19  1  0.930361  0.930361  0.853827  1
  S  S20  1  0.260778  0.260778  0.855357  1
  S  S21  1  0.739222  0.739222  0.144643  1
