# generated using pymatgen
data_Ho5AlSb2
_symmetry_space_group_name_H-M   'P 1'
_cell_length_a   8.85740729
_cell_length_b   8.86134758
_cell_length_c   6.38797700
_cell_angle_alpha   90.00000000
_cell_angle_beta   90.00000000
_cell_angle_gamma   120.01471781
_symmetry_Int_Tables_number   1
_chemical_formula_structural   Ho5AlSb2
_chemical_formula_sum   'Ho10 Al2 Sb4'
_cell_volume   434.14613106
_cell_formula_units_Z   2
loop_
 _symmetry_equiv_pos_site_id
 _symmetry_equiv_pos_as_xyz
  1  'x, y, z'
loop_
 _atom_site_type_symbol
 _atom_site_label
 _atom_site_symmetry_multiplicity
 _atom_site_fract_x
 _atom_site_fract_y
 _atom_site_fract_z
 _atom_site_occupancy
  Ho  Ho0  1  0.335955  0.667978  0.000000  1
  Ho  Ho1  1  0.655538  0.327768  0.500000  1
  Ho  Ho2  1  0.655538  0.327768  0.000000  1
  Ho  Ho3  1  0.335955  0.667978  0.500000  1
  Ho  Ho4  1  0.755756  0.998978  0.750000  1
  Ho  Ho5  1  0.755756  0.756778  0.250000  1
  Ho  Ho6  1  0.008668  0.242361  0.250000  1
  Ho  Ho7  1  0.008668  0.766307  0.750000  1
  Ho  Ho8  1  0.241286  0.231884  0.750000  1
  Ho  Ho9  1  0.241286  0.009401  0.250000  1
  Al  Al10  1  0.398133  0.997068  0.750000  1
  Al  Al11  1  0.398133  0.401065  0.250000  1
  Sb  Sb12  1  0.998567  0.606388  0.250000  1
  Sb  Sb13  1  0.998567  0.392179  0.750000  1
  Sb  Sb14  1  0.606098  0.605160  0.750000  1
  Sb  Sb15  1  0.606098  0.000937  0.250000  1
