# generated using pymatgen
data_Pr6CuSi2AuSe14
_symmetry_space_group_name_H-M   'P 1'
_cell_length_a   10.74739342
_cell_length_b   10.74639760
_cell_length_c   6.12714801
_cell_angle_alpha   90.00362740
_cell_angle_beta   89.99526201
_cell_angle_gamma   119.98633448
_symmetry_Int_Tables_number   1
_chemical_formula_structural   Pr6CuSi2AuSe14
_chemical_formula_sum   'Pr6 Cu1 Si2 Au1 Se14'
_cell_volume   612.93559070
_cell_formula_units_Z   1
loop_
 _symmetry_equiv_pos_site_id
 _symmetry_equiv_pos_as_xyz
  1  'x, y, z'
loop_
 _atom_site_type_symbol
 _atom_site_label
 _atom_site_symmetry_multiplicity
 _atom_site_fract_x
 _atom_site_fract_y
 _atom_site_fract_z
 _atom_site_occupancy
  Pr  Pr0  1  0.128309  0.355046  0.251963  1
  Pr  Pr1  1  0.871313  0.642884  0.749744  1
  Pr  Pr2  1  0.645022  0.773276  0.252010  1
  Pr  Pr3  1  0.226805  0.871833  0.252011  1
  Pr  Pr4  1  0.771759  0.128806  0.749778  1
  Pr  Pr5  1  0.357131  0.228255  0.749783  1
  Cu  Cu6  1  0.999399  0.999727  0.779862  1
  Si  Si7  1  0.333383  0.666736  0.664455  1
  Si  Si8  1  0.666726  0.333312  0.160543  1
  Au  Au9  1  0.000121  0.000048  0.277177  1
  Se  Se10  1  0.333369  0.666785  0.035591  1
  Se  Se11  1  0.666765  0.333257  0.531952  1
  Se  Se12  1  0.091859  0.254552  0.768979  1
  Se  Se13  1  0.902556  0.728742  0.266249  1
  Se  Se14  1  0.744913  0.836861  0.768920  1
  Se  Se15  1  0.162557  0.908339  0.768994  1
  Se  Se16  1  0.826275  0.097510  0.266311  1
  Se  Se17  1  0.271403  0.173903  0.266258  1
  Se  Se18  1  0.416009  0.523872  0.516146  1
  Se  Se19  1  0.584120  0.476694  0.012960  1
  Se  Se20  1  0.476172  0.892180  0.516163  1
  Se  Se21  1  0.107960  0.584085  0.516100  1
  Se  Se22  1  0.892688  0.415970  0.013036  1
  Se  Se23  1  0.523392  0.107330  0.013018  1
