# generated using pymatgen
data_Nb3Zn3C
_symmetry_space_group_name_H-M   'P 1'
_cell_length_a   8.35281331
_cell_length_b   8.35299092
_cell_length_c   8.35294000
_cell_angle_alpha   60.00004251
_cell_angle_beta   60.00309337
_cell_angle_gamma   59.99856614
_symmetry_Int_Tables_number   1
_chemical_formula_structural   Nb3Zn3C
_chemical_formula_sum   'Nb12 Zn12 C4'
_cell_volume   412.10201067
_cell_formula_units_Z   4
loop_
 _symmetry_equiv_pos_site_id
 _symmetry_equiv_pos_as_xyz
  1  'x, y, z'
loop_
 _atom_site_type_symbol
 _atom_site_label
 _atom_site_symmetry_multiplicity
 _atom_site_fract_x
 _atom_site_fract_y
 _atom_site_fract_z
 _atom_site_occupancy
  Nb  Nb0  1  0.430598  0.430599  0.069372  1
  Nb  Nb1  1  0.069438  0.430579  0.069409  1
  Nb  Nb2  1  0.430596  0.069435  0.069377  1
  Nb  Nb3  1  0.069379  0.069406  0.430610  1
  Nb  Nb4  1  0.430604  0.069391  0.430609  1
  Nb  Nb5  1  0.069379  0.430603  0.430608  1
  Nb  Nb6  1  0.819402  0.819401  0.180628  1
  Nb  Nb7  1  0.180562  0.819421  0.180591  1
  Nb  Nb8  1  0.819404  0.180565  0.180623  1
  Nb  Nb9  1  0.180621  0.180594  0.819390  1
  Nb  Nb10  1  0.819396  0.180609  0.819391  1
  Nb  Nb11  1  0.180621  0.819397  0.819392  1
  Zn  Zn12  1  0.832954  0.832957  0.501133  1
  Zn  Zn13  1  0.832947  0.501144  0.832959  1
  Zn  Zn14  1  0.501141  0.832950  0.832959  1
  Zn  Zn15  1  0.832947  0.832949  0.832960  1
  Zn  Zn16  1  0.417046  0.417043  0.748867  1
  Zn  Zn17  1  0.417053  0.748856  0.417041  1
  Zn  Zn18  1  0.748859  0.417050  0.417041  1
  Zn  Zn19  1  0.417053  0.417051  0.417040  1
  Zn  Zn20  1  0.625000  0.625000  0.125000  1
  Zn  Zn21  1  0.625000  0.125000  0.625000  1
  Zn  Zn22  1  0.125000  0.625000  0.625000  1
  Zn  Zn23  1  0.625000  0.625000  0.625000  1
  C  C24  1  0.125000  0.125000  0.625000  1
  C  C25  1  0.125000  0.625000  0.125000  1
  C  C26  1  0.625000  0.125000  0.125000  1
  C  C27  1  0.125000  0.125000  0.125000  1
