# generated using pymatgen
data_Yb4CoOs2Ru5
_symmetry_space_group_name_H-M   'P 1'
_cell_length_a   5.16314807
_cell_length_b   5.25632276
_cell_length_c   8.72153600
_cell_angle_alpha   90.00000000
_cell_angle_beta   90.00000000
_cell_angle_gamma   119.43935033
_symmetry_Int_Tables_number   1
_chemical_formula_structural   Yb4CoOs2Ru5
_chemical_formula_sum   'Yb4 Co1 Os2 Ru5'
_cell_volume   206.13233985
_cell_formula_units_Z   1
loop_
 _symmetry_equiv_pos_site_id
 _symmetry_equiv_pos_as_xyz
  1  'x, y, z'
loop_
 _atom_site_type_symbol
 _atom_site_label
 _atom_site_symmetry_multiplicity
 _atom_site_fract_x
 _atom_site_fract_y
 _atom_site_fract_z
 _atom_site_occupancy
  Yb  Yb0  1  0.665810  0.331679  0.565579  1
  Yb  Yb1  1  0.330361  0.660714  0.434588  1
  Yb  Yb2  1  0.330361  0.660714  0.065412  1
  Yb  Yb3  1  0.665810  0.331679  0.934421  1
  Co  Co4  1  0.177899  0.355857  0.750000  1
  Os  Os5  1  0.179192  0.836979  0.750000  1
  Os  Os6  1  0.657860  0.837034  0.750000  1
  Ru  Ru7  1  0.989493  0.978994  0.506999  1
  Ru  Ru8  1  0.989493  0.978994  0.993001  1
  Ru  Ru9  1  0.838435  0.676874  0.250000  1
  Ru  Ru10  1  0.826308  0.175220  0.250000  1
  Ru  Ru11  1  0.348979  0.175261  0.250000  1
