# generated using pymatgen
data_Sr2Ca3(GaSb3)2
_symmetry_space_group_name_H-M   'P 1'
_cell_length_a   4.60807200
_cell_length_b   12.37572400
_cell_length_c   14.13175000
_cell_angle_alpha   90.00000000
_cell_angle_beta   90.00000000
_cell_angle_gamma   90.00000000
_symmetry_Int_Tables_number   1
_chemical_formula_structural   Sr2Ca3(GaSb3)2
_chemical_formula_sum   'Sr4 Ca6 Ga4 Sb12'
_cell_volume   805.90865036
_cell_formula_units_Z   2
loop_
 _symmetry_equiv_pos_site_id
 _symmetry_equiv_pos_as_xyz
  1  'x, y, z'
loop_
 _atom_site_type_symbol
 _atom_site_label
 _atom_site_symmetry_multiplicity
 _atom_site_fract_x
 _atom_site_fract_y
 _atom_site_fract_z
 _atom_site_occupancy
  Sr  Sr0  1  0.500000  0.672132  0.476205  1
  Sr  Sr1  1  0.500000  0.327868  0.523795  1
  Sr  Sr2  1  0.500000  0.827868  0.976205  1
  Sr  Sr3  1  0.500000  0.172132  0.023795  1
  Ca  Ca4  1  0.500000  0.000000  0.500000  1
  Ca  Ca5  1  0.500000  0.500000  0.000000  1
  Ca  Ca6  1  0.500000  0.908367  0.250421  1
  Ca  Ca7  1  0.500000  0.091633  0.749579  1
  Ca  Ca8  1  0.500000  0.408367  0.249579  1
  Ca  Ca9  1  0.500000  0.591633  0.750421  1
  Ga  Ga10  1  0.000000  0.324708  0.711750  1
  Ga  Ga11  1  0.000000  0.675292  0.288250  1
  Ga  Ga12  1  0.000000  0.824708  0.788250  1
  Ga  Ga13  1  0.000000  0.175292  0.211750  1
  Sb  Sb14  1  0.000000  0.979658  0.101624  1
  Sb  Sb15  1  0.000000  0.020342  0.898376  1
  Sb  Sb16  1  0.000000  0.479658  0.398376  1
  Sb  Sb17  1  0.000000  0.520342  0.601624  1
  Sb  Sb18  1  0.500000  0.160459  0.318752  1
  Sb  Sb19  1  0.500000  0.839541  0.681248  1
  Sb  Sb20  1  0.500000  0.660459  0.181248  1
  Sb  Sb21  1  0.500000  0.339541  0.818752  1
  Sb  Sb22  1  0.000000  0.355180  0.098153  1
  Sb  Sb23  1  0.000000  0.644820  0.901847  1
  Sb  Sb24  1  0.000000  0.855180  0.401847  1
  Sb  Sb25  1  0.000000  0.144820  0.598153  1
