# generated using pymatgen
data_YPa2Zn3Pd2Pt
_symmetry_space_group_name_H-M   'P 1'
_cell_length_a   7.36046923
_cell_length_b   7.42045836
_cell_length_c   3.80404600
_cell_angle_alpha   90.00000000
_cell_angle_beta   90.00000000
_cell_angle_gamma   120.29355001
_symmetry_Int_Tables_number   1
_chemical_formula_structural   YPa2Zn3Pd2Pt
_chemical_formula_sum   'Y1 Pa2 Zn3 Pd2 Pt1'
_cell_volume   179.39914348
_cell_formula_units_Z   1
loop_
 _symmetry_equiv_pos_site_id
 _symmetry_equiv_pos_as_xyz
  1  'x, y, z'
loop_
 _atom_site_type_symbol
 _atom_site_label
 _atom_site_symmetry_multiplicity
 _atom_site_fract_x
 _atom_site_fract_y
 _atom_site_fract_z
 _atom_site_occupancy
  Y  Y0  1  0.001262  0.404077  0.000000  1
  Pa  Pa1  1  0.587316  0.592824  0.000000  1
  Pa  Pa2  1  0.409192  0.000184  0.000000  1
  Zn  Zn3  1  0.243284  0.252437  0.500000  1
  Zn  Zn4  1  0.758636  0.011718  0.500000  1
  Zn  Zn5  1  0.999139  0.736814  0.500000  1
  Pd  Pd6  1  0.999793  0.987252  0.000000  1
  Pd  Pd7  1  0.649755  0.331719  0.500000  1
  Pt  Pt8  1  0.351623  0.682977  0.500000  1
