# generated using pymatgen
data_Tm2Lu6Sc12Si15Ru
_symmetry_space_group_name_H-M   'P 1'
_cell_length_a   7.01109802
_cell_length_b   7.38220038
_cell_length_c   13.83404739
_cell_angle_alpha   90.02643985
_cell_angle_beta   89.99369424
_cell_angle_gamma   90.19832855
_symmetry_Int_Tables_number   1
_chemical_formula_structural   Tm2Lu6Sc12Si15Ru
_chemical_formula_sum   'Tm2 Lu6 Sc12 Si15 Ru1'
_cell_volume   716.00899142
_cell_formula_units_Z   1
loop_
 _symmetry_equiv_pos_site_id
 _symmetry_equiv_pos_as_xyz
  1  'x, y, z'
loop_
 _atom_site_type_symbol
 _atom_site_label
 _atom_site_symmetry_multiplicity
 _atom_site_fract_x
 _atom_site_fract_y
 _atom_site_fract_z
 _atom_site_occupancy
  Tm  Tm0  1  0.511061  0.321678  0.404192  1
  Tm  Tm1  1  0.489205  0.677917  0.595216  1
  Lu  Lu2  1  0.011210  0.179462  0.095693  1
  Lu  Lu3  1  0.991284  0.826782  0.905245  1
  Lu  Lu4  1  0.489202  0.678176  0.904633  1
  Lu  Lu5  1  0.991290  0.826780  0.594828  1
  Lu  Lu6  1  0.511073  0.321502  0.095949  1
  Lu  Lu7  1  0.011160  0.179406  0.404264  1
  Sc  Sc8  1  0.158606  0.504848  0.750044  1
  Sc  Sc9  1  0.837507  0.493843  0.249947  1
  Sc  Sc10  1  0.338981  0.006434  0.249949  1
  Sc  Sc11  1  0.670063  0.997046  0.750048  1
  Sc  Sc12  1  0.316440  0.171833  0.627685  1
  Sc  Sc13  1  0.671898  0.825440  0.374174  1
  Sc  Sc14  1  0.171022  0.678067  0.374236  1
  Sc  Sc15  1  0.671813  0.825296  0.125740  1
  Sc  Sc16  1  0.837950  0.320159  0.627488  1
  Sc  Sc17  1  0.316509  0.171936  0.872359  1
  Sc  Sc18  1  0.837943  0.320166  0.872566  1
  Sc  Sc19  1  0.171085  0.677984  0.125696  1
  Si  Si20  1  0.968771  0.887541  0.249986  1
  Si  Si21  1  0.469395  0.611911  0.249930  1
  Si  Si22  1  0.529560  0.390214  0.750091  1
  Si  Si23  1  0.286504  0.864161  0.750153  1
  Si  Si24  1  0.713825  0.132063  0.249872  1
  Si  Si25  1  0.213758  0.368273  0.249876  1
  Si  Si26  1  0.779801  0.629528  0.750129  1
  Si  Si27  1  0.161300  0.468665  0.537338  1
  Si  Si28  1  0.842230  0.535127  0.461681  1
  Si  Si29  1  0.342186  0.966666  0.460305  1
  Si  Si30  1  0.841772  0.534952  0.038339  1
  Si  Si31  1  0.657737  0.034342  0.538710  1
  Si  Si32  1  0.161759  0.468807  0.962620  1
  Si  Si33  1  0.657582  0.034273  0.961302  1
  Si  Si34  1  0.342320  0.966753  0.039692  1
  Ru  Ru35  1  0.026194  0.101972  0.750025  1
