# generated using pymatgen
data_LiLu3As6Rh7
_symmetry_space_group_name_H-M   'P 1'
_cell_length_a   7.14994301
_cell_length_b   7.14994347
_cell_length_c   7.19787300
_cell_angle_alpha   109.60707096
_cell_angle_beta   109.60707226
_cell_angle_gamma   109.33503074
_symmetry_Int_Tables_number   1
_chemical_formula_structural   LiLu3As6Rh7
_chemical_formula_sum   'Li1 Lu3 As6 Rh7'
_cell_volume   282.78514204
_cell_formula_units_Z   1
loop_
 _symmetry_equiv_pos_site_id
 _symmetry_equiv_pos_as_xyz
  1  'x, y, z'
loop_
 _atom_site_type_symbol
 _atom_site_label
 _atom_site_symmetry_multiplicity
 _atom_site_fract_x
 _atom_site_fract_y
 _atom_site_fract_z
 _atom_site_occupancy
  Li  Li0  1  0.000000  0.000000  0.500000  1
  Lu  Lu1  1  0.500000  0.500000  0.500000  1
  Lu  Lu2  1  0.000000  0.500000  0.000000  1
  Lu  Lu3  1  0.500000  0.000000  0.000000  1
  As  As4  1  0.689151  0.000000  0.678927  1
  As  As5  1  0.689151  0.689151  0.010224  1
  As  As6  1  0.310849  0.310849  0.989776  1
  As  As7  1  0.000000  0.689151  0.678927  1
  As  As8  1  0.000000  0.310849  0.321073  1
  As  As9  1  0.310849  0.000000  0.321073  1
  Rh  Rh10  1  0.749940  0.499880  0.249940  1
  Rh  Rh11  1  0.500120  0.250060  0.750060  1
  Rh  Rh12  1  0.749940  0.250060  0.500000  1
  Rh  Rh13  1  0.250060  0.749940  0.500000  1
  Rh  Rh14  1  0.250060  0.500120  0.750060  1
  Rh  Rh15  1  0.499880  0.749940  0.249940  1
  Rh  Rh16  1  0.000000  0.000000  0.000000  1
