# generated using pymatgen
data_Pr5P12Ru15Rh4
_symmetry_space_group_name_H-M   'P 1'
_cell_length_a   12.67154702
_cell_length_b   12.66538316
_cell_length_c   4.03328800
_cell_angle_alpha   90.00000000
_cell_angle_beta   90.00000000
_cell_angle_gamma   119.84555385
_symmetry_Int_Tables_number   1
_chemical_formula_structural   Pr5P12Ru15Rh4
_chemical_formula_sum   'Pr5 P12 Ru15 Rh4'
_cell_volume   561.45070266
_cell_formula_units_Z   1
loop_
 _symmetry_equiv_pos_site_id
 _symmetry_equiv_pos_as_xyz
  1  'x, y, z'
loop_
 _atom_site_type_symbol
 _atom_site_label
 _atom_site_symmetry_multiplicity
 _atom_site_fract_x
 _atom_site_fract_y
 _atom_site_fract_z
 _atom_site_occupancy
  Pr  Pr0  1  0.817306  0.000545  0.500000  1
  Pr  Pr1  1  0.001397  0.816561  0.500000  1
  Pr  Pr2  1  0.183519  0.183418  0.500000  1
  Pr  Pr3  1  0.332722  0.666667  0.000000  1
  Pr  Pr4  1  0.666772  0.333656  0.000000  1
  P  P5  1  0.188885  0.000486  0.000000  1
  P  P6  1  0.000517  0.188936  0.000000  1
  P  P7  1  0.814641  0.811839  0.000000  1
  P  P8  1  0.520388  0.693316  0.500000  1
  P  P9  1  0.301777  0.824416  0.500000  1
  P  P10  1  0.174626  0.476575  0.500000  1
  P  P11  1  0.476885  0.175741  0.500000  1
  P  P12  1  0.698144  0.523437  0.500000  1
  P  P13  1  0.824707  0.301891  0.500000  1
  P  P14  1  0.628290  0.004185  0.000000  1
  P  P15  1  0.999897  0.627420  0.000000  1
  P  P16  1  0.372445  0.372332  0.000000  1
  Ru  Ru17  1  0.288394  0.999893  0.500000  1
  Ru  Ru18  1  0.999752  0.288103  0.500000  1
  Ru  Ru19  1  0.711487  0.713212  0.500000  1
  Ru  Ru20  1  0.194565  0.815256  0.000000  1
  Ru  Ru21  1  0.184746  0.378870  0.000000  1
  Ru  Ru22  1  0.379720  0.185121  0.000000  1
  Ru  Ru23  1  0.804815  0.620948  0.000000  1
  Ru  Ru24  1  0.815754  0.194945  0.000000  1
  Ru  Ru25  1  0.508605  0.874508  0.500000  1
  Ru  Ru26  1  0.122842  0.630942  0.500000  1
  Ru  Ru27  1  0.366854  0.489802  0.500000  1
  Ru  Ru28  1  0.492304  0.369234  0.500000  1
  Ru  Ru29  1  0.876468  0.508394  0.500000  1
  Ru  Ru30  1  0.630983  0.122582  0.500000  1
  Ru  Ru31  1  0.999912  0.999932  0.000000  1
  Rh  Rh32  1  0.445872  0.998068  0.000000  1
  Rh  Rh33  1  0.999663  0.446975  0.000000  1
  Rh  Rh34  1  0.551503  0.553636  0.000000  1
  Rh  Rh35  1  0.622844  0.808159  0.000000  1
