# generated using pymatgen
data_GdAgPt4
_symmetry_space_group_name_H-M   'P 1'
_cell_length_a   5.30763400
_cell_length_b   5.30763400
_cell_length_c   5.30763400
_cell_angle_alpha   119.99999997
_cell_angle_beta   90.00000000
_cell_angle_gamma   119.99999997
_symmetry_Int_Tables_number   1
_chemical_formula_structural   GdAgPt4
_chemical_formula_sum   'Gd1 Ag1 Pt4'
_cell_volume   105.72748592
_cell_formula_units_Z   1
loop_
 _symmetry_equiv_pos_site_id
 _symmetry_equiv_pos_as_xyz
  1  'x, y, z'
loop_
 _atom_site_type_symbol
 _atom_site_label
 _atom_site_symmetry_multiplicity
 _atom_site_fract_x
 _atom_site_fract_y
 _atom_site_fract_z
 _atom_site_occupancy
  Gd  Gd0  1  0.000000  0.000000  0.000000  1
  Ag  Ag1  1  0.749999  0.499999  0.250000  1
  Pt  Pt2  1  0.375423  0.750845  0.126267  1
  Pt  Pt3  1  0.873732  0.249156  0.624576  1
  Pt  Pt4  1  0.375423  0.249156  0.624578  1
  Pt  Pt5  1  0.375423  0.750845  0.624578  1
