# generated using pymatgen
data_KCr4(SbO6)2
_symmetry_space_group_name_H-M   'P 1'
_cell_length_a   8.60169243
_cell_length_b   8.60169276
_cell_length_c   8.60169221
_cell_angle_alpha   106.52931945
_cell_angle_beta   106.52932395
_cell_angle_gamma   115.53027139
_symmetry_Int_Tables_number   1
_chemical_formula_structural   KCr4(SbO6)2
_chemical_formula_sum   'K2 Cr8 Sb4 O24'
_cell_volume   485.77312175
_cell_formula_units_Z   2
loop_
 _symmetry_equiv_pos_site_id
 _symmetry_equiv_pos_as_xyz
  1  'x, y, z'
loop_
 _atom_site_type_symbol
 _atom_site_label
 _atom_site_symmetry_multiplicity
 _atom_site_fract_x
 _atom_site_fract_y
 _atom_site_fract_z
 _atom_site_occupancy
  K  K0  1  0.215889  0.215889  0.000000  1
  K  K1  1  0.784111  0.784111  0.000000  1
  Cr  Cr2  1  0.985017  0.501519  0.817469  1
  Cr  Cr3  1  0.684051  0.167549  0.182531  1
  Cr  Cr4  1  0.167549  0.985017  0.483498  1
  Cr  Cr5  1  0.501519  0.684051  0.516502  1
  Cr  Cr6  1  0.014983  0.498481  0.182531  1
  Cr  Cr7  1  0.315949  0.832451  0.817469  1
  Cr  Cr8  1  0.832451  0.014983  0.516502  1
  Cr  Cr9  1  0.498481  0.315949  0.483498  1
  Sb  Sb10  1  0.651608  0.165244  0.816853  1
  Sb  Sb11  1  0.348392  0.834756  0.183147  1
  Sb  Sb12  1  0.834756  0.651608  0.486365  1
  Sb  Sb13  1  0.165244  0.348392  0.513635  1
  O  O14  1  0.846696  0.202528  0.049224  1
  O  O15  1  0.153304  0.797472  0.950776  1
  O  O16  1  0.797472  0.846696  0.644167  1
  O  O17  1  0.202528  0.153304  0.355833  1
  O  O18  1  0.177705  0.538412  0.049637  1
  O  O19  1  0.488775  0.128069  0.950363  1
  O  O20  1  0.128069  0.177705  0.639293  1
  O  O21  1  0.538412  0.488775  0.360707  1
  O  O22  1  0.822295  0.461588  0.950363  1
  O  O23  1  0.511225  0.871931  0.049637  1
  O  O24  1  0.871931  0.822295  0.360707  1
  O  O25  1  0.461588  0.511225  0.639293  1
  O  O26  1  0.456840  0.161421  0.618262  1
  O  O27  1  0.543160  0.838579  0.381738  1
  O  O28  1  0.838579  0.456840  0.295419  1
  O  O29  1  0.161421  0.543160  0.704581  1
  O  O30  1  0.791491  0.498036  0.624303  1
  O  O31  1  0.873733  0.167188  0.375697  1
  O  O32  1  0.167188  0.791491  0.293455  1
  O  O33  1  0.498036  0.873733  0.706545  1
  O  O34  1  0.208509  0.501964  0.375697  1
  O  O35  1  0.126267  0.832812  0.624303  1
  O  O36  1  0.832812  0.208509  0.706545  1
  O  O37  1  0.501964  0.126267  0.293455  1
