# generated using pymatgen
data_La5Tb4NdRu4
_symmetry_space_group_name_H-M   'P 1'
_cell_length_a   8.88779937
_cell_length_b   8.92353833
_cell_length_c   7.31872336
_cell_angle_alpha   84.13264261
_cell_angle_beta   84.06597872
_cell_angle_gamma   43.49702174
_symmetry_Int_Tables_number   1
_chemical_formula_structural   La5Tb4NdRu4
_chemical_formula_sum   'La5 Tb4 Nd1 Ru4'
_cell_volume   397.07990029
_cell_formula_units_Z   1
loop_
 _symmetry_equiv_pos_site_id
 _symmetry_equiv_pos_as_xyz
  1  'x, y, z'
loop_
 _atom_site_type_symbol
 _atom_site_label
 _atom_site_symmetry_multiplicity
 _atom_site_fract_x
 _atom_site_fract_y
 _atom_site_fract_z
 _atom_site_occupancy
  La  La0  1  0.015037  0.796166  0.908573  1
  La  La1  1  0.209420  0.981646  0.592748  1
  La  La2  1  0.979897  0.211389  0.093105  1
  La  La3  1  0.794305  0.015342  0.408229  1
  La  La4  1  0.360531  0.210741  0.816519  1
  Tb  Tb5  1  0.791170  0.636381  0.682633  1
  Tb  Tb6  1  0.640187  0.789635  0.184830  1
  Tb  Tb7  1  0.205344  0.363172  0.318570  1
  Tb  Tb8  1  0.574410  0.429685  0.748747  1
  Nd  Nd9  1  0.423941  0.575125  0.249309  1
  Ru  Ru10  1  0.169196  0.603354  0.585680  1
  Ru  Ru11  1  0.396874  0.826659  0.914355  1
  Ru  Ru12  1  0.833878  0.393130  0.416727  1
  Ru  Ru13  1  0.605809  0.167575  0.079976  1
