# generated using pymatgen
data_Dy6CoP12Ir8Rh9
_symmetry_space_group_name_H-M   'P 1'
_cell_length_a   3.93129900
_cell_length_b   11.16897100
_cell_length_c   12.75164700
_cell_angle_alpha   90.00000000
_cell_angle_beta   90.00000000
_cell_angle_gamma   90.00000000
_symmetry_Int_Tables_number   1
_chemical_formula_structural   Dy6CoP12Ir8Rh9
_chemical_formula_sum   'Dy6 Co1 P12 Ir8 Rh9'
_cell_volume   559.90651508
_cell_formula_units_Z   1
loop_
 _symmetry_equiv_pos_site_id
 _symmetry_equiv_pos_as_xyz
  1  'x, y, z'
loop_
 _atom_site_type_symbol
 _atom_site_label
 _atom_site_symmetry_multiplicity
 _atom_site_fract_x
 _atom_site_fract_y
 _atom_site_fract_z
 _atom_site_occupancy
  Dy  Dy0  1  0.000000  0.500000  0.521729  1
  Dy  Dy1  1  0.500000  0.000000  0.478177  1
  Dy  Dy2  1  0.500000  0.818326  0.203132  1
  Dy  Dy3  1  0.500000  0.181674  0.203132  1
  Dy  Dy4  1  0.000000  0.687772  0.797162  1
  Dy  Dy5  1  0.000000  0.312228  0.797162  1
  Co  Co6  1  0.500000  0.000000  0.021365  1
  P  P7  1  0.500000  0.500000  0.879059  1
  P  P8  1  0.000000  0.000000  0.120148  1
  P  P9  1  0.500000  0.500000  0.353676  1
  P  P10  1  0.000000  0.000000  0.644565  1
  P  P11  1  0.500000  0.314600  0.618929  1
  P  P12  1  0.500000  0.685400  0.618929  1
  P  P13  1  0.000000  0.184055  0.380867  1
  P  P14  1  0.000000  0.815945  0.380867  1
  P  P15  1  0.500000  0.853917  0.895924  1
  P  P16  1  0.500000  0.146083  0.895924  1
  P  P17  1  0.000000  0.656599  0.106064  1
  P  P18  1  0.000000  0.343401  0.106064  1
  Ir  Ir19  1  0.500000  0.500000  0.701018  1
  Ir  Ir20  1  0.000000  0.000000  0.298288  1
  Ir  Ir21  1  0.000000  0.160557  0.005267  1
  Ir  Ir22  1  0.000000  0.839443  0.005267  1
  Ir  Ir23  1  0.000000  0.206656  0.569152  1
  Ir  Ir24  1  0.000000  0.793344  0.569152  1
  Ir  Ir25  1  0.000000  0.628823  0.287124  1
  Ir  Ir26  1  0.000000  0.371177  0.287124  1
  Rh  Rh27  1  0.500000  0.500000  0.173974  1
  Rh  Rh28  1  0.000000  0.000000  0.826463  1
  Rh  Rh29  1  0.000000  0.500000  0.979032  1
  Rh  Rh30  1  0.500000  0.333059  0.995780  1
  Rh  Rh31  1  0.500000  0.666941  0.995780  1
  Rh  Rh32  1  0.500000  0.295638  0.429959  1
  Rh  Rh33  1  0.500000  0.704362  0.429959  1
  Rh  Rh34  1  0.500000  0.872787  0.711897  1
  Rh  Rh35  1  0.500000  0.127213  0.711897  1
