# generated using pymatgen
data_Lu8TcB24MoRu2
_symmetry_space_group_name_H-M   'P 1'
_cell_length_a   3.59505300
_cell_length_b   9.06495954
_cell_length_c   11.43414602
_cell_angle_alpha   89.81595514
_cell_angle_beta   90.00000000
_cell_angle_gamma   90.00000000
_symmetry_Int_Tables_number   1
_chemical_formula_structural   Lu8TcB24MoRu2
_chemical_formula_sum   'Lu8 Tc1 B24 Mo1 Ru2'
_cell_volume   372.62557632
_cell_formula_units_Z   1
loop_
 _symmetry_equiv_pos_site_id
 _symmetry_equiv_pos_as_xyz
  1  'x, y, z'
loop_
 _atom_site_type_symbol
 _atom_site_label
 _atom_site_symmetry_multiplicity
 _atom_site_fract_x
 _atom_site_fract_y
 _atom_site_fract_z
 _atom_site_occupancy
  Lu  Lu0  1  0.000000  0.324204  0.414108  1
  Lu  Lu1  1  0.000000  0.677908  0.583868  1
  Lu  Lu2  1  0.000000  0.820242  0.087650  1
  Lu  Lu3  1  0.000000  0.178617  0.913655  1
  Lu  Lu4  1  0.000000  0.942094  0.370823  1
  Lu  Lu5  1  0.000000  0.054891  0.628162  1
  Lu  Lu6  1  0.000000  0.443260  0.129709  1
  Lu  Lu7  1  0.000000  0.557858  0.872342  1
  Tc  Tc8  1  0.000000  0.639064  0.319093  1
  B  B9  1  0.500000  0.553165  0.432619  1
  B  B10  1  0.500000  0.449321  0.564102  1
  B  B11  1  0.500000  0.053423  0.066432  1
  B  B12  1  0.500000  0.946601  0.934032  1
  B  B13  1  0.500000  0.749413  0.419461  1
  B  B14  1  0.500000  0.248136  0.577669  1
  B  B15  1  0.500000  0.249445  0.080513  1
  B  B16  1  0.500000  0.750743  0.919970  1
  B  B17  1  0.500000  0.792952  0.264746  1
  B  B18  1  0.500000  0.204166  0.736363  1
  B  B19  1  0.500000  0.291651  0.234557  1
  B  B20  1  0.500000  0.708932  0.765911  1
  B  B21  1  0.500000  0.631320  0.183976  1
  B  B22  1  0.500000  0.368801  0.818271  1
  B  B23  1  0.500000  0.130459  0.314802  1
  B  B24  1  0.500000  0.869321  0.685338  1
  B  B25  1  0.500000  0.981758  0.211867  1
  B  B26  1  0.500000  0.017581  0.788168  1
  B  B27  1  0.500000  0.481119  0.287267  1
  B  B28  1  0.500000  0.523160  0.713024  1
  B  B29  1  0.500000  0.602920  0.028717  1
  B  B30  1  0.500000  0.397371  0.972715  1
  B  B31  1  0.500000  0.101978  0.470481  1
  B  B32  1  0.500000  0.896569  0.528553  1
  Mo  Mo33  1  0.000000  0.361552  0.679935  1
  Ru  Ru34  1  0.000000  0.137868  0.178873  1
  Ru  Ru35  1  0.000000  0.862136  0.822226  1
