# generated using pymatgen
data_Y3ErIr3PdO14
_symmetry_space_group_name_H-M   'P 1'
_cell_length_a   7.27078344
_cell_length_b   7.23904399
_cell_length_c   7.27078300
_cell_angle_alpha   59.85485369
_cell_angle_beta   59.99999744
_cell_angle_gamma   59.85484926
_symmetry_Int_Tables_number   1
_chemical_formula_structural   Y3ErIr3PdO14
_chemical_formula_sum   'Y3 Er1 Ir3 Pd1 O14'
_cell_volume   270.00530857
_cell_formula_units_Z   1
loop_
 _symmetry_equiv_pos_site_id
 _symmetry_equiv_pos_as_xyz
  1  'x, y, z'
loop_
 _atom_site_type_symbol
 _atom_site_label
 _atom_site_symmetry_multiplicity
 _atom_site_fract_x
 _atom_site_fract_y
 _atom_site_fract_z
 _atom_site_occupancy
  Y  Y0  1  0.625000  0.125000  0.125000  1
  Y  Y1  1  0.125000  0.125000  0.625000  1
  Y  Y2  1  0.125000  0.125000  0.125000  1
  Er  Er3  1  0.125000  0.625000  0.125000  1
  Ir  Ir4  1  0.125000  0.625000  0.625000  1
  Ir  Ir5  1  0.625000  0.625000  0.125000  1
  Ir  Ir6  1  0.625000  0.625000  0.625000  1
  Pd  Pd7  1  0.625000  0.125000  0.625000  1
  O  O8  1  0.718197  0.704166  0.288818  1
  O  O9  1  0.279837  0.287841  0.716162  1
  O  O10  1  0.716162  0.287841  0.716162  1
  O  O11  1  0.288818  0.704166  0.288818  1
  O  O12  1  0.288818  0.704166  0.718197  1
  O  O13  1  0.716162  0.287841  0.279837  1
  O  O14  1  0.531803  0.545834  0.961182  1
  O  O15  1  0.970163  0.962159  0.533838  1
  O  O16  1  0.533838  0.962159  0.533838  1
  O  O17  1  0.961182  0.545834  0.961182  1
  O  O18  1  0.961182  0.545834  0.531803  1
  O  O19  1  0.533838  0.962159  0.970163  1
  O  O20  1  0.248717  0.253849  0.248717  1
  O  O21  1  0.001283  0.996151  0.001283  1
