# generated using pymatgen
data_Er8V11Si16W
_symmetry_space_group_name_H-M   'P 1'
_cell_length_a   6.65446009
_cell_length_b   6.85144499
_cell_length_c   12.85786600
_cell_angle_alpha   90.00000000
_cell_angle_beta   90.00000000
_cell_angle_gamma   90.04384300
_symmetry_Int_Tables_number   1
_chemical_formula_structural   Er8V11Si16W
_chemical_formula_sum   'Er8 V11 Si16 W1'
_cell_volume   586.22423465
_cell_formula_units_Z   1
loop_
 _symmetry_equiv_pos_site_id
 _symmetry_equiv_pos_as_xyz
  1  'x, y, z'
loop_
 _atom_site_type_symbol
 _atom_site_label
 _atom_site_symmetry_multiplicity
 _atom_site_fract_x
 _atom_site_fract_y
 _atom_site_fract_z
 _atom_site_occupancy
  Er  Er0  1  0.499018  0.331032  0.094829  1
  Er  Er1  1  0.998629  0.169159  0.405142  1
  Er  Er2  1  0.500465  0.669292  0.596006  1
  Er  Er3  1  0.000672  0.831519  0.904082  1
  Er  Er4  1  0.500465  0.669292  0.903994  1
  Er  Er5  1  0.000672  0.831519  0.595918  1
  Er  Er6  1  0.499018  0.331032  0.405171  1
  Er  Er7  1  0.998629  0.169159  0.094858  1
  V  V8  1  0.837442  0.327210  0.626565  1
  V  V9  1  0.337026  0.173158  0.873541  1
  V  V10  1  0.162808  0.670597  0.126505  1
  V  V11  1  0.662504  0.828070  0.373441  1
  V  V12  1  0.162808  0.670597  0.373495  1
  V  V13  1  0.662504  0.828070  0.126559  1
  V  V14  1  0.837442  0.327210  0.873435  1
  V  V15  1  0.337026  0.173158  0.626459  1
  V  V16  1  0.665286  0.013795  0.750000  1
  V  V17  1  0.165288  0.486203  0.750000  1
  V  V18  1  0.335491  0.986117  0.250000  1
  Si  Si19  1  0.660391  0.043020  0.544682  1
  Si  Si20  1  0.161114  0.457226  0.955413  1
  Si  Si21  1  0.339051  0.956631  0.043894  1
  Si  Si22  1  0.838744  0.543959  0.457492  1
  Si  Si23  1  0.339051  0.956631  0.456106  1
  Si  Si24  1  0.838744  0.543959  0.042508  1
  Si  Si25  1  0.660391  0.043020  0.955318  1
  Si  Si26  1  0.161114  0.457226  0.544587  1
  Si  Si27  1  0.539908  0.366188  0.750000  1
  Si  Si28  1  0.039451  0.133493  0.750000  1
  Si  Si29  1  0.458468  0.633912  0.250000  1
  Si  Si30  1  0.962800  0.870328  0.250000  1
  Si  Si31  1  0.804683  0.617533  0.750000  1
  Si  Si32  1  0.304546  0.882888  0.750000  1
  Si  Si33  1  0.198842  0.377047  0.250000  1
  Si  Si34  1  0.694859  0.119462  0.250000  1
  W  W35  1  0.834652  0.511288  0.250000  1
