# generated using pymatgen
data_Sr5AgBi3
_symmetry_space_group_name_H-M   'P 1'
_cell_length_a   9.92157100
_cell_length_b   9.92157029
_cell_length_c   7.64145900
_cell_angle_alpha   90.00000000
_cell_angle_beta   90.00000000
_cell_angle_gamma   119.99999903
_symmetry_Int_Tables_number   1
_chemical_formula_structural   Sr5AgBi3
_chemical_formula_sum   'Sr10 Ag2 Bi6'
_cell_volume   651.43003935
_cell_formula_units_Z   2
loop_
 _symmetry_equiv_pos_site_id
 _symmetry_equiv_pos_as_xyz
  1  'x, y, z'
loop_
 _atom_site_type_symbol
 _atom_site_label
 _atom_site_symmetry_multiplicity
 _atom_site_fract_x
 _atom_site_fract_y
 _atom_site_fract_z
 _atom_site_occupancy
  Sr  Sr0  1  0.738194  0.738194  0.750000  1
  Sr  Sr1  1  0.261806  0.000000  0.750000  1
  Sr  Sr2  1  0.000000  0.261806  0.750000  1
  Sr  Sr3  1  0.261806  0.261806  0.250000  1
  Sr  Sr4  1  0.738194  0.000000  0.250000  1
  Sr  Sr5  1  0.000000  0.738194  0.250000  1
  Sr  Sr6  1  0.666667  0.333333  0.000000  1
  Sr  Sr7  1  0.333333  0.666667  0.000000  1
  Sr  Sr8  1  0.333333  0.666667  0.500000  1
  Sr  Sr9  1  0.666667  0.333333  0.500000  1
  Ag  Ag10  1  0.000000  0.000000  0.000000  1
  Ag  Ag11  1  0.000000  0.000000  0.500000  1
  Bi  Bi12  1  0.388320  0.388320  0.750000  1
  Bi  Bi13  1  0.611680  0.000000  0.750000  1
  Bi  Bi14  1  0.000000  0.611680  0.750000  1
  Bi  Bi15  1  0.611680  0.611680  0.250000  1
  Bi  Bi16  1  0.388320  0.000000  0.250000  1
  Bi  Bi17  1  0.000000  0.388320  0.250000  1
