# generated using pymatgen
data_Dy13Y3TlIn5Co2
_symmetry_space_group_name_H-M   'P 1'
_cell_length_a   10.36545508
_cell_length_b   10.36545586
_cell_length_c   7.02888400
_cell_angle_alpha   89.99694555
_cell_angle_beta   90.00304976
_cell_angle_gamma   120.01380817
_symmetry_Int_Tables_number   1
_chemical_formula_structural   Dy13Y3TlIn5Co2
_chemical_formula_sum   'Dy13 Y3 Tl1 In5 Co2'
_cell_volume   653.93313351
_cell_formula_units_Z   1
loop_
 _symmetry_equiv_pos_site_id
 _symmetry_equiv_pos_as_xyz
  1  'x, y, z'
loop_
 _atom_site_type_symbol
 _atom_site_label
 _atom_site_symmetry_multiplicity
 _atom_site_fract_x
 _atom_site_fract_y
 _atom_site_fract_z
 _atom_site_occupancy
  Dy  Dy0  1  0.463995  0.536005  0.482842  1
  Dy  Dy1  1  0.072038  0.535998  0.482905  1
  Dy  Dy2  1  0.464002  0.927962  0.482905  1
  Dy  Dy3  1  0.535697  0.464303  0.983347  1
  Dy  Dy4  1  0.928444  0.464078  0.983192  1
  Dy  Dy5  1  0.535922  0.071556  0.983192  1
  Dy  Dy6  1  0.821824  0.178176  0.275957  1
  Dy  Dy7  1  0.356306  0.178149  0.276020  1
  Dy  Dy8  1  0.821851  0.643695  0.276020  1
  Dy  Dy9  1  0.178204  0.821796  0.776156  1
  Dy  Dy10  1  0.643618  0.821794  0.775848  1
  Dy  Dy11  1  0.178206  0.356382  0.775848  1
  Dy  Dy12  1  0.333369  0.666631  0.091347  1
  Y  Y13  1  0.666667  0.333333  0.592796  1
  Y  Y14  1  0.999904  0.000096  0.495270  1
  Y  Y15  1  0.999913  0.000087  0.995230  1
  Tl  Tl16  1  0.163066  0.836934  0.233991  1
  In  In17  1  0.673975  0.836982  0.234154  1
  In  In18  1  0.163018  0.326025  0.234153  1
  In  In19  1  0.837044  0.162956  0.734075  1
  In  In20  1  0.325940  0.162967  0.734031  1
  In  In21  1  0.837033  0.674060  0.734031  1
  Co  Co22  1  0.333298  0.666702  0.707093  1
  Co  Co23  1  0.666666  0.333334  0.204151  1
