# generated using pymatgen
data_DyEr11GaCo5
_symmetry_space_group_name_H-M   'P 1'
_cell_length_a   8.14898179
_cell_length_b   8.14896053
_cell_length_c   8.14728704
_cell_angle_alpha   110.79888522
_cell_angle_beta   110.78404729
_cell_angle_gamma   106.87169127
_symmetry_Int_Tables_number   1
_chemical_formula_structural   DyEr11GaCo5
_chemical_formula_sum   'Dy1 Er11 Ga1 Co5'
_cell_volume   415.78996726
_cell_formula_units_Z   1
loop_
 _symmetry_equiv_pos_site_id
 _symmetry_equiv_pos_as_xyz
  1  'x, y, z'
loop_
 _atom_site_type_symbol
 _atom_site_label
 _atom_site_symmetry_multiplicity
 _atom_site_fract_x
 _atom_site_fract_y
 _atom_site_fract_z
 _atom_site_occupancy
  Dy  Dy0  1  0.288659  0.185915  0.474596  1
  Er  Er1  1  0.711350  0.814143  0.525517  1
  Er  Er2  1  0.288613  0.813906  0.102468  1
  Er  Er3  1  0.711507  0.185863  0.897360  1
  Er  Er4  1  0.618715  0.316027  0.302586  1
  Er  Er5  1  0.381410  0.684263  0.697463  1
  Er  Er6  1  0.013220  0.316068  0.697474  1
  Er  Er7  1  0.986558  0.683871  0.302583  1
  Er  Er8  1  0.215946  0.407527  0.191241  1
  Er  Er9  1  0.784254  0.592790  0.808742  1
  Er  Er10  1  0.215954  0.024491  0.808742  1
  Er  Er11  1  0.783703  0.975294  0.191225  1
  Ga  Ga12  1  0.499999  0.500028  0.000040  1
  Co  Co13  1  0.999868  0.375806  0.375675  1
  Co  Co14  1  0.000008  0.624275  0.624289  1
  Co  Co15  1  0.386337  0.886055  0.500085  1
  Co  Co16  1  0.614017  0.113734  0.500083  1
  Co  Co17  1  0.999881  0.999945  0.999833  1
