# generated using pymatgen
data_TbDy3Zn3Ru5
_symmetry_space_group_name_H-M   'P 1'
_cell_length_a   5.31534364
_cell_length_b   5.33851285
_cell_length_c   9.29076361
_cell_angle_alpha   73.30349031
_cell_angle_beta   91.88968933
_cell_angle_gamma   120.14428357
_symmetry_Int_Tables_number   1
_chemical_formula_structural   TbDy3Zn3Ru5
_chemical_formula_sum   'Tb1 Dy3 Zn3 Ru5'
_cell_volume   216.38977180
_cell_formula_units_Z   1
loop_
 _symmetry_equiv_pos_site_id
 _symmetry_equiv_pos_as_xyz
  1  'x, y, z'
loop_
 _atom_site_type_symbol
 _atom_site_label
 _atom_site_symmetry_multiplicity
 _atom_site_fract_x
 _atom_site_fract_y
 _atom_site_fract_z
 _atom_site_occupancy
  Tb  Tb0  1  0.875282  0.749837  0.375608  1
  Dy  Dy1  1  0.381577  0.755047  0.871484  1
  Dy  Dy2  1  0.993479  0.995023  0.003435  1
  Dy  Dy3  1  0.499736  0.000106  0.499524  1
  Zn  Zn4  1  0.687437  0.374985  0.937469  1
  Zn  Zn5  1  0.938515  0.374984  0.188548  1
  Zn  Zn6  1  0.436409  0.374981  0.686445  1
  Ru  Ru7  1  0.436240  0.372293  0.184196  1
  Ru  Ru8  1  0.938725  0.377610  0.690735  1
  Ru  Ru9  1  0.436240  0.879752  0.184196  1
  Ru  Ru10  1  0.938725  0.870377  0.690735  1
  Ru  Ru11  1  0.187634  0.375005  0.437623  1
