# generated using pymatgen
data_Cs6K2SnAs4
_symmetry_space_group_name_H-M   'P 1'
_cell_length_a   11.75276743
_cell_length_b   11.75276812
_cell_length_c   11.75276700
_cell_angle_alpha   60.00000035
_cell_angle_beta   59.99999841
_cell_angle_gamma   59.99999926
_symmetry_Int_Tables_number   1
_chemical_formula_structural   Cs6K2SnAs4
_chemical_formula_sum   'Cs12 K4 Sn2 As8'
_cell_volume   1147.90363770
_cell_formula_units_Z   2
loop_
 _symmetry_equiv_pos_site_id
 _symmetry_equiv_pos_as_xyz
  1  'x, y, z'
loop_
 _atom_site_type_symbol
 _atom_site_label
 _atom_site_symmetry_multiplicity
 _atom_site_fract_x
 _atom_site_fract_y
 _atom_site_fract_z
 _atom_site_occupancy
  Cs  Cs0  1  0.023420  0.023420  0.476580  1
  Cs  Cs1  1  0.773420  0.226580  0.226580  1
  Cs  Cs2  1  0.226580  0.773420  0.773420  1
  Cs  Cs3  1  0.773420  0.773420  0.226580  1
  Cs  Cs4  1  0.773420  0.226580  0.773420  1
  Cs  Cs5  1  0.226580  0.773420  0.226580  1
  Cs  Cs6  1  0.476580  0.023420  0.476580  1
  Cs  Cs7  1  0.476580  0.023420  0.023420  1
  Cs  Cs8  1  0.023420  0.476580  0.476580  1
  Cs  Cs9  1  0.023420  0.476580  0.023420  1
  Cs  Cs10  1  0.226580  0.226580  0.773420  1
  Cs  Cs11  1  0.476580  0.476580  0.023420  1
  K  K12  1  0.625000  0.125000  0.625000  1
  K  K13  1  0.625000  0.625000  0.125000  1
  K  K14  1  0.125000  0.625000  0.625000  1
  K  K15  1  0.625000  0.625000  0.625000  1
  Sn  Sn16  1  0.750000  0.750000  0.750000  1
  Sn  Sn17  1  0.500000  0.500000  0.500000  1
  As  As18  1  0.404575  0.786273  0.404575  1
  As  As19  1  0.845425  0.845425  0.463727  1
  As  As20  1  0.463727  0.845425  0.845425  1
  As  As21  1  0.845425  0.845425  0.845425  1
  As  As22  1  0.786273  0.404575  0.404575  1
  As  As23  1  0.404575  0.404575  0.404575  1
  As  As24  1  0.404575  0.404575  0.786273  1
  As  As25  1  0.845425  0.463727  0.845425  1
