# generated using pymatgen
data_DyY4Lu15(Cd3Ru)2
_symmetry_space_group_name_H-M   'P 1'
_cell_length_a   9.45511400
_cell_length_b   9.45490116
_cell_length_c   9.66961300
_cell_angle_alpha   90.00000000
_cell_angle_beta   90.00000000
_cell_angle_gamma   119.91667739
_symmetry_Int_Tables_number   1
_chemical_formula_structural   DyY4Lu15(Cd3Ru)2
_chemical_formula_sum   'Dy1 Y4 Lu15 Cd6 Ru2'
_cell_volume   749.25131738
_cell_formula_units_Z   1
loop_
 _symmetry_equiv_pos_site_id
 _symmetry_equiv_pos_as_xyz
  1  'x, y, z'
loop_
 _atom_site_type_symbol
 _atom_site_label
 _atom_site_symmetry_multiplicity
 _atom_site_fract_x
 _atom_site_fract_y
 _atom_site_fract_z
 _atom_site_occupancy
  Dy  Dy0  1  0.460028  0.539978  0.750000  1
  Y  Y1  1  0.540150  0.080975  0.250000  1
  Y  Y2  1  0.918979  0.459846  0.250000  1
  Y  Y3  1  0.459943  0.920139  0.750000  1
  Y  Y4  1  0.079859  0.540058  0.750000  1
  Lu  Lu5  1  0.000167  0.999839  0.499976  1
  Lu  Lu6  1  0.000167  0.999839  0.000024  1
  Lu  Lu7  1  0.210172  0.789817  0.440017  1
  Lu  Lu8  1  0.211084  0.420102  0.439709  1
  Lu  Lu9  1  0.579914  0.788924  0.439708  1
  Lu  Lu10  1  0.789927  0.210070  0.559767  1
  Lu  Lu11  1  0.788939  0.579540  0.559200  1
  Lu  Lu12  1  0.420463  0.211061  0.559196  1
  Lu  Lu13  1  0.789927  0.210070  0.940233  1
  Lu  Lu14  1  0.788939  0.579540  0.940800  1
  Lu  Lu15  1  0.420463  0.211061  0.940804  1
  Lu  Lu16  1  0.210172  0.789817  0.059983  1
  Lu  Lu17  1  0.211084  0.420102  0.060291  1
  Lu  Lu18  1  0.579914  0.788924  0.060292  1
  Lu  Lu19  1  0.539484  0.460535  0.250000  1
  Cd  Cd20  1  0.886161  0.113773  0.250000  1
  Cd  Cd21  1  0.884284  0.771185  0.250000  1
  Cd  Cd22  1  0.228793  0.115677  0.250000  1
  Cd  Cd23  1  0.113629  0.886432  0.750000  1
  Cd  Cd24  1  0.114068  0.227163  0.750000  1
  Cd  Cd25  1  0.772887  0.886003  0.750000  1
  Ru  Ru26  1  0.333703  0.666273  0.250000  1
  Ru  Ru27  1  0.666706  0.333257  0.750000  1
