# generated using pymatgen
data_SrPrAl3O7
_symmetry_space_group_name_H-M   'P 1'
_cell_length_a   7.93697196
_cell_length_b   7.93697302
_cell_length_c   5.26553700
_cell_angle_alpha   90.00000000
_cell_angle_beta   90.00000000
_cell_angle_gamma   89.89970978
_symmetry_Int_Tables_number   1
_chemical_formula_structural   SrPrAl3O7
_chemical_formula_sum   'Sr2 Pr2 Al6 O14'
_cell_volume   331.70479818
_cell_formula_units_Z   2
loop_
 _symmetry_equiv_pos_site_id
 _symmetry_equiv_pos_as_xyz
  1  'x, y, z'
loop_
 _atom_site_type_symbol
 _atom_site_label
 _atom_site_symmetry_multiplicity
 _atom_site_fract_x
 _atom_site_fract_y
 _atom_site_fract_z
 _atom_site_occupancy
  Sr  Sr0  1  0.161013  0.838987  0.489583  1
  Sr  Sr1  1  0.838987  0.161013  0.489583  1
  Pr  Pr2  1  0.662427  0.662427  0.513255  1
  Pr  Pr3  1  0.337573  0.337573  0.513255  1
  Al  Al4  1  0.357939  0.642061  0.039227  1
  Al  Al5  1  0.855279  0.855279  0.962037  1
  Al  Al6  1  0.642061  0.357939  0.039227  1
  Al  Al7  1  0.144721  0.144721  0.962037  1
  Al  Al8  1  0.500000  0.000000  0.998222  1
  Al  Al9  1  0.000000  0.500000  0.998222  1
  O  O10  1  0.000000  0.000000  0.838478  1
  O  O11  1  0.500000  0.500000  0.190443  1
  O  O12  1  0.416530  0.834829  0.186364  1
  O  O13  1  0.907750  0.661100  0.805760  1
  O  O14  1  0.583470  0.165171  0.186364  1
  O  O15  1  0.092250  0.338900  0.805760  1
  O  O16  1  0.338900  0.092250  0.805760  1
  O  O17  1  0.834829  0.416530  0.186364  1
  O  O18  1  0.661100  0.907750  0.805760  1
  O  O19  1  0.165171  0.583470  0.186364  1
  O  O20  1  0.368272  0.631728  0.706351  1
  O  O21  1  0.847138  0.847138  0.292618  1
  O  O22  1  0.631728  0.368272  0.706351  1
  O  O23  1  0.152862  0.152862  0.292618  1
