# generated using pymatgen
data_Ca2TbEr(NiB4)4
_symmetry_space_group_name_H-M   'P 1'
_cell_length_a   6.83267738
_cell_length_b   6.83267739
_cell_length_c   6.83267208
_cell_angle_alpha   112.89694146
_cell_angle_beta   112.89032467
_cell_angle_gamma   102.82397355
_symmetry_Int_Tables_number   1
_chemical_formula_structural   Ca2TbEr(NiB4)4
_chemical_formula_sum   'Ca2 Tb1 Er1 Ni4 B16'
_cell_volume   243.11693664
_cell_formula_units_Z   1
loop_
 _symmetry_equiv_pos_site_id
 _symmetry_equiv_pos_as_xyz
  1  'x, y, z'
loop_
 _atom_site_type_symbol
 _atom_site_label
 _atom_site_symmetry_multiplicity
 _atom_site_fract_x
 _atom_site_fract_y
 _atom_site_fract_z
 _atom_site_occupancy
  Ca  Ca0  1  0.202707  0.202708  0.000000  1
  Ca  Ca1  1  0.797292  0.797293  0.000000  1
  Tb  Tb2  1  0.249991  0.749990  0.499999  1
  Er  Er3  1  0.750013  0.250012  0.500000  1
  Ni  Ni4  1  0.500267  0.272535  0.772258  1
  Ni  Ni5  1  0.500271  0.728018  0.227743  1
  Ni  Ni6  1  0.727470  0.499727  0.227743  1
  Ni  Ni7  1  0.271990  0.499726  0.772260  1
  B  B8  1  0.112523  0.277090  0.389116  1
  B  B9  1  0.887976  0.723409  0.610886  1
  B  B10  1  0.887976  0.277089  0.164567  1
  B  B11  1  0.112524  0.723408  0.835434  1
  B  B12  1  0.722915  0.887479  0.610893  1
  B  B13  1  0.276586  0.112019  0.389104  1
  B  B14  1  0.722915  0.112020  0.835434  1
  B  B15  1  0.276586  0.887480  0.164566  1
  B  B16  1  0.417482  0.416269  0.529895  1
  B  B17  1  0.886375  0.887588  0.470103  1
  B  B18  1  0.583731  0.113625  0.001217  1
  B  B19  1  0.112410  0.582516  0.998783  1
  B  B20  1  0.583731  0.582514  0.470103  1
  B  B21  1  0.112409  0.113626  0.529895  1
  B  B22  1  0.886377  0.416271  0.998787  1
  B  B23  1  0.417482  0.887587  0.001213  1
