# generated using pymatgen
data_SrFe2(CoP6)2
_symmetry_space_group_name_H-M   'P 1'
_cell_length_a   6.77116476
_cell_length_b   6.77116497
_cell_length_c   6.76326501
_cell_angle_alpha   109.47298593
_cell_angle_beta   109.48376780
_cell_angle_gamma   109.50419997
_symmetry_Int_Tables_number   1
_chemical_formula_structural   SrFe2(CoP6)2
_chemical_formula_sum   'Sr1 Fe2 Co2 P12'
_cell_volume   238.56544213
_cell_formula_units_Z   1
loop_
 _symmetry_equiv_pos_site_id
 _symmetry_equiv_pos_as_xyz
  1  'x, y, z'
loop_
 _atom_site_type_symbol
 _atom_site_label
 _atom_site_symmetry_multiplicity
 _atom_site_fract_x
 _atom_site_fract_y
 _atom_site_fract_z
 _atom_site_occupancy
  Sr  Sr0  1  0.000000  0.000000  0.000000  1
  Fe  Fe1  1  0.000000  0.000000  0.500000  1
  Fe  Fe2  1  0.500000  0.500000  0.500000  1
  Co  Co3  1  0.500000  0.000000  0.000000  1
  Co  Co4  1  0.000000  0.500000  0.000000  1
  P  P5  1  0.497462  0.847745  0.645013  1
  P  P6  1  0.202733  0.852449  0.354987  1
  P  P7  1  0.797267  0.147551  0.645013  1
  P  P8  1  0.150810  0.351633  0.502443  1
  P  P9  1  0.354583  0.502424  0.151754  1
  P  P10  1  0.502538  0.152255  0.354987  1
  P  P11  1  0.149147  0.646524  0.795669  1
  P  P12  1  0.350669  0.202829  0.848246  1
  P  P13  1  0.849190  0.648367  0.497557  1
  P  P14  1  0.649331  0.797171  0.151754  1
  P  P15  1  0.850853  0.353476  0.204331  1
  P  P16  1  0.645417  0.497576  0.848246  1
