# generated using pymatgen
data_Hf2Zr2Fe3Si4Rh
_symmetry_space_group_name_H-M   'P 1'
_cell_length_a   3.95795800
_cell_length_b   6.42415749
_cell_length_c   7.11780826
_cell_angle_alpha   90.57522533
_cell_angle_beta   90.00000000
_cell_angle_gamma   90.00000000
_symmetry_Int_Tables_number   1
_chemical_formula_structural   Hf2Zr2Fe3Si4Rh
_chemical_formula_sum   'Hf2 Zr2 Fe3 Si4 Rh1'
_cell_volume   180.97215516
_cell_formula_units_Z   1
loop_
 _symmetry_equiv_pos_site_id
 _symmetry_equiv_pos_as_xyz
  1  'x, y, z'
loop_
 _atom_site_type_symbol
 _atom_site_label
 _atom_site_symmetry_multiplicity
 _atom_site_fract_x
 _atom_site_fract_y
 _atom_site_fract_z
 _atom_site_occupancy
  Hf  Hf0  1  0.250000  0.494527  0.194057  1
  Hf  Hf1  1  0.250000  0.005774  0.296686  1
  Zr  Zr2  1  0.750000  0.492757  0.812905  1
  Zr  Zr3  1  0.750000  0.999461  0.700225  1
  Fe  Fe4  1  0.750000  0.848948  0.068691  1
  Fe  Fe5  1  0.250000  0.156231  0.936467  1
  Fe  Fe6  1  0.750000  0.348128  0.429605  1
  Si  Si7  1  0.250000  0.789868  0.905700  1
  Si  Si8  1  0.750000  0.211009  0.109529  1
  Si  Si9  1  0.250000  0.281034  0.603911  1
  Si  Si10  1  0.750000  0.714185  0.377290  1
  Rh  Rh11  1  0.250000  0.658077  0.564935  1
