# generated using pymatgen
data_ErTmLu14(Ga3Co)2
_symmetry_space_group_name_H-M   'P 1'
_cell_length_a   9.79685300
_cell_length_b   9.79685325
_cell_length_c   6.78465300
_cell_angle_alpha   90.00000000
_cell_angle_beta   90.00000000
_cell_angle_gamma   120.00000928
_symmetry_Int_Tables_number   1
_chemical_formula_structural   ErTmLu14(Ga3Co)2
_chemical_formula_sum   'Er1 Tm1 Lu14 Ga6 Co2'
_cell_volume   563.93808610
_cell_formula_units_Z   1
loop_
 _symmetry_equiv_pos_site_id
 _symmetry_equiv_pos_as_xyz
  1  'x, y, z'
loop_
 _atom_site_type_symbol
 _atom_site_label
 _atom_site_symmetry_multiplicity
 _atom_site_fract_x
 _atom_site_fract_y
 _atom_site_fract_z
 _atom_site_occupancy
  Er  Er0  1  0.000000  0.000000  0.268256  1
  Tm  Tm1  1  0.000000  0.000000  0.768108  1
  Lu  Lu2  1  0.173877  0.826123  0.989700  1
  Lu  Lu3  1  0.347752  0.173876  0.489889  1
  Lu  Lu4  1  0.826124  0.652248  0.489889  1
  Lu  Lu5  1  0.173877  0.347755  0.989700  1
  Lu  Lu6  1  0.652245  0.826123  0.989700  1
  Lu  Lu7  1  0.826124  0.173876  0.489889  1
  Lu  Lu8  1  0.333333  0.666667  0.671738  1
  Lu  Lu9  1  0.666667  0.333333  0.171636  1
  Lu  Lu10  1  0.464085  0.535915  0.292290  1
  Lu  Lu11  1  0.928181  0.464091  0.792283  1
  Lu  Lu12  1  0.535909  0.071819  0.792283  1
  Lu  Lu13  1  0.464085  0.928168  0.292290  1
  Lu  Lu14  1  0.071832  0.535915  0.292290  1
  Lu  Lu15  1  0.535909  0.464091  0.792283  1
  Ga  Ga16  1  0.163483  0.836517  0.539745  1
  Ga  Ga17  1  0.326983  0.163492  0.039529  1
  Ga  Ga18  1  0.836508  0.673017  0.039529  1
  Ga  Ga19  1  0.163483  0.326966  0.539745  1
  Ga  Ga20  1  0.673034  0.836517  0.539745  1
  Ga  Ga21  1  0.836508  0.163492  0.039529  1
  Co  Co22  1  0.333333  0.666667  0.057053  1
  Co  Co23  1  0.666667  0.333333  0.556915  1
