# generated using pymatgen
data_Dy4ErCo2
_symmetry_space_group_name_H-M   'P 1'
_cell_length_a   6.27448116
_cell_length_b   6.89189315
_cell_length_c   8.54906090
_cell_angle_alpha   96.22931771
_cell_angle_beta   111.52880483
_cell_angle_gamma   89.99999581
_symmetry_Int_Tables_number   1
_chemical_formula_structural   Dy4ErCo2
_chemical_formula_sum   'Dy8 Er2 Co4'
_cell_volume   341.54799884
_cell_formula_units_Z   2
loop_
 _symmetry_equiv_pos_site_id
 _symmetry_equiv_pos_as_xyz
  1  'x, y, z'
loop_
 _atom_site_type_symbol
 _atom_site_label
 _atom_site_symmetry_multiplicity
 _atom_site_fract_x
 _atom_site_fract_y
 _atom_site_fract_z
 _atom_site_occupancy
  Dy  Dy0  1  0.795664  0.587565  0.811943  1
  Dy  Dy1  1  0.983722  0.912435  0.188057  1
  Dy  Dy2  1  0.204336  0.412435  0.188057  1
  Dy  Dy3  1  0.016278  0.087565  0.811943  1
  Dy  Dy4  1  0.215826  0.685195  0.568394  1
  Dy  Dy5  1  0.647431  0.814805  0.431606  1
  Dy  Dy6  1  0.784174  0.314805  0.431606  1
  Dy  Dy7  1  0.352569  0.185195  0.568394  1
  Er  Er8  1  0.429376  0.750000  0.000000  1
  Er  Er9  1  0.570624  0.250000  0.000000  1
  Co  Co10  1  0.600839  0.929106  0.779914  1
  Co  Co11  1  0.820923  0.570894  0.220086  1
  Co  Co12  1  0.399161  0.070894  0.220086  1
  Co  Co13  1  0.179077  0.429106  0.779914  1
