# generated using pymatgen
data_YErSb5
_symmetry_space_group_name_H-M   'P 1'
_cell_length_a   4.21112500
_cell_length_b   13.21123466
_cell_length_c   14.61087222
_cell_angle_alpha   78.36131984
_cell_angle_beta   90.00000000
_cell_angle_gamma   90.00000000
_symmetry_Int_Tables_number   1
_chemical_formula_structural   YErSb5
_chemical_formula_sum   'Y4 Er4 Sb20'
_cell_volume   796.15054939
_cell_formula_units_Z   4
loop_
 _symmetry_equiv_pos_site_id
 _symmetry_equiv_pos_as_xyz
  1  'x, y, z'
loop_
 _atom_site_type_symbol
 _atom_site_label
 _atom_site_symmetry_multiplicity
 _atom_site_fract_x
 _atom_site_fract_y
 _atom_site_fract_z
 _atom_site_occupancy
  Y  Y0  1  0.250000  0.670291  0.575814  1
  Y  Y1  1  0.750000  0.329709  0.424186  1
  Y  Y2  1  0.250000  0.953308  0.357147  1
  Y  Y3  1  0.750000  0.046692  0.642853  1
  Er  Er4  1  0.250000  0.396004  0.771401  1
  Er  Er5  1  0.750000  0.603996  0.228599  1
  Er  Er6  1  0.250000  0.661284  0.856974  1
  Er  Er7  1  0.750000  0.338716  0.143026  1
  Sb  Sb8  1  0.250000  0.145829  0.780501  1
  Sb  Sb9  1  0.750000  0.854171  0.219499  1
  Sb  Sb10  1  0.250000  0.141380  0.481219  1
  Sb  Sb11  1  0.750000  0.858620  0.518781  1
  Sb  Sb12  1  0.250000  0.153526  0.167282  1
  Sb  Sb13  1  0.750000  0.846474  0.832718  1
  Sb  Sb14  1  0.250000  0.421025  0.975784  1
  Sb  Sb15  1  0.750000  0.578975  0.024216  1
  Sb  Sb16  1  0.750000  0.029676  0.911448  1
  Sb  Sb17  1  0.250000  0.970324  0.088552  1
  Sb  Sb18  1  0.750000  0.139977  0.318689  1
  Sb  Sb19  1  0.250000  0.860023  0.681311  1
  Sb  Sb20  1  0.750000  0.280520  0.936627  1
  Sb  Sb21  1  0.250000  0.719480  0.063373  1
  Sb  Sb22  1  0.750000  0.285881  0.654270  1
  Sb  Sb23  1  0.250000  0.714119  0.345730  1
  Sb  Sb24  1  0.750000  0.576538  0.735781  1
  Sb  Sb25  1  0.250000  0.423462  0.264219  1
  Sb  Sb26  1  0.750000  0.571833  0.446436  1
  Sb  Sb27  1  0.250000  0.428167  0.553564  1
