# generated using pymatgen
data_PrNdZn5Sn
_symmetry_space_group_name_H-M   'P 1'
_cell_length_a   8.57808904
_cell_length_b   8.57808936
_cell_length_c   9.09963400
_cell_angle_alpha   90.00000000
_cell_angle_beta   90.00000000
_cell_angle_gamma   149.62228315
_symmetry_Int_Tables_number   1
_chemical_formula_structural   PrNdZn5Sn
_chemical_formula_sum   'Pr2 Nd2 Zn10 Sn2'
_cell_volume   338.60745731
_cell_formula_units_Z   2
loop_
 _symmetry_equiv_pos_site_id
 _symmetry_equiv_pos_as_xyz
  1  'x, y, z'
loop_
 _atom_site_type_symbol
 _atom_site_label
 _atom_site_symmetry_multiplicity
 _atom_site_fract_x
 _atom_site_fract_y
 _atom_site_fract_z
 _atom_site_occupancy
  Pr  Pr0  1  0.000000  0.000000  0.500000  1
  Pr  Pr1  1  0.000000  0.000000  0.000000  1
  Nd  Nd2  1  0.205428  0.794572  0.250000  1
  Nd  Nd3  1  0.794572  0.205428  0.750000  1
  Zn  Zn4  1  0.813983  0.186017  0.391308  1
  Zn  Zn5  1  0.186017  0.813983  0.608692  1
  Zn  Zn6  1  0.813983  0.186017  0.108692  1
  Zn  Zn7  1  0.186017  0.813983  0.891308  1
  Zn  Zn8  1  0.656463  0.343537  0.483647  1
  Zn  Zn9  1  0.343537  0.656463  0.516353  1
  Zn  Zn10  1  0.656463  0.343537  0.016353  1
  Zn  Zn11  1  0.343537  0.656463  0.983647  1
  Zn  Zn12  1  0.395496  0.604504  0.250000  1
  Zn  Zn13  1  0.604504  0.395496  0.750000  1
  Sn  Sn14  1  0.556012  0.443988  0.250000  1
  Sn  Sn15  1  0.443988  0.556012  0.750000  1
