# generated using pymatgen
data_Ho4CoNi7(PRu)12
_symmetry_space_group_name_H-M   'P 1'
_cell_length_a   3.78104100
_cell_length_b   10.66362123
_cell_length_c   12.03830314
_cell_angle_alpha   90.14179777
_cell_angle_beta   90.00000000
_cell_angle_gamma   90.00000000
_symmetry_Int_Tables_number   1
_chemical_formula_structural   Ho4CoNi7(PRu)12
_chemical_formula_sum   'Ho4 Co1 Ni7 P12 Ru12'
_cell_volume   485.37794948
_cell_formula_units_Z   1
loop_
 _symmetry_equiv_pos_site_id
 _symmetry_equiv_pos_as_xyz
  1  'x, y, z'
loop_
 _atom_site_type_symbol
 _atom_site_label
 _atom_site_symmetry_multiplicity
 _atom_site_fract_x
 _atom_site_fract_y
 _atom_site_fract_z
 _atom_site_occupancy
  Ho  Ho0  1  0.250000  0.588518  0.706390  1
  Ho  Ho1  1  0.250000  0.911145  0.207328  1
  Ho  Ho2  1  0.750000  0.411349  0.293625  1
  Ho  Ho3  1  0.750000  0.088580  0.793442  1
  Co  Co4  1  0.750000  0.962971  0.571183  1
  Ni  Ni5  1  0.250000  0.890131  0.697986  1
  Ni  Ni6  1  0.250000  0.607540  0.198484  1
  Ni  Ni7  1  0.750000  0.107098  0.301958  1
  Ni  Ni8  1  0.750000  0.391959  0.801286  1
  Ni  Ni9  1  0.250000  0.462606  0.929284  1
  Ni  Ni10  1  0.250000  0.038270  0.430455  1
  Ni  Ni11  1  0.750000  0.537651  0.070080  1
  P  P12  1  0.250000  0.418302  0.110222  1
  P  P13  1  0.250000  0.077587  0.610868  1
  P  P14  1  0.750000  0.581688  0.889289  1
  P  P15  1  0.750000  0.919066  0.391950  1
  P  P16  1  0.250000  0.268886  0.875060  1
  P  P17  1  0.250000  0.231340  0.375161  1
  P  P18  1  0.750000  0.731072  0.125025  1
  P  P19  1  0.750000  0.770507  0.623986  1
  P  P20  1  0.250000  0.600650  0.388463  1
  P  P21  1  0.250000  0.899548  0.888983  1
  P  P22  1  0.750000  0.399911  0.611501  1
  P  P23  1  0.750000  0.099909  0.111924  1
  Ru  Ru24  1  0.250000  0.708370  0.985689  1
  Ru  Ru25  1  0.250000  0.792804  0.486139  1
  Ru  Ru26  1  0.750000  0.291421  0.013693  1
  Ru  Ru27  1  0.750000  0.210877  0.510559  1
  Ru  Ru28  1  0.250000  0.407580  0.487364  1
  Ru  Ru29  1  0.250000  0.093215  0.986246  1
  Ru  Ru30  1  0.750000  0.594141  0.513503  1
  Ru  Ru31  1  0.750000  0.906465  0.013716  1
  Ru  Ru32  1  0.250000  0.220436  0.183176  1
  Ru  Ru33  1  0.250000  0.277335  0.682372  1
  Ru  Ru34  1  0.750000  0.779759  0.816498  1
  Ru  Ru35  1  0.750000  0.721316  0.317110  1
