# generated using pymatgen
data_Hf6Al5Co6Sn
_symmetry_space_group_name_H-M   'P 1'
_cell_length_a   6.93937594
_cell_length_b   6.93937640
_cell_length_c   6.76900200
_cell_angle_alpha   90.00073439
_cell_angle_beta   89.99926502
_cell_angle_gamma   119.75437274
_symmetry_Int_Tables_number   1
_chemical_formula_structural   Hf6Al5Co6Sn
_chemical_formula_sum   'Hf6 Al5 Co6 Sn1'
_cell_volume   282.98651870
_cell_formula_units_Z   1
loop_
 _symmetry_equiv_pos_site_id
 _symmetry_equiv_pos_as_xyz
  1  'x, y, z'
loop_
 _atom_site_type_symbol
 _atom_site_label
 _atom_site_symmetry_multiplicity
 _atom_site_fract_x
 _atom_site_fract_y
 _atom_site_fract_z
 _atom_site_occupancy
  Hf  Hf0  1  0.994082  0.407774  0.748037  1
  Hf  Hf1  1  0.600401  0.600680  0.744443  1
  Hf  Hf2  1  0.407353  0.993031  0.748243  1
  Hf  Hf3  1  0.993031  0.407353  0.251757  1
  Hf  Hf4  1  0.600680  0.600401  0.255557  1
  Hf  Hf5  1  0.407774  0.994082  0.251963  1
  Al  Al6  1  0.258889  0.258889  0.500000  1
  Al  Al7  1  0.004588  0.739630  0.499914  1
  Al  Al8  1  0.998019  0.750338  0.999974  1
  Al  Al9  1  0.739630  0.004588  0.500086  1
  Al  Al10  1  0.750338  0.998019  0.000026  1
  Co  Co11  1  0.335303  0.666683  0.499384  1
  Co  Co12  1  0.666683  0.335303  0.500616  1
  Co  Co13  1  0.336013  0.674811  0.000890  1
  Co  Co14  1  0.990409  0.990307  0.728294  1
  Co  Co15  1  0.990307  0.990409  0.271706  1
  Co  Co16  1  0.674811  0.336013  0.999110  1
  Sn  Sn17  1  0.251688  0.251688  0.000000  1
