# generated using pymatgen
data_Np3Ge3Ir2
_symmetry_space_group_name_H-M   'P 1'
_cell_length_a   5.56630283
_cell_length_b   5.56630275
_cell_length_c   14.07670500
_cell_angle_alpha   90.00000000
_cell_angle_beta   90.00000000
_cell_angle_gamma   133.82252273
_symmetry_Int_Tables_number   1
_chemical_formula_structural   Np3Ge3Ir2
_chemical_formula_sum   'Np6 Ge6 Ir4'
_cell_volume   314.67615286
_cell_formula_units_Z   2
loop_
 _symmetry_equiv_pos_site_id
 _symmetry_equiv_pos_as_xyz
  1  'x, y, z'
loop_
 _atom_site_type_symbol
 _atom_site_label
 _atom_site_symmetry_multiplicity
 _atom_site_fract_x
 _atom_site_fract_y
 _atom_site_fract_z
 _atom_site_occupancy
  Np  Np0  1  0.420274  0.579726  0.387376  1
  Np  Np1  1  0.420274  0.579726  0.112624  1
  Np  Np2  1  0.837271  0.162729  0.750000  1
  Np  Np3  1  0.162729  0.837270  0.250000  1
  Np  Np4  1  0.579726  0.420274  0.612624  1
  Np  Np5  1  0.579726  0.420274  0.887376  1
  Ge  Ge6  1  0.876580  0.123420  0.534332  1
  Ge  Ge7  1  0.876580  0.123420  0.965668  1
  Ge  Ge8  1  0.867854  0.132146  0.250000  1
  Ge  Ge9  1  0.123420  0.876580  0.034332  1
  Ge  Ge10  1  0.123420  0.876580  0.465668  1
  Ge  Ge11  1  0.132146  0.867854  0.750000  1
  Ir  Ir12  1  0.301432  0.698568  0.612160  1
  Ir  Ir13  1  0.698568  0.301432  0.112160  1
  Ir  Ir14  1  0.301432  0.698568  0.887840  1
  Ir  Ir15  1  0.698568  0.301432  0.387840  1
