# generated using pymatgen
data_Tm10In7SnRh4
_symmetry_space_group_name_H-M   'P 1'
_cell_length_a   3.55788000
_cell_length_b   8.01261881
_cell_length_c   18.06371324
_cell_angle_alpha   90.24949494
_cell_angle_beta   90.00000000
_cell_angle_gamma   90.00000000
_symmetry_Int_Tables_number   1
_chemical_formula_structural   Tm10In7SnRh4
_chemical_formula_sum   'Tm10 In7 Sn1 Rh4'
_cell_volume   514.95430215
_cell_formula_units_Z   1
loop_
 _symmetry_equiv_pos_site_id
 _symmetry_equiv_pos_as_xyz
  1  'x, y, z'
loop_
 _atom_site_type_symbol
 _atom_site_label
 _atom_site_symmetry_multiplicity
 _atom_site_fract_x
 _atom_site_fract_y
 _atom_site_fract_z
 _atom_site_occupancy
  Tm  Tm0  1  0.000000  0.499984  0.500743  1
  Tm  Tm1  1  0.000000  0.994711  0.998044  1
  Tm  Tm2  1  0.000000  0.745418  0.277853  1
  Tm  Tm3  1  0.000000  0.256991  0.720648  1
  Tm  Tm4  1  0.000000  0.759975  0.780140  1
  Tm  Tm5  1  0.000000  0.244405  0.221627  1
  Tm  Tm6  1  0.000000  0.615653  0.086693  1
  Tm  Tm7  1  0.000000  0.382121  0.914038  1
  Tm  Tm8  1  0.000000  0.883228  0.587265  1
  Tm  Tm9  1  0.000000  0.116747  0.412531  1
  In  In10  1  0.500000  0.288385  0.067443  1
  In  In11  1  0.500000  0.792528  0.432842  1
  In  In12  1  0.500000  0.205853  0.566787  1
  In  In13  1  0.500000  0.575580  0.650963  1
  In  In14  1  0.500000  0.428837  0.350790  1
  In  In15  1  0.500000  0.928459  0.148867  1
  In  In16  1  0.500000  0.080241  0.848883  1
  Sn  Sn17  1  0.500000  0.702728  0.933426  1
  Rh  Rh18  1  0.500000  0.521396  0.194591  1
  Rh  Rh19  1  0.500000  0.478033  0.805644  1
  Rh  Rh20  1  0.500000  0.977094  0.695758  1
  Rh  Rh21  1  0.500000  0.021635  0.304421  1
