# generated using pymatgen
data_Nb12Co8W4CN3
_symmetry_space_group_name_H-M   'P 1'
_cell_length_a   8.18186650
_cell_length_b   8.18186721
_cell_length_c   8.18186620
_cell_angle_alpha   59.94929499
_cell_angle_beta   59.94929391
_cell_angle_gamma   59.94929590
_symmetry_Int_Tables_number   1
_chemical_formula_structural   Nb12Co8W4CN3
_chemical_formula_sum   'Nb12 Co8 W4 C1 N3'
_cell_volume   386.84988754
_cell_formula_units_Z   1
loop_
 _symmetry_equiv_pos_site_id
 _symmetry_equiv_pos_as_xyz
  1  'x, y, z'
loop_
 _atom_site_type_symbol
 _atom_site_label
 _atom_site_symmetry_multiplicity
 _atom_site_fract_x
 _atom_site_fract_y
 _atom_site_fract_z
 _atom_site_occupancy
  Nb  Nb0  1  0.810351  0.810351  0.190290  1
  Nb  Nb1  1  0.191198  0.191198  0.808348  1
  Nb  Nb2  1  0.810351  0.190290  0.810351  1
  Nb  Nb3  1  0.191198  0.808348  0.191198  1
  Nb  Nb4  1  0.190290  0.810351  0.810351  1
  Nb  Nb5  1  0.808348  0.191198  0.191198  1
  Nb  Nb6  1  0.439649  0.439649  0.059710  1
  Nb  Nb7  1  0.058802  0.058802  0.441652  1
  Nb  Nb8  1  0.439649  0.059710  0.439649  1
  Nb  Nb9  1  0.058802  0.441652  0.058802  1
  Nb  Nb10  1  0.059710  0.439649  0.439649  1
  Nb  Nb11  1  0.441652  0.058802  0.058802  1
  Co  Co12  1  0.730816  0.423272  0.423272  1
  Co  Co13  1  0.423272  0.730816  0.423272  1
  Co  Co14  1  0.423272  0.423272  0.730816  1
  Co  Co15  1  0.422977  0.422977  0.422977  1
  Co  Co16  1  0.519184  0.826728  0.826728  1
  Co  Co17  1  0.826728  0.519184  0.826728  1
  Co  Co18  1  0.826728  0.826728  0.519184  1
  Co  Co19  1  0.827023  0.827023  0.827023  1
  W  W20  1  0.125000  0.625000  0.625000  1
  W  W21  1  0.625000  0.125000  0.625000  1
  W  W22  1  0.625000  0.625000  0.125000  1
  W  W23  1  0.625000  0.625000  0.625000  1
  C  C24  1  0.125000  0.125000  0.125000  1
  N  N25  1  0.625000  0.125000  0.125000  1
  N  N26  1  0.125000  0.625000  0.125000  1
  N  N27  1  0.125000  0.125000  0.625000  1
