# generated using pymatgen
data_Y3Th2Sn3Cl
_symmetry_space_group_name_H-M   'P 1'
_cell_length_a   9.30292800
_cell_length_b   9.30292839
_cell_length_c   6.58428300
_cell_angle_alpha   90.00000000
_cell_angle_beta   90.00000000
_cell_angle_gamma   119.99999152
_symmetry_Int_Tables_number   1
_chemical_formula_structural   Y3Th2Sn3Cl
_chemical_formula_sum   'Y6 Th4 Sn6 Cl2'
_cell_volume   493.49015768
_cell_formula_units_Z   2
loop_
 _symmetry_equiv_pos_site_id
 _symmetry_equiv_pos_as_xyz
  1  'x, y, z'
loop_
 _atom_site_type_symbol
 _atom_site_label
 _atom_site_symmetry_multiplicity
 _atom_site_fract_x
 _atom_site_fract_y
 _atom_site_fract_z
 _atom_site_occupancy
  Y  Y0  1  0.735697  0.000000  0.750000  1
  Y  Y1  1  0.735697  0.735697  0.250000  1
  Y  Y2  1  0.000000  0.264303  0.250000  1
  Y  Y3  1  0.000000  0.735697  0.750000  1
  Y  Y4  1  0.264303  0.264303  0.750000  1
  Y  Y5  1  0.264303  0.000000  0.250000  1
  Th  Th6  1  0.666667  0.333333  0.000000  1
  Th  Th7  1  0.333333  0.666667  0.500000  1
  Th  Th8  1  0.666667  0.333333  0.500000  1
  Th  Th9  1  0.333333  0.666667  0.000000  1
  Sn  Sn10  1  0.616418  0.616418  0.750000  1
  Sn  Sn11  1  0.000000  0.616418  0.250000  1
  Sn  Sn12  1  0.616418  0.000000  0.250000  1
  Sn  Sn13  1  0.383582  0.000000  0.750000  1
  Sn  Sn14  1  0.000000  0.383582  0.750000  1
  Sn  Sn15  1  0.383582  0.383582  0.250000  1
  Cl  Cl16  1  0.000000  0.000000  0.500000  1
  Cl  Cl17  1  0.000000  0.000000  0.000000  1
