# generated using pymatgen
data_ErZr3(Ta3Si4)2
_symmetry_space_group_name_H-M   'P 1'
_cell_length_a   6.90442606
_cell_length_b   6.90657906
_cell_length_c   12.81341700
_cell_angle_alpha   90.00000000
_cell_angle_beta   90.00000000
_cell_angle_gamma   89.93645236
_symmetry_Int_Tables_number   1
_chemical_formula_structural   ErZr3(Ta3Si4)2
_chemical_formula_sum   'Er2 Zr6 Ta12 Si16'
_cell_volume   611.01977202
_cell_formula_units_Z   2
loop_
 _symmetry_equiv_pos_site_id
 _symmetry_equiv_pos_as_xyz
  1  'x, y, z'
loop_
 _atom_site_type_symbol
 _atom_site_label
 _atom_site_symmetry_multiplicity
 _atom_site_fract_x
 _atom_site_fract_y
 _atom_site_fract_z
 _atom_site_occupancy
  Er  Er0  1  0.998354  0.661545  0.030866  1
  Er  Er1  1  0.001646  0.338455  0.530866  1
  Zr  Zr2  1  0.657570  0.003967  0.968578  1
  Zr  Zr3  1  0.161018  0.498115  0.781667  1
  Zr  Zr4  1  0.838982  0.501885  0.281667  1
  Zr  Zr5  1  0.498132  0.160505  0.219378  1
  Zr  Zr6  1  0.501868  0.839495  0.719378  1
  Zr  Zr7  1  0.342430  0.996033  0.468578  1
  Ta  Ta8  1  0.347294  0.506861  0.375259  1
  Ta  Ta9  1  0.844912  0.995976  0.373005  1
  Ta  Ta10  1  0.006382  0.152854  0.126311  1
  Ta  Ta11  1  0.993618  0.847146  0.626311  1
  Ta  Ta12  1  0.652706  0.493139  0.875259  1
  Ta  Ta13  1  0.504027  0.347244  0.624102  1
  Ta  Ta14  1  0.495973  0.652756  0.124102  1
  Ta  Ta15  1  0.155088  0.004024  0.873005  1
  Ta  Ta16  1  0.668020  0.671663  0.500319  1
  Ta  Ta17  1  0.829261  0.169246  0.750371  1
  Ta  Ta18  1  0.170739  0.830754  0.250371  1
  Ta  Ta19  1  0.331980  0.328337  0.000319  1
  Si  Si20  1  0.044251  0.704605  0.436242  1
  Si  Si21  1  0.955749  0.295395  0.936242  1
  Si  Si22  1  0.700168  0.043809  0.563487  1
  Si  Si23  1  0.202723  0.455089  0.187264  1
  Si  Si24  1  0.797277  0.544911  0.687264  1
  Si  Si25  1  0.455711  0.201547  0.813215  1
  Si  Si26  1  0.544289  0.798453  0.313215  1
  Si  Si27  1  0.299832  0.956191  0.063487  1
  Si  Si28  1  0.864195  0.794120  0.821011  1
  Si  Si29  1  0.135805  0.205880  0.321011  1
  Si  Si30  1  0.790707  0.867603  0.179461  1
  Si  Si31  1  0.294023  0.637498  0.572514  1
  Si  Si32  1  0.705977  0.362502  0.072514  1
  Si  Si33  1  0.632612  0.292732  0.426951  1
  Si  Si34  1  0.367388  0.707268  0.926951  1
  Si  Si35  1  0.209293  0.132397  0.679461  1
