# generated using pymatgen
data_Nd6Dy10Cd4TcPt3
_symmetry_space_group_name_H-M   'P 1'
_cell_length_a   9.82988133
_cell_length_b   9.82988066
_cell_length_c   9.82988068
_cell_angle_alpha   59.53480853
_cell_angle_beta   59.53481231
_cell_angle_gamma   59.53481509
_symmetry_Int_Tables_number   1
_chemical_formula_structural   Nd6Dy10Cd4TcPt3
_chemical_formula_sum   'Nd6 Dy10 Cd4 Tc1 Pt3'
_cell_volume   664.52542332
_cell_formula_units_Z   1
loop_
 _symmetry_equiv_pos_site_id
 _symmetry_equiv_pos_as_xyz
  1  'x, y, z'
loop_
 _atom_site_type_symbol
 _atom_site_label
 _atom_site_symmetry_multiplicity
 _atom_site_fract_x
 _atom_site_fract_y
 _atom_site_fract_z
 _atom_site_occupancy
  Nd  Nd0  1  0.937517  0.562175  0.562175  1
  Nd  Nd1  1  0.554517  0.940248  0.940248  1
  Nd  Nd2  1  0.562175  0.937517  0.562175  1
  Nd  Nd3  1  0.940248  0.554517  0.940248  1
  Nd  Nd4  1  0.562175  0.562175  0.937517  1
  Nd  Nd5  1  0.940248  0.940248  0.554517  1
  Dy  Dy6  1  0.351190  0.351190  0.351190  1
  Dy  Dy7  1  0.348312  0.348312  0.953822  1
  Dy  Dy8  1  0.348312  0.953822  0.348312  1
  Dy  Dy9  1  0.953822  0.348312  0.348312  1
  Dy  Dy10  1  0.816990  0.186342  0.186342  1
  Dy  Dy11  1  0.185929  0.811234  0.811234  1
  Dy  Dy12  1  0.186342  0.816990  0.186342  1
  Dy  Dy13  1  0.811234  0.185929  0.811234  1
  Dy  Dy14  1  0.186342  0.186342  0.816990  1
  Dy  Dy15  1  0.811234  0.811234  0.185929  1
  Cd  Cd16  1  0.579091  0.579091  0.579091  1
  Cd  Cd17  1  0.579495  0.579495  0.259701  1
  Cd  Cd18  1  0.579495  0.259701  0.579495  1
  Cd  Cd19  1  0.259701  0.579495  0.579495  1
  Tc  Tc20  1  0.143176  0.143176  0.143176  1
  Pt  Pt21  1  0.144232  0.144232  0.573989  1
  Pt  Pt22  1  0.144232  0.573989  0.144232  1
  Pt  Pt23  1  0.573989  0.144232  0.144232  1
