# generated using pymatgen
data_Hf3Nb2Si3N
_symmetry_space_group_name_H-M   'P 1'
_cell_length_a   7.74495400
_cell_length_b   7.74495457
_cell_length_c   5.41471400
_cell_angle_alpha   90.00000000
_cell_angle_beta   90.00000000
_cell_angle_gamma   120.00000609
_symmetry_Int_Tables_number   1
_chemical_formula_structural   Hf3Nb2Si3N
_chemical_formula_sum   'Hf6 Nb4 Si6 N2'
_cell_volume   281.28323300
_cell_formula_units_Z   2
loop_
 _symmetry_equiv_pos_site_id
 _symmetry_equiv_pos_as_xyz
  1  'x, y, z'
loop_
 _atom_site_type_symbol
 _atom_site_label
 _atom_site_symmetry_multiplicity
 _atom_site_fract_x
 _atom_site_fract_y
 _atom_site_fract_z
 _atom_site_occupancy
  Hf  Hf0  1  0.236190  0.000000  0.250000  1
  Hf  Hf1  1  0.763810  0.000000  0.750000  1
  Hf  Hf2  1  0.000000  0.236190  0.250000  1
  Hf  Hf3  1  0.000000  0.763810  0.750000  1
  Hf  Hf4  1  0.763810  0.763810  0.250000  1
  Hf  Hf5  1  0.236190  0.236190  0.750000  1
  Nb  Nb6  1  0.333333  0.666667  0.000000  1
  Nb  Nb7  1  0.666667  0.333333  0.000000  1
  Nb  Nb8  1  0.666667  0.333333  0.500000  1
  Nb  Nb9  1  0.333333  0.666667  0.500000  1
  Si  Si10  1  0.592277  0.000000  0.250000  1
  Si  Si11  1  0.407723  0.000000  0.750000  1
  Si  Si12  1  0.000000  0.592277  0.250000  1
  Si  Si13  1  0.000000  0.407723  0.750000  1
  Si  Si14  1  0.407723  0.407723  0.250000  1
  Si  Si15  1  0.592277  0.592277  0.750000  1
  N  N16  1  0.000000  0.000000  0.000000  1
  N  N17  1  0.000000  0.000000  0.500000  1
