# generated using pymatgen
data_NaNb6VSe12
_symmetry_space_group_name_H-M   'P 1'
_cell_length_a   6.05575900
_cell_length_b   6.05576087
_cell_length_c   14.31792500
_cell_angle_alpha   90.00000000
_cell_angle_beta   90.00000000
_cell_angle_gamma   119.99999527
_symmetry_Int_Tables_number   1
_chemical_formula_structural   NaNb6VSe12
_chemical_formula_sum   'Na1 Nb6 V1 Se12'
_cell_volume   454.72416699
_cell_formula_units_Z   1
loop_
 _symmetry_equiv_pos_site_id
 _symmetry_equiv_pos_as_xyz
  1  'x, y, z'
loop_
 _atom_site_type_symbol
 _atom_site_label
 _atom_site_symmetry_multiplicity
 _atom_site_fract_x
 _atom_site_fract_y
 _atom_site_fract_z
 _atom_site_occupancy
  Na  Na0  1  0.333333  0.666667  0.250000  1
  Nb  Nb1  1  0.000000  0.000000  0.526518  1
  Nb  Nb2  1  0.000000  0.000000  0.973482  1
  Nb  Nb3  1  0.333333  0.666667  0.973757  1
  Nb  Nb4  1  0.666667  0.333333  0.972467  1
  Nb  Nb5  1  0.666667  0.333333  0.527533  1
  Nb  Nb6  1  0.333333  0.666667  0.526243  1
  V  V7  1  0.666667  0.333333  0.750000  1
  Se  Se8  1  0.334383  0.331523  0.409208  1
  Se  Se9  1  0.668477  0.002860  0.409208  1
  Se  Se10  1  0.997140  0.665617  0.409208  1
  Se  Se11  1  0.330285  0.334076  0.643777  1
  Se  Se12  1  0.003791  0.669715  0.643777  1
  Se  Se13  1  0.665924  0.996209  0.643777  1
  Se  Se14  1  0.665924  0.669715  0.856223  1
  Se  Se15  1  0.330285  0.996209  0.856223  1
  Se  Se16  1  0.003791  0.334076  0.856223  1
  Se  Se17  1  0.668477  0.665617  0.090792  1
  Se  Se18  1  0.997140  0.331523  0.090792  1
  Se  Se19  1  0.334383  0.002860  0.090792  1
