# generated using pymatgen
data_Er3Sn3GeRh2
_symmetry_space_group_name_H-M   'P 1'
_cell_length_a   7.38212900
_cell_length_b   7.38212890
_cell_length_c   4.13578000
_cell_angle_alpha   90.00000000
_cell_angle_beta   90.00000000
_cell_angle_gamma   119.99998700
_symmetry_Int_Tables_number   1
_chemical_formula_structural   Er3Sn3GeRh2
_chemical_formula_sum   'Er3 Sn3 Ge1 Rh2'
_cell_volume   195.18721687
_cell_formula_units_Z   1
loop_
 _symmetry_equiv_pos_site_id
 _symmetry_equiv_pos_as_xyz
  1  'x, y, z'
loop_
 _atom_site_type_symbol
 _atom_site_label
 _atom_site_symmetry_multiplicity
 _atom_site_fract_x
 _atom_site_fract_y
 _atom_site_fract_z
 _atom_site_occupancy
  Er  Er0  1  0.398540  0.411158  0.000000  1
  Er  Er1  1  0.012617  0.601460  0.000000  1
  Er  Er2  1  0.588842  0.987383  0.000000  1
  Sn  Sn3  1  0.740040  0.752151  0.500000  1
  Sn  Sn4  1  0.012112  0.259960  0.500000  1
  Sn  Sn5  1  0.247849  0.987888  0.500000  1
  Ge  Ge6  1  0.666667  0.333333  0.500000  1
  Rh  Rh7  1  0.000000  0.000000  0.000000  1
  Rh  Rh8  1  0.333333  0.666667  0.500000  1
