# generated using pymatgen
data_Lu7SiS7
_symmetry_space_group_name_H-M   'P 1'
_cell_length_a   7.63743502
_cell_length_b   7.63774422
_cell_length_c   7.63749900
_cell_angle_alpha   120.00100387
_cell_angle_beta   89.99593393
_cell_angle_gamma   120.00217337
_symmetry_Int_Tables_number   1
_chemical_formula_structural   Lu7SiS7
_chemical_formula_sum   'Lu7 Si1 S7'
_cell_volume   315.02379521
_cell_formula_units_Z   1
loop_
 _symmetry_equiv_pos_site_id
 _symmetry_equiv_pos_as_xyz
  1  'x, y, z'
loop_
 _atom_site_type_symbol
 _atom_site_label
 _atom_site_symmetry_multiplicity
 _atom_site_fract_x
 _atom_site_fract_y
 _atom_site_fract_z
 _atom_site_occupancy
  Lu  Lu0  1  0.247500  0.000039  0.247515  1
  Lu  Lu1  1  0.247512  0.494972  0.247502  1
  Lu  Lu2  1  0.752514  0.999988  0.247495  1
  Lu  Lu3  1  0.249981  0.499979  0.749937  1
  Lu  Lu4  1  0.247476  0.000001  0.752512  1
  Lu  Lu5  1  0.752519  0.999986  0.752495  1
  Lu  Lu6  1  0.752515  0.505022  0.752502  1
  Si  Si7  1  0.999992  0.999997  0.000000  1
  S  S8  1  0.499977  0.999975  0.499998  1
  S  S9  1  0.000883  0.001767  0.500884  1
  S  S10  1  0.000883  0.499999  0.500875  1
  S  S11  1  0.499105  0.500005  0.500911  1
  S  S12  1  0.000881  0.500008  0.999135  1
  S  S13  1  0.499126  0.499991  0.999112  1
  S  S14  1  0.499139  0.998273  0.999134  1
