# generated using pymatgen
data_Pr5TaFeO12
_symmetry_space_group_name_H-M   'P 1'
_cell_length_a   7.08729431
_cell_length_b   7.08729430
_cell_length_c   7.72318644
_cell_angle_alpha   74.35876665
_cell_angle_beta   74.35876840
_cell_angle_gamma   51.12800545
_symmetry_Int_Tables_number   1
_chemical_formula_structural   Pr5TaFeO12
_chemical_formula_sum   'Pr5 Ta1 Fe1 O12'
_cell_volume   288.22118712
_cell_formula_units_Z   1
loop_
 _symmetry_equiv_pos_site_id
 _symmetry_equiv_pos_as_xyz
  1  'x, y, z'
loop_
 _atom_site_type_symbol
 _atom_site_label
 _atom_site_symmetry_multiplicity
 _atom_site_fract_x
 _atom_site_fract_y
 _atom_site_fract_z
 _atom_site_occupancy
  Pr  Pr0  1  0.310981  0.303143  0.358608  1
  Pr  Pr1  1  0.696857  0.689019  0.641392  1
  Pr  Pr2  1  0.697397  0.688749  0.167057  1
  Pr  Pr3  1  0.311251  0.302603  0.832943  1
  Pr  Pr4  1  0.999669  0.000331  0.500000  1
  Ta  Ta5  1  0.222916  0.777084  0.000000  1
  Fe  Fe6  1  0.741062  0.258938  0.000000  1
  O  O7  1  0.097420  0.591128  0.580662  1
  O  O8  1  0.002053  0.995205  0.180990  1
  O  O9  1  0.408872  0.902580  0.419338  1
  O  O10  1  0.494512  0.507449  0.174676  1
  O  O11  1  0.104361  0.572556  0.078351  1
  O  O12  1  0.907254  0.401751  0.422319  1
  O  O13  1  0.004795  0.997947  0.819010  1
  O  O14  1  0.598249  0.092745  0.577681  1
  O  O15  1  0.492551  0.505488  0.825324  1
  O  O16  1  0.588547  0.106191  0.076100  1
  O  O17  1  0.427444  0.895639  0.921649  1
  O  O18  1  0.893809  0.411453  0.923900  1
