# generated using pymatgen
data_Pr12Si(PI4)3
_symmetry_space_group_name_H-M   'P 1'
_cell_length_a   10.79838794
_cell_length_b   10.79838772
_cell_length_c   10.79838799
_cell_angle_alpha   109.49577913
_cell_angle_beta   109.49577414
_cell_angle_gamma   109.49577671
_symmetry_Int_Tables_number   1
_chemical_formula_structural   Pr12Si(PI4)3
_chemical_formula_sum   'Pr12 Si1 P3 I12'
_cell_volume   968.41031365
_cell_formula_units_Z   1
loop_
 _symmetry_equiv_pos_site_id
 _symmetry_equiv_pos_as_xyz
  1  'x, y, z'
loop_
 _atom_site_type_symbol
 _atom_site_label
 _atom_site_symmetry_multiplicity
 _atom_site_fract_x
 _atom_site_fract_y
 _atom_site_fract_z
 _atom_site_occupancy
  Pr  Pr0  1  0.463383  0.483671  0.230340  1
  Pr  Pr1  1  0.750000  0.230041  0.269959  1
  Pr  Pr2  1  0.750000  0.019815  0.480185  1
  Pr  Pr3  1  0.230340  0.463383  0.483671  1
  Pr  Pr4  1  0.269959  0.750000  0.230041  1
  Pr  Pr5  1  0.036617  0.269660  0.016329  1
  Pr  Pr6  1  0.016329  0.036617  0.269660  1
  Pr  Pr7  1  0.480185  0.750000  0.019815  1
  Pr  Pr8  1  0.483671  0.230340  0.463383  1
  Pr  Pr9  1  0.019815  0.480185  0.750000  1
  Pr  Pr10  1  0.269660  0.016329  0.036617  1
  Pr  Pr11  1  0.230041  0.269959  0.750000  1
  Si  Si12  1  0.250000  0.250000  0.250000  1
  P  P13  1  0.500116  0.999884  0.250000  1
  P  P14  1  0.999884  0.250000  0.500116  1
  P  P15  1  0.250000  0.500116  0.999884  1
  I  I16  1  0.250000  0.757713  0.742287  1
  I  I17  1  0.515137  0.508153  0.758717  1
  I  I18  1  0.984863  0.741283  0.991847  1
  I  I19  1  0.742287  0.250000  0.757713  1
  I  I20  1  0.991847  0.984863  0.741283  1
  I  I21  1  0.250000  0.992074  0.507926  1
  I  I22  1  0.758717  0.515137  0.508153  1
  I  I23  1  0.507926  0.250000  0.992074  1
  I  I24  1  0.757713  0.742287  0.250000  1
  I  I25  1  0.741283  0.991847  0.984863  1
  I  I26  1  0.992074  0.507926  0.250000  1
  I  I27  1  0.508153  0.758717  0.515137  1
