# generated using pymatgen
data_Sr4ErSn3
_symmetry_space_group_name_H-M   'P 1'
_cell_length_a   9.73481994
_cell_length_b   9.73476597
_cell_length_c   9.73475246
_cell_angle_alpha   96.89556687
_cell_angle_beta   96.89569004
_cell_angle_gamma   139.45294367
_symmetry_Int_Tables_number   1
_chemical_formula_structural   Sr4ErSn3
_chemical_formula_sum   'Sr8 Er2 Sn6'
_cell_volume   562.55757458
_cell_formula_units_Z   2
loop_
 _symmetry_equiv_pos_site_id
 _symmetry_equiv_pos_as_xyz
  1  'x, y, z'
loop_
 _atom_site_type_symbol
 _atom_site_label
 _atom_site_symmetry_multiplicity
 _atom_site_fract_x
 _atom_site_fract_y
 _atom_site_fract_z
 _atom_site_occupancy
  Sr  Sr0  1  0.085381  0.212146  0.297568  1
  Sr  Sr1  1  0.914619  0.787854  0.702432  1
  Sr  Sr2  1  0.787834  0.085411  0.873234  1
  Sr  Sr3  1  0.414612  0.712176  0.126768  1
  Sr  Sr4  1  0.212166  0.914589  0.126766  1
  Sr  Sr5  1  0.585388  0.287824  0.873232  1
  Sr  Sr6  1  0.712147  0.585384  0.297573  1
  Sr  Sr7  1  0.287853  0.414616  0.702427  1
  Er  Er8  1  0.250035  0.750023  0.500013  1
  Er  Er9  1  0.749965  0.249977  0.499987  1
  Sn  Sn10  1  0.144607  0.644608  0.789211  1
  Sn  Sn11  1  0.855393  0.355392  0.210789  1
  Sn  Sn12  1  0.355396  0.144606  0.500001  1
  Sn  Sn13  1  0.644604  0.855394  0.499999  1
  Sn  Sn14  1  0.249994  0.250000  0.999995  1
  Sn  Sn15  1  0.750006  0.750000  0.000005  1
