# generated using pymatgen
data_Sm8Sc12Si15Ge
_symmetry_space_group_name_H-M   'P 1'
_cell_length_a   7.18853942
_cell_length_b   7.46270315
_cell_length_c   14.14254357
_cell_angle_alpha   90.00887986
_cell_angle_beta   89.89005333
_cell_angle_gamma   90.02089387
_symmetry_Int_Tables_number   1
_chemical_formula_structural   Sm8Sc12Si15Ge
_chemical_formula_sum   'Sm8 Sc12 Si15 Ge1'
_cell_volume   758.68852722
_cell_formula_units_Z   1
loop_
 _symmetry_equiv_pos_site_id
 _symmetry_equiv_pos_as_xyz
  1  'x, y, z'
loop_
 _atom_site_type_symbol
 _atom_site_label
 _atom_site_symmetry_multiplicity
 _atom_site_fract_x
 _atom_site_fract_y
 _atom_site_fract_z
 _atom_site_occupancy
  Sm  Sm0  1  0.012261  0.173582  0.097473  1
  Sm  Sm1  1  0.987847  0.826518  0.902488  1
  Sm  Sm2  1  0.487998  0.673643  0.902443  1
  Sm  Sm3  1  0.987287  0.827333  0.597660  1
  Sm  Sm4  1  0.512119  0.326518  0.097524  1
  Sm  Sm5  1  0.011333  0.172942  0.402025  1
  Sm  Sm6  1  0.512519  0.325659  0.401893  1
  Sm  Sm7  1  0.490065  0.674788  0.597878  1
  Sc  Sc8  1  0.160226  0.500916  0.751232  1
  Sc  Sc9  1  0.839707  0.499143  0.250020  1
  Sc  Sc10  1  0.339797  0.000831  0.249984  1
  Sc  Sc11  1  0.660283  0.999123  0.750087  1
  Sc  Sc12  1  0.331802  0.174156  0.625929  1
  Sc  Sc13  1  0.669286  0.824147  0.374554  1
  Sc  Sc14  1  0.169156  0.676869  0.374326  1
  Sc  Sc15  1  0.669856  0.823729  0.125160  1
  Sc  Sc16  1  0.828930  0.323794  0.625320  1
  Sc  Sc17  1  0.330200  0.176027  0.874716  1
  Sc  Sc18  1  0.830203  0.323784  0.874721  1
  Sc  Sc19  1  0.169775  0.676233  0.125193  1
  Si  Si20  1  0.033993  0.122044  0.750026  1
  Si  Si21  1  0.965729  0.878574  0.249724  1
  Si  Si22  1  0.465581  0.621701  0.249887  1
  Si  Si23  1  0.533763  0.378402  0.750091  1
  Si  Si24  1  0.286548  0.878118  0.750162  1
  Si  Si25  1  0.713467  0.121269  0.249781  1
  Si  Si26  1  0.213314  0.378661  0.249984  1
  Si  Si27  1  0.787147  0.621485  0.750023  1
  Si  Si28  1  0.840837  0.537421  0.459603  1
  Si  Si29  1  0.345026  0.963572  0.460491  1
  Si  Si30  1  0.845467  0.536142  0.039479  1
  Si  Si31  1  0.654813  0.036685  0.539545  1
  Si  Si32  1  0.154447  0.463838  0.960502  1
  Si  Si33  1  0.654363  0.036337  0.960477  1
  Si  Si34  1  0.345505  0.963729  0.039464  1
  Ge  Ge35  1  0.159351  0.462287  0.540134  1
