# generated using pymatgen
data_Sr4In4Pd3Pt
_symmetry_space_group_name_H-M   'P 1'
_cell_length_a   4.61280400
_cell_length_b   7.69812444
_cell_length_c   8.61760301
_cell_angle_alpha   90.20634433
_cell_angle_beta   90.00000000
_cell_angle_gamma   90.00000000
_symmetry_Int_Tables_number   1
_chemical_formula_structural   Sr4In4Pd3Pt
_chemical_formula_sum   'Sr4 In4 Pd3 Pt1'
_cell_volume   306.00857478
_cell_formula_units_Z   1
loop_
 _symmetry_equiv_pos_site_id
 _symmetry_equiv_pos_as_xyz
  1  'x, y, z'
loop_
 _atom_site_type_symbol
 _atom_site_label
 _atom_site_symmetry_multiplicity
 _atom_site_fract_x
 _atom_site_fract_y
 _atom_site_fract_z
 _atom_site_occupancy
  Sr  Sr0  1  0.250000  0.030876  0.322978  1
  Sr  Sr1  1  0.250000  0.529536  0.178912  1
  Sr  Sr2  1  0.750000  0.974037  0.677946  1
  Sr  Sr3  1  0.750000  0.468484  0.819182  1
  In  In4  1  0.250000  0.146983  0.934040  1
  In  In5  1  0.250000  0.646241  0.565647  1
  In  In6  1  0.750000  0.853531  0.064786  1
  In  In7  1  0.750000  0.353203  0.434850  1
  Pd  Pd8  1  0.250000  0.779445  0.878452  1
  Pd  Pd9  1  0.750000  0.719852  0.377541  1
  Pd  Pd10  1  0.750000  0.220650  0.122193  1
  Pt  Pt11  1  0.250000  0.277161  0.623470  1
