# generated using pymatgen
data_Tm12InNi4Rh
_symmetry_space_group_name_H-M   'P 1'
_cell_length_a   8.19525063
_cell_length_b   8.19591959
_cell_length_c   8.19525031
_cell_angle_alpha   111.51487505
_cell_angle_beta   110.35228889
_cell_angle_gamma   106.58351144
_symmetry_Int_Tables_number   1
_chemical_formula_structural   Tm12InNi4Rh
_chemical_formula_sum   'Tm12 In1 Ni4 Rh1'
_cell_volume   422.91020185
_cell_formula_units_Z   1
loop_
 _symmetry_equiv_pos_site_id
 _symmetry_equiv_pos_as_xyz
  1  'x, y, z'
loop_
 _atom_site_type_symbol
 _atom_site_label
 _atom_site_symmetry_multiplicity
 _atom_site_fract_x
 _atom_site_fract_y
 _atom_site_fract_z
 _atom_site_occupancy
  Tm  Tm0  1  0.590182  0.282028  0.308175  1
  Tm  Tm1  1  0.183780  0.209834  0.393602  1
  Tm  Tm2  1  0.183768  0.790166  0.973947  1
  Tm  Tm3  1  0.678961  0.483552  0.804591  1
  Tm  Tm4  1  0.678943  0.874387  0.195444  1
  Tm  Tm5  1  0.973853  0.282028  0.691847  1
  Tm  Tm6  1  0.026147  0.717972  0.308153  1
  Tm  Tm7  1  0.321057  0.125613  0.804556  1
  Tm  Tm8  1  0.321039  0.516448  0.195409  1
  Tm  Tm9  1  0.816232  0.209834  0.026053  1
  Tm  Tm10  1  0.816220  0.790166  0.606398  1
  Tm  Tm11  1  0.409818  0.717972  0.691825  1
  In  In12  1  0.500000  0.000000  0.500000  1
  Ni  Ni13  1  0.876788  0.876746  0.999958  1
  Ni  Ni14  1  0.361874  0.500000  0.861874  1
  Ni  Ni15  1  0.638126  0.500000  0.138126  1
  Ni  Ni16  1  0.123212  0.123254  0.000042  1
  Rh  Rh17  1  0.000000  0.500000  0.500000  1
