# generated using pymatgen
data_LiSc2BIr5
_symmetry_space_group_name_H-M   'P 1'
_cell_length_a   5.67534759
_cell_length_b   5.67534712
_cell_length_c   5.72567700
_cell_angle_alpha   59.70618994
_cell_angle_beta   59.70619273
_cell_angle_gamma   60.58757833
_symmetry_Int_Tables_number   1
_chemical_formula_structural   LiSc2BIr5
_chemical_formula_sum   'Li1 Sc2 B1 Ir5'
_cell_volume   130.38501583
_cell_formula_units_Z   1
loop_
 _symmetry_equiv_pos_site_id
 _symmetry_equiv_pos_as_xyz
  1  'x, y, z'
loop_
 _atom_site_type_symbol
 _atom_site_label
 _atom_site_symmetry_multiplicity
 _atom_site_fract_x
 _atom_site_fract_y
 _atom_site_fract_z
 _atom_site_occupancy
  Li  Li0  1  0.730334  0.730334  0.269666  1
  Sc  Sc1  1  0.749542  0.749542  0.750458  1
  Sc  Sc2  1  0.249542  0.249542  0.250458  1
  B  B3  1  0.003156  0.003156  0.996844  1
  Ir  Ir4  1  0.257662  0.743268  0.256732  1
  Ir  Ir5  1  0.743268  0.257662  0.256732  1
  Ir  Ir6  1  0.265566  0.265566  0.734434  1
  Ir  Ir7  1  0.743268  0.257662  0.742338  1
  Ir  Ir8  1  0.257662  0.743268  0.742338  1
