# generated using pymatgen
data_Tb2Al3Si2Au3
_symmetry_space_group_name_H-M   'P 1'
_cell_length_a   8.55919180
_cell_length_b   8.55919035
_cell_length_c   8.55918979
_cell_angle_alpha   139.48058097
_cell_angle_beta   99.29263551
_cell_angle_gamma   94.49299706
_symmetry_Int_Tables_number   1
_chemical_formula_structural   Tb2Al3Si2Au3
_chemical_formula_sum   'Tb4 Al6 Si4 Au6'
_cell_volume   381.76319234
_cell_formula_units_Z   2
loop_
 _symmetry_equiv_pos_site_id
 _symmetry_equiv_pos_as_xyz
  1  'x, y, z'
loop_
 _atom_site_type_symbol
 _atom_site_label
 _atom_site_symmetry_multiplicity
 _atom_site_fract_x
 _atom_site_fract_y
 _atom_site_fract_z
 _atom_site_occupancy
  Tb  Tb0  1  0.622875  0.877340  0.745535  1
  Tb  Tb1  1  0.377125  0.122660  0.254465  1
  Tb  Tb2  1  0.868194  0.622660  0.245535  1
  Tb  Tb3  1  0.131806  0.377340  0.754465  1
  Al  Al4  1  0.000000  0.250000  0.250000  1
  Al  Al5  1  0.000000  0.750000  0.750000  1
  Al  Al6  1  0.253468  0.503468  0.250000  1
  Al  Al7  1  0.746532  0.996532  0.250000  1
  Al  Al8  1  0.746532  0.496532  0.750000  1
  Al  Al9  1  0.253468  0.003468  0.750000  1
  Si  Si10  1  0.485119  0.626920  0.858199  1
  Si  Si11  1  0.768722  0.126920  0.641801  1
  Si  Si12  1  0.231278  0.873080  0.358199  1
  Si  Si13  1  0.514881  0.373080  0.141801  1
  Au  Au14  1  0.990210  0.128351  0.861859  1
  Au  Au15  1  0.500000  0.750000  0.250000  1
  Au  Au16  1  0.266493  0.628351  0.638141  1
  Au  Au17  1  0.733507  0.371649  0.361859  1
  Au  Au18  1  0.009790  0.871649  0.138141  1
  Au  Au19  1  0.500000  0.250000  0.750000  1
