# generated using pymatgen
data_Li8Tb8Sn7Bi
_symmetry_space_group_name_H-M   'P 1'
_cell_length_a   9.42442333
_cell_length_b   9.42452411
_cell_length_c   7.33086403
_cell_angle_alpha   90.10036927
_cell_angle_beta   89.90218827
_cell_angle_gamma   119.97478330
_symmetry_Int_Tables_number   1
_chemical_formula_structural   Li8Tb8Sn7Bi
_chemical_formula_sum   'Li8 Tb8 Sn7 Bi1'
_cell_volume   564.03940134
_cell_formula_units_Z   1
loop_
 _symmetry_equiv_pos_site_id
 _symmetry_equiv_pos_as_xyz
  1  'x, y, z'
loop_
 _atom_site_type_symbol
 _atom_site_label
 _atom_site_symmetry_multiplicity
 _atom_site_fract_x
 _atom_site_fract_y
 _atom_site_fract_z
 _atom_site_occupancy
  Li  Li0  1  0.166638  0.833395  0.196416  1
  Li  Li1  1  0.335587  0.170957  0.690259  1
  Li  Li2  1  0.829016  0.664420  0.690258  1
  Li  Li3  1  0.168109  0.334471  0.193127  1
  Li  Li4  1  0.665514  0.831901  0.193096  1
  Li  Li5  1  0.833257  0.166657  0.694012  1
  Li  Li6  1  0.335374  0.664652  0.815474  1
  Li  Li7  1  0.666080  0.333852  0.313621  1
  Tb  Tb8  1  0.512963  0.487024  0.991750  1
  Tb  Tb9  1  0.022138  0.507373  0.488877  1
  Tb  Tb10  1  0.492668  0.977881  0.488874  1
  Tb  Tb11  1  0.517630  0.027268  0.994004  1
  Tb  Tb12  1  0.972738  0.482364  0.994023  1
  Tb  Tb13  1  0.487006  0.513040  0.490568  1
  Tb  Tb14  1  0.997431  0.002564  0.988749  1
  Tb  Tb15  1  0.997942  0.002056  0.484018  1
  Sn  Sn16  1  0.333325  0.165977  0.256843  1
  Sn  Sn17  1  0.834001  0.666721  0.256755  1
  Sn  Sn18  1  0.166137  0.333328  0.757018  1
  Sn  Sn19  1  0.666664  0.833872  0.756957  1
  Sn  Sn20  1  0.833474  0.166492  0.256187  1
  Sn  Sn21  1  0.332662  0.667407  0.222771  1
  Sn  Sn22  1  0.666927  0.332967  0.722204  1
  Bi  Bi23  1  0.166718  0.833360  0.754142  1
