# generated using pymatgen
data_Hf15Zr(TaSi4)4
_symmetry_space_group_name_H-M   'P 1'
_cell_length_a   6.99939802
_cell_length_b   6.99872617
_cell_length_c   12.80459829
_cell_angle_alpha   89.97564732
_cell_angle_beta   90.00117636
_cell_angle_gamma   90.00761330
_symmetry_Int_Tables_number   1
_chemical_formula_structural   Hf15Zr(TaSi4)4
_chemical_formula_sum   'Hf15 Zr1 Ta4 Si16'
_cell_volume   627.25713068
_cell_formula_units_Z   1
loop_
 _symmetry_equiv_pos_site_id
 _symmetry_equiv_pos_as_xyz
  1  'x, y, z'
loop_
 _atom_site_type_symbol
 _atom_site_label
 _atom_site_symmetry_multiplicity
 _atom_site_fract_x
 _atom_site_fract_y
 _atom_site_fract_z
 _atom_site_occupancy
  Hf  Hf0  1  0.502006  0.847064  0.031904  1
  Hf  Hf1  1  0.653171  0.001778  0.281778  1
  Hf  Hf2  1  0.346986  0.997988  0.782020  1
  Hf  Hf3  1  0.847108  0.502049  0.968092  1
  Hf  Hf4  1  0.152849  0.498134  0.468019  1
  Hf  Hf5  1  0.001879  0.653036  0.718105  1
  Hf  Hf6  1  0.997924  0.347082  0.218069  1
  Hf  Hf7  1  0.497577  0.354403  0.125987  1
  Hf  Hf8  1  0.502459  0.645879  0.626050  1
  Hf  Hf9  1  0.854362  0.002516  0.876098  1
  Hf  Hf10  1  0.145356  0.997329  0.375817  1
  Hf  Hf11  1  0.645826  0.502606  0.373813  1
  Hf  Hf12  1  0.354371  0.497559  0.874027  1
  Hf  Hf13  1  0.002460  0.854393  0.123972  1
  Hf  Hf14  1  0.997270  0.145666  0.624046  1
  Zr  Zr15  1  0.497584  0.152992  0.531842  1
  Ta  Ta16  1  0.675370  0.325074  0.750267  1
  Ta  Ta17  1  0.324867  0.675179  0.249950  1
  Ta  Ta18  1  0.825161  0.824570  0.499962  1
  Ta  Ta19  1  0.175168  0.175136  0.000005  1
  Si  Si20  1  0.797945  0.147205  0.071942  1
  Si  Si21  1  0.201748  0.852540  0.571938  1
  Si  Si22  1  0.647199  0.702047  0.821912  1
  Si  Si23  1  0.352680  0.298123  0.321830  1
  Si  Si24  1  0.853447  0.202240  0.427900  1
  Si  Si25  1  0.147235  0.797981  0.928066  1
  Si  Si26  1  0.702082  0.647201  0.178056  1
  Si  Si27  1  0.297477  0.353343  0.678392  1
  Si  Si28  1  0.547515  0.198019  0.935095  1
  Si  Si29  1  0.452361  0.801237  0.434925  1
  Si  Si30  1  0.698514  0.951921  0.685493  1
  Si  Si31  1  0.301908  0.047521  0.185132  1
  Si  Si32  1  0.802159  0.452721  0.564895  1
  Si  Si33  1  0.198050  0.547430  0.064895  1
  Si  Si34  1  0.952395  0.698067  0.314861  1
  Si  Si35  1  0.047533  0.301972  0.814846  1
