# generated using pymatgen
data_Nd6Al19Si5(Os3Ru)2
_symmetry_space_group_name_H-M   'P 1'
_cell_length_a   8.81518100
_cell_length_b   8.75926213
_cell_length_c   9.70111500
_cell_angle_alpha   90.00000000
_cell_angle_beta   90.00000000
_cell_angle_gamma   120.21140947
_symmetry_Int_Tables_number   1
_chemical_formula_structural   Nd6Al19Si5(Os3Ru)2
_chemical_formula_sum   'Nd6 Al19 Si5 Os6 Ru2'
_cell_volume   647.32430863
_cell_formula_units_Z   1
loop_
 _symmetry_equiv_pos_site_id
 _symmetry_equiv_pos_as_xyz
  1  'x, y, z'
loop_
 _atom_site_type_symbol
 _atom_site_label
 _atom_site_symmetry_multiplicity
 _atom_site_fract_x
 _atom_site_fract_y
 _atom_site_fract_z
 _atom_site_occupancy
  Nd  Nd0  1  0.193088  0.386174  0.250000  1
  Nd  Nd1  1  0.807855  0.615711  0.750000  1
  Nd  Nd2  1  0.612751  0.808064  0.250000  1
  Nd  Nd3  1  0.385157  0.192698  0.750000  1
  Nd  Nd4  1  0.195315  0.808064  0.250000  1
  Nd  Nd5  1  0.807539  0.192698  0.750000  1
  Al  Al6  1  0.164607  0.329215  0.576745  1
  Al  Al7  1  0.834838  0.669675  0.422683  1
  Al  Al8  1  0.670659  0.835878  0.575727  1
  Al  Al9  1  0.834838  0.669675  0.077317  1
  Al  Al10  1  0.328394  0.165149  0.423381  1
  Al  Al11  1  0.164607  0.329215  0.923255  1
  Al  Al12  1  0.165218  0.835878  0.575727  1
  Al  Al13  1  0.328394  0.165149  0.076619  1
  Al  Al14  1  0.836756  0.165149  0.423381  1
  Al  Al15  1  0.670659  0.835878  0.924273  1
  Al  Al16  1  0.836756  0.165149  0.076619  1
  Al  Al17  1  0.165218  0.835878  0.924273  1
  Al  Al18  1  0.435769  0.871539  0.750000  1
  Al  Al19  1  0.869878  0.431670  0.250000  1
  Al  Al20  1  0.130039  0.565275  0.750000  1
  Al  Al21  1  0.561793  0.431670  0.250000  1
  Al  Al22  1  0.435235  0.565275  0.750000  1
  Al  Al23  1  0.999856  0.999713  0.250000  1
  Al  Al24  1  0.000555  0.001110  0.750000  1
  Si  Si25  1  0.332473  0.664946  0.029975  1
  Si  Si26  1  0.667577  0.335152  0.967658  1
  Si  Si27  1  0.667577  0.335152  0.532342  1
  Si  Si28  1  0.332473  0.664946  0.470025  1
  Si  Si29  1  0.564896  0.129791  0.250000  1
  Os  Os30  1  0.501020  0.002039  0.006146  1
  Os  Os31  1  0.998651  0.498883  0.000424  1
  Os  Os32  1  0.501020  0.002039  0.493854  1
  Os  Os33  1  0.500232  0.498883  0.000424  1
  Os  Os34  1  0.998651  0.498883  0.499576  1
  Os  Os35  1  0.500232  0.498883  0.499576  1
  Ru  Ru36  1  0.999714  0.999427  0.999965  1
  Ru  Ru37  1  0.999714  0.999427  0.500035  1
