# generated using pymatgen
data_TbY3Fe(NiO4)3
_symmetry_space_group_name_H-M   'P 1'
_cell_length_a   5.24862405
_cell_length_b   5.66642536
_cell_length_c   7.54359605
_cell_angle_alpha   90.39646078
_cell_angle_beta   90.12823485
_cell_angle_gamma   90.07588614
_symmetry_Int_Tables_number   1
_chemical_formula_structural   TbY3Fe(NiO4)3
_chemical_formula_sum   'Tb1 Y3 Fe1 Ni3 O12'
_cell_volume   224.34747609
_cell_formula_units_Z   1
loop_
 _symmetry_equiv_pos_site_id
 _symmetry_equiv_pos_as_xyz
  1  'x, y, z'
loop_
 _atom_site_type_symbol
 _atom_site_label
 _atom_site_symmetry_multiplicity
 _atom_site_fract_x
 _atom_site_fract_y
 _atom_site_fract_z
 _atom_site_occupancy
  Tb  Tb0  1  0.478056  0.419360  0.744384  1
  Y  Y1  1  0.019630  0.925442  0.744404  1
  Y  Y2  1  0.521843  0.581140  0.255685  1
  Y  Y3  1  0.980612  0.074320  0.255598  1
  Fe  Fe4  1  0.000053  0.500205  0.000217  1
  Ni  Ni5  1  0.499990  0.000296  0.499792  1
  Ni  Ni6  1  0.000093  0.500016  0.499816  1
  Ni  Ni7  1  0.499949  0.000347  0.000175  1
  O  O8  1  0.698764  0.313003  0.447062  1
  O  O9  1  0.808481  0.802034  0.056466  1
  O  O10  1  0.300612  0.687569  0.552327  1
  O  O11  1  0.191225  0.197815  0.943751  1
  O  O12  1  0.194516  0.191332  0.551441  1
  O  O13  1  0.297671  0.685969  0.947292  1
  O  O14  1  0.805306  0.808518  0.448307  1
  O  O15  1  0.701638  0.314871  0.053306  1
  O  O16  1  0.108209  0.465891  0.248898  1
  O  O17  1  0.395130  0.968927  0.251212  1
  O  O18  1  0.893608  0.532967  0.751111  1
  O  O19  1  0.604614  0.029979  0.748756  1
