# generated using pymatgen
data_Hf3U(PO4)6
_symmetry_space_group_name_H-M   'P 1'
_cell_length_a   8.96693478
_cell_length_b   8.96632040
_cell_length_c   9.28205747
_cell_angle_alpha   89.96175944
_cell_angle_beta   61.16966633
_cell_angle_gamma   120.00458931
_symmetry_Int_Tables_number   1
_chemical_formula_structural   Hf3U(PO4)6
_chemical_formula_sum   'Hf3 U1 P6 O24'
_cell_volume   536.63512274
_cell_formula_units_Z   1
loop_
 _symmetry_equiv_pos_site_id
 _symmetry_equiv_pos_as_xyz
  1  'x, y, z'
loop_
 _atom_site_type_symbol
 _atom_site_label
 _atom_site_symmetry_multiplicity
 _atom_site_fract_x
 _atom_site_fract_y
 _atom_site_fract_z
 _atom_site_occupancy
  Hf  Hf0  1  0.786726  0.142924  0.070566  1
  Hf  Hf1  1  0.786339  0.642840  0.571143  1
  Hf  Hf2  1  0.214706  0.357720  0.427212  1
  U  U3  1  0.213491  0.857233  0.929080  1
  P  P4  1  0.283882  0.033064  0.258202  1
  P  P5  1  0.708677  0.750340  0.257206  1
  P  P6  1  0.283530  0.258745  0.748009  1
  P  P7  1  0.727925  0.969537  0.746984  1
  P  P8  1  0.995157  0.525908  0.746527  1
  P  P9  1  0.990579  0.457124  0.258648  1
  O  O10  1  0.486285  0.067138  0.218824  1
  O  O11  1  0.867090  0.367342  0.910482  1
  O  O12  1  0.906923  0.138736  0.588070  1
  O  O13  1  0.855113  0.555699  0.720057  1
  O  O14  1  0.130509  0.630163  0.090899  1
  O  O15  1  0.095953  0.860437  0.410569  1
  O  O16  1  0.141240  0.440623  0.279385  1
  O  O17  1  0.137784  0.704792  0.774557  1
  O  O18  1  0.141854  0.505610  0.586101  1
  O  O19  1  0.277043  0.198475  0.282884  1
  O  O20  1  0.278062  0.002830  0.090251  1
  O  O21  1  0.711041  0.917951  0.221823  1
  O  O22  1  0.519189  0.577810  0.281298  1
  O  O23  1  0.271568  0.270602  0.590192  1
  O  O24  1  0.855756  0.492827  0.412447  1
  O  O25  1  0.091131  0.222730  0.914213  1
  O  O26  1  0.907169  0.778062  0.087030  1
  O  O27  1  0.519484  0.931677  0.777382  1
  O  O28  1  0.730923  0.733269  0.408133  1
  O  O29  1  0.481175  0.426561  0.718255  1
  O  O30  1  0.294246  0.089250  0.774094  1
  O  O31  1  0.722974  0.997225  0.911264  1
  O  O32  1  0.727267  0.801571  0.716675  1
  O  O33  1  0.859215  0.293184  0.221538  1
