# generated using pymatgen
data_Tm4RuPt3F28
_symmetry_space_group_name_H-M   'P 1'
_cell_length_a   5.48827265
_cell_length_b   8.80336107
_cell_length_c   11.87967390
_cell_angle_alpha   62.66356134
_cell_angle_beta   90.10967313
_cell_angle_gamma   89.98982689
_symmetry_Int_Tables_number   1
_chemical_formula_structural   Tm4RuPt3F28
_chemical_formula_sum   'Tm4 Ru1 Pt3 F28'
_cell_volume   509.87024946
_cell_formula_units_Z   1
loop_
 _symmetry_equiv_pos_site_id
 _symmetry_equiv_pos_as_xyz
  1  'x, y, z'
loop_
 _atom_site_type_symbol
 _atom_site_label
 _atom_site_symmetry_multiplicity
 _atom_site_fract_x
 _atom_site_fract_y
 _atom_site_fract_z
 _atom_site_occupancy
  Tm  Tm0  1  0.259909  0.813035  0.264171  1
  Tm  Tm1  1  0.739131  0.186213  0.734369  1
  Tm  Tm2  1  0.760873  0.181060  0.237326  1
  Tm  Tm3  1  0.240545  0.814319  0.766061  1
  Ru  Ru4  1  0.757432  0.726081  0.043752  1
  Pt  Pt5  1  0.240961  0.272071  0.957857  1
  Pt  Pt6  1  0.259100  0.272431  0.456564  1
  Pt  Pt7  1  0.741010  0.726947  0.543470  1
  F  F8  1  0.938665  0.703376  0.414474  1
  F  F9  1  0.060783  0.296878  0.584984  1
  F  F10  1  0.441681  0.296704  0.085856  1
  F  F11  1  0.555272  0.709165  0.913425  1
  F  F12  1  0.467261  0.729008  0.139181  1
  F  F13  1  0.535940  0.269719  0.864753  1
  F  F14  1  0.963923  0.274329  0.361402  1
  F  F15  1  0.036312  0.726637  0.637708  1
  F  F16  1  0.955547  0.746285  0.175088  1
  F  F17  1  0.046023  0.253016  0.825328  1
  F  F18  1  0.453193  0.256224  0.322781  1
  F  F19  1  0.548681  0.744344  0.677041  1
  F  F20  1  0.768072  0.482125  0.139832  1
  F  F21  1  0.229510  0.522480  0.857326  1
  F  F22  1  0.271137  0.523033  0.356815  1
  F  F23  1  0.728321  0.476040  0.643455  1
  F  F24  1  0.939580  0.281234  0.045406  1
  F  F25  1  0.056452  0.722688  0.952225  1
  F  F26  1  0.438549  0.719740  0.455961  1
  F  F27  1  0.562008  0.279931  0.543476  1
  F  F28  1  0.742426  0.977814  0.448598  1
  F  F29  1  0.258417  0.021912  0.551437  1
  F  F30  1  0.241129  0.021425  0.051994  1
  F  F31  1  0.759014  0.969464  0.949306  1
  F  F32  1  0.583969  0.969750  0.232467  1
  F  F33  1  0.416910  0.031895  0.766985  1
  F  F34  1  0.084740  0.029457  0.267788  1
  F  F35  1  0.917528  0.973171  0.731337  1
