# generated using pymatgen
data_DyY5ErCoI12
_symmetry_space_group_name_H-M   'P 1'
_cell_length_a   9.76980748
_cell_length_b   9.76393011
_cell_length_c   9.76056444
_cell_angle_alpha   106.82365758
_cell_angle_beta   106.81245815
_cell_angle_gamma   106.83655025
_symmetry_Int_Tables_number   1
_chemical_formula_structural   DyY5ErCoI12
_chemical_formula_sum   'Dy1 Y5 Er1 Co1 I12'
_cell_volume   779.09802252
_cell_formula_units_Z   1
loop_
 _symmetry_equiv_pos_site_id
 _symmetry_equiv_pos_as_xyz
  1  'x, y, z'
loop_
 _atom_site_type_symbol
 _atom_site_label
 _atom_site_symmetry_multiplicity
 _atom_site_fract_x
 _atom_site_fract_y
 _atom_site_fract_z
 _atom_site_occupancy
  Dy  Dy0  1  0.978377  0.712690  0.907569  1
  Y  Y1  1  0.500014  0.500057  0.499881  1
  Y  Y2  1  0.287802  0.091962  0.020852  1
  Y  Y3  1  0.021276  0.287892  0.091235  1
  Y  Y4  1  0.091941  0.021411  0.288156  1
  Y  Y5  1  0.711849  0.907898  0.978095  1
  Er  Er6  1  0.909418  0.978843  0.715715  1
  Co  Co7  1  0.999906  0.999381  0.999348  1
  I  I8  1  0.462580  0.160410  0.385826  1
  I  I9  1  0.385833  0.462711  0.160367  1
  I  I10  1  0.160330  0.385728  0.462595  1
  I  I11  1  0.538576  0.839892  0.614002  1
  I  I12  1  0.614154  0.537282  0.839490  1
  I  I13  1  0.839402  0.615115  0.537351  1
  I  I14  1  0.323299  0.775884  0.929548  1
  I  I15  1  0.929317  0.322007  0.775101  1
  I  I16  1  0.776243  0.929766  0.324018  1
  I  I17  1  0.676645  0.224151  0.070486  1
  I  I18  1  0.070488  0.676879  0.223999  1
  I  I19  1  0.222550  0.070042  0.676367  1
