# generated using pymatgen
data_DyY5NpO12
_symmetry_space_group_name_H-M   'P 1'
_cell_length_a   6.57936139
_cell_length_b   6.58012883
_cell_length_c   6.58360145
_cell_angle_alpha   98.91576776
_cell_angle_beta   98.90397286
_cell_angle_gamma   98.87614691
_symmetry_Int_Tables_number   1
_chemical_formula_structural   DyY5NpO12
_chemical_formula_sum   'Dy1 Y5 Np1 O12'
_cell_volume   273.50635775
_cell_formula_units_Z   1
loop_
 _symmetry_equiv_pos_site_id
 _symmetry_equiv_pos_as_xyz
  1  'x, y, z'
loop_
 _atom_site_type_symbol
 _atom_site_label
 _atom_site_symmetry_multiplicity
 _atom_site_fract_x
 _atom_site_fract_y
 _atom_site_fract_z
 _atom_site_occupancy
  Dy  Dy0  1  0.389733  0.678708  0.854738  1
  Y  Y1  1  0.854796  0.390290  0.679059  1
  Y  Y2  1  0.678799  0.854752  0.389981  1
  Y  Y3  1  0.609745  0.321099  0.145105  1
  Y  Y4  1  0.145358  0.609930  0.321224  1
  Y  Y5  1  0.320945  0.145038  0.609961  1
  Np  Np6  1  0.999994  0.999724  0.999905  1
  O  O7  1  0.177894  0.428857  0.589861  1
  O  O8  1  0.589012  0.177553  0.428303  1
  O  O9  1  0.428246  0.589103  0.177316  1
  O  O10  1  0.822558  0.571620  0.410928  1
  O  O11  1  0.411101  0.822394  0.572064  1
  O  O12  1  0.571255  0.411894  0.822574  1
  O  O13  1  0.920697  0.045125  0.693498  1
  O  O14  1  0.954749  0.306429  0.079339  1
  O  O15  1  0.306470  0.079066  0.954859  1
  O  O16  1  0.079323  0.954936  0.306392  1
  O  O17  1  0.046026  0.693477  0.920470  1
  O  O18  1  0.693300  0.920005  0.044424  1
