# generated using pymatgen
data_Ba2BN2F
_symmetry_space_group_name_H-M   'P 1'
_cell_length_a   4.23418100
_cell_length_b   10.68755600
_cell_length_c   10.67514300
_cell_angle_alpha   90.00000000
_cell_angle_beta   90.00000000
_cell_angle_gamma   90.00000000
_symmetry_Int_Tables_number   1
_chemical_formula_structural   Ba2BN2F
_chemical_formula_sum   'Ba8 B4 N8 F4'
_cell_volume   483.08274312
_cell_formula_units_Z   4
loop_
 _symmetry_equiv_pos_site_id
 _symmetry_equiv_pos_as_xyz
  1  'x, y, z'
loop_
 _atom_site_type_symbol
 _atom_site_label
 _atom_site_symmetry_multiplicity
 _atom_site_fract_x
 _atom_site_fract_y
 _atom_site_fract_z
 _atom_site_occupancy
  Ba  Ba0  1  0.250000  0.677704  0.015539  1
  Ba  Ba1  1  0.750000  0.822296  0.515539  1
  Ba  Ba2  1  0.250000  0.177704  0.484461  1
  Ba  Ba3  1  0.750000  0.322296  0.984461  1
  Ba  Ba4  1  0.250000  0.529557  0.664174  1
  Ba  Ba5  1  0.750000  0.470443  0.335826  1
  Ba  Ba6  1  0.250000  0.029557  0.835826  1
  Ba  Ba7  1  0.750000  0.970443  0.164174  1
  B  B8  1  0.250000  0.725022  0.329735  1
  B  B9  1  0.750000  0.274978  0.670265  1
  B  B10  1  0.250000  0.225022  0.170265  1
  B  B11  1  0.750000  0.774978  0.829735  1
  N  N12  1  0.250000  0.645280  0.429101  1
  N  N13  1  0.750000  0.354720  0.570899  1
  N  N14  1  0.250000  0.145280  0.070899  1
  N  N15  1  0.750000  0.188448  0.761690  1
  N  N16  1  0.250000  0.311552  0.261690  1
  N  N17  1  0.750000  0.688448  0.738310  1
  N  N18  1  0.250000  0.811552  0.238310  1
  N  N19  1  0.750000  0.854720  0.929101  1
  F  F20  1  0.750000  0.549648  0.097488  1
  F  F21  1  0.750000  0.049648  0.402512  1
  F  F22  1  0.250000  0.450352  0.902512  1
  F  F23  1  0.250000  0.950352  0.597488  1
