# generated using pymatgen
data_Nd3Mg(Cu4P3)2
_symmetry_space_group_name_H-M   'P 1'
_cell_length_a   3.91322900
_cell_length_b   11.27687100
_cell_length_c   12.89228800
_cell_angle_alpha   90.00000000
_cell_angle_beta   90.00000000
_cell_angle_gamma   90.00000000
_symmetry_Int_Tables_number   1
_chemical_formula_structural   Nd3Mg(Cu4P3)2
_chemical_formula_sum   'Nd6 Mg2 Cu16 P12'
_cell_volume   568.92350160
_cell_formula_units_Z   2
loop_
 _symmetry_equiv_pos_site_id
 _symmetry_equiv_pos_as_xyz
  1  'x, y, z'
loop_
 _atom_site_type_symbol
 _atom_site_label
 _atom_site_symmetry_multiplicity
 _atom_site_fract_x
 _atom_site_fract_y
 _atom_site_fract_z
 _atom_site_occupancy
  Nd  Nd0  1  0.000000  0.500000  0.523665  1
  Nd  Nd1  1  0.500000  0.000000  0.476335  1
  Nd  Nd2  1  0.500000  0.820954  0.204579  1
  Nd  Nd3  1  0.500000  0.179046  0.204579  1
  Nd  Nd4  1  0.000000  0.679046  0.795421  1
  Nd  Nd5  1  0.000000  0.320954  0.795421  1
  Mg  Mg6  1  0.500000  0.500000  0.151274  1
  Mg  Mg7  1  0.000000  0.000000  0.848726  1
  Cu  Cu8  1  0.500000  0.500000  0.700754  1
  Cu  Cu9  1  0.000000  0.000000  0.299246  1
  Cu  Cu10  1  0.000000  0.500000  0.986358  1
  Cu  Cu11  1  0.500000  0.000000  0.013642  1
  Cu  Cu12  1  0.500000  0.333407  0.994438  1
  Cu  Cu13  1  0.500000  0.666593  0.994438  1
  Cu  Cu14  1  0.000000  0.166593  0.005562  1
  Cu  Cu15  1  0.000000  0.833407  0.005562  1
  Cu  Cu16  1  0.500000  0.295141  0.429549  1
  Cu  Cu17  1  0.500000  0.704859  0.429549  1
  Cu  Cu18  1  0.000000  0.204859  0.570451  1
  Cu  Cu19  1  0.000000  0.795141  0.570451  1
  Cu  Cu20  1  0.500000  0.880209  0.704621  1
  Cu  Cu21  1  0.500000  0.119791  0.704621  1
  Cu  Cu22  1  0.000000  0.619791  0.295379  1
  Cu  Cu23  1  0.000000  0.380209  0.295379  1
  P  P24  1  0.500000  0.500000  0.878254  1
  P  P25  1  0.000000  0.000000  0.121746  1
  P  P26  1  0.500000  0.500000  0.350838  1
  P  P27  1  0.000000  0.000000  0.649162  1
  P  P28  1  0.500000  0.318041  0.616452  1
  P  P29  1  0.500000  0.681959  0.616452  1
  P  P30  1  0.000000  0.181959  0.383548  1
  P  P31  1  0.000000  0.818041  0.383548  1
  P  P32  1  0.500000  0.840881  0.890837  1
  P  P33  1  0.500000  0.159119  0.890837  1
  P  P34  1  0.000000  0.659119  0.109163  1
  P  P35  1  0.000000  0.340881  0.109163  1
