# generated using pymatgen
data_Lu10Si5Bi
_symmetry_space_group_name_H-M   'P 1'
_cell_length_a   8.34287900
_cell_length_b   8.36826908
_cell_length_c   6.19260000
_cell_angle_alpha   90.00000000
_cell_angle_beta   90.00000000
_cell_angle_gamma   119.89968770
_symmetry_Int_Tables_number   1
_chemical_formula_structural   Lu10Si5Bi
_chemical_formula_sum   'Lu10 Si5 Bi1'
_cell_volume   374.79461756
_cell_formula_units_Z   1
loop_
 _symmetry_equiv_pos_site_id
 _symmetry_equiv_pos_as_xyz
  1  'x, y, z'
loop_
 _atom_site_type_symbol
 _atom_site_label
 _atom_site_symmetry_multiplicity
 _atom_site_fract_x
 _atom_site_fract_y
 _atom_site_fract_z
 _atom_site_occupancy
  Lu  Lu0  1  0.676720  0.345831  0.005002  1
  Lu  Lu1  1  0.330888  0.654169  0.494998  1
  Lu  Lu2  1  0.330888  0.654169  0.005002  1
  Lu  Lu3  1  0.676720  0.345831  0.494998  1
  Lu  Lu4  1  0.769026  0.000000  0.750000  1
  Lu  Lu5  1  0.756410  0.757330  0.250000  1
  Lu  Lu6  1  0.999079  0.242670  0.250000  1
  Lu  Lu7  1  0.984232  0.746079  0.750000  1
  Lu  Lu8  1  0.238153  0.253921  0.750000  1
  Lu  Lu9  1  0.238706  0.000000  0.250000  1
  Si  Si10  1  0.393941  0.391496  0.250000  1
  Si  Si11  1  0.002445  0.608504  0.250000  1
  Si  Si12  1  0.998813  0.395142  0.750000  1
  Si  Si13  1  0.603671  0.604858  0.750000  1
  Si  Si14  1  0.606786  0.000000  0.250000  1
  Bi  Bi15  1  0.393523  0.000000  0.750000  1
