# generated using pymatgen
data_Tb3YPd3RuO14
_symmetry_space_group_name_H-M   'P 1'
_cell_length_a   7.23499328
_cell_length_b   7.24020557
_cell_length_c   7.29247501
_cell_angle_alpha   60.23680840
_cell_angle_beta   60.21567199
_cell_angle_gamma   59.97615937
_symmetry_Int_Tables_number   1
_chemical_formula_structural   Tb3YPd3RuO14
_chemical_formula_sum   'Tb3 Y1 Pd3 Ru1 O14'
_cell_volume   270.98596576
_cell_formula_units_Z   1
loop_
 _symmetry_equiv_pos_site_id
 _symmetry_equiv_pos_as_xyz
  1  'x, y, z'
loop_
 _atom_site_type_symbol
 _atom_site_label
 _atom_site_symmetry_multiplicity
 _atom_site_fract_x
 _atom_site_fract_y
 _atom_site_fract_z
 _atom_site_occupancy
  Tb  Tb0  1  0.125000  0.625000  0.125000  1
  Tb  Tb1  1  0.125000  0.125000  0.625000  1
  Tb  Tb2  1  0.125000  0.125000  0.125000  1
  Y  Y3  1  0.625000  0.125000  0.125000  1
  Pd  Pd4  1  0.625000  0.125000  0.625000  1
  Pd  Pd5  1  0.125000  0.625000  0.625000  1
  Pd  Pd6  1  0.625000  0.625000  0.625000  1
  Ru  Ru7  1  0.625000  0.625000  0.125000  1
  O  O8  1  0.998723  0.000238  0.000802  1
  O  O9  1  0.251277  0.249762  0.249198  1
  O  O10  1  0.283544  0.283629  0.718847  1
  O  O11  1  0.539370  0.539243  0.963746  1
  O  O12  1  0.713805  0.283614  0.718968  1
  O  O13  1  0.710630  0.292359  0.286254  1
  O  O14  1  0.283544  0.713981  0.718847  1
  O  O15  1  0.292260  0.710767  0.286206  1
  O  O16  1  0.710630  0.710757  0.286254  1
  O  O17  1  0.966456  0.536019  0.531153  1
  O  O18  1  0.539370  0.957641  0.963746  1
  O  O19  1  0.966456  0.966371  0.531153  1
  O  O20  1  0.957740  0.539233  0.963794  1
  O  O21  1  0.536195  0.966386  0.531032  1
