# generated using pymatgen
data_Er4TmIr2Os
_symmetry_space_group_name_H-M   'P 1'
_cell_length_a   10.74627100
_cell_length_b   10.74627100
_cell_length_c   6.35500900
_cell_angle_alpha   90.00000000
_cell_angle_beta   90.00000000
_cell_angle_gamma   90.00000000
_symmetry_Int_Tables_number   1
_chemical_formula_structural   Er4TmIr2Os
_chemical_formula_sum   'Er16 Tm4 Ir8 Os4'
_cell_volume   733.89131262
_cell_formula_units_Z   4
loop_
 _symmetry_equiv_pos_site_id
 _symmetry_equiv_pos_as_xyz
  1  'x, y, z'
loop_
 _atom_site_type_symbol
 _atom_site_label
 _atom_site_symmetry_multiplicity
 _atom_site_fract_x
 _atom_site_fract_y
 _atom_site_fract_z
 _atom_site_occupancy
  Er  Er0  1  0.293391  0.086285  0.376413  1
  Er  Er1  1  0.293391  0.913715  0.876413  1
  Er  Er2  1  0.706609  0.086285  0.876413  1
  Er  Er3  1  0.706609  0.913715  0.376413  1
  Er  Er4  1  0.586285  0.793391  0.876413  1
  Er  Er5  1  0.586285  0.206609  0.376413  1
  Er  Er6  1  0.413715  0.793391  0.376413  1
  Er  Er7  1  0.413715  0.206609  0.876413  1
  Er  Er8  1  0.206609  0.413715  0.623587  1
  Er  Er9  1  0.206609  0.586285  0.123587  1
  Er  Er10  1  0.793391  0.413715  0.123587  1
  Er  Er11  1  0.793391  0.586285  0.623587  1
  Er  Er12  1  0.913715  0.706609  0.123587  1
  Er  Er13  1  0.913715  0.293391  0.623587  1
  Er  Er14  1  0.086285  0.706609  0.623587  1
  Er  Er15  1  0.086285  0.293391  0.123587  1
  Tm  Tm16  1  0.000000  0.000000  0.500000  1
  Tm  Tm17  1  0.000000  0.000000  0.000000  1
  Tm  Tm18  1  0.500000  0.500000  0.000000  1
  Tm  Tm19  1  0.500000  0.500000  0.500000  1
  Ir  Ir20  1  0.847753  0.152247  0.250000  1
  Ir  Ir21  1  0.847753  0.847753  0.750000  1
  Ir  Ir22  1  0.152247  0.152247  0.750000  1
  Ir  Ir23  1  0.152247  0.847753  0.250000  1
  Ir  Ir24  1  0.652247  0.347753  0.750000  1
  Ir  Ir25  1  0.652247  0.652247  0.250000  1
  Ir  Ir26  1  0.347753  0.347753  0.250000  1
  Ir  Ir27  1  0.347753  0.652247  0.750000  1
  Os  Os28  1  0.500000  0.000000  0.122641  1
  Os  Os29  1  0.500000  0.000000  0.622641  1
  Os  Os30  1  0.000000  0.500000  0.877359  1
  Os  Os31  1  0.000000  0.500000  0.377359  1
