# generated using pymatgen
data_Ba8MgSn23
_symmetry_space_group_name_H-M   'P 1'
_cell_length_a   7.26825997
_cell_length_b   7.26826098
_cell_length_c   22.45002257
_cell_angle_alpha   91.27984530
_cell_angle_beta   88.72015511
_cell_angle_gamma   119.59399251
_symmetry_Int_Tables_number   1
_chemical_formula_structural   Ba8MgSn23
_chemical_formula_sum   'Ba8 Mg1 Sn23'
_cell_volume   1030.92146423
_cell_formula_units_Z   1
loop_
 _symmetry_equiv_pos_site_id
 _symmetry_equiv_pos_as_xyz
  1  'x, y, z'
loop_
 _atom_site_type_symbol
 _atom_site_label
 _atom_site_symmetry_multiplicity
 _atom_site_fract_x
 _atom_site_fract_y
 _atom_site_fract_z
 _atom_site_occupancy
  Ba  Ba0  1  0.333101  0.666899  0.133495  1
  Ba  Ba1  1  0.666899  0.333101  0.866505  1
  Ba  Ba2  1  0.669538  0.330462  0.634760  1
  Ba  Ba3  1  0.330462  0.669538  0.365240  1
  Ba  Ba4  1  0.000000  0.000000  0.000000  1
  Ba  Ba5  1  0.000000  0.000000  0.500000  1
  Ba  Ba6  1  0.999288  0.000712  0.250773  1
  Ba  Ba7  1  0.000712  0.999288  0.749227  1
  Mg  Mg8  1  0.500000  0.500000  0.500000  1
  Sn  Sn9  1  0.196692  0.385869  0.621523  1
  Sn  Sn10  1  0.803308  0.614131  0.378477  1
  Sn  Sn11  1  0.614131  0.803308  0.621523  1
  Sn  Sn12  1  0.806654  0.614741  0.123962  1
  Sn  Sn13  1  0.385869  0.196692  0.378477  1
  Sn  Sn14  1  0.193346  0.385259  0.876038  1
  Sn  Sn15  1  0.195761  0.804239  0.621954  1
  Sn  Sn16  1  0.385259  0.193346  0.123962  1
  Sn  Sn17  1  0.804239  0.195761  0.378046  1
  Sn  Sn18  1  0.614741  0.806654  0.876038  1
  Sn  Sn19  1  0.806946  0.193054  0.123879  1
  Sn  Sn20  1  0.193054  0.806946  0.876121  1
  Sn  Sn21  1  0.528415  0.057933  0.249936  1
  Sn  Sn22  1  0.471585  0.942067  0.750064  1
  Sn  Sn23  1  0.942067  0.471585  0.249936  1
  Sn  Sn24  1  0.057933  0.528415  0.750064  1
  Sn  Sn25  1  0.527455  0.472545  0.249781  1
  Sn  Sn26  1  0.472545  0.527455  0.750219  1
  Sn  Sn27  1  0.500000  0.000000  0.000000  1
  Sn  Sn28  1  0.000000  0.500000  0.000000  1
  Sn  Sn29  1  0.500000  0.000000  0.500000  1
  Sn  Sn30  1  0.500000  0.500000  0.000000  1
  Sn  Sn31  1  0.000000  0.500000  0.500000  1
