# generated using pymatgen
data_Pr10InSi4Ru
_symmetry_space_group_name_H-M   'P 1'
_cell_length_a   7.75937700
_cell_length_b   9.32525032
_cell_length_c   7.75937700
_cell_angle_alpha   114.58490743
_cell_angle_beta   90.00000000
_cell_angle_gamma   114.58490743
_symmetry_Int_Tables_number   1
_chemical_formula_structural   Pr10InSi4Ru
_chemical_formula_sum   'Pr10 In1 Si4 Ru1'
_cell_volume   453.98664805
_cell_formula_units_Z   1
loop_
 _symmetry_equiv_pos_site_id
 _symmetry_equiv_pos_as_xyz
  1  'x, y, z'
loop_
 _atom_site_type_symbol
 _atom_site_label
 _atom_site_symmetry_multiplicity
 _atom_site_fract_x
 _atom_site_fract_y
 _atom_site_fract_z
 _atom_site_occupancy
  Pr  Pr0  1  0.971619  0.943237  0.971619  1
  Pr  Pr1  1  0.528381  0.056763  0.528381  1
  Pr  Pr2  1  0.514580  0.718304  0.661929  1
  Pr  Pr3  1  0.203726  0.718304  0.056376  1
  Pr  Pr4  1  0.661929  0.718304  0.203726  1
  Pr  Pr5  1  0.056376  0.718304  0.514580  1
  Pr  Pr6  1  0.443624  0.281696  0.296274  1
  Pr  Pr7  1  0.838071  0.281696  0.985420  1
  Pr  Pr8  1  0.296274  0.281696  0.838071  1
  Pr  Pr9  1  0.985420  0.281696  0.443624  1
  In  In10  1  0.750000  0.500000  0.750000  1
  Si  Si11  1  0.884897  0.000000  0.615103  1
  Si  Si12  1  0.115103  0.000000  0.384897  1
  Si  Si13  1  0.615103  0.000000  0.115103  1
  Si  Si14  1  0.384897  0.000000  0.884897  1
  Ru  Ru15  1  0.250000  0.500000  0.250000  1
