# generated using pymatgen
data_La4TbIn2Sn
_symmetry_space_group_name_H-M   'P 1'
_cell_length_a   9.45326365
_cell_length_b   9.45405891
_cell_length_c   9.45326500
_cell_angle_alpha   96.50594200
_cell_angle_beta   96.58165843
_cell_angle_gamma   140.53383260
_symmetry_Int_Tables_number   1
_chemical_formula_structural   La4TbIn2Sn
_chemical_formula_sum   'La8 Tb2 In4 Sn2'
_cell_volume   505.49418811
_cell_formula_units_Z   2
loop_
 _symmetry_equiv_pos_site_id
 _symmetry_equiv_pos_as_xyz
  1  'x, y, z'
loop_
 _atom_site_type_symbol
 _atom_site_label
 _atom_site_symmetry_multiplicity
 _atom_site_fract_x
 _atom_site_fract_y
 _atom_site_fract_z
 _atom_site_occupancy
  La  La0  1  0.910920  0.222728  0.133777  1
  La  La1  1  0.223537  0.088783  0.312217  1
  La  La2  1  0.777420  0.910280  0.687947  1
  La  La3  1  0.089899  0.777323  0.866969  1
  La  La4  1  0.722333  0.410280  0.132860  1
  La  La5  1  0.276566  0.588783  0.865246  1
  La  La6  1  0.588951  0.722728  0.311808  1
  La  La7  1  0.410354  0.277323  0.687424  1
  Tb  Tb8  1  0.750004  0.250457  0.500488  1
  Tb  Tb9  1  0.249970  0.750457  0.500453  1
  In  In10  1  0.749985  0.750516  0.000530  1
  In  In11  1  0.249987  0.250516  0.000531  1
  In  In12  1  0.844633  0.654793  0.499331  1
  In  In13  1  0.655462  0.154793  0.810160  1
  Sn  Sn14  1  0.345953  0.845118  0.191095  1
  Sn  Sn15  1  0.154023  0.345118  0.499165  1
