# generated using pymatgen
data_Tb5(Tl2Rh)2
_symmetry_space_group_name_H-M   'P 1'
_cell_length_a   3.79269800
_cell_length_b   8.14010500
_cell_length_c   18.35468500
_cell_angle_alpha   90.00000000
_cell_angle_beta   90.00000000
_cell_angle_gamma   90.00000000
_symmetry_Int_Tables_number   1
_chemical_formula_structural   Tb5(Tl2Rh)2
_chemical_formula_sum   'Tb10 Tl8 Rh4'
_cell_volume   566.66345496
_cell_formula_units_Z   2
loop_
 _symmetry_equiv_pos_site_id
 _symmetry_equiv_pos_as_xyz
  1  'x, y, z'
loop_
 _atom_site_type_symbol
 _atom_site_label
 _atom_site_symmetry_multiplicity
 _atom_site_fract_x
 _atom_site_fract_y
 _atom_site_fract_z
 _atom_site_occupancy
  Tb  Tb0  1  0.000000  0.500000  0.500000  1
  Tb  Tb1  1  0.000000  0.000000  0.000000  1
  Tb  Tb2  1  0.000000  0.743062  0.281023  1
  Tb  Tb3  1  0.000000  0.256938  0.718977  1
  Tb  Tb4  1  0.000000  0.756938  0.781023  1
  Tb  Tb5  1  0.000000  0.243062  0.218977  1
  Tb  Tb6  1  0.000000  0.609041  0.092235  1
  Tb  Tb7  1  0.000000  0.390959  0.907765  1
  Tb  Tb8  1  0.000000  0.890959  0.592235  1
  Tb  Tb9  1  0.000000  0.109041  0.407765  1
  Tl  Tl10  1  0.500000  0.707165  0.935920  1
  Tl  Tl11  1  0.500000  0.292835  0.064080  1
  Tl  Tl12  1  0.500000  0.792835  0.435920  1
  Tl  Tl13  1  0.500000  0.207165  0.564080  1
  Tl  Tl14  1  0.500000  0.581427  0.649732  1
  Tl  Tl15  1  0.500000  0.418573  0.350268  1
  Tl  Tl16  1  0.500000  0.918573  0.149732  1
  Tl  Tl17  1  0.500000  0.081427  0.850268  1
  Rh  Rh18  1  0.500000  0.520608  0.195828  1
  Rh  Rh19  1  0.500000  0.479392  0.804172  1
  Rh  Rh20  1  0.500000  0.979392  0.695828  1
  Rh  Rh21  1  0.500000  0.020608  0.304172  1
