# generated using pymatgen
data_LiTh4BeSi6
_symmetry_space_group_name_H-M   'P 1'
_cell_length_a   8.13705000
_cell_length_b   8.13705036
_cell_length_c   8.49982400
_cell_angle_alpha   90.00000000
_cell_angle_beta   90.00000000
_cell_angle_gamma   119.99999042
_symmetry_Int_Tables_number   1
_chemical_formula_structural   LiTh4BeSi6
_chemical_formula_sum   'Li2 Th8 Be2 Si12'
_cell_volume   487.38773383
_cell_formula_units_Z   2
loop_
 _symmetry_equiv_pos_site_id
 _symmetry_equiv_pos_as_xyz
  1  'x, y, z'
loop_
 _atom_site_type_symbol
 _atom_site_label
 _atom_site_symmetry_multiplicity
 _atom_site_fract_x
 _atom_site_fract_y
 _atom_site_fract_z
 _atom_site_occupancy
  Li  Li0  1  0.333333  0.666667  0.499803  1
  Li  Li1  1  0.666667  0.333333  0.500197  1
  Th  Th2  1  0.499934  0.500066  0.756500  1
  Th  Th3  1  0.500066  0.499934  0.243500  1
  Th  Th4  1  0.000133  0.500066  0.756500  1
  Th  Th5  1  0.999867  0.499934  0.243500  1
  Th  Th6  1  0.499934  0.999867  0.756500  1
  Th  Th7  1  0.500066  0.000133  0.243500  1
  Th  Th8  1  0.000000  0.000000  0.753408  1
  Th  Th9  1  0.000000  0.000000  0.246592  1
  Be  Be10  1  0.666667  0.333333  0.999844  1
  Be  Be11  1  0.333333  0.666667  0.000156  1
  Si  Si12  1  0.827534  0.172466  0.999965  1
  Si  Si13  1  0.172466  0.827534  0.000035  1
  Si  Si14  1  0.344931  0.172466  0.999965  1
  Si  Si15  1  0.167977  0.832023  0.499858  1
  Si  Si16  1  0.655069  0.827534  0.000035  1
  Si  Si17  1  0.832023  0.167977  0.500142  1
  Si  Si18  1  0.827534  0.655069  0.999965  1
  Si  Si19  1  0.664045  0.832023  0.499858  1
  Si  Si20  1  0.172466  0.344931  0.000035  1
  Si  Si21  1  0.335955  0.167977  0.500142  1
  Si  Si22  1  0.167977  0.335955  0.499858  1
  Si  Si23  1  0.832023  0.664045  0.500142  1
