# generated using pymatgen
data_DyHo4P12Ir16Rh3
_symmetry_space_group_name_H-M   'P 1'
_cell_length_a   12.71390700
_cell_length_b   12.71340754
_cell_length_c   3.96154300
_cell_angle_alpha   90.00000000
_cell_angle_beta   90.00000000
_cell_angle_gamma   120.00129698
_symmetry_Int_Tables_number   1
_chemical_formula_structural   DyHo4P12Ir16Rh3
_chemical_formula_sum   'Dy1 Ho4 P12 Ir16 Rh3'
_cell_volume   554.53674529
_cell_formula_units_Z   1
loop_
 _symmetry_equiv_pos_site_id
 _symmetry_equiv_pos_as_xyz
  1  'x, y, z'
loop_
 _atom_site_type_symbol
 _atom_site_label
 _atom_site_symmetry_multiplicity
 _atom_site_fract_x
 _atom_site_fract_y
 _atom_site_fract_z
 _atom_site_occupancy
  Dy  Dy0  1  0.814264  0.000000  0.000000  1
  Ho  Ho1  1  0.333314  0.666645  0.500000  1
  Ho  Ho2  1  0.666670  0.333355  0.500000  1
  Ho  Ho3  1  0.000005  0.814272  0.000000  1
  Ho  Ho4  1  0.185732  0.185728  0.000000  1
  P  P5  1  0.000002  0.640820  0.500000  1
  P  P6  1  0.359182  0.359180  0.500000  1
  P  P7  1  0.640665  0.000000  0.500000  1
  P  P8  1  0.516408  0.687082  0.000000  1
  P  P9  1  0.312901  0.829321  0.000000  1
  P  P10  1  0.170706  0.483624  0.000000  1
  P  P11  1  0.483580  0.170679  0.000000  1
  P  P12  1  0.687082  0.516376  0.000000  1
  P  P13  1  0.829326  0.312918  0.000000  1
  P  P14  1  0.000106  0.178890  0.500000  1
  P  P15  1  0.821216  0.821110  0.500000  1
  P  P16  1  0.178813  0.000000  0.500000  1
  Ir  Ir17  1  0.507369  0.866703  0.000000  1
  Ir  Ir18  1  0.133252  0.640658  0.000000  1
  Ir  Ir19  1  0.359337  0.492597  0.000000  1
  Ir  Ir20  1  0.492595  0.359342  0.000000  1
  Ir  Ir21  1  0.866741  0.507403  0.000000  1
  Ir  Ir22  1  0.640667  0.133297  0.000000  1
  Ir  Ir23  1  0.000071  0.283336  0.000000  1
  Ir  Ir24  1  0.716735  0.716664  0.000000  1
  Ir  Ir25  1  0.283181  0.000000  0.000000  1
  Ir  Ir26  1  0.625504  0.805906  0.500000  1
  Ir  Ir27  1  0.193861  0.819569  0.500000  1
  Ir  Ir28  1  0.180441  0.374305  0.500000  1
  Ir  Ir29  1  0.374292  0.180431  0.500000  1
  Ir  Ir30  1  0.806137  0.625695  0.500000  1
  Ir  Ir31  1  0.819598  0.194094  0.500000  1
  Ir  Ir32  1  0.000238  0.000000  0.500000  1
  Rh  Rh33  1  0.000000  0.461391  0.500000  1
  Rh  Rh34  1  0.538609  0.538609  0.500000  1
  Rh  Rh35  1  0.461403  0.000000  0.500000  1
