# generated using pymatgen
data_NpZn10Au
_symmetry_space_group_name_H-M   'P 1'
_cell_length_a   8.29707150
_cell_length_b   8.32897104
_cell_length_c   8.27064309
_cell_angle_alpha   100.04658606
_cell_angle_beta   99.71311228
_cell_angle_gamma   130.81160464
_symmetry_Int_Tables_number   1
_chemical_formula_structural   NpZn10Au
_chemical_formula_sum   'Np2 Zn20 Au2'
_cell_volume   394.11038084
_cell_formula_units_Z   2
loop_
 _symmetry_equiv_pos_site_id
 _symmetry_equiv_pos_as_xyz
  1  'x, y, z'
loop_
 _atom_site_type_symbol
 _atom_site_label
 _atom_site_symmetry_multiplicity
 _atom_site_fract_x
 _atom_site_fract_y
 _atom_site_fract_z
 _atom_site_occupancy
  Np  Np0  1  0.001758  0.999892  0.996786  1
  Np  Np1  1  0.245352  0.750019  0.502832  1
  Zn  Zn2  1  0.831576  0.248515  0.173988  1
  Zn  Zn3  1  0.753451  0.252381  0.500590  1
  Zn  Zn4  1  0.497362  0.496799  0.999728  1
  Zn  Zn5  1  0.620697  0.371598  0.747695  1
  Zn  Zn6  1  0.624673  0.374529  0.250554  1
  Zn  Zn7  1  0.125943  0.369852  0.751282  1
  Zn  Zn8  1  0.821382  0.654606  0.579869  1
  Zn  Zn9  1  0.911585  0.821299  0.327702  1
  Zn  Zn10  1  0.491052  0.576211  0.673329  1
  Zn  Zn11  1  0.075855  0.249020  0.416060  1
  Zn  Zn12  1  0.755877  0.928392  0.591609  1
  Zn  Zn13  1  0.344060  0.171064  0.413473  1
  Zn  Zn14  1  0.418382  0.501355  0.326020  1
  Zn  Zn15  1  0.179184  0.094952  0.672898  1
  Zn  Zn16  1  0.427948  0.102832  0.917905  1
  Zn  Zn17  1  0.341271  0.929514  0.173855  1
  Zn  Zn18  1  0.757976  0.173553  0.826949  1
  Zn  Zn19  1  0.175341  0.502019  0.083945  1
  Zn  Zn20  1  0.498030  0.822824  0.911673  1
  Zn  Zn21  1  0.902795  0.576479  0.087042  1
  Au  Au22  1  0.071587  0.656312  0.822190  1
  Au  Au23  1  0.626860  0.875981  0.252025  1
