# generated using pymatgen
data_SrCo2NiO6
_symmetry_space_group_name_H-M   'P 1'
_cell_length_a   4.92872000
_cell_length_b   6.08728701
_cell_length_c   8.47612200
_cell_angle_alpha   89.99996235
_cell_angle_beta   89.99998838
_cell_angle_gamma   74.62595114
_symmetry_Int_Tables_number   1
_chemical_formula_structural   SrCo2NiO6
_chemical_formula_sum   'Sr2 Co4 Ni2 O12'
_cell_volume   245.20497138
_cell_formula_units_Z   2
loop_
 _symmetry_equiv_pos_site_id
 _symmetry_equiv_pos_as_xyz
  1  'x, y, z'
loop_
 _atom_site_type_symbol
 _atom_site_label
 _atom_site_symmetry_multiplicity
 _atom_site_fract_x
 _atom_site_fract_y
 _atom_site_fract_z
 _atom_site_occupancy
  Sr  Sr0  1  0.000000  0.499999  0.161771  1
  Sr  Sr1  1  0.500001  0.500000  0.661764  1
  Co  Co2  1  0.500000  0.000000  0.832989  1
  Co  Co3  1  0.500000  0.000000  0.500768  1
  Co  Co4  1  0.000000  0.000000  0.332970  1
  Co  Co5  1  0.000000  0.000000  0.000771  1
  Ni  Ni6  1  0.000000  0.000000  0.666732  1
  Ni  Ni7  1  0.500000  0.000000  0.166703  1
  O  O8  1  0.795489  0.175901  0.169810  1
  O  O9  1  0.295522  0.175909  0.669771  1
  O  O10  1  0.204510  0.824099  0.169811  1
  O  O11  1  0.704478  0.824091  0.669771  1
  O  O12  1  0.277454  0.168357  0.999199  1
  O  O13  1  0.777421  0.168350  0.499161  1
  O  O14  1  0.271821  0.170134  0.333247  1
  O  O15  1  0.771807  0.170084  0.833244  1
  O  O16  1  0.728179  0.829866  0.333247  1
  O  O17  1  0.228193  0.829917  0.833244  1
  O  O18  1  0.722546  0.831642  0.999199  1
  O  O19  1  0.222579  0.831651  0.499161  1
