# generated using pymatgen
data_YSc6Sn23Rh6
_symmetry_space_group_name_H-M   'P 1'
_cell_length_a   9.73098400
_cell_length_b   9.73098643
_cell_length_c   9.95505800
_cell_angle_alpha   90.00000000
_cell_angle_beta   90.00000000
_cell_angle_gamma   120.00000533
_symmetry_Int_Tables_number   1
_chemical_formula_structural   YSc6Sn23Rh6
_chemical_formula_sum   'Y1 Sc6 Sn23 Rh6'
_cell_volume   816.37186393
_cell_formula_units_Z   1
loop_
 _symmetry_equiv_pos_site_id
 _symmetry_equiv_pos_as_xyz
  1  'x, y, z'
loop_
 _atom_site_type_symbol
 _atom_site_label
 _atom_site_symmetry_multiplicity
 _atom_site_fract_x
 _atom_site_fract_y
 _atom_site_fract_z
 _atom_site_occupancy
  Y  Y0  1  0.000000  0.000000  0.000000  1
  Sc  Sc1  1  0.034006  0.517004  0.309908  1
  Sc  Sc2  1  0.482996  0.965994  0.309908  1
  Sc  Sc3  1  0.482996  0.517004  0.309908  1
  Sc  Sc4  1  0.965994  0.482996  0.690092  1
  Sc  Sc5  1  0.517004  0.034006  0.690092  1
  Sc  Sc6  1  0.517004  0.482996  0.690092  1
  Sn  Sn7  1  0.000000  0.000000  0.500000  1
  Sn  Sn8  1  0.123352  0.876648  0.283680  1
  Sn  Sn9  1  0.753295  0.876648  0.283680  1
  Sn  Sn10  1  0.123352  0.246705  0.283680  1
  Sn  Sn11  1  0.876648  0.123352  0.716320  1
  Sn  Sn12  1  0.246705  0.123352  0.716320  1
  Sn  Sn13  1  0.876648  0.753295  0.716320  1
  Sn  Sn14  1  0.352416  0.000000  0.000000  1
  Sn  Sn15  1  0.647584  0.647584  0.000000  1
  Sn  Sn16  1  0.000000  0.352416  0.000000  1
  Sn  Sn17  1  0.352416  0.352416  0.000000  1
  Sn  Sn18  1  0.000000  0.647584  0.000000  1
  Sn  Sn19  1  0.647584  0.000000  0.000000  1
  Sn  Sn20  1  0.775763  0.551525  0.458349  1
  Sn  Sn21  1  0.775763  0.224237  0.458349  1
  Sn  Sn22  1  0.448475  0.224237  0.458349  1
  Sn  Sn23  1  0.224237  0.448475  0.541651  1
  Sn  Sn24  1  0.224237  0.775763  0.541651  1
  Sn  Sn25  1  0.551525  0.775763  0.541651  1
  Sn  Sn26  1  0.666667  0.333333  0.174436  1
  Sn  Sn27  1  0.333333  0.666667  0.825564  1
  Sn  Sn28  1  0.666667  0.333333  0.859706  1
  Sn  Sn29  1  0.333333  0.666667  0.140294  1
  Rh  Rh30  1  0.169771  0.830229  0.799202  1
  Rh  Rh31  1  0.660458  0.830229  0.799202  1
  Rh  Rh32  1  0.169771  0.339542  0.799202  1
  Rh  Rh33  1  0.830229  0.169771  0.200798  1
  Rh  Rh34  1  0.339542  0.169771  0.200798  1
  Rh  Rh35  1  0.830229  0.660458  0.200798  1
