# generated using pymatgen
data_CaNp(NiAs)4
_symmetry_space_group_name_H-M   'P 1'
_cell_length_a   4.17032000
_cell_length_b   4.17032000
_cell_length_c   9.44611500
_cell_angle_alpha   90.00000000
_cell_angle_beta   90.00000000
_cell_angle_gamma   90.00000000
_symmetry_Int_Tables_number   1
_chemical_formula_structural   CaNp(NiAs)4
_chemical_formula_sum   'Ca1 Np1 Ni4 As4'
_cell_volume   164.28275988
_cell_formula_units_Z   1
loop_
 _symmetry_equiv_pos_site_id
 _symmetry_equiv_pos_as_xyz
  1  'x, y, z'
loop_
 _atom_site_type_symbol
 _atom_site_label
 _atom_site_symmetry_multiplicity
 _atom_site_fract_x
 _atom_site_fract_y
 _atom_site_fract_z
 _atom_site_occupancy
  Ca  Ca0  1  0.000000  0.500000  0.245683  1
  Np  Np1  1  0.500000  0.000000  0.753441  1
  Ni  Ni2  1  0.000000  0.000000  0.996232  1
  Ni  Ni3  1  0.500000  0.500000  0.996232  1
  Ni  Ni4  1  0.000000  0.500000  0.623591  1
  Ni  Ni5  1  0.500000  0.000000  0.381699  1
  As  As6  1  0.000000  0.000000  0.502396  1
  As  As7  1  0.500000  0.500000  0.502396  1
  As  As8  1  0.000000  0.500000  0.868105  1
  As  As9  1  0.500000  0.000000  0.130227  1
