# generated using pymatgen
data_U2Al20Re3Rh
_symmetry_space_group_name_H-M   'P 1'
_cell_length_a   6.89485572
_cell_length_b   6.87716683
_cell_length_c   9.15599357
_cell_angle_alpha   90.24357165
_cell_angle_beta   90.76961587
_cell_angle_gamma   97.37374497
_symmetry_Int_Tables_number   1
_chemical_formula_structural   U2Al20Re3Rh
_chemical_formula_sum   'U2 Al20 Re3 Rh1'
_cell_volume   430.51336887
_cell_formula_units_Z   1
loop_
 _symmetry_equiv_pos_site_id
 _symmetry_equiv_pos_as_xyz
  1  'x, y, z'
loop_
 _atom_site_type_symbol
 _atom_site_label
 _atom_site_symmetry_multiplicity
 _atom_site_fract_x
 _atom_site_fract_y
 _atom_site_fract_z
 _atom_site_occupancy
  U  U0  1  0.880217  0.134325  0.745911  1
  U  U1  1  0.119783  0.865675  0.254089  1
  Al  Al2  1  0.776258  0.777790  0.999621  1
  Al  Al3  1  0.777851  0.778617  0.499138  1
  Al  Al4  1  0.223742  0.222210  0.000379  1
  Al  Al5  1  0.222149  0.221383  0.500862  1
  Al  Al6  1  0.623539  0.378426  0.950431  1
  Al  Al7  1  0.376461  0.621574  0.049569  1
  Al  Al8  1  0.623508  0.376455  0.546221  1
  Al  Al9  1  0.376492  0.623545  0.453779  1
  Al  Al10  1  0.843381  0.154507  0.398698  1
  Al  Al11  1  0.156619  0.845493  0.601302  1
  Al  Al12  1  0.845419  0.154574  0.099968  1
  Al  Al13  1  0.154581  0.845426  0.900032  1
  Al  Al14  1  0.410149  0.141198  0.750750  1
  Al  Al15  1  0.139510  0.405552  0.250440  1
  Al  Al16  1  0.589851  0.858802  0.249250  1
  Al  Al17  1  0.860490  0.594448  0.749560  1
  Al  Al18  1  0.523698  0.782867  0.747524  1
  Al  Al19  1  0.780583  0.519415  0.248323  1
  Al  Al20  1  0.476302  0.217133  0.252476  1
  Al  Al21  1  0.219417  0.480585  0.751677  1
  Re  Re22  1  0.000000  0.500000  0.000000  1
  Re  Re23  1  0.500000  0.000000  0.500000  1
  Re  Re24  1  0.000000  0.500000  0.500000  1
  Rh  Rh25  1  0.500000  0.000000  0.000000  1
