# generated using pymatgen
data_YLu2Th(Al3Rh)6
_symmetry_space_group_name_H-M   'P 1'
_cell_length_a   7.56472013
_cell_length_b   7.57762655
_cell_length_c   9.45247600
_cell_angle_alpha   90.00000000
_cell_angle_beta   90.00000000
_cell_angle_gamma   119.35731050
_symmetry_Int_Tables_number   1
_chemical_formula_structural   YLu2Th(Al3Rh)6
_chemical_formula_sum   'Y1 Lu2 Th1 Al18 Rh6'
_cell_volume   472.25717815
_cell_formula_units_Z   1
loop_
 _symmetry_equiv_pos_site_id
 _symmetry_equiv_pos_as_xyz
  1  'x, y, z'
loop_
 _atom_site_type_symbol
 _atom_site_label
 _atom_site_symmetry_multiplicity
 _atom_site_fract_x
 _atom_site_fract_y
 _atom_site_fract_z
 _atom_site_occupancy
  Y  Y0  1  0.671784  0.994595  0.250000  1
  Lu  Lu1  1  0.004202  0.327075  0.750000  1
  Lu  Lu2  1  0.326959  0.004835  0.750000  1
  Th  Th3  1  0.994989  0.671228  0.250000  1
  Al  Al4  1  0.131489  0.132980  0.250000  1
  Al  Al5  1  0.872698  0.874783  0.750000  1
  Al  Al6  1  0.001584  0.331334  0.071050  1
  Al  Al7  1  0.000254  0.663768  0.915989  1
  Al  Al8  1  0.000254  0.663768  0.584011  1
  Al  Al9  1  0.340068  0.005459  0.428803  1
  Al  Al10  1  0.001584  0.331334  0.428950  1
  Al  Al11  1  0.664128  0.001556  0.578963  1
  Al  Al12  1  0.664128  0.001556  0.921037  1
  Al  Al13  1  0.340068  0.005459  0.071197  1
  Al  Al14  1  0.331389  0.331532  0.556897  1
  Al  Al15  1  0.663321  0.666613  0.458025  1
  Al  Al16  1  0.663321  0.666613  0.041975  1
  Al  Al17  1  0.331389  0.331532  0.943103  1
  Al  Al18  1  0.343911  0.548876  0.250000  1
  Al  Al19  1  0.657796  0.446657  0.750000  1
  Al  Al20  1  0.545380  0.336952  0.250000  1
  Al  Al21  1  0.447382  0.660261  0.750000  1
  Rh  Rh22  1  0.673321  0.329099  0.998624  1
  Rh  Rh23  1  0.326204  0.671791  0.998866  1
  Rh  Rh24  1  0.326204  0.671791  0.501134  1
  Rh  Rh25  1  0.673321  0.329099  0.501376  1
  Rh  Rh26  1  0.001437  0.999728  0.998473  1
  Rh  Rh27  1  0.001437  0.999728  0.501527  1
