# generated using pymatgen
data_Cs3CeSb2
_symmetry_space_group_name_H-M   'P 1'
_cell_length_a   10.61804303
_cell_length_b   10.61804324
_cell_length_c   10.61804387
_cell_angle_alpha   126.56663439
_cell_angle_beta   72.82518125
_cell_angle_gamma   134.38938313
_symmetry_Int_Tables_number   1
_chemical_formula_structural   Cs3CeSb2
_chemical_formula_sum   'Cs6 Ce2 Sb4'
_cell_volume   671.51030201
_cell_formula_units_Z   2
loop_
 _symmetry_equiv_pos_site_id
 _symmetry_equiv_pos_as_xyz
  1  'x, y, z'
loop_
 _atom_site_type_symbol
 _atom_site_label
 _atom_site_symmetry_multiplicity
 _atom_site_fract_x
 _atom_site_fract_y
 _atom_site_fract_z
 _atom_site_occupancy
  Cs  Cs0  1  0.250000  0.250000  0.000000  1
  Cs  Cs1  1  0.750000  0.750000  0.000000  1
  Cs  Cs2  1  0.818067  0.293093  0.121487  1
  Cs  Cs3  1  0.681932  0.803420  0.475026  1
  Cs  Cs4  1  0.328393  0.206907  0.524974  1
  Cs  Cs5  1  0.171606  0.696581  0.878513  1
  Ce  Ce6  1  0.750000  0.250000  0.500000  1
  Ce  Ce7  1  0.250000  0.750000  0.500000  1
  Sb  Sb8  1  0.409134  0.816420  0.219773  1
  Sb  Sb9  1  0.090866  0.310640  0.407286  1
  Sb  Sb10  1  0.903354  0.683580  0.592715  1
  Sb  Sb11  1  0.596646  0.189360  0.780227  1
