# generated using pymatgen
data_Ca3Zn7Ag2
_symmetry_space_group_name_H-M   'P 1'
_cell_length_a   9.61098731
_cell_length_b   9.61098731
_cell_length_c   9.61098702
_cell_angle_alpha   33.29929289
_cell_angle_beta   33.29929365
_cell_angle_gamma   33.29928615
_symmetry_Int_Tables_number   1
_chemical_formula_structural   Ca3Zn7Ag2
_chemical_formula_sum   'Ca3 Zn7 Ag2'
_cell_volume   238.24715669
_cell_formula_units_Z   1
loop_
 _symmetry_equiv_pos_site_id
 _symmetry_equiv_pos_as_xyz
  1  'x, y, z'
loop_
 _atom_site_type_symbol
 _atom_site_label
 _atom_site_symmetry_multiplicity
 _atom_site_fract_x
 _atom_site_fract_y
 _atom_site_fract_z
 _atom_site_occupancy
  Ca  Ca0  1  0.000000  0.000000  0.000000  1
  Ca  Ca1  1  0.142956  0.142956  0.142956  1
  Ca  Ca2  1  0.857044  0.857044  0.857044  1
  Zn  Zn3  1  0.413547  0.413547  0.921789  1
  Zn  Zn4  1  0.921789  0.413547  0.413547  1
  Zn  Zn5  1  0.500000  0.500000  0.500000  1
  Zn  Zn6  1  0.586453  0.586453  0.078211  1
  Zn  Zn7  1  0.413547  0.921789  0.413547  1
  Zn  Zn8  1  0.078211  0.586453  0.586453  1
  Zn  Zn9  1  0.586453  0.078211  0.586453  1
  Ag  Ag10  1  0.665121  0.665121  0.665121  1
  Ag  Ag11  1  0.334879  0.334879  0.334879  1
