# generated using pymatgen
data_Dy4Er(SnPb)2
_symmetry_space_group_name_H-M   'P 1'
_cell_length_a   8.13260600
_cell_length_b   8.14832700
_cell_length_c   15.57606400
_cell_angle_alpha   90.00000000
_cell_angle_beta   90.00000000
_cell_angle_gamma   90.00000000
_symmetry_Int_Tables_number   1
_chemical_formula_structural   Dy4Er(SnPb)2
_chemical_formula_sum   'Dy16 Er4 Sn8 Pb8'
_cell_volume   1032.18110549
_cell_formula_units_Z   4
loop_
 _symmetry_equiv_pos_site_id
 _symmetry_equiv_pos_as_xyz
  1  'x, y, z'
loop_
 _atom_site_type_symbol
 _atom_site_label
 _atom_site_symmetry_multiplicity
 _atom_site_fract_x
 _atom_site_fract_y
 _atom_site_fract_z
 _atom_site_occupancy
  Dy  Dy0  1  0.379092  0.838863  0.877193  1
  Dy  Dy1  1  0.879092  0.661137  0.622807  1
  Dy  Dy2  1  0.620908  0.161137  0.377193  1
  Dy  Dy3  1  0.120908  0.338863  0.122807  1
  Dy  Dy4  1  0.620908  0.161137  0.122807  1
  Dy  Dy5  1  0.120908  0.338863  0.377193  1
  Dy  Dy6  1  0.379092  0.838863  0.622807  1
  Dy  Dy7  1  0.879092  0.661137  0.877193  1
  Dy  Dy8  1  0.534544  0.323733  0.896740  1
  Dy  Dy9  1  0.034544  0.176267  0.603260  1
  Dy  Dy10  1  0.465456  0.676267  0.396740  1
  Dy  Dy11  1  0.965456  0.823733  0.103260  1
  Dy  Dy12  1  0.465456  0.676267  0.103260  1
  Dy  Dy13  1  0.965456  0.823733  0.396740  1
  Dy  Dy14  1  0.534544  0.323733  0.603260  1
  Dy  Dy15  1  0.034544  0.176267  0.896740  1
  Er  Er16  1  0.209748  0.503530  0.750000  1
  Er  Er17  1  0.709748  0.996470  0.750000  1
  Er  Er18  1  0.790252  0.496470  0.250000  1
  Er  Er19  1  0.290252  0.003530  0.250000  1
  Sn  Sn20  1  0.575605  0.622625  0.750000  1
  Sn  Sn21  1  0.075605  0.877375  0.750000  1
  Sn  Sn22  1  0.424395  0.377375  0.250000  1
  Sn  Sn23  1  0.924395  0.122625  0.250000  1
  Sn  Sn24  1  0.342649  0.148885  0.750000  1
  Sn  Sn25  1  0.842649  0.351115  0.750000  1
  Sn  Sn26  1  0.657351  0.851115  0.250000  1
  Sn  Sn27  1  0.157351  0.648885  0.250000  1
  Pb  Pb28  1  0.281567  0.032872  0.042055  1
  Pb  Pb29  1  0.781567  0.467128  0.457945  1
  Pb  Pb30  1  0.718433  0.967128  0.542055  1
  Pb  Pb31  1  0.218433  0.532872  0.957945  1
  Pb  Pb32  1  0.718433  0.967128  0.957945  1
  Pb  Pb33  1  0.218433  0.532872  0.542055  1
  Pb  Pb34  1  0.281567  0.032872  0.457945  1
  Pb  Pb35  1  0.781567  0.467128  0.042055  1
