# generated using pymatgen
data_Tm8MnB24Os2W
_symmetry_space_group_name_H-M   'P 1'
_cell_length_a   3.58389900
_cell_length_b   9.10869801
_cell_length_c   11.48857212
_cell_angle_alpha   89.93870336
_cell_angle_beta   90.00000000
_cell_angle_gamma   90.00000000
_symmetry_Int_Tables_number   1
_chemical_formula_structural   Tm8MnB24Os2W
_chemical_formula_sum   'Tm8 Mn1 B24 Os2 W1'
_cell_volume   375.04024351
_cell_formula_units_Z   1
loop_
 _symmetry_equiv_pos_site_id
 _symmetry_equiv_pos_as_xyz
  1  'x, y, z'
loop_
 _atom_site_type_symbol
 _atom_site_label
 _atom_site_symmetry_multiplicity
 _atom_site_fract_x
 _atom_site_fract_y
 _atom_site_fract_z
 _atom_site_occupancy
  Tm  Tm0  1  0.000000  0.322064  0.417549  1
  Tm  Tm1  1  0.000000  0.674090  0.587426  1
  Tm  Tm2  1  0.000000  0.820809  0.085909  1
  Tm  Tm3  1  0.000000  0.179885  0.911955  1
  Tm  Tm4  1  0.000000  0.945812  0.372981  1
  Tm  Tm5  1  0.000000  0.061355  0.630120  1
  Tm  Tm6  1  0.000000  0.442389  0.126419  1
  Tm  Tm7  1  0.000000  0.554143  0.867840  1
  Mn  Mn8  1  0.000000  0.361126  0.680727  1
  B  B9  1  0.500000  0.549700  0.437380  1
  B  B10  1  0.500000  0.445115  0.569425  1
  B  B11  1  0.500000  0.053293  0.066139  1
  B  B12  1  0.500000  0.946478  0.933232  1
  B  B13  1  0.500000  0.752084  0.423454  1
  B  B14  1  0.500000  0.253921  0.582867  1
  B  B15  1  0.500000  0.248604  0.079889  1
  B  B16  1  0.500000  0.750218  0.918311  1
  B  B17  1  0.500000  0.796152  0.263439  1
  B  B18  1  0.500000  0.210457  0.734371  1
  B  B19  1  0.500000  0.290740  0.233892  1
  B  B20  1  0.500000  0.708209  0.764427  1
  B  B21  1  0.500000  0.631243  0.181438  1
  B  B22  1  0.500000  0.368431  0.813317  1
  B  B23  1  0.500000  0.131348  0.314750  1
  B  B24  1  0.500000  0.870093  0.685430  1
  B  B25  1  0.500000  0.982556  0.212250  1
  B  B26  1  0.500000  0.019012  0.787824  1
  B  B27  1  0.500000  0.475992  0.287087  1
  B  B28  1  0.500000  0.514678  0.711710  1
  B  B29  1  0.500000  0.602596  0.026155  1
  B  B30  1  0.500000  0.395797  0.969855  1
  B  B31  1  0.500000  0.105283  0.472264  1
  B  B32  1  0.500000  0.898776  0.530329  1
  Os  Os33  1  0.000000  0.137469  0.177947  1
  Os  Os34  1  0.000000  0.862351  0.821115  1
  W  W35  1  0.000000  0.637733  0.320776  1
