# generated using pymatgen
data_DyEr2Zr(NiP)4
_symmetry_space_group_name_H-M   'P 1'
_cell_length_a   3.88141500
_cell_length_b   3.88141476
_cell_length_c   15.00465400
_cell_angle_alpha   90.00000000
_cell_angle_beta   90.00000000
_cell_angle_gamma   119.99999355
_symmetry_Int_Tables_number   1
_chemical_formula_structural   DyEr2Zr(NiP)4
_chemical_formula_sum   'Dy1 Er2 Zr1 Ni4 P4'
_cell_volume   195.76577936
_cell_formula_units_Z   1
loop_
 _symmetry_equiv_pos_site_id
 _symmetry_equiv_pos_as_xyz
  1  'x, y, z'
loop_
 _atom_site_type_symbol
 _atom_site_label
 _atom_site_symmetry_multiplicity
 _atom_site_fract_x
 _atom_site_fract_y
 _atom_site_fract_z
 _atom_site_occupancy
  Dy  Dy0  1  0.000000  0.000000  0.005064  1
  Er  Er1  1  0.000000  0.000000  0.495465  1
  Er  Er2  1  0.000000  0.000000  0.748875  1
  Zr  Zr3  1  0.000000  0.000000  0.251100  1
  Ni  Ni4  1  0.333333  0.666667  0.350532  1
  Ni  Ni5  1  0.666667  0.333333  0.624511  1
  Ni  Ni6  1  0.666667  0.333333  0.873305  1
  Ni  Ni7  1  0.333333  0.666667  0.150703  1
  P  P8  1  0.333333  0.666667  0.878635  1
  P  P9  1  0.666667  0.333333  0.127273  1
  P  P10  1  0.666667  0.333333  0.375077  1
  P  P11  1  0.333333  0.666667  0.619462  1
