# generated using pymatgen
data_DyLu6CoSn23Ru5
_symmetry_space_group_name_H-M   'P 1'
_cell_length_a   9.78812587
_cell_length_b   9.84361849
_cell_length_c   10.00320062
_cell_angle_alpha   89.99999826
_cell_angle_beta   89.97162293
_cell_angle_gamma   120.18772394
_symmetry_Int_Tables_number   1
_chemical_formula_structural   DyLu6CoSn23Ru5
_chemical_formula_sum   'Dy1 Lu6 Co1 Sn23 Ru5'
_cell_volume   833.10400375
_cell_formula_units_Z   1
loop_
 _symmetry_equiv_pos_site_id
 _symmetry_equiv_pos_as_xyz
  1  'x, y, z'
loop_
 _atom_site_type_symbol
 _atom_site_label
 _atom_site_symmetry_multiplicity
 _atom_site_fract_x
 _atom_site_fract_y
 _atom_site_fract_z
 _atom_site_occupancy
  Dy  Dy0  1  0.965572  0.482786  0.694771  1
  Lu  Lu1  1  0.009080  0.004541  0.004557  1
  Lu  Lu2  1  0.485610  0.515188  0.304095  1
  Lu  Lu3  1  0.514531  0.484455  0.695319  1
  Lu  Lu4  1  0.485610  0.970422  0.304095  1
  Lu  Lu5  1  0.514531  0.030076  0.695319  1
  Lu  Lu6  1  0.029028  0.514515  0.303689  1
  Co  Co7  1  0.657428  0.828714  0.798743  1
  Sn  Sn8  1  0.350871  0.999539  0.000258  1
  Sn  Sn9  1  0.652352  0.996608  0.995118  1
  Sn  Sn10  1  0.000316  0.348979  0.000122  1
  Sn  Sn11  1  0.000316  0.651336  0.000122  1
  Sn  Sn12  1  0.652352  0.655744  0.995118  1
  Sn  Sn13  1  0.350871  0.351333  0.000258  1
  Sn  Sn14  1  0.335801  0.667902  0.819828  1
  Sn  Sn15  1  0.666536  0.333267  0.178142  1
  Sn  Sn16  1  0.000016  0.000008  0.501293  1
  Sn  Sn17  1  0.778768  0.220409  0.462843  1
  Sn  Sn18  1  0.221558  0.779246  0.535895  1
  Sn  Sn19  1  0.778768  0.558359  0.462843  1
  Sn  Sn20  1  0.221558  0.442312  0.535895  1
  Sn  Sn21  1  0.443076  0.221538  0.463207  1
  Sn  Sn22  1  0.562535  0.781268  0.541744  1
  Sn  Sn23  1  0.333451  0.666727  0.129801  1
  Sn  Sn24  1  0.663221  0.331610  0.871001  1
  Sn  Sn25  1  0.117293  0.881877  0.277460  1
  Sn  Sn26  1  0.877529  0.110245  0.726578  1
  Sn  Sn27  1  0.117293  0.235416  0.277460  1
  Sn  Sn28  1  0.877529  0.767284  0.726578  1
  Sn  Sn29  1  0.761726  0.880863  0.272910  1
  Sn  Sn30  1  0.238896  0.119448  0.726198  1
  Ru  Ru31  1  0.828320  0.168452  0.201241  1
  Ru  Ru32  1  0.170029  0.831227  0.797575  1
  Ru  Ru33  1  0.828320  0.659867  0.201241  1
  Ru  Ru34  1  0.170029  0.338804  0.797575  1
  Ru  Ru35  1  0.339280  0.169639  0.201106  1
