# generated using pymatgen
data_Yb2Dy13Y5(Cd3Ru)2
_symmetry_space_group_name_H-M   'P 1'
_cell_length_a   9.63719200
_cell_length_b   9.63719228
_cell_length_c   9.81639200
_cell_angle_alpha   90.00000000
_cell_angle_beta   90.00000000
_cell_angle_gamma   120.00095522
_symmetry_Int_Tables_number   1
_chemical_formula_structural   Yb2Dy13Y5(Cd3Ru)2
_chemical_formula_sum   'Yb2 Dy13 Y5 Cd6 Ru2'
_cell_volume   789.54953053
_cell_formula_units_Z   1
loop_
 _symmetry_equiv_pos_site_id
 _symmetry_equiv_pos_as_xyz
  1  'x, y, z'
loop_
 _atom_site_type_symbol
 _atom_site_label
 _atom_site_symmetry_multiplicity
 _atom_site_fract_x
 _atom_site_fract_y
 _atom_site_fract_z
 _atom_site_occupancy
  Yb  Yb0  1  0.000003  0.999997  0.500010  1
  Yb  Yb1  1  0.000003  0.999997  0.999990  1
  Dy  Dy2  1  0.210802  0.789198  0.439709  1
  Dy  Dy3  1  0.210845  0.421604  0.439686  1
  Dy  Dy4  1  0.578396  0.789155  0.439686  1
  Dy  Dy5  1  0.789206  0.210794  0.560318  1
  Dy  Dy6  1  0.789165  0.578387  0.560282  1
  Dy  Dy7  1  0.421613  0.210835  0.560282  1
  Dy  Dy8  1  0.789206  0.210794  0.939682  1
  Dy  Dy9  1  0.789165  0.578387  0.939718  1
  Dy  Dy10  1  0.421613  0.210835  0.939718  1
  Dy  Dy11  1  0.210802  0.789198  0.060291  1
  Dy  Dy12  1  0.210845  0.421604  0.060314  1
  Dy  Dy13  1  0.578396  0.789155  0.060314  1
  Dy  Dy14  1  0.541914  0.458086  0.250000  1
  Y  Y15  1  0.541969  0.083946  0.250000  1
  Y  Y16  1  0.916054  0.458031  0.250000  1
  Y  Y17  1  0.458053  0.541947  0.750000  1
  Y  Y18  1  0.458047  0.916105  0.750000  1
  Y  Y19  1  0.083895  0.541953  0.750000  1
  Cd  Cd20  1  0.884648  0.115352  0.250000  1
  Cd  Cd21  1  0.884606  0.769260  0.250000  1
  Cd  Cd22  1  0.230740  0.115394  0.250000  1
  Cd  Cd23  1  0.115359  0.884641  0.750000  1
  Cd  Cd24  1  0.115360  0.230718  0.750000  1
  Cd  Cd25  1  0.769282  0.884640  0.750000  1
  Ru  Ru26  1  0.333353  0.666647  0.250000  1
  Ru  Ru27  1  0.666661  0.333339  0.750000  1
