# generated using pymatgen
data_Yb7Eu(TiN4)2
_symmetry_space_group_name_H-M   'P 1'
_cell_length_a   5.97644617
_cell_length_b   6.03544711
_cell_length_c   8.93780771
_cell_angle_alpha   71.99182712
_cell_angle_beta   79.41634945
_cell_angle_gamma   67.83422100
_symmetry_Int_Tables_number   1
_chemical_formula_structural   Yb7Eu(TiN4)2
_chemical_formula_sum   'Yb7 Eu1 Ti2 N8'
_cell_volume   283.11586899
_cell_formula_units_Z   1
loop_
 _symmetry_equiv_pos_site_id
 _symmetry_equiv_pos_as_xyz
  1  'x, y, z'
loop_
 _atom_site_type_symbol
 _atom_site_label
 _atom_site_symmetry_multiplicity
 _atom_site_fract_x
 _atom_site_fract_y
 _atom_site_fract_z
 _atom_site_occupancy
  Yb  Yb0  1  0.232967  0.955374  0.605522  1
  Yb  Yb1  1  0.776240  0.570593  0.177086  1
  Yb  Yb2  1  0.737471  0.233925  0.977502  1
  Yb  Yb3  1  0.274860  0.512838  0.431110  1
  Yb  Yb4  1  0.771151  0.041704  0.391495  1
  Yb  Yb5  1  0.227021  0.424818  0.820773  1
  Yb  Yb6  1  0.727062  0.484605  0.569222  1
  Eu  Eu7  1  0.257203  0.770592  0.025209  1
  Ti  Ti8  1  0.714944  0.848736  0.755411  1
  Ti  Ti9  1  0.285889  0.151746  0.244446  1
  N  N10  1  0.970540  0.705828  0.610232  1
  N  N11  1  0.513695  0.177983  0.632580  1
  N  N12  1  0.031865  0.292623  0.391255  1
  N  N13  1  0.514504  0.636038  0.802251  1
  N  N14  1  0.107558  0.185542  0.071552  1
  N  N15  1  0.484745  0.819770  0.366952  1
  N  N16  1  0.491766  0.356133  0.198749  1
  N  N17  1  0.880521  0.831153  0.928653  1
