# generated using pymatgen
data_Rb3Mg2H9Ru
_symmetry_space_group_name_H-M   'P 1'
_cell_length_a   7.96815155
_cell_length_b   7.96815065
_cell_length_c   7.96815194
_cell_angle_alpha   44.80207784
_cell_angle_beta   44.80207424
_cell_angle_gamma   44.80207965
_symmetry_Int_Tables_number   1
_chemical_formula_structural   Rb3Mg2H9Ru
_chemical_formula_sum   'Rb3 Mg2 H9 Ru1'
_cell_volume   228.54796014
_cell_formula_units_Z   1
loop_
 _symmetry_equiv_pos_site_id
 _symmetry_equiv_pos_as_xyz
  1  'x, y, z'
loop_
 _atom_site_type_symbol
 _atom_site_label
 _atom_site_symmetry_multiplicity
 _atom_site_fract_x
 _atom_site_fract_y
 _atom_site_fract_z
 _atom_site_occupancy
  Rb  Rb0  1  0.000000  0.000000  0.000000  1
  Rb  Rb1  1  0.789466  0.789466  0.789466  1
  Rb  Rb2  1  0.210534  0.210534  0.210534  1
  Mg  Mg3  1  0.618691  0.618691  0.618691  1
  Mg  Mg4  1  0.381309  0.381309  0.381309  1
  H  H5  1  0.000000  0.500000  0.500000  1
  H  H6  1  0.500000  0.000000  0.500000  1
  H  H7  1  0.500000  0.500000  0.000000  1
  H  H8  1  0.719655  0.318384  0.318384  1
  H  H9  1  0.318384  0.719655  0.318384  1
  H  H10  1  0.318384  0.318384  0.719655  1
  H  H11  1  0.681616  0.681616  0.280345  1
  H  H12  1  0.681616  0.280345  0.681616  1
  H  H13  1  0.280345  0.681616  0.681616  1
  Ru  Ru14  1  0.500000  0.500000  0.500000  1
