# generated using pymatgen
data_Er8Si8Pd5Pt3
_symmetry_space_group_name_H-M   'P 1'
_cell_length_a   4.27209600
_cell_length_b   7.46658903
_cell_length_c   13.90232505
_cell_angle_alpha   90.00986791
_cell_angle_beta   90.00000000
_cell_angle_gamma   90.00000000
_symmetry_Int_Tables_number   1
_chemical_formula_structural   Er8Si8Pd5Pt3
_chemical_formula_sum   'Er8 Si8 Pd5 Pt3'
_cell_volume   443.45615103
_cell_formula_units_Z   1
loop_
 _symmetry_equiv_pos_site_id
 _symmetry_equiv_pos_as_xyz
  1  'x, y, z'
loop_
 _atom_site_type_symbol
 _atom_site_label
 _atom_site_symmetry_multiplicity
 _atom_site_fract_x
 _atom_site_fract_y
 _atom_site_fract_z
 _atom_site_occupancy
  Er  Er0  1  0.000000  0.299256  0.000093  1
  Er  Er1  1  0.500000  0.701963  0.500215  1
  Er  Er2  1  0.000000  0.291927  0.499943  1
  Er  Er3  1  0.500000  0.708225  0.999739  1
  Er  Er4  1  0.000000  0.205636  0.250323  1
  Er  Er5  1  0.500000  0.793170  0.250249  1
  Er  Er6  1  0.000000  0.205336  0.749783  1
  Er  Er7  1  0.500000  0.794487  0.750325  1
  Si  Si8  1  0.000000  0.908510  0.592577  1
  Si  Si9  1  0.500000  0.091266  0.908639  1
  Si  Si10  1  0.000000  0.908348  0.407084  1
  Si  Si11  1  0.500000  0.093536  0.093450  1
  Si  Si12  1  0.000000  0.592859  0.143870  1
  Si  Si13  1  0.500000  0.405879  0.356754  1
  Si  Si14  1  0.000000  0.594210  0.856719  1
  Si  Si15  1  0.500000  0.405640  0.643009  1
  Pd  Pd16  1  0.000000  0.923539  0.107352  1
  Pd  Pd17  1  0.500000  0.421103  0.157173  1
  Pd  Pd18  1  0.000000  0.579893  0.342377  1
  Pd  Pd19  1  0.500000  0.420535  0.842921  1
  Pd  Pd20  1  0.000000  0.579366  0.657505  1
  Pt  Pt21  1  0.500000  0.075272  0.609141  1
  Pt  Pt22  1  0.000000  0.924782  0.890402  1
  Pt  Pt23  1  0.500000  0.075261  0.390358  1
