# generated using pymatgen
data_Tm12TlNi4Au
_symmetry_space_group_name_H-M   'P 1'
_cell_length_a   8.26211762
_cell_length_b   8.26208739
_cell_length_c   8.26209100
_cell_angle_alpha   106.77674132
_cell_angle_beta   109.27437483
_cell_angle_gamma   112.41192454
_symmetry_Int_Tables_number   1
_chemical_formula_structural   Tm12TlNi4Au
_chemical_formula_sum   'Tm12 Tl1 Ni4 Au1'
_cell_volume   433.10231504
_cell_formula_units_Z   1
loop_
 _symmetry_equiv_pos_site_id
 _symmetry_equiv_pos_as_xyz
  1  'x, y, z'
loop_
 _atom_site_type_symbol
 _atom_site_label
 _atom_site_symmetry_multiplicity
 _atom_site_fract_x
 _atom_site_fract_y
 _atom_site_fract_z
 _atom_site_occupancy
  Tm  Tm0  1  0.699010  0.275799  0.974815  1
  Tm  Tm1  1  0.300987  0.724226  0.025206  1
  Tm  Tm2  1  0.699011  0.724133  0.423148  1
  Tm  Tm3  1  0.300976  0.275788  0.576759  1
  Tm  Tm4  1  0.807003  0.132055  0.325068  1
  Tm  Tm5  1  0.807004  0.481930  0.674974  1
  Tm  Tm6  1  0.192981  0.867934  0.674937  1
  Tm  Tm7  1  0.193010  0.518086  0.325028  1
  Tm  Tm8  1  0.610030  0.791737  0.818280  1
  Tm  Tm9  1  0.973431  0.791739  0.181667  1
  Tm  Tm10  1  0.026554  0.208257  0.818302  1
  Tm  Tm11  1  0.389946  0.208249  0.181689  1
  Tl  Tl12  1  0.499997  0.999979  0.499999  1
  Ni  Ni13  1  0.859128  0.500076  0.359055  1
  Ni  Ni14  1  0.140973  0.499912  0.641044  1
  Ni  Ni15  1  0.999979  0.125328  0.125348  1
  Ni  Ni16  1  0.000019  0.874794  0.874747  1
  Au  Au17  1  0.499958  0.499979  0.999932  1
