# generated using pymatgen
data_Sc12Os(RuBr8)2
_symmetry_space_group_name_H-M   'P 1'
_cell_length_a   9.07859385
_cell_length_b   11.14840140
_cell_length_c   11.81020679
_cell_angle_alpha   116.95410438
_cell_angle_beta   101.77048979
_cell_angle_gamma   101.44686844
_symmetry_Int_Tables_number   1
_chemical_formula_structural   Sc12Os(RuBr8)2
_chemical_formula_sum   'Sc12 Os1 Ru2 Br16'
_cell_volume   983.40383919
_cell_formula_units_Z   1
loop_
 _symmetry_equiv_pos_site_id
 _symmetry_equiv_pos_as_xyz
  1  'x, y, z'
loop_
 _atom_site_type_symbol
 _atom_site_label
 _atom_site_symmetry_multiplicity
 _atom_site_fract_x
 _atom_site_fract_y
 _atom_site_fract_z
 _atom_site_occupancy
  Sc  Sc0  1  0.079315  0.259519  0.352726  1
  Sc  Sc1  1  0.919486  0.740452  0.647216  1
  Sc  Sc2  1  0.780920  0.537852  0.322747  1
  Sc  Sc3  1  0.218428  0.462142  0.677312  1
  Sc  Sc4  1  0.276867  0.741140  0.647825  1
  Sc  Sc5  1  0.722070  0.258878  0.352265  1
  Sc  Sc6  1  0.137941  0.537724  0.323556  1
  Sc  Sc7  1  0.861169  0.462321  0.676347  1
  Sc  Sc8  1  0.400992  0.353845  0.266805  1
  Sc  Sc9  1  0.595702  0.646069  0.733089  1
  Sc  Sc10  1  0.455196  0.300557  0.520993  1
  Sc  Sc11  1  0.541660  0.699535  0.479038  1
  Os  Os12  1  0.338303  0.500100  0.499439  1
  Ru  Ru13  1  0.000724  0.500026  0.500041  1
  Ru  Ru14  1  0.661462  0.499863  0.500507  1
  Br  Br15  1  0.397650  0.740976  0.883258  1
  Br  Br16  1  0.603238  0.259764  0.117764  1
  Br  Br17  1  0.188972  0.967777  0.785234  1
  Br  Br18  1  0.808725  0.032200  0.214882  1
  Br  Br19  1  0.341823  0.093338  0.250198  1
  Br  Br20  1  0.664823  0.906672  0.749873  1
  Br  Br21  1  0.556704  0.437231  0.799047  1
  Br  Br22  1  0.449266  0.562636  0.201040  1
  Br  Br23  1  0.310653  0.828287  0.463000  1
  Br  Br24  1  0.689905  0.172796  0.537097  1
  Br  Br25  1  0.167831  0.169689  0.532198  1
  Br  Br26  1  0.832229  0.829248  0.467624  1
  Br  Br27  1  0.924852  0.575720  0.159222  1
  Br  Br28  1  0.073310  0.424435  0.840799  1
  Br  Br29  1  0.921366  0.738222  0.881938  1
  Br  Br30  1  0.078422  0.260983  0.116919  1
