# generated using pymatgen
data_Mn6Al5VCo12
_symmetry_space_group_name_H-M   'P 1'
_cell_length_a   4.04276300
_cell_length_b   5.72281100
_cell_length_c   12.13250400
_cell_angle_alpha   89.99709375
_cell_angle_beta   90.00056680
_cell_angle_gamma   89.99991744
_symmetry_Int_Tables_number   1
_chemical_formula_structural   Mn6Al5VCo12
_chemical_formula_sum   'Mn6 Al5 V1 Co12'
_cell_volume   280.69723099
_cell_formula_units_Z   1
loop_
 _symmetry_equiv_pos_site_id
 _symmetry_equiv_pos_as_xyz
  1  'x, y, z'
loop_
 _atom_site_type_symbol
 _atom_site_label
 _atom_site_symmetry_multiplicity
 _atom_site_fract_x
 _atom_site_fract_y
 _atom_site_fract_z
 _atom_site_occupancy
  Mn  Mn0  1  0.000000  0.000000  0.000000  1
  Mn  Mn1  1  0.500049  0.499995  0.169687  1
  Mn  Mn2  1  0.000050  0.999984  0.333862  1
  Mn  Mn3  1  0.500001  0.500000  0.500000  1
  Mn  Mn4  1  0.999950  0.000016  0.666137  1
  Mn  Mn5  1  0.499950  0.500005  0.830314  1
  Al  Al6  1  0.500054  0.000068  0.167298  1
  Al  Al7  1  0.000059  0.499941  0.334126  1
  Al  Al8  1  0.500001  0.000000  0.500000  1
  Al  Al9  1  0.999940  0.500059  0.665874  1
  Al  Al10  1  0.499948  0.999932  0.832703  1
  V  V11  1  0.000000  0.500000  0.000000  1
  Co  Co12  1  0.500001  0.257698  0.000005  1
  Co  Co13  1  0.500001  0.742303  0.999995  1
  Co  Co14  1  0.000050  0.254854  0.162950  1
  Co  Co15  1  0.000050  0.745105  0.162935  1
  Co  Co16  1  0.500055  0.250313  0.333003  1
  Co  Co17  1  0.500056  0.749683  0.333003  1
  Co  Co18  1  0.000000  0.250678  0.500000  1
  Co  Co19  1  0.000000  0.749323  0.500000  1
  Co  Co20  1  0.499943  0.250316  0.666997  1
  Co  Co21  1  0.499944  0.749686  0.666997  1
  Co  Co22  1  0.999950  0.254893  0.837065  1
  Co  Co23  1  0.999950  0.745144  0.837050  1
