# generated using pymatgen
data_Pr7P12Ir17
_symmetry_space_group_name_H-M   'P 1'
_cell_length_a   12.24715769
_cell_length_b   12.24715625
_cell_length_c   13.54525884
_cell_angle_alpha   68.20548184
_cell_angle_beta   68.20548408
_cell_angle_gamma   18.85441251
_symmetry_Int_Tables_number   1
_chemical_formula_structural   Pr7P12Ir17
_chemical_formula_sum   'Pr7 P12 Ir17'
_cell_volume   608.29498991
_cell_formula_units_Z   1
loop_
 _symmetry_equiv_pos_site_id
 _symmetry_equiv_pos_as_xyz
  1  'x, y, z'
loop_
 _atom_site_type_symbol
 _atom_site_label
 _atom_site_symmetry_multiplicity
 _atom_site_fract_x
 _atom_site_fract_y
 _atom_site_fract_z
 _atom_site_occupancy
  Pr  Pr0  1  0.500000  0.500000  0.500000  1
  Pr  Pr1  1  0.367355  0.367355  0.999533  1
  Pr  Pr2  1  0.632645  0.632645  0.000467  1
  Pr  Pr3  1  0.235633  0.235633  0.309654  1
  Pr  Pr4  1  0.764367  0.764367  0.690346  1
  Pr  Pr5  1  0.417654  0.417654  0.255802  1
  Pr  Pr6  1  0.582346  0.582346  0.744198  1
  P  P7  1  0.060655  0.060655  0.927090  1
  P  P8  1  0.939345  0.939345  0.072910  1
  P  P9  1  0.885392  0.885392  0.831353  1
  P  P10  1  0.114608  0.114608  0.168647  1
  P  P11  1  0.187266  0.187266  0.618957  1
  P  P12  1  0.812734  0.812734  0.381043  1
  P  P13  1  0.366250  0.366250  0.579156  1
  P  P14  1  0.633750  0.633750  0.420844  1
  P  P15  1  0.012579  0.012579  0.670330  1
  P  P16  1  0.987421  0.987421  0.329670  1
  P  P17  1  0.235155  0.235155  0.883940  1
  P  P18  1  0.764845  0.764845  0.116060  1
  Ir  Ir19  1  0.838308  0.838308  0.192418  1
  Ir  Ir20  1  0.161692  0.161692  0.807582  1
  Ir  Ir21  1  0.026502  0.026502  0.125163  1
  Ir  Ir22  1  0.973498  0.973498  0.874837  1
  Ir  Ir23  1  0.888364  0.888364  0.458835  1
  Ir  Ir24  1  0.111636  0.111636  0.541165  1
  Ir  Ir25  1  0.500000  0.500000  0.000000  1
  Ir  Ir26  1  0.544374  0.544374  0.257935  1
  Ir  Ir27  1  0.455626  0.455626  0.742065  1
  Ir  Ir28  1  0.296227  0.296227  0.483965  1
  Ir  Ir29  1  0.703773  0.703773  0.516035  1
  Ir  Ir30  1  0.665590  0.665590  0.225591  1
  Ir  Ir31  1  0.334410  0.334410  0.774409  1
  Ir  Ir32  1  0.906890  0.906890  0.652806  1
  Ir  Ir33  1  0.093110  0.093110  0.347194  1
  Ir  Ir34  1  0.218704  0.218704  0.073501  1
  Ir  Ir35  1  0.781296  0.781296  0.926499  1
