# generated using pymatgen
data_Dy10Y2Os3Rh
_symmetry_space_group_name_H-M   'P 1'
_cell_length_a   6.37982009
_cell_length_b   7.37133683
_cell_length_c   9.11871900
_cell_angle_alpha   90.00000000
_cell_angle_beta   90.00000000
_cell_angle_gamma   90.20289371
_symmetry_Int_Tables_number   1
_chemical_formula_structural   Dy10Y2Os3Rh
_chemical_formula_sum   'Dy10 Y2 Os3 Rh1'
_cell_volume   428.83063036
_cell_formula_units_Z   1
loop_
 _symmetry_equiv_pos_site_id
 _symmetry_equiv_pos_as_xyz
  1  'x, y, z'
loop_
 _atom_site_type_symbol
 _atom_site_label
 _atom_site_symmetry_multiplicity
 _atom_site_fract_x
 _atom_site_fract_y
 _atom_site_fract_z
 _atom_site_occupancy
  Dy  Dy0  1  0.333239  0.672725  0.061158  1
  Dy  Dy1  1  0.170291  0.177456  0.438499  1
  Dy  Dy2  1  0.670524  0.324366  0.564080  1
  Dy  Dy3  1  0.826233  0.824230  0.933110  1
  Dy  Dy4  1  0.670524  0.324366  0.935920  1
  Dy  Dy5  1  0.826233  0.824230  0.566890  1
  Dy  Dy6  1  0.333239  0.672725  0.438842  1
  Dy  Dy7  1  0.170291  0.177456  0.061501  1
  Dy  Dy8  1  0.129374  0.461984  0.750000  1
  Dy  Dy9  1  0.368821  0.961764  0.750000  1
  Y  Y10  1  0.870132  0.537445  0.250000  1
  Y  Y11  1  0.629805  0.039451  0.250000  1
  Os  Os12  1  0.457245  0.383913  0.250000  1
  Os  Os13  1  0.961890  0.115825  0.750000  1
  Os  Os14  1  0.537534  0.616710  0.750000  1
  Rh  Rh15  1  0.044625  0.885353  0.250000  1
