# generated using pymatgen
data_TcBr35
_symmetry_space_group_name_H-M   'P 1'
_cell_length_a   15.98197694
_cell_length_b   11.40028128
_cell_length_c   10.79188300
_cell_angle_alpha   88.81408278
_cell_angle_beta   66.02770512
_cell_angle_gamma   92.31545406
_symmetry_Int_Tables_number   1
_chemical_formula_structural   TcBr35
_chemical_formula_sum   'Tc1 Br35'
_cell_volume   1793.71352310
_cell_formula_units_Z   1
loop_
 _symmetry_equiv_pos_site_id
 _symmetry_equiv_pos_as_xyz
  1  'x, y, z'
loop_
 _atom_site_type_symbol
 _atom_site_label
 _atom_site_symmetry_multiplicity
 _atom_site_fract_x
 _atom_site_fract_y
 _atom_site_fract_z
 _atom_site_occupancy
  Tc  Tc0  1  0.231228  0.438590  0.460533  1
  Br  Br1  1  0.516144  0.262090  0.527321  1
  Br  Br2  1  0.755990  0.584465  0.573897  1
  Br  Br3  1  0.472647  0.682414  0.738645  1
  Br  Br4  1  0.059087  0.890802  0.845339  1
  Br  Br5  1  0.891010  0.164689  0.024002  1
  Br  Br6  1  0.645536  0.320832  0.292451  1
  Br  Br7  1  0.619600  0.330675  0.836131  1
  Br  Br8  1  0.333377  0.761179  0.708455  1
  Br  Br9  1  0.327241  0.581308  0.230700  1
  Br  Br10  1  0.659121  0.130868  0.809320  1
  Br  Br11  1  0.910468  0.549325  0.390338  1
  Br  Br12  1  0.068164  0.950976  0.612463  1
  Br  Br13  1  0.895796  0.123588  0.258950  1
  Br  Br14  1  0.885328  0.209964  0.800413  1
  Br  Br15  1  0.643761  0.049747  0.220924  1
  Br  Br16  1  0.029085  0.826576  0.091908  1
  Br  Br17  1  0.361104  0.978972  0.730275  1
  Br  Br18  1  0.899295  0.333619  0.328060  1
  Br  Br19  1  0.885747  0.925127  0.693764  1
  Br  Br20  1  0.903589  0.654131  0.795240  1
  Br  Br21  1  0.310913  0.027073  0.274593  1
  Br  Br22  1  0.344542  0.319369  0.293469  1
  Br  Br23  1  0.605052  0.609724  0.786294  1
  Br  Br24  1  0.122266  0.381704  0.361004  1
  Br  Br25  1  0.717737  0.898371  0.786050  1
  Br  Br26  1  0.874585  0.445763  0.807181  1
  Br  Br27  1  0.483557  0.039755  0.246877  1
  Br  Br28  1  0.156624  0.301470  0.648607  1
  Br  Br29  1  0.679883  0.772089  0.265743  1
  Br  Br30  1  0.853983  0.800410  0.180670  1
  Br  Br31  1  0.390035  0.199604  0.754711  1
  Br  Br32  1  0.347667  0.495970  0.547028  1
  Br  Br33  1  0.657484  0.543998  0.274641  1
  Br  Br34  1  0.152611  0.615664  0.542328  1
  Br  Br35  1  0.309744  0.799099  0.261678  1
