# generated using pymatgen
data_Li11Zn(SiNi)4
_symmetry_space_group_name_H-M   'P 1'
_cell_length_a   6.37029977
_cell_length_b   6.38149945
_cell_length_c   6.36905922
_cell_angle_alpha   90.06670931
_cell_angle_beta   90.53020052
_cell_angle_gamma   89.41324940
_symmetry_Int_Tables_number   1
_chemical_formula_structural   Li11Zn(SiNi)4
_chemical_formula_sum   'Li11 Zn1 Si4 Ni4'
_cell_volume   258.89059615
_cell_formula_units_Z   1
loop_
 _symmetry_equiv_pos_site_id
 _symmetry_equiv_pos_as_xyz
  1  'x, y, z'
loop_
 _atom_site_type_symbol
 _atom_site_label
 _atom_site_symmetry_multiplicity
 _atom_site_fract_x
 _atom_site_fract_y
 _atom_site_fract_z
 _atom_site_occupancy
  Li  Li0  1  0.375283  0.800115  0.955205  1
  Li  Li1  1  0.874798  0.699932  0.045559  1
  Li  Li2  1  0.452312  0.129623  0.199554  1
  Li  Li3  1  0.626115  0.297813  0.543671  1
  Li  Li4  1  0.954058  0.371595  0.799242  1
  Li  Li5  1  0.044639  0.875230  0.700570  1
  Li  Li6  1  0.545690  0.624043  0.299461  1
  Li  Li7  1  0.202933  0.457095  0.126739  1
  Li  Li8  1  0.699995  0.046523  0.873192  1
  Li  Li9  1  0.299137  0.544698  0.625584  1
  Li  Li10  1  0.797859  0.952991  0.373533  1
  Zn  Zn11  1  0.115872  0.205361  0.459844  1
  Si  Si12  1  0.070017  0.067011  0.064680  1
  Si  Si13  1  0.437116  0.929456  0.567560  1
  Si  Si14  1  0.935492  0.568327  0.434084  1
  Si  Si15  1  0.567106  0.430867  0.933384  1
  Ni  Ni16  1  0.683193  0.674234  0.682052  1
  Ni  Ni17  1  0.824203  0.317633  0.180889  1
  Ni  Ni18  1  0.315637  0.181590  0.809892  1
  Ni  Ni19  1  0.178545  0.825863  0.325304  1
