# generated using pymatgen
data_HgI16
_symmetry_space_group_name_H-M   'P 1'
_cell_length_a   13.98169550
_cell_length_b   12.08505295
_cell_length_c   10.52306044
_cell_angle_alpha   92.27829990
_cell_angle_beta   123.06593908
_cell_angle_gamma   124.82712820
_symmetry_Int_Tables_number   1
_chemical_formula_structural   HgI16
_chemical_formula_sum   'Hg1 I16'
_cell_volume   1051.63018963
_cell_formula_units_Z   1
loop_
 _symmetry_equiv_pos_site_id
 _symmetry_equiv_pos_as_xyz
  1  'x, y, z'
loop_
 _atom_site_type_symbol
 _atom_site_label
 _atom_site_symmetry_multiplicity
 _atom_site_fract_x
 _atom_site_fract_y
 _atom_site_fract_z
 _atom_site_occupancy
  Hg  Hg0  1  0.000000  0.000000  0.000000  1
  I  I1  1  0.000807  0.990731  0.729689  1
  I  I2  1  0.999193  0.009269  0.270311  1
  I  I3  1  0.961415  0.233654  0.007461  1
  I  I4  1  0.608927  0.762010  0.753810  1
  I  I5  1  0.391073  0.237990  0.246190  1
  I  I6  1  0.038585  0.766346  0.992539  1
  I  I7  1  0.520609  0.534857  0.298944  1
  I  I8  1  0.479391  0.465143  0.701056  1
  I  I9  1  0.701966  0.891072  0.397808  1
  I  I10  1  0.027692  0.389245  0.834306  1
  I  I11  1  0.972308  0.610755  0.165694  1
  I  I12  1  0.462115  0.863782  0.101317  1
  I  I13  1  0.537885  0.136218  0.898683  1
  I  I14  1  0.855053  0.400900  0.312533  1
  I  I15  1  0.144947  0.599100  0.687467  1
  I  I16  1  0.298034  0.108928  0.602192  1
