# generated using pymatgen
data_Dy5TmAl24ZnOs7
_symmetry_space_group_name_H-M   'P 1'
_cell_length_a   8.85213768
_cell_length_b   8.85213962
_cell_length_c   9.53717036
_cell_angle_alpha   89.99414863
_cell_angle_beta   90.00585216
_cell_angle_gamma   120.04759378
_symmetry_Int_Tables_number   1
_chemical_formula_structural   Dy5TmAl24ZnOs7
_chemical_formula_sum   'Dy5 Tm1 Al24 Zn1 Os7'
_cell_volume   646.90141706
_cell_formula_units_Z   1
loop_
 _symmetry_equiv_pos_site_id
 _symmetry_equiv_pos_as_xyz
  1  'x, y, z'
loop_
 _atom_site_type_symbol
 _atom_site_label
 _atom_site_symmetry_multiplicity
 _atom_site_fract_x
 _atom_site_fract_y
 _atom_site_fract_z
 _atom_site_occupancy
  Dy  Dy0  1  0.191315  0.385965  0.248266  1
  Dy  Dy1  1  0.808646  0.613727  0.751651  1
  Dy  Dy2  1  0.614035  0.808685  0.248266  1
  Dy  Dy3  1  0.386273  0.191354  0.751651  1
  Dy  Dy4  1  0.194549  0.805451  0.253455  1
  Tm  Tm5  1  0.804349  0.195651  0.746437  1
  Al  Al6  1  0.329626  0.670374  0.021810  1
  Al  Al7  1  0.670683  0.329317  0.977687  1
  Al  Al8  1  0.666077  0.333923  0.517980  1
  Al  Al9  1  0.334187  0.665813  0.482524  1
  Al  Al10  1  0.162382  0.325803  0.574324  1
  Al  Al11  1  0.837174  0.673969  0.426004  1
  Al  Al12  1  0.674197  0.837618  0.574324  1
  Al  Al13  1  0.848893  0.677230  0.081109  1
  Al  Al14  1  0.326031  0.162826  0.426004  1
  Al  Al15  1  0.150427  0.322361  0.918526  1
  Al  Al16  1  0.162912  0.837088  0.575505  1
  Al  Al17  1  0.322770  0.151107  0.081109  1
  Al  Al18  1  0.837117  0.162883  0.425195  1
  Al  Al19  1  0.677639  0.849573  0.918526  1
  Al  Al20  1  0.836534  0.163466  0.075871  1
  Al  Al21  1  0.163481  0.836519  0.923464  1
  Al  Al22  1  0.561857  0.121999  0.249222  1
  Al  Al23  1  0.439007  0.878653  0.750743  1
  Al  Al24  1  0.878001  0.438143  0.249222  1
  Al  Al25  1  0.121347  0.560993  0.750743  1
  Al  Al26  1  0.563587  0.436413  0.254566  1
  Al  Al27  1  0.436337  0.563663  0.745436  1
  Al  Al28  1  0.999156  0.000844  0.250557  1
  Al  Al29  1  0.000321  0.999679  0.749492  1
  Zn  Zn30  1  0.500065  0.499935  0.000083  1
  Os  Os31  1  0.500606  0.000280  0.999543  1
  Os  Os32  1  0.999720  0.499394  0.999543  1
  Os  Os33  1  0.500763  0.000386  0.500535  1
  Os  Os34  1  0.999614  0.499237  0.500535  1
  Os  Os35  1  0.500175  0.499825  0.500017  1
  Os  Os36  1  0.000102  0.999898  0.999931  1
  Os  Os37  1  0.000045  0.999955  0.500143  1
