# generated using pymatgen
data_Hf6AlGa5(IrPd)3
_symmetry_space_group_name_H-M   'P 1'
_cell_length_a   7.30138243
_cell_length_b   7.29365028
_cell_length_c   6.76057004
_cell_angle_alpha   89.98762975
_cell_angle_beta   90.00690710
_cell_angle_gamma   120.29985427
_symmetry_Int_Tables_number   1
_chemical_formula_structural   Hf6AlGa5(IrPd)3
_chemical_formula_sum   'Hf6 Al1 Ga5 Ir3 Pd3'
_cell_volume   310.84493172
_cell_formula_units_Z   1
loop_
 _symmetry_equiv_pos_site_id
 _symmetry_equiv_pos_as_xyz
  1  'x, y, z'
loop_
 _atom_site_type_symbol
 _atom_site_label
 _atom_site_symmetry_multiplicity
 _atom_site_fract_x
 _atom_site_fract_y
 _atom_site_fract_z
 _atom_site_occupancy
  Hf  Hf0  1  0.603844  0.600314  0.253992  1
  Hf  Hf1  1  0.015732  0.407697  0.747506  1
  Hf  Hf2  1  0.402006  0.003767  0.252780  1
  Hf  Hf3  1  0.996940  0.398302  0.252939  1
  Hf  Hf4  1  0.392792  0.984764  0.746784  1
  Hf  Hf5  1  0.594293  0.609258  0.745932  1
  Al  Al6  1  0.267503  0.263965  0.500349  1
  Ga  Ga7  1  0.732332  0.006120  0.500361  1
  Ga  Ga8  1  0.998960  0.728453  0.500770  1
  Ga  Ga9  1  0.730968  0.003511  0.000792  1
  Ga  Ga10  1  0.273308  0.270322  0.000790  1
  Ga  Ga11  1  0.998427  0.729043  0.000583  1
  Ir  Ir12  1  0.332207  0.661083  0.488579  1
  Ir  Ir13  1  0.331949  0.665485  0.012283  1
  Ir  Ir14  1  0.659980  0.332205  0.509685  1
  Pd  Pd15  1  0.001216  0.001343  0.750228  1
  Pd  Pd16  1  0.001277  0.001153  0.251213  1
  Pd  Pd17  1  0.666268  0.333216  0.984437  1
