# generated using pymatgen
data_Hf18Re6NiOsW2
_symmetry_space_group_name_H-M   'P 1'
_cell_length_a   8.67171100
_cell_length_b   8.67171210
_cell_length_c   8.48214500
_cell_angle_alpha   90.00000000
_cell_angle_beta   90.00000000
_cell_angle_gamma   119.99999962
_symmetry_Int_Tables_number   1
_chemical_formula_structural   Hf18Re6NiOsW2
_chemical_formula_sum   'Hf18 Re6 Ni1 Os1 W2'
_cell_volume   552.39020914
_cell_formula_units_Z   1
loop_
 _symmetry_equiv_pos_site_id
 _symmetry_equiv_pos_as_xyz
  1  'x, y, z'
loop_
 _atom_site_type_symbol
 _atom_site_label
 _atom_site_symmetry_multiplicity
 _atom_site_fract_x
 _atom_site_fract_y
 _atom_site_fract_z
 _atom_site_occupancy
  Hf  Hf0  1  0.197372  0.802628  0.446519  1
  Hf  Hf1  1  0.197372  0.394744  0.446519  1
  Hf  Hf2  1  0.605256  0.802628  0.446519  1
  Hf  Hf3  1  0.801296  0.198704  0.557754  1
  Hf  Hf4  1  0.801296  0.602590  0.557754  1
  Hf  Hf5  1  0.397410  0.198704  0.557754  1
  Hf  Hf6  1  0.801296  0.198704  0.942246  1
  Hf  Hf7  1  0.801296  0.602590  0.942246  1
  Hf  Hf8  1  0.397410  0.198704  0.942246  1
  Hf  Hf9  1  0.197372  0.802628  0.053481  1
  Hf  Hf10  1  0.197372  0.394744  0.053481  1
  Hf  Hf11  1  0.605256  0.802628  0.053481  1
  Hf  Hf12  1  0.541108  0.458892  0.250000  1
  Hf  Hf13  1  0.541108  0.082215  0.250000  1
  Hf  Hf14  1  0.917785  0.458892  0.250000  1
  Hf  Hf15  1  0.459075  0.540925  0.750000  1
  Hf  Hf16  1  0.459075  0.918151  0.750000  1
  Hf  Hf17  1  0.081849  0.540925  0.750000  1
  Re  Re18  1  0.887969  0.112031  0.250000  1
  Re  Re19  1  0.887969  0.775937  0.250000  1
  Re  Re20  1  0.224063  0.112031  0.250000  1
  Re  Re21  1  0.110917  0.889083  0.750000  1
  Re  Re22  1  0.110917  0.221834  0.750000  1
  Re  Re23  1  0.778166  0.889083  0.750000  1
  Ni  Ni24  1  0.666667  0.333333  0.750000  1
  Os  Os25  1  0.333333  0.666667  0.250000  1
  W  W26  1  0.000000  0.000000  0.498243  1
  W  W27  1  0.000000  0.000000  0.001757  1
