# generated using pymatgen
data_K(SnSe2)8
_symmetry_space_group_name_H-M   'P 1'
_cell_length_a   7.79215100
_cell_length_b   7.79215050
_cell_length_c   16.12597200
_cell_angle_alpha   90.00000000
_cell_angle_beta   90.00000000
_cell_angle_gamma   119.99998940
_symmetry_Int_Tables_number   1
_chemical_formula_structural   K(SnSe2)8
_chemical_formula_sum   'K1 Sn8 Se16'
_cell_volume   847.95200455
_cell_formula_units_Z   1
loop_
 _symmetry_equiv_pos_site_id
 _symmetry_equiv_pos_as_xyz
  1  'x, y, z'
loop_
 _atom_site_type_symbol
 _atom_site_label
 _atom_site_symmetry_multiplicity
 _atom_site_fract_x
 _atom_site_fract_y
 _atom_site_fract_z
 _atom_site_occupancy
  K  K0  1  0.000000  0.000000  0.000000  1
  Sn  Sn1  1  0.501503  0.498497  0.737618  1
  Sn  Sn2  1  0.498497  0.501503  0.262382  1
  Sn  Sn3  1  0.501503  0.003005  0.737618  1
  Sn  Sn4  1  0.498497  0.996995  0.262382  1
  Sn  Sn5  1  0.996995  0.498497  0.737618  1
  Sn  Sn6  1  0.003005  0.501503  0.262382  1
  Sn  Sn7  1  0.000000  0.000000  0.738158  1
  Sn  Sn8  1  0.000000  0.000000  0.261842  1
  Se  Se9  1  0.832714  0.665431  0.162204  1
  Se  Se10  1  0.833685  0.667370  0.639571  1
  Se  Se11  1  0.832714  0.167286  0.162204  1
  Se  Se12  1  0.833685  0.166315  0.639571  1
  Se  Se13  1  0.333333  0.666667  0.161896  1
  Se  Se14  1  0.333333  0.666667  0.641574  1
  Se  Se15  1  0.334569  0.167286  0.162204  1
  Se  Se16  1  0.332630  0.166315  0.639571  1
  Se  Se17  1  0.665431  0.832714  0.837796  1
  Se  Se18  1  0.667370  0.833685  0.360429  1
  Se  Se19  1  0.666667  0.333333  0.838104  1
  Se  Se20  1  0.666667  0.333333  0.358426  1
  Se  Se21  1  0.167286  0.832714  0.837796  1
  Se  Se22  1  0.166315  0.833685  0.360429  1
  Se  Se23  1  0.167286  0.334569  0.837796  1
  Se  Se24  1  0.166315  0.332630  0.360429  1
