# generated using pymatgen
data_Ca6Y2SbPd24
_symmetry_space_group_name_H-M   'P 1'
_cell_length_a   8.45004753
_cell_length_b   8.44564200
_cell_length_c   8.45004753
_cell_angle_alpha   90.00000000
_cell_angle_beta   89.80263231
_cell_angle_gamma   90.00000000
_symmetry_Int_Tables_number   1
_chemical_formula_structural   Ca6Y2SbPd24
_chemical_formula_sum   'Ca6 Y2 Sb1 Pd24'
_cell_volume   603.04315957
_cell_formula_units_Z   1
loop_
 _symmetry_equiv_pos_site_id
 _symmetry_equiv_pos_as_xyz
  1  'x, y, z'
loop_
 _atom_site_type_symbol
 _atom_site_label
 _atom_site_symmetry_multiplicity
 _atom_site_fract_x
 _atom_site_fract_y
 _atom_site_fract_z
 _atom_site_occupancy
  Ca  Ca0  1  0.749224  0.748613  0.251516  1
  Ca  Ca1  1  0.748079  0.252030  0.748079  1
  Ca  Ca2  1  0.251516  0.748613  0.749224  1
  Ca  Ca3  1  0.748079  0.747970  0.748079  1
  Ca  Ca4  1  0.749224  0.251387  0.251516  1
  Ca  Ca5  1  0.251516  0.251387  0.749224  1
  Y  Y6  1  0.253432  0.747269  0.253432  1
  Y  Y7  1  0.253432  0.252731  0.253432  1
  Sb  Sb8  1  0.998415  0.000000  0.998415  1
  Pd  Pd9  1  0.002242  0.000000  0.310011  1
  Pd  Pd10  1  0.733067  0.000000  0.498789  1
  Pd  Pd11  1  0.733179  0.500000  0.000621  1
  Pd  Pd12  1  0.498789  0.000000  0.733067  1
  Pd  Pd13  1  0.002848  0.733296  0.498236  1
  Pd  Pd14  1  0.498113  0.000000  0.266271  1
  Pd  Pd15  1  0.002848  0.266704  0.498236  1
  Pd  Pd16  1  0.498236  0.733296  0.002848  1
  Pd  Pd17  1  0.256175  0.500000  0.497892  1
  Pd  Pd18  1  0.499260  0.500000  0.744589  1
  Pd  Pd19  1  0.497892  0.500000  0.256175  1
  Pd  Pd20  1  0.498130  0.255808  0.498130  1
  Pd  Pd21  1  0.498130  0.744192  0.498130  1
  Pd  Pd22  1  0.744589  0.500000  0.499260  1
  Pd  Pd23  1  0.310011  0.000000  0.002242  1
  Pd  Pd24  1  0.999442  0.000000  0.686548  1
  Pd  Pd25  1  0.004505  0.500000  0.266164  1
  Pd  Pd26  1  0.000893  0.311668  0.000893  1
  Pd  Pd27  1  0.000893  0.688332  0.000893  1
  Pd  Pd28  1  0.686548  0.000000  0.999442  1
  Pd  Pd29  1  0.266164  0.500000  0.004505  1
  Pd  Pd30  1  0.266271  0.000000  0.498113  1
  Pd  Pd31  1  0.000621  0.500000  0.733179  1
  Pd  Pd32  1  0.498236  0.266704  0.002848  1
