# generated using pymatgen
data_PrHo9In8(IrPt)2
_symmetry_space_group_name_H-M   'P 1'
_cell_length_a   3.63868800
_cell_length_b   8.12133022
_cell_length_c   18.29801459
_cell_angle_alpha   90.10380818
_cell_angle_beta   90.00000000
_cell_angle_gamma   90.00000000
_symmetry_Int_Tables_number   1
_chemical_formula_structural   PrHo9In8(IrPt)2
_chemical_formula_sum   'Pr1 Ho9 In8 Ir2 Pt2'
_cell_volume   540.72350068
_cell_formula_units_Z   1
loop_
 _symmetry_equiv_pos_site_id
 _symmetry_equiv_pos_as_xyz
  1  'x, y, z'
loop_
 _atom_site_type_symbol
 _atom_site_label
 _atom_site_symmetry_multiplicity
 _atom_site_fract_x
 _atom_site_fract_y
 _atom_site_fract_z
 _atom_site_occupancy
  Pr  Pr0  1  0.000000  0.500000  0.500000  1
  Ho  Ho1  1  0.000000  0.115810  0.411345  1
  Ho  Ho2  1  0.000000  0.884190  0.588655  1
  Ho  Ho3  1  0.000000  0.383539  0.913416  1
  Ho  Ho4  1  0.000000  0.616461  0.086584  1
  Ho  Ho5  1  0.000000  0.236036  0.221633  1
  Ho  Ho6  1  0.000000  0.763964  0.778367  1
  Ho  Ho7  1  0.000000  0.248586  0.720512  1
  Ho  Ho8  1  0.000000  0.751414  0.279488  1
  Ho  Ho9  1  0.000000  0.000000  0.000000  1
  In  In10  1  0.500000  0.422914  0.348618  1
  In  In11  1  0.500000  0.577086  0.651382  1
  In  In12  1  0.500000  0.074135  0.851104  1
  In  In13  1  0.500000  0.925865  0.148896  1
  In  In14  1  0.500000  0.292615  0.066414  1
  In  In15  1  0.500000  0.707385  0.933586  1
  In  In16  1  0.500000  0.201657  0.569012  1
  In  In17  1  0.500000  0.798343  0.430988  1
  Ir  Ir18  1  0.500000  0.021063  0.303702  1
  Ir  Ir19  1  0.500000  0.978937  0.696298  1
  Pt  Pt20  1  0.500000  0.478228  0.803766  1
  Pt  Pt21  1  0.500000  0.521772  0.196234  1
