# generated using pymatgen
data_Er15Lu(ZnCo)4
_symmetry_space_group_name_H-M   'P 1'
_cell_length_a   9.25773972
_cell_length_b   9.25773973
_cell_length_c   9.26525900
_cell_angle_alpha   59.97313209
_cell_angle_beta   59.97313206
_cell_angle_gamma   59.96877626
_symmetry_Int_Tables_number   1
_chemical_formula_structural   Er15Lu(ZnCo)4
_chemical_formula_sum   'Er15 Lu1 Zn4 Co4'
_cell_volume   561.14294378
_cell_formula_units_Z   1
loop_
 _symmetry_equiv_pos_site_id
 _symmetry_equiv_pos_as_xyz
  1  'x, y, z'
loop_
 _atom_site_type_symbol
 _atom_site_label
 _atom_site_symmetry_multiplicity
 _atom_site_fract_x
 _atom_site_fract_y
 _atom_site_fract_z
 _atom_site_occupancy
  Er  Er0  1  0.599702  0.599702  0.600899  1
  Er  Er1  1  0.187802  0.812224  0.812983  1
  Er  Er2  1  0.059323  0.059323  0.440677  1
  Er  Er3  1  0.440408  0.060458  0.059775  1
  Er  Er4  1  0.812224  0.187802  0.812983  1
  Er  Er5  1  0.440408  0.060458  0.439357  1
  Er  Er6  1  0.599985  0.200299  0.599858  1
  Er  Er7  1  0.811930  0.811930  0.188070  1
  Er  Er8  1  0.200299  0.599985  0.599858  1
  Er  Er9  1  0.812224  0.187802  0.186991  1
  Er  Er10  1  0.060458  0.440408  0.439357  1
  Er  Er11  1  0.187802  0.812224  0.186991  1
  Er  Er12  1  0.599702  0.599702  0.199697  1
  Er  Er13  1  0.187454  0.187454  0.812546  1
  Er  Er14  1  0.060458  0.440408  0.059775  1
  Lu  Lu15  1  0.440661  0.440661  0.059339  1
  Zn  Zn16  1  0.827965  0.827965  0.516111  1
  Zn  Zn17  1  0.827965  0.827965  0.827956  1
  Zn  Zn18  1  0.515918  0.827089  0.828496  1
  Zn  Zn19  1  0.827089  0.515918  0.828496  1
  Co  Co20  1  0.391823  0.391823  0.391177  1
  Co  Co21  1  0.824602  0.391970  0.391714  1
  Co  Co22  1  0.391970  0.824602  0.391714  1
  Co  Co23  1  0.391823  0.391823  0.825177  1
