# generated using pymatgen
data_Ba6ScFe3(WO9)2
_symmetry_space_group_name_H-M   'P 1'
_cell_length_a   5.88927100
_cell_length_b   5.88927049
_cell_length_c   14.46637400
_cell_angle_alpha   90.00000000
_cell_angle_beta   90.00000000
_cell_angle_gamma   119.99999723
_symmetry_Int_Tables_number   1
_chemical_formula_structural   Ba6ScFe3(WO9)2
_chemical_formula_sum   'Ba6 Sc1 Fe3 W2 O18'
_cell_volume   434.52360472
_cell_formula_units_Z   1
loop_
 _symmetry_equiv_pos_site_id
 _symmetry_equiv_pos_as_xyz
  1  'x, y, z'
loop_
 _atom_site_type_symbol
 _atom_site_label
 _atom_site_symmetry_multiplicity
 _atom_site_fract_x
 _atom_site_fract_y
 _atom_site_fract_z
 _atom_site_occupancy
  Ba  Ba0  1  0.000000  0.000000  0.742861  1
  Ba  Ba1  1  0.000000  0.000000  0.247668  1
  Ba  Ba2  1  0.333333  0.666667  0.912107  1
  Ba  Ba3  1  0.666667  0.333333  0.102345  1
  Ba  Ba4  1  0.666667  0.333333  0.413311  1
  Ba  Ba5  1  0.333333  0.666667  0.598898  1
  Sc  Sc6  1  0.000000  0.000000  0.005621  1
  Fe  Fe7  1  0.000000  0.000000  0.506211  1
  Fe  Fe8  1  0.333333  0.666667  0.145921  1
  Fe  Fe9  1  0.666667  0.333333  0.643398  1
  W  W10  1  0.666667  0.333333  0.839679  1
  W  W11  1  0.333333  0.666667  0.342614  1
  O  O12  1  0.515839  0.484161  0.753695  1
  O  O13  1  0.515839  0.031679  0.753695  1
  O  O14  1  0.968321  0.484161  0.753695  1
  O  O15  1  0.484177  0.515823  0.256703  1
  O  O16  1  0.031647  0.515823  0.256703  1
  O  O17  1  0.484177  0.968353  0.256703  1
  O  O18  1  0.826469  0.173531  0.912559  1
  O  O19  1  0.826469  0.652937  0.912559  1
  O  O20  1  0.347063  0.173531  0.912559  1
  O  O21  1  0.167289  0.832711  0.082034  1
  O  O22  1  0.665422  0.832711  0.082034  1
  O  O23  1  0.167289  0.334578  0.082034  1
  O  O24  1  0.171936  0.828064  0.415125  1
  O  O25  1  0.171936  0.343871  0.415125  1
  O  O26  1  0.656129  0.828064  0.415125  1
  O  O27  1  0.835336  0.164664  0.579672  1
  O  O28  1  0.329329  0.164664  0.579672  1
  O  O29  1  0.835336  0.670671  0.579672  1
