# generated using pymatgen
data_Zr5Co16(As4Ru)3
_symmetry_space_group_name_H-M   'P 1'
_cell_length_a   12.33380200
_cell_length_b   12.33380249
_cell_length_c   3.76980800
_cell_angle_alpha   90.00000000
_cell_angle_beta   90.00000000
_cell_angle_gamma   119.99999332
_symmetry_Int_Tables_number   1
_chemical_formula_structural   Zr5Co16(As4Ru)3
_chemical_formula_sum   'Zr5 Co16 As12 Ru3'
_cell_volume   496.64246905
_cell_formula_units_Z   1
loop_
 _symmetry_equiv_pos_site_id
 _symmetry_equiv_pos_as_xyz
  1  'x, y, z'
loop_
 _atom_site_type_symbol
 _atom_site_label
 _atom_site_symmetry_multiplicity
 _atom_site_fract_x
 _atom_site_fract_y
 _atom_site_fract_z
 _atom_site_occupancy
  Zr  Zr0  1  0.666667  0.333333  0.000000  1
  Zr  Zr1  1  0.333333  0.666667  0.000000  1
  Zr  Zr2  1  0.821377  0.821377  0.500000  1
  Zr  Zr3  1  0.178623  0.000000  0.500000  1
  Zr  Zr4  1  0.000000  0.178623  0.500000  1
  Co  Co5  1  0.196009  0.375454  0.000000  1
  Co  Co6  1  0.179444  0.803991  0.000000  1
  Co  Co7  1  0.820556  0.624546  0.000000  1
  Co  Co8  1  0.803991  0.179444  0.000000  1
  Co  Co9  1  0.375454  0.196009  0.000000  1
  Co  Co10  1  0.126298  0.481200  0.500000  1
  Co  Co11  1  0.354903  0.873702  0.500000  1
  Co  Co12  1  0.518800  0.645097  0.500000  1
  Co  Co13  1  0.645097  0.518800  0.500000  1
  Co  Co14  1  0.873702  0.354903  0.500000  1
  Co  Co15  1  0.481200  0.126298  0.500000  1
  Co  Co16  1  0.000000  0.000000  0.000000  1
  Co  Co17  1  0.717008  0.000000  0.500000  1
  Co  Co18  1  0.000000  0.717008  0.500000  1
  Co  Co19  1  0.624546  0.820556  0.000000  1
  Co  Co20  1  0.282992  0.282992  0.500000  1
  As  As21  1  0.642945  0.642945  0.000000  1
  As  As22  1  0.357055  0.000000  0.000000  1
  As  As23  1  0.000000  0.357055  0.000000  1
  As  As24  1  0.483870  0.316495  0.500000  1
  As  As25  1  0.683505  0.167375  0.500000  1
  As  As26  1  0.832625  0.516130  0.500000  1
  As  As27  1  0.516130  0.832625  0.500000  1
  As  As28  1  0.167375  0.683505  0.500000  1
  As  As29  1  0.822721  0.000000  0.000000  1
  As  As30  1  0.000000  0.822721  0.000000  1
  As  As31  1  0.316495  0.483870  0.500000  1
  As  As32  1  0.177279  0.177279  0.000000  1
  Ru  Ru33  1  0.446867  0.446867  0.000000  1
  Ru  Ru34  1  0.553133  0.000000  0.000000  1
  Ru  Ru35  1  0.000000  0.553133  0.000000  1
