# generated using pymatgen
data_Tb3Pr2NdTa2O14
_symmetry_space_group_name_H-M   'P 1'
_cell_length_a   6.58339045
_cell_length_b   6.57449668
_cell_length_c   7.67586200
_cell_angle_alpha   90.00000000
_cell_angle_beta   90.00000000
_cell_angle_gamma   109.34613837
_symmetry_Int_Tables_number   1
_chemical_formula_structural   Tb3Pr2NdTa2O14
_chemical_formula_sum   'Tb3 Pr2 Nd1 Ta2 O14'
_cell_volume   313.47077901
_cell_formula_units_Z   1
loop_
 _symmetry_equiv_pos_site_id
 _symmetry_equiv_pos_as_xyz
  1  'x, y, z'
loop_
 _atom_site_type_symbol
 _atom_site_label
 _atom_site_symmetry_multiplicity
 _atom_site_fract_x
 _atom_site_fract_y
 _atom_site_fract_z
 _atom_site_occupancy
  Tb  Tb0  1  0.001114  0.532561  0.250000  1
  Tb  Tb1  1  0.999974  0.466359  0.750000  1
  Tb  Tb2  1  0.534508  0.000486  0.750000  1
  Pr  Pr3  1  0.503204  0.504046  0.501513  1
  Pr  Pr4  1  0.503204  0.504046  0.998487  1
  Nd  Nd5  1  0.465170  0.001448  0.250000  1
  Ta  Ta6  1  0.000477  0.000157  0.501721  1
  Ta  Ta7  1  0.000477  0.000157  0.998279  1
  O  O8  1  0.939621  0.064354  0.750000  1
  O  O9  1  0.057542  0.939396  0.250000  1
  O  O10  1  0.356944  0.634076  0.250000  1
  O  O11  1  0.644163  0.357550  0.750000  1
  O  O12  1  0.362914  0.635768  0.750000  1
  O  O13  1  0.641155  0.374252  0.250000  1
  O  O14  1  0.315495  0.068938  0.963531  1
  O  O15  1  0.679921  0.925595  0.476287  1
  O  O16  1  0.315495  0.068938  0.536469  1
  O  O17  1  0.679921  0.925595  0.023713  1
  O  O18  1  0.063603  0.315548  0.467713  1
  O  O19  1  0.935747  0.682592  0.968346  1
  O  O20  1  0.935747  0.682592  0.531654  1
  O  O21  1  0.063603  0.315548  0.032287  1
