# generated using pymatgen
data_Zr5PPb3
_symmetry_space_group_name_H-M   'P 1'
_cell_length_a   8.74801700
_cell_length_b   8.74801629
_cell_length_c   6.05513400
_cell_angle_alpha   90.00000000
_cell_angle_beta   90.00000000
_cell_angle_gamma   119.99999134
_symmetry_Int_Tables_number   1
_chemical_formula_structural   Zr5PPb3
_chemical_formula_sum   'Zr10 P2 Pb6'
_cell_volume   401.30413017
_cell_formula_units_Z   2
loop_
 _symmetry_equiv_pos_site_id
 _symmetry_equiv_pos_as_xyz
  1  'x, y, z'
loop_
 _atom_site_type_symbol
 _atom_site_label
 _atom_site_symmetry_multiplicity
 _atom_site_fract_x
 _atom_site_fract_y
 _atom_site_fract_z
 _atom_site_occupancy
  Zr  Zr0  1  0.666667  0.333333  0.000000  1
  Zr  Zr1  1  0.333333  0.666667  0.000000  1
  Zr  Zr2  1  0.333333  0.666667  0.500000  1
  Zr  Zr3  1  0.666667  0.333333  0.500000  1
  Zr  Zr4  1  0.754034  0.754034  0.750000  1
  Zr  Zr5  1  0.245966  0.000000  0.750000  1
  Zr  Zr6  1  0.000000  0.245966  0.750000  1
  Zr  Zr7  1  0.245966  0.245966  0.250000  1
  Zr  Zr8  1  0.754034  0.000000  0.250000  1
  Zr  Zr9  1  0.000000  0.754034  0.250000  1
  P  P10  1  0.000000  0.000000  0.000000  1
  P  P11  1  0.000000  0.000000  0.500000  1
  Pb  Pb12  1  0.398855  0.398855  0.750000  1
  Pb  Pb13  1  0.601145  0.000000  0.750000  1
  Pb  Pb14  1  0.000000  0.601145  0.750000  1
  Pb  Pb15  1  0.601145  0.601145  0.250000  1
  Pb  Pb16  1  0.398855  0.000000  0.250000  1
  Pb  Pb17  1  0.000000  0.398855  0.250000  1
