# generated using pymatgen
data_CaHo3(Si3Ni5)4
_symmetry_space_group_name_H-M   'P 1'
_cell_length_a   3.78971800
_cell_length_b   6.58286762
_cell_length_c   18.73777595
_cell_angle_alpha   89.94298229
_cell_angle_beta   90.00000000
_cell_angle_gamma   90.00000000
_symmetry_Int_Tables_number   1
_chemical_formula_structural   CaHo3(Si3Ni5)4
_chemical_formula_sum   'Ca1 Ho3 Si12 Ni20'
_cell_volume   467.45503588
_cell_formula_units_Z   1
loop_
 _symmetry_equiv_pos_site_id
 _symmetry_equiv_pos_as_xyz
  1  'x, y, z'
loop_
 _atom_site_type_symbol
 _atom_site_label
 _atom_site_symmetry_multiplicity
 _atom_site_fract_x
 _atom_site_fract_y
 _atom_site_fract_z
 _atom_site_occupancy
  Ca  Ca0  1  0.250000  0.622372  0.642301  1
  Ho  Ho1  1  0.250000  0.875897  0.143663  1
  Ho  Ho2  1  0.750000  0.375911  0.356010  1
  Ho  Ho3  1  0.750000  0.123150  0.857663  1
  Si  Si4  1  0.250000  0.420659  0.914456  1
  Si  Si5  1  0.250000  0.075736  0.411696  1
  Si  Si6  1  0.750000  0.577621  0.087751  1
  Si  Si7  1  0.750000  0.923679  0.586007  1
  Si  Si8  1  0.250000  0.122322  0.738996  1
  Si  Si9  1  0.250000  0.384957  0.237441  1
  Si  Si10  1  0.750000  0.884406  0.262144  1
  Si  Si11  1  0.750000  0.621207  0.761914  1
  Si  Si12  1  0.250000  0.841318  0.926340  1
  Si  Si13  1  0.250000  0.654585  0.426232  1
  Si  Si14  1  0.750000  0.154775  0.073916  1
  Si  Si15  1  0.750000  0.339965  0.573430  1
  Ni  Ni16  1  0.250000  0.815966  0.801285  1
  Ni  Ni17  1  0.250000  0.689076  0.301548  1
  Ni  Ni18  1  0.750000  0.189106  0.198637  1
  Ni  Ni19  1  0.750000  0.312724  0.699945  1
  Ni  Ni20  1  0.250000  0.132759  0.994592  1
  Ni  Ni21  1  0.250000  0.361455  0.493907  1
  Ni  Ni22  1  0.750000  0.863629  0.005564  1
  Ni  Ni23  1  0.750000  0.633069  0.503926  1
  Ni  Ni24  1  0.250000  0.887534  0.515501  1
  Ni  Ni25  1  0.250000  0.613177  0.017234  1
  Ni  Ni26  1  0.750000  0.112388  0.482194  1
  Ni  Ni27  1  0.750000  0.386188  0.984616  1
  Ni  Ni28  1  0.250000  0.143502  0.617110  1
  Ni  Ni29  1  0.250000  0.351345  0.115934  1
  Ni  Ni30  1  0.750000  0.851800  0.383607  1
  Ni  Ni31  1  0.750000  0.643237  0.883695  1
  Ni  Ni32  1  0.250000  0.431938  0.793922  1
  Ni  Ni33  1  0.250000  0.074960  0.291206  1
  Ni  Ni34  1  0.750000  0.575447  0.208419  1
  Ni  Ni35  1  0.750000  0.932142  0.707194  1
