# generated using pymatgen
data_Ce12Al6CdOs5
_symmetry_space_group_name_H-M   'P 1'
_cell_length_a   7.82645750
_cell_length_b   7.81963916
_cell_length_c   9.75929800
_cell_angle_alpha   90.12788843
_cell_angle_beta   90.05418111
_cell_angle_gamma   120.17378386
_symmetry_Int_Tables_number   1
_chemical_formula_structural   Ce12Al6CdOs5
_chemical_formula_sum   'Ce12 Al6 Cd1 Os5'
_cell_volume   516.33985043
_cell_formula_units_Z   1
loop_
 _symmetry_equiv_pos_site_id
 _symmetry_equiv_pos_as_xyz
  1  'x, y, z'
loop_
 _atom_site_type_symbol
 _atom_site_label
 _atom_site_symmetry_multiplicity
 _atom_site_fract_x
 _atom_site_fract_y
 _atom_site_fract_z
 _atom_site_occupancy
  Ce  Ce0  1  0.999337  0.601442  0.502474  1
  Ce  Ce1  1  0.598621  0.000224  0.502290  1
  Ce  Ce2  1  0.397824  0.398657  0.499920  1
  Ce  Ce3  1  0.992234  0.401749  0.009339  1
  Ce  Ce4  1  0.404573  0.991298  0.010185  1
  Ce  Ce5  1  0.634960  0.635051  0.031031  1
  Ce  Ce6  1  0.002552  0.727756  0.168542  1
  Ce  Ce7  1  0.733111  0.004400  0.170007  1
  Ce  Ce8  1  0.261064  0.262882  0.177006  1
  Ce  Ce9  1  0.982381  0.267206  0.657040  1
  Ce  Ce10  1  0.266939  0.981909  0.656219  1
  Ce  Ce11  1  0.730137  0.730101  0.670696  1
  Al  Al12  1  0.666402  0.334308  0.278349  1
  Al  Al13  1  0.335241  0.668504  0.278349  1
  Al  Al14  1  0.334752  0.673644  0.781613  1
  Al  Al15  1  0.673983  0.334811  0.782194  1
  Al  Al16  1  0.994807  0.994920  0.416734  1
  Al  Al17  1  0.992415  0.991307  0.914007  1
  Cd  Cd18  1  0.330784  0.330178  0.841745  1
  Os  Os19  1  0.000748  0.335987  0.336636  1
  Os  Os20  1  0.334540  0.001449  0.334739  1
  Os  Os21  1  0.661948  0.662637  0.337990  1
  Os  Os22  1  0.003654  0.666516  0.836139  1
  Os  Os23  1  0.666993  0.003067  0.836010  1
