# generated using pymatgen
data_TbY7V4O20
_symmetry_space_group_name_H-M   'P 1'
_cell_length_a   3.74122200
_cell_length_b   10.41440698
_cell_length_c   11.29219406
_cell_angle_alpha   89.95029845
_cell_angle_beta   90.00000000
_cell_angle_gamma   90.00000000
_symmetry_Int_Tables_number   1
_chemical_formula_structural   TbY7V4O20
_chemical_formula_sum   'Tb1 Y7 V4 O20'
_cell_volume   439.97317092
_cell_formula_units_Z   1
loop_
 _symmetry_equiv_pos_site_id
 _symmetry_equiv_pos_as_xyz
  1  'x, y, z'
loop_
 _atom_site_type_symbol
 _atom_site_label
 _atom_site_symmetry_multiplicity
 _atom_site_fract_x
 _atom_site_fract_y
 _atom_site_fract_z
 _atom_site_occupancy
  Tb  Tb0  1  0.250000  0.118988  0.274050  1
  Y  Y1  1  0.250000  0.136876  0.944471  1
  Y  Y2  1  0.250000  0.637072  0.555459  1
  Y  Y3  1  0.750000  0.862704  0.054961  1
  Y  Y4  1  0.750000  0.363216  0.444887  1
  Y  Y5  1  0.750000  0.380922  0.774095  1
  Y  Y6  1  0.750000  0.880953  0.725809  1
  Y  Y7  1  0.250000  0.619171  0.225972  1
  V  V8  1  0.250000  0.170865  0.618499  1
  V  V9  1  0.250000  0.670596  0.881624  1
  V  V10  1  0.750000  0.829067  0.381723  1
  V  V11  1  0.750000  0.329387  0.118281  1
  O  O12  1  0.250000  0.226757  0.457614  1
  O  O13  1  0.250000  0.725958  0.042641  1
  O  O14  1  0.750000  0.773606  0.542793  1
  O  O15  1  0.750000  0.273724  0.957373  1
  O  O16  1  0.250000  0.494706  0.394455  1
  O  O17  1  0.250000  0.994133  0.104795  1
  O  O18  1  0.750000  0.505545  0.605699  1
  O  O19  1  0.750000  0.005548  0.894038  1
  O  O20  1  0.250000  0.266355  0.115918  1
  O  O21  1  0.250000  0.766605  0.384203  1
  O  O22  1  0.750000  0.733233  0.884121  1
  O  O23  1  0.750000  0.233318  0.616029  1
  O  O24  1  0.250000  0.008146  0.653945  1
  O  O25  1  0.250000  0.508044  0.846008  1
  O  O26  1  0.750000  0.991740  0.346395  1
  O  O27  1  0.750000  0.491946  0.153806  1
  O  O28  1  0.250000  0.258114  0.768723  1
  O  O29  1  0.250000  0.758000  0.731326  1
  O  O30  1  0.750000  0.742028  0.231317  1
  O  O31  1  0.750000  0.242674  0.268970  1
