# generated using pymatgen
data_Nd3Ho2Mg2P12Ir17
_symmetry_space_group_name_H-M   'P 1'
_cell_length_a   12.69360200
_cell_length_b   12.78768274
_cell_length_c   3.99327000
_cell_angle_alpha   90.00000000
_cell_angle_beta   90.00000000
_cell_angle_gamma   119.75692481
_symmetry_Int_Tables_number   1
_chemical_formula_structural   Nd3Ho2Mg2P12Ir17
_chemical_formula_sum   'Nd3 Ho2 Mg2 P12 Ir17'
_cell_volume   562.72290110
_cell_formula_units_Z   1
loop_
 _symmetry_equiv_pos_site_id
 _symmetry_equiv_pos_as_xyz
  1  'x, y, z'
loop_
 _atom_site_type_symbol
 _atom_site_label
 _atom_site_symmetry_multiplicity
 _atom_site_fract_x
 _atom_site_fract_y
 _atom_site_fract_z
 _atom_site_occupancy
  Nd  Nd0  1  0.002999  0.812476  0.000000  1
  Nd  Nd1  1  0.190523  0.187524  0.000000  1
  Nd  Nd2  1  0.809424  0.000000  0.000000  1
  Ho  Ho3  1  0.333049  0.664280  0.500000  1
  Ho  Ho4  1  0.668769  0.335720  0.500000  1
  Mg  Mg5  1  0.997385  0.442408  0.500000  1
  Mg  Mg6  1  0.554977  0.557592  0.500000  1
  P  P7  1  0.001701  0.638969  0.500000  1
  P  P8  1  0.362731  0.361031  0.500000  1
  P  P9  1  0.640891  0.000000  0.500000  1
  P  P10  1  0.512767  0.685756  0.000000  1
  P  P11  1  0.307741  0.822041  0.000000  1
  P  P12  1  0.169051  0.481544  0.000000  1
  P  P13  1  0.485700  0.177959  0.000000  1
  P  P14  1  0.687505  0.518456  0.000000  1
  P  P15  1  0.827012  0.314244  0.000000  1
  P  P16  1  0.998749  0.177886  0.500000  1
  P  P17  1  0.820863  0.822114  0.500000  1
  P  P18  1  0.182031  0.000000  0.500000  1
  Ir  Ir19  1  0.504156  0.866247  0.000000  1
  Ir  Ir20  1  0.128279  0.638289  0.000000  1
  Ir  Ir21  1  0.356905  0.491675  0.000000  1
  Ir  Ir22  1  0.489989  0.361711  0.000000  1
  Ir  Ir23  1  0.865232  0.508325  0.000000  1
  Ir  Ir24  1  0.637910  0.133753  0.000000  1
  Ir  Ir25  1  0.461592  0.000000  0.500000  1
  Ir  Ir26  1  0.995663  0.280342  0.000000  1
  Ir  Ir27  1  0.715321  0.719658  0.000000  1
  Ir  Ir28  1  0.290562  0.000000  0.000000  1
  Ir  Ir29  1  0.617851  0.802690  0.500000  1
  Ir  Ir30  1  0.204876  0.823897  0.500000  1
  Ir  Ir31  1  0.176387  0.372785  0.500000  1
  Ir  Ir32  1  0.380979  0.176103  0.500000  1
  Ir  Ir33  1  0.803602  0.627215  0.500000  1
  Ir  Ir34  1  0.815160  0.197310  0.500000  1
  Ir  Ir35  1  0.001665  0.000000  0.500000  1
