# generated using pymatgen
data_Ho2ErSnBRh6
_symmetry_space_group_name_H-M   'P 1'
_cell_length_a   5.80167000
_cell_length_b   5.80166948
_cell_length_c   13.81930900
_cell_angle_alpha   90.00000000
_cell_angle_beta   90.00000000
_cell_angle_gamma   120.00000298
_symmetry_Int_Tables_number   1
_chemical_formula_structural   Ho2ErSnBRh6
_chemical_formula_sum   'Ho4 Er2 Sn2 B2 Rh12'
_cell_volume   402.83106272
_cell_formula_units_Z   2
loop_
 _symmetry_equiv_pos_site_id
 _symmetry_equiv_pos_as_xyz
  1  'x, y, z'
loop_
 _atom_site_type_symbol
 _atom_site_label
 _atom_site_symmetry_multiplicity
 _atom_site_fract_x
 _atom_site_fract_y
 _atom_site_fract_z
 _atom_site_occupancy
  Ho  Ho0  1  0.000000  0.000000  0.749986  1
  Ho  Ho1  1  0.000000  0.000000  0.249986  1
  Ho  Ho2  1  0.333333  0.666667  0.411899  1
  Ho  Ho3  1  0.666667  0.333333  0.911899  1
  Er  Er4  1  0.666667  0.333333  0.587419  1
  Er  Er5  1  0.333333  0.666667  0.087419  1
  Sn  Sn6  1  0.333333  0.666667  0.750041  1
  Sn  Sn7  1  0.666667  0.333333  0.250041  1
  B  B8  1  0.000000  0.000000  0.500056  1
  B  B9  1  0.000000  0.000000  0.000056  1
  Rh  Rh10  1  0.343860  0.171930  0.413003  1
  Rh  Rh11  1  0.828070  0.171930  0.413003  1
  Rh  Rh12  1  0.828070  0.656140  0.413003  1
  Rh  Rh13  1  0.171930  0.343860  0.913003  1
  Rh  Rh14  1  0.656249  0.828124  0.587197  1
  Rh  Rh15  1  0.656140  0.828070  0.913003  1
  Rh  Rh16  1  0.343751  0.171876  0.087197  1
  Rh  Rh17  1  0.171876  0.343751  0.587197  1
  Rh  Rh18  1  0.171876  0.828124  0.587197  1
  Rh  Rh19  1  0.828124  0.171876  0.087197  1
  Rh  Rh20  1  0.828124  0.656249  0.087197  1
  Rh  Rh21  1  0.171930  0.828070  0.913003  1
