# generated using pymatgen
data_Tb2Pr3(Sn5Pd2)2
_symmetry_space_group_name_H-M   'P 1'
_cell_length_a   14.29104000
_cell_length_b   14.29104000
_cell_length_c   4.63986500
_cell_angle_alpha   90.00000000
_cell_angle_beta   90.00000000
_cell_angle_gamma   90.00000000
_symmetry_Int_Tables_number   1
_chemical_formula_structural   Tb2Pr3(Sn5Pd2)2
_chemical_formula_sum   'Tb4 Pr6 Sn20 Pd8'
_cell_volume   947.61737310
_cell_formula_units_Z   2
loop_
 _symmetry_equiv_pos_site_id
 _symmetry_equiv_pos_as_xyz
  1  'x, y, z'
loop_
 _atom_site_type_symbol
 _atom_site_label
 _atom_site_symmetry_multiplicity
 _atom_site_fract_x
 _atom_site_fract_y
 _atom_site_fract_z
 _atom_site_occupancy
  Tb  Tb0  1  0.678036  0.178036  0.500000  1
  Tb  Tb1  1  0.321964  0.821964  0.500000  1
  Tb  Tb2  1  0.178036  0.321964  0.500000  1
  Tb  Tb3  1  0.821964  0.678036  0.500000  1
  Pr  Pr4  1  0.500000  0.500000  0.000000  1
  Pr  Pr5  1  0.000000  0.000000  0.000000  1
  Pr  Pr6  1  0.890102  0.390102  0.500000  1
  Pr  Pr7  1  0.109898  0.609898  0.500000  1
  Pr  Pr8  1  0.390102  0.109898  0.500000  1
  Pr  Pr9  1  0.609898  0.890102  0.500000  1
  Sn  Sn10  1  0.569330  0.069330  0.000000  1
  Sn  Sn11  1  0.430670  0.930670  0.000000  1
  Sn  Sn12  1  0.069330  0.430670  0.000000  1
  Sn  Sn13  1  0.930670  0.569330  0.000000  1
  Sn  Sn14  1  0.654920  0.700132  0.000000  1
  Sn  Sn15  1  0.345080  0.299868  0.000000  1
  Sn  Sn16  1  0.154920  0.799868  0.000000  1
  Sn  Sn17  1  0.845080  0.200132  0.000000  1
  Sn  Sn18  1  0.299868  0.654920  0.000000  1
  Sn  Sn19  1  0.700132  0.345080  0.000000  1
  Sn  Sn20  1  0.200132  0.154920  0.000000  1
  Sn  Sn21  1  0.799868  0.845080  0.000000  1
  Sn  Sn22  1  0.662128  0.505227  0.500000  1
  Sn  Sn23  1  0.337872  0.494773  0.500000  1
  Sn  Sn24  1  0.162128  0.994773  0.500000  1
  Sn  Sn25  1  0.837872  0.005227  0.500000  1
  Sn  Sn26  1  0.494773  0.662128  0.500000  1
  Sn  Sn27  1  0.505227  0.337872  0.500000  1
  Sn  Sn28  1  0.005227  0.162128  0.500000  1
  Sn  Sn29  1  0.994773  0.837872  0.500000  1
  Pd  Pd30  1  0.746755  0.530628  0.000000  1
  Pd  Pd31  1  0.253245  0.469372  0.000000  1
  Pd  Pd32  1  0.246755  0.969372  0.000000  1
  Pd  Pd33  1  0.753245  0.030628  0.000000  1
  Pd  Pd34  1  0.469372  0.746755  0.000000  1
  Pd  Pd35  1  0.530628  0.253245  0.000000  1
  Pd  Pd36  1  0.030628  0.246755  0.000000  1
  Pd  Pd37  1  0.969372  0.753245  0.000000  1
