# generated using pymatgen
data_Ca2YAl3Si2Pt
_symmetry_space_group_name_H-M   'P 1'
_cell_length_a   6.95525534
_cell_length_b   6.95525551
_cell_length_c   4.29571000
_cell_angle_alpha   90.00000000
_cell_angle_beta   90.00000000
_cell_angle_gamma   120.31486913
_symmetry_Int_Tables_number   1
_chemical_formula_structural   Ca2YAl3Si2Pt
_chemical_formula_sum   'Ca2 Y1 Al3 Si2 Pt1'
_cell_volume   179.39281669
_cell_formula_units_Z   1
loop_
 _symmetry_equiv_pos_site_id
 _symmetry_equiv_pos_as_xyz
  1  'x, y, z'
loop_
 _atom_site_type_symbol
 _atom_site_label
 _atom_site_symmetry_multiplicity
 _atom_site_fract_x
 _atom_site_fract_y
 _atom_site_fract_z
 _atom_site_occupancy
  Ca  Ca0  1  0.423292  0.000305  0.000000  1
  Ca  Ca1  1  0.000305  0.423292  0.000000  1
  Y  Y2  1  0.576979  0.576979  0.000000  1
  Al  Al3  1  0.763800  0.998606  0.500000  1
  Al  Al4  1  0.235231  0.235231  0.500000  1
  Al  Al5  1  0.998606  0.763800  0.500000  1
  Si  Si6  1  0.666248  0.338800  0.500000  1
  Si  Si7  1  0.338800  0.666247  0.500000  1
  Pt  Pt8  1  0.996740  0.996740  0.000000  1
