# generated using pymatgen
data_Yb3Th(CdPt)4
_symmetry_space_group_name_H-M   'P 1'
_cell_length_a   4.19408500
_cell_length_b   7.26865841
_cell_length_c   8.82981890
_cell_angle_alpha   90.31086863
_cell_angle_beta   90.00000000
_cell_angle_gamma   90.00000000
_symmetry_Int_Tables_number   1
_chemical_formula_structural   Yb3Th(CdPt)4
_chemical_formula_sum   'Yb3 Th1 Cd4 Pt4'
_cell_volume   269.17634466
_cell_formula_units_Z   1
loop_
 _symmetry_equiv_pos_site_id
 _symmetry_equiv_pos_as_xyz
  1  'x, y, z'
loop_
 _atom_site_type_symbol
 _atom_site_label
 _atom_site_symmetry_multiplicity
 _atom_site_fract_x
 _atom_site_fract_y
 _atom_site_fract_z
 _atom_site_occupancy
  Yb  Yb0  1  0.250000  0.540233  0.173877  1
  Yb  Yb1  1  0.750000  0.954640  0.686472  1
  Yb  Yb2  1  0.750000  0.457002  0.818547  1
  Th  Th3  1  0.250000  0.044443  0.323187  1
  Cd  Cd4  1  0.250000  0.142512  0.933042  1
  Cd  Cd5  1  0.250000  0.641705  0.566156  1
  Cd  Cd6  1  0.750000  0.847291  0.056869  1
  Cd  Cd7  1  0.750000  0.377640  0.441878  1
  Pt  Pt8  1  0.250000  0.239398  0.621986  1
  Pt  Pt9  1  0.250000  0.740984  0.869330  1
  Pt  Pt10  1  0.750000  0.769139  0.370169  1
  Pt  Pt11  1  0.750000  0.245011  0.138488  1
