# generated using pymatgen
data_YZnSi2Pd
_symmetry_space_group_name_H-M   'P 1'
_cell_length_a   5.95938270
_cell_length_b   5.95938318
_cell_length_c   5.95938338
_cell_angle_alpha   140.37478273
_cell_angle_beta   140.37478056
_cell_angle_gamma   57.28468674
_symmetry_Int_Tables_number   1
_chemical_formula_structural   YZnSi2Pd
_chemical_formula_sum   'Y1 Zn1 Si2 Pd1'
_cell_volume   85.35584134
_cell_formula_units_Z   1
loop_
 _symmetry_equiv_pos_site_id
 _symmetry_equiv_pos_as_xyz
  1  'x, y, z'
loop_
 _atom_site_type_symbol
 _atom_site_label
 _atom_site_symmetry_multiplicity
 _atom_site_fract_x
 _atom_site_fract_y
 _atom_site_fract_z
 _atom_site_occupancy
  Y  Y0  1  0.000000  0.000000  0.000000  1
  Zn  Zn1  1  0.750000  0.250000  0.500000  1
  Si  Si2  1  0.611279  0.611279  0.000000  1
  Si  Si3  1  0.388721  0.388721  0.000000  1
  Pd  Pd4  1  0.250000  0.750000  0.500000  1
