# generated using pymatgen
data_Mn2Nb3OsN
_symmetry_space_group_name_H-M   'P 1'
_cell_length_a   8.17203142
_cell_length_b   8.17282927
_cell_length_c   8.17150600
_cell_angle_alpha   60.00830128
_cell_angle_beta   60.00517029
_cell_angle_gamma   60.01039414
_symmetry_Int_Tables_number   1
_chemical_formula_structural   Mn2Nb3OsN
_chemical_formula_sum   'Mn8 Nb12 Os4 N4'
_cell_volume   385.98273542
_cell_formula_units_Z   4
loop_
 _symmetry_equiv_pos_site_id
 _symmetry_equiv_pos_as_xyz
  1  'x, y, z'
loop_
 _atom_site_type_symbol
 _atom_site_label
 _atom_site_symmetry_multiplicity
 _atom_site_fract_x
 _atom_site_fract_y
 _atom_site_fract_z
 _atom_site_occupancy
  Mn  Mn0  1  0.730683  0.423185  0.423109  1
  Mn  Mn1  1  0.423115  0.730690  0.423137  1
  Mn  Mn2  1  0.423128  0.423211  0.730609  1
  Mn  Mn3  1  0.423107  0.423213  0.423127  1
  Mn  Mn4  1  0.519317  0.826815  0.826891  1
  Mn  Mn5  1  0.826885  0.519310  0.826863  1
  Mn  Mn6  1  0.826872  0.826789  0.519391  1
  Mn  Mn7  1  0.826893  0.826787  0.826873  1
  Nb  Nb8  1  0.806785  0.806842  0.193186  1
  Nb  Nb9  1  0.193104  0.193157  0.806873  1
  Nb  Nb10  1  0.806854  0.193241  0.806843  1
  Nb  Nb11  1  0.193233  0.806875  0.193099  1
  Nb  Nb12  1  0.193217  0.806880  0.806808  1
  Nb  Nb13  1  0.806847  0.193245  0.193068  1
  Nb  Nb14  1  0.443215  0.443158  0.056814  1
  Nb  Nb15  1  0.056896  0.056843  0.443127  1
  Nb  Nb16  1  0.443146  0.056759  0.443157  1
  Nb  Nb17  1  0.056767  0.443125  0.056901  1
  Nb  Nb18  1  0.056783  0.443120  0.443192  1
  Nb  Nb19  1  0.443153  0.056755  0.056932  1
  Os  Os20  1  0.125000  0.625000  0.625000  1
  Os  Os21  1  0.625000  0.125000  0.625000  1
  Os  Os22  1  0.625000  0.625000  0.125000  1
  Os  Os23  1  0.625000  0.625000  0.625000  1
  N  N24  1  0.625000  0.125000  0.125000  1
  N  N25  1  0.125000  0.625000  0.125000  1
  N  N26  1  0.125000  0.125000  0.625000  1
  N  N27  1  0.125000  0.125000  0.125000  1
