# generated using pymatgen
data_PaMn2SiC
_symmetry_space_group_name_H-M   'P 1'
_cell_length_a   5.64171674
_cell_length_b   5.64171664
_cell_length_c   6.83822600
_cell_angle_alpha   90.00000000
_cell_angle_beta   90.00000000
_cell_angle_gamma   141.19280130
_symmetry_Int_Tables_number   1
_chemical_formula_structural   PaMn2SiC
_chemical_formula_sum   'Pa2 Mn4 Si2 C2'
_cell_volume   136.40393084
_cell_formula_units_Z   2
loop_
 _symmetry_equiv_pos_site_id
 _symmetry_equiv_pos_as_xyz
  1  'x, y, z'
loop_
 _atom_site_type_symbol
 _atom_site_label
 _atom_site_symmetry_multiplicity
 _atom_site_fract_x
 _atom_site_fract_y
 _atom_site_fract_z
 _atom_site_occupancy
  Pa  Pa0  1  0.552874  0.447126  0.250000  1
  Pa  Pa1  1  0.447126  0.552874  0.750000  1
  Mn  Mn2  1  0.832199  0.167801  0.060718  1
  Mn  Mn3  1  0.167801  0.832199  0.939282  1
  Mn  Mn4  1  0.167801  0.832199  0.560718  1
  Mn  Mn5  1  0.832199  0.167801  0.439282  1
  Si  Si6  1  0.271061  0.728939  0.250000  1
  Si  Si7  1  0.728939  0.271061  0.750000  1
  C  C8  1  0.000000  0.000000  0.000000  1
  C  C9  1  0.000000  0.000000  0.500000  1
