# generated using pymatgen
data_Ce2ErMg2InRu2
_symmetry_space_group_name_H-M   'P 1'
_cell_length_a   8.19489531
_cell_length_b   8.19489517
_cell_length_c   4.91868678
_cell_angle_alpha   83.38697487
_cell_angle_beta   83.38697337
_cell_angle_gamma   34.53917384
_symmetry_Int_Tables_number   1
_chemical_formula_structural   Ce2ErMg2InRu2
_chemical_formula_sum   'Ce2 Er1 Mg2 In1 Ru2'
_cell_volume   185.91493545
_cell_formula_units_Z   1
loop_
 _symmetry_equiv_pos_site_id
 _symmetry_equiv_pos_as_xyz
  1  'x, y, z'
loop_
 _atom_site_type_symbol
 _atom_site_label
 _atom_site_symmetry_multiplicity
 _atom_site_fract_x
 _atom_site_fract_y
 _atom_site_fract_z
 _atom_site_occupancy
  Ce  Ce0  1  0.829745  0.829745  0.570369  1
  Ce  Ce1  1  0.170255  0.170255  0.429631  1
  Er  Er2  1  0.000000  0.000000  0.000000  1
  Mg  Mg3  1  0.371674  0.371674  0.047011  1
  Mg  Mg4  1  0.628326  0.628326  0.952989  1
  In  In5  1  0.500000  0.500000  0.500000  1
  Ru  Ru6  1  0.792971  0.792971  0.119121  1
  Ru  Ru7  1  0.207029  0.207029  0.880879  1
