# generated using pymatgen
data_Sr4Sc2NbMoO12
_symmetry_space_group_name_H-M   'P 1'
_cell_length_a   5.74352633
_cell_length_b   5.75445291
_cell_length_c   9.95932900
_cell_angle_alpha   54.77937604
_cell_angle_beta   90.37242598
_cell_angle_gamma   90.19227496
_symmetry_Int_Tables_number   1
_chemical_formula_structural   Sr4Sc2NbMoO12
_chemical_formula_sum   'Sr4 Sc2 Nb1 Mo1 O12'
_cell_volume   268.90090676
_cell_formula_units_Z   1
loop_
 _symmetry_equiv_pos_site_id
 _symmetry_equiv_pos_as_xyz
  1  'x, y, z'
loop_
 _atom_site_type_symbol
 _atom_site_label
 _atom_site_symmetry_multiplicity
 _atom_site_fract_x
 _atom_site_fract_y
 _atom_site_fract_z
 _atom_site_occupancy
  Sr  Sr0  1  0.474562  0.244772  0.750465  1
  Sr  Sr1  1  0.525438  0.755228  0.249535  1
  Sr  Sr2  1  0.976799  0.754235  0.748836  1
  Sr  Sr3  1  0.023201  0.245765  0.251164  1
  Sc  Sc4  1  0.000000  0.000000  0.000000  1
  Sc  Sc5  1  0.500000  0.000000  0.500000  1
  Nb  Nb6  1  0.500000  0.500000  0.000000  1
  Mo  Mo7  1  0.000000  0.500000  0.500000  1
  O  O8  1  0.008337  0.315707  0.743938  1
  O  O9  1  0.991663  0.684293  0.256062  1
  O  O10  1  0.509444  0.683766  0.754999  1
  O  O11  1  0.490556  0.316234  0.245001  1
  O  O12  1  0.714236  0.805180  0.969161  1
  O  O13  1  0.285764  0.194820  0.030839  1
  O  O14  1  0.215497  0.192817  0.530667  1
  O  O15  1  0.784503  0.807183  0.469333  1
  O  O16  1  0.225264  0.745336  0.968010  1
  O  O17  1  0.774736  0.254664  0.031990  1
  O  O18  1  0.731512  0.255518  0.533910  1
  O  O19  1  0.268488  0.744482  0.466090  1
