# generated using pymatgen
data_VGaIr3S8
_symmetry_space_group_name_H-M   'P 1'
_cell_length_a   6.78505620
_cell_length_b   6.78505626
_cell_length_c   6.78505573
_cell_angle_alpha   64.14318377
_cell_angle_beta   64.14317916
_cell_angle_gamma   64.14319101
_symmetry_Int_Tables_number   1
_chemical_formula_structural   VGaIr3S8
_chemical_formula_sum   'V1 Ga1 Ir3 S8'
_cell_volume   241.00486280
_cell_formula_units_Z   1
loop_
 _symmetry_equiv_pos_site_id
 _symmetry_equiv_pos_as_xyz
  1  'x, y, z'
loop_
 _atom_site_type_symbol
 _atom_site_label
 _atom_site_symmetry_multiplicity
 _atom_site_fract_x
 _atom_site_fract_y
 _atom_site_fract_z
 _atom_site_occupancy
  V  V0  1  0.590711  0.590711  0.590711  1
  Ga  Ga1  1  0.018561  0.018561  0.018561  1
  Ir  Ir2  1  0.626349  0.626349  0.139040  1
  Ir  Ir3  1  0.626349  0.139040  0.626349  1
  Ir  Ir4  1  0.139040  0.626349  0.626349  1
  S  S5  1  0.852875  0.852875  0.425811  1
  S  S6  1  0.852875  0.425811  0.852875  1
  S  S7  1  0.425811  0.852875  0.852875  1
  S  S8  1  0.870193  0.870193  0.870193  1
  S  S9  1  0.370686  0.370686  0.869065  1
  S  S10  1  0.386799  0.386799  0.386799  1
  S  S11  1  0.869065  0.370686  0.370686  1
  S  S12  1  0.370686  0.869065  0.370686  1
