# generated using pymatgen
data_Li12Gd3Y9(WO6)8
_symmetry_space_group_name_H-M   'P 1'
_cell_length_a   10.71361404
_cell_length_b   10.72549462
_cell_length_c   10.72504076
_cell_angle_alpha   109.49473637
_cell_angle_beta   109.44987076
_cell_angle_gamma   109.44831812
_symmetry_Int_Tables_number   1
_chemical_formula_structural   Li12Gd3Y9(WO6)8
_chemical_formula_sum   'Li12 Gd3 Y9 W8 O48'
_cell_volume   948.94580854
_cell_formula_units_Z   1
loop_
 _symmetry_equiv_pos_site_id
 _symmetry_equiv_pos_as_xyz
  1  'x, y, z'
loop_
 _atom_site_type_symbol
 _atom_site_label
 _atom_site_symmetry_multiplicity
 _atom_site_fract_x
 _atom_site_fract_y
 _atom_site_fract_z
 _atom_site_occupancy
  Li  Li0  1  0.750371  0.375313  0.124982  1
  Li  Li1  1  0.874611  0.749670  0.124982  1
  Li  Li2  1  0.124970  0.375329  0.249977  1
  Li  Li3  1  0.625008  0.874649  0.249977  1
  Li  Li4  1  0.250371  0.125363  0.375691  1
  Li  Li5  1  0.625320  0.250328  0.375691  1
  Li  Li6  1  0.375037  0.750006  0.625047  1
  Li  Li7  1  0.750010  0.875040  0.625047  1
  Li  Li8  1  0.374966  0.124977  0.749646  1
  Li  Li9  1  0.874680  0.624670  0.749646  1
  Li  Li10  1  0.250004  0.624656  0.874653  1
  Li  Li11  1  0.124649  0.249997  0.874653  1
  Gd  Gd12  1  0.375078  0.250275  0.124730  1
  Gd  Gd13  1  0.249652  0.874455  0.124730  1
  Gd  Gd14  1  0.874893  0.124893  0.249787  1
  Y  Y15  1  0.375290  0.625290  0.250581  1
  Y  Y16  1  0.750493  0.625593  0.375369  1
  Y  Y17  1  0.124876  0.749776  0.375369  1
  Y  Y18  1  0.875102  0.250232  0.625587  1
  Y  Y19  1  0.250485  0.375355  0.625587  1
  Y  Y20  1  0.625048  0.375048  0.750097  1
  Y  Y21  1  0.124619  0.874619  0.749239  1
  Y  Y22  1  0.624803  0.749716  0.874472  1
  Y  Y23  1  0.749669  0.124757  0.874472  1
  W  W24  1  0.999024  0.999501  0.998580  1
  W  W25  1  0.499555  0.999079  0.998580  1
  W  W26  1  0.999697  0.499289  0.000008  1
  W  W27  1  0.500312  0.500720  0.000008  1
  W  W28  1  0.000237  0.000084  0.500678  1
  W  W29  1  0.500242  0.000011  0.500737  1
  W  W30  1  0.000441  0.500594  0.500678  1
  W  W31  1  0.500495  0.500726  0.500737  1
  O  O32  1  0.200036  0.616739  0.026282  1
  O  O33  1  0.326246  0.409543  0.026282  1
  O  O34  1  0.699361  0.173129  0.080269  1
  O  O35  1  0.880907  0.907141  0.080269  1
  O  O36  1  0.616831  0.916227  0.090054  1
  O  O37  1  0.973222  0.173827  0.090054  1
  O  O38  1  0.025937  0.699093  0.118710  1
  O  O39  1  0.592772  0.419616  0.118710  1
  O  O40  1  0.198507  0.082136  0.173408  1
  O  O41  1  0.474900  0.091273  0.173408  1
  O  O42  1  0.118810  0.527089  0.200584  1
  O  O43  1  0.581774  0.673496  0.200584  1
  O  O44  1  0.326940  0.419729  0.300964  1
  O  O45  1  0.474023  0.881235  0.300964  1
  O  O46  1  0.918404  0.799757  0.326780  1
  O  O47  1  0.908376  0.527023  0.326780  1
  O  O48  1  0.583455  0.409733  0.383405  1
  O  O49  1  0.299950  0.973672  0.383405  1
  O  O50  1  0.826204  0.026340  0.409661  1
  O  O51  1  0.083458  0.383321  0.409661  1
  O  O52  1  0.092680  0.118711  0.419589  1
  O  O53  1  0.826909  0.300878  0.419589  1
  O  O54  1  0.591885  0.673638  0.472998  1
  O  O55  1  0.381114  0.799359  0.472998  1
  O  O56  1  0.618650  0.200267  0.527116  1
  O  O57  1  0.408466  0.326849  0.527116  1
  O  O58  1  0.173533  0.701054  0.581869  1
  O  O59  1  0.908336  0.880814  0.581869  1
  O  O60  1  0.918553  0.619315  0.591953  1
  O  O61  1  0.173401  0.972637  0.591953  1
  O  O62  1  0.700852  0.027375  0.619402  1
  O  O63  1  0.418550  0.592028  0.619402  1
  O  O64  1  0.081779  0.200668  0.673572  1
  O  O65  1  0.091794  0.472905  0.673573  1
  O  O66  1  0.527580  0.119128  0.701153  1
  O  O67  1  0.673572  0.582025  0.701153  1
  O  O68  1  0.881263  0.472960  0.799667  1
  O  O69  1  0.418403  0.326706  0.799667  1
  O  O70  1  0.527824  0.908175  0.826110  1
  O  O71  1  0.798287  0.917935  0.826110  1
  O  O72  1  0.972387  0.298918  0.880813  1
  O  O73  1  0.408426  0.581895  0.880813  1
  O  O74  1  0.380767  0.080438  0.906965  1
  O  O75  1  0.026198  0.826527  0.906965  1
  O  O76  1  0.299095  0.825819  0.916083  1
  O  O77  1  0.116987  0.090264  0.916083  1
  O  O78  1  0.799138  0.380737  0.972579  1
  O  O79  1  0.673442  0.591844  0.972580  1
