# generated using pymatgen
data_Nd3RuI3
_symmetry_space_group_name_H-M   'P 1'
_cell_length_a   9.36025035
_cell_length_b   4.31492600
_cell_length_c   12.68511256
_cell_angle_alpha   90.00000000
_cell_angle_beta   92.91355315
_cell_angle_gamma   90.00000000
_symmetry_Int_Tables_number   1
_chemical_formula_structural   Nd3RuI3
_chemical_formula_sum   'Nd6 Ru2 I6'
_cell_volume   511.67405150
_cell_formula_units_Z   2
loop_
 _symmetry_equiv_pos_site_id
 _symmetry_equiv_pos_as_xyz
  1  'x, y, z'
loop_
 _atom_site_type_symbol
 _atom_site_label
 _atom_site_symmetry_multiplicity
 _atom_site_fract_x
 _atom_site_fract_y
 _atom_site_fract_z
 _atom_site_occupancy
  Nd  Nd0  1  0.903379  0.750001  0.108622  1
  Nd  Nd1  1  0.306456  0.750001  0.116488  1
  Nd  Nd2  1  0.115110  0.250001  0.328530  1
  Nd  Nd3  1  0.884891  0.750001  0.671471  1
  Nd  Nd4  1  0.693544  0.250001  0.883512  1
  Nd  Nd5  1  0.096620  0.250001  0.891379  1
  Ru  Ru6  1  0.107777  0.250001  0.118549  1
  Ru  Ru7  1  0.892223  0.750001  0.881452  1
  I  I8  1  0.603542  0.250001  0.133465  1
  I  I9  1  0.869268  0.750001  0.382547  1
  I  I10  1  0.365560  0.750001  0.372828  1
  I  I11  1  0.634439  0.250001  0.627172  1
  I  I12  1  0.130732  0.250001  0.617453  1
  I  I13  1  0.396459  0.750001  0.866536  1
