# generated using pymatgen
data_CaLa3In4
_symmetry_space_group_name_H-M   'P 1'
_cell_length_a   6.86507886
_cell_length_b   6.86507894
_cell_length_c   6.86507877
_cell_angle_alpha   115.64831689
_cell_angle_beta   115.64831549
_cell_angle_gamma   97.71859871
_symmetry_Int_Tables_number   1
_chemical_formula_structural   CaLa3In4
_chemical_formula_sum   'Ca1 La3 In4'
_cell_volume   241.45391751
_cell_formula_units_Z   1
loop_
 _symmetry_equiv_pos_site_id
 _symmetry_equiv_pos_as_xyz
  1  'x, y, z'
loop_
 _atom_site_type_symbol
 _atom_site_label
 _atom_site_symmetry_multiplicity
 _atom_site_fract_x
 _atom_site_fract_y
 _atom_site_fract_z
 _atom_site_occupancy
  Ca  Ca0  1  0.284126  0.284126  0.000000  1
  La  La1  1  0.757849  0.257849  0.500000  1
  La  La2  1  0.257849  0.757849  0.500000  1
  La  La3  1  0.697368  0.697368  0.000000  1
  In  In4  1  0.785863  0.785863  0.570321  1
  In  In5  1  0.785863  0.215541  0.000000  1
  In  In6  1  0.215541  0.785863  0.000000  1
  In  In7  1  0.215541  0.215541  0.429679  1
