# generated using pymatgen
data_Ti5Sb3Pt
_symmetry_space_group_name_H-M   'P 1'
_cell_length_a   8.31848500
_cell_length_b   8.31848583
_cell_length_c   5.52681800
_cell_angle_alpha   90.00000000
_cell_angle_beta   90.00000000
_cell_angle_gamma   120.00000068
_symmetry_Int_Tables_number   1
_chemical_formula_structural   Ti5Sb3Pt
_chemical_formula_sum   'Ti10 Sb6 Pt2'
_cell_volume   331.20303745
_cell_formula_units_Z   2
loop_
 _symmetry_equiv_pos_site_id
 _symmetry_equiv_pos_as_xyz
  1  'x, y, z'
loop_
 _atom_site_type_symbol
 _atom_site_label
 _atom_site_symmetry_multiplicity
 _atom_site_fract_x
 _atom_site_fract_y
 _atom_site_fract_z
 _atom_site_occupancy
  Ti  Ti0  1  0.666667  0.333333  0.500000  1
  Ti  Ti1  1  0.333333  0.666667  0.500000  1
  Ti  Ti2  1  0.333333  0.666667  0.000000  1
  Ti  Ti3  1  0.666667  0.333333  0.000000  1
  Ti  Ti4  1  0.726212  0.726212  0.250000  1
  Ti  Ti5  1  0.273788  0.000000  0.250000  1
  Ti  Ti6  1  0.000000  0.273788  0.250000  1
  Ti  Ti7  1  0.273788  0.273788  0.750000  1
  Ti  Ti8  1  0.726212  0.000000  0.750000  1
  Ti  Ti9  1  0.000000  0.726212  0.750000  1
  Sb  Sb10  1  0.384934  0.384934  0.250000  1
  Sb  Sb11  1  0.615066  0.000000  0.250000  1
  Sb  Sb12  1  0.000000  0.615066  0.250000  1
  Sb  Sb13  1  0.615066  0.615066  0.750000  1
  Sb  Sb14  1  0.384934  0.000000  0.750000  1
  Sb  Sb15  1  0.000000  0.384934  0.750000  1
  Pt  Pt16  1  0.000000  0.000000  0.000000  1
  Pt  Pt17  1  0.000000  0.000000  0.500000  1
