# generated using pymatgen
data_BaAc7Se16
_symmetry_space_group_name_H-M   'P 1'
_cell_length_a   8.73243596
_cell_length_b   8.82542491
_cell_length_c   9.06723432
_cell_angle_alpha   89.95359637
_cell_angle_beta   89.99531593
_cell_angle_gamma   90.05061204
_symmetry_Int_Tables_number   1
_chemical_formula_structural   BaAc7Se16
_chemical_formula_sum   'Ba1 Ac7 Se16'
_cell_volume   698.78819529
_cell_formula_units_Z   1
loop_
 _symmetry_equiv_pos_site_id
 _symmetry_equiv_pos_as_xyz
  1  'x, y, z'
loop_
 _atom_site_type_symbol
 _atom_site_label
 _atom_site_symmetry_multiplicity
 _atom_site_fract_x
 _atom_site_fract_y
 _atom_site_fract_z
 _atom_site_occupancy
  Ba  Ba0  1  0.997399  0.259247  0.282944  1
  Ac  Ac1  1  0.251773  0.489258  0.719455  1
  Ac  Ac2  1  0.252224  0.989758  0.717082  1
  Ac  Ac3  1  0.751995  0.510275  0.718521  1
  Ac  Ac4  1  0.752999  0.010639  0.719617  1
  Ac  Ac5  1  0.498010  0.241548  0.282253  1
  Ac  Ac6  1  0.998050  0.759718  0.282218  1
  Ac  Ac7  1  0.498467  0.741670  0.283405  1
  Se  Se8  1  0.500210  0.247263  0.633488  1
  Se  Se9  1  0.999887  0.752980  0.633454  1
  Se  Se10  1  0.500166  0.746939  0.639511  1
  Se  Se11  1  0.998806  0.254784  0.644094  1
  Se  Se12  1  0.744126  0.508271  0.367459  1
  Se  Se13  1  0.742421  0.995181  0.368664  1
  Se  Se14  1  0.256099  0.503077  0.368636  1
  Se  Se15  1  0.256068  0.991794  0.366464  1
  Se  Se16  1  0.238509  0.716064  0.995561  1
  Se  Se17  1  0.240430  0.210213  0.993557  1
  Se  Se18  1  0.734617  0.285725  0.994640  1
  Se  Se19  1  0.739181  0.785668  0.996734  1
  Se  Se20  1  0.011495  0.543610  0.998524  1
  Se  Se21  1  0.511783  0.961997  0.999232  1
  Se  Se22  1  0.510263  0.459539  0.998359  1
  Se  Se23  1  0.015020  0.034782  0.996129  1
