# generated using pymatgen
data_LaGdY4Ta2O14
_symmetry_space_group_name_H-M   'P 1'
_cell_length_a   6.52292835
_cell_length_b   6.52292672
_cell_length_c   7.59920038
_cell_angle_alpha   89.94378454
_cell_angle_beta   90.05621676
_cell_angle_gamma   109.06535438
_symmetry_Int_Tables_number   1
_chemical_formula_structural   LaGdY4Ta2O14
_chemical_formula_sum   'La1 Gd1 Y4 Ta2 O14'
_cell_volume   305.59895603
_cell_formula_units_Z   1
loop_
 _symmetry_equiv_pos_site_id
 _symmetry_equiv_pos_as_xyz
  1  'x, y, z'
loop_
 _atom_site_type_symbol
 _atom_site_label
 _atom_site_symmetry_multiplicity
 _atom_site_fract_x
 _atom_site_fract_y
 _atom_site_fract_z
 _atom_site_occupancy
  La  La0  1  0.500000  0.500000  0.500000  1
  Gd  Gd1  1  0.500000  0.500000  0.000000  1
  Y  Y2  1  0.533406  0.000356  0.752733  1
  Y  Y3  1  0.000356  0.533406  0.247267  1
  Y  Y4  1  0.466594  0.999644  0.247267  1
  Y  Y5  1  0.999644  0.466594  0.752733  1
  Ta  Ta6  1  0.000000  0.000000  0.500000  1
  Ta  Ta7  1  0.000000  0.000000  0.000000  1
  O  O8  1  0.681083  0.933136  0.467656  1
  O  O9  1  0.933136  0.681083  0.532344  1
  O  O10  1  0.681213  0.930463  0.031911  1
  O  O11  1  0.930463  0.681213  0.968089  1
  O  O12  1  0.318917  0.066864  0.532344  1
  O  O13  1  0.066864  0.318917  0.467656  1
  O  O14  1  0.318787  0.069537  0.968089  1
  O  O15  1  0.069537  0.318787  0.031911  1
  O  O16  1  0.936624  0.063376  0.749974  1
  O  O17  1  0.063376  0.936624  0.250026  1
  O  O18  1  0.366079  0.633921  0.758270  1
  O  O19  1  0.633921  0.366079  0.241730  1
  O  O20  1  0.641343  0.358657  0.756856  1
  O  O21  1  0.358657  0.641343  0.243144  1
