# generated using pymatgen
data_HfZr5(GaPt)6
_symmetry_space_group_name_H-M   'P 1'
_cell_length_a   7.20584963
_cell_length_b   7.21526202
_cell_length_c   7.13852300
_cell_angle_alpha   90.00000000
_cell_angle_beta   90.00000000
_cell_angle_gamma   120.10201345
_symmetry_Int_Tables_number   1
_chemical_formula_structural   HfZr5(GaPt)6
_chemical_formula_sum   'Hf1 Zr5 Ga6 Pt6'
_cell_volume   321.09159904
_cell_formula_units_Z   1
loop_
 _symmetry_equiv_pos_site_id
 _symmetry_equiv_pos_as_xyz
  1  'x, y, z'
loop_
 _atom_site_type_symbol
 _atom_site_label
 _atom_site_symmetry_multiplicity
 _atom_site_fract_x
 _atom_site_fract_y
 _atom_site_fract_z
 _atom_site_occupancy
  Hf  Hf0  1  0.978719  0.385531  0.250000  1
  Zr  Zr1  1  0.615480  0.593914  0.250000  1
  Zr  Zr2  1  0.023761  0.408177  0.750000  1
  Zr  Zr3  1  0.406696  0.021742  0.250000  1
  Zr  Zr4  1  0.385743  0.976879  0.750000  1
  Zr  Zr5  1  0.592482  0.614186  0.750000  1
  Ga  Ga6  1  0.268223  0.267900  0.500374  1
  Ga  Ga7  1  0.731180  0.998914  0.500128  1
  Ga  Ga8  1  0.000128  0.733188  0.499266  1
  Ga  Ga9  1  0.731180  0.998914  0.999872  1
  Ga  Ga10  1  0.268223  0.267900  0.999626  1
  Ga  Ga11  1  0.000128  0.733188  0.000734  1
  Pt  Pt12  1  0.330203  0.664104  0.465501  1
  Pt  Pt13  1  0.000172  0.000309  0.750000  1
  Pt  Pt14  1  0.000476  0.003981  0.250000  1
  Pt  Pt15  1  0.330203  0.664104  0.034499  1
  Pt  Pt16  1  0.668502  0.333534  0.529303  1
  Pt  Pt17  1  0.668502  0.333534  0.970697  1
