# generated using pymatgen
data_SrRu2F12
_symmetry_space_group_name_H-M   'P 1'
_cell_length_a   5.57806441
_cell_length_b   5.51253646
_cell_length_c   10.05337870
_cell_angle_alpha   97.32119796
_cell_angle_beta   95.99396087
_cell_angle_gamma   118.10611456
_symmetry_Int_Tables_number   1
_chemical_formula_structural   SrRu2F12
_chemical_formula_sum   'Sr1 Ru2 F12'
_cell_volume   265.63570671
_cell_formula_units_Z   1
loop_
 _symmetry_equiv_pos_site_id
 _symmetry_equiv_pos_as_xyz
  1  'x, y, z'
loop_
 _atom_site_type_symbol
 _atom_site_label
 _atom_site_symmetry_multiplicity
 _atom_site_fract_x
 _atom_site_fract_y
 _atom_site_fract_z
 _atom_site_occupancy
  Sr  Sr0  1  0.975031  0.955897  0.881643  1
  Ru  Ru1  1  0.214315  0.503781  0.600476  1
  Ru  Ru2  1  0.383100  0.690654  0.128627  1
  F  F3  1  0.349087  0.983988  0.220538  1
  F  F4  1  0.547205  0.601647  0.731204  1
  F  F5  1  0.072050  0.616226  0.987410  1
  F  F6  1  0.131940  0.426447  0.213651  1
  F  F7  1  0.398673  0.385428  0.014691  1
  F  F8  1  0.250596  0.221286  0.499405  1
  F  F9  1  0.687303  0.759414  0.253511  1
  F  F10  1  0.189283  0.798037  0.718436  1
  F  F11  1  0.887132  0.411406  0.486857  1
  F  F12  1  0.004549  0.248001  0.714725  1
  F  F13  1  0.429334  0.767882  0.504410  1
  F  F14  1  0.628399  0.939908  0.022413  1
