# generated using pymatgen
data_Sm5Fe6Co13
_symmetry_space_group_name_H-M   'P 1'
_cell_length_a   5.12658534
_cell_length_b   5.12658535
_cell_length_c   16.06533824
_cell_angle_alpha   80.81897509
_cell_angle_beta   80.81897594
_cell_angle_gamma   60.00001137
_symmetry_Int_Tables_number   1
_chemical_formula_structural   Sm5Fe6Co13
_chemical_formula_sum   'Sm5 Fe6 Co13'
_cell_volume   359.40012157
_cell_formula_units_Z   1
loop_
 _symmetry_equiv_pos_site_id
 _symmetry_equiv_pos_as_xyz
  1  'x, y, z'
loop_
 _atom_site_type_symbol
 _atom_site_label
 _atom_site_symmetry_multiplicity
 _atom_site_fract_x
 _atom_site_fract_y
 _atom_site_fract_z
 _atom_site_occupancy
  Sm  Sm0  1  0.000000  0.000000  0.000000  1
  Sm  Sm1  1  0.078822  0.078822  0.763533  1
  Sm  Sm2  1  0.921178  0.921178  0.236467  1
  Sm  Sm3  1  0.153051  0.153051  0.540848  1
  Sm  Sm4  1  0.846949  0.846949  0.459152  1
  Fe  Fe5  1  0.251203  0.251203  0.246390  1
  Fe  Fe6  1  0.748797  0.748797  0.753610  1
  Fe  Fe7  1  0.333313  0.333313  0.000061  1
  Fe  Fe8  1  0.666687  0.666687  0.999939  1
  Fe  Fe9  1  0.415386  0.415386  0.753843  1
  Fe  Fe10  1  0.584614  0.584614  0.246157  1
  Co  Co11  1  0.500000  0.500000  0.500000  1
  Co  Co12  1  0.125720  0.621611  0.631057  1
  Co  Co13  1  0.621611  0.621611  0.631057  1
  Co  Co14  1  0.621611  0.125720  0.631057  1
  Co  Co15  1  0.874280  0.378389  0.368943  1
  Co  Co16  1  0.378389  0.378389  0.368943  1
  Co  Co17  1  0.378389  0.874280  0.368943  1
  Co  Co18  1  0.041293  0.540786  0.877134  1
  Co  Co19  1  0.540786  0.540786  0.877134  1
  Co  Co20  1  0.540786  0.041293  0.877134  1
  Co  Co21  1  0.958707  0.459214  0.122866  1
  Co  Co22  1  0.459214  0.459214  0.122866  1
  Co  Co23  1  0.459214  0.958707  0.122866  1
