# generated using pymatgen
data_Y3Zr5(Ni4As3)4
_symmetry_space_group_name_H-M   'P 1'
_cell_length_a   12.72354556
_cell_length_b   12.73446322
_cell_length_c   3.88448100
_cell_angle_alpha   90.00000000
_cell_angle_beta   90.00000000
_cell_angle_gamma   120.02838457
_symmetry_Int_Tables_number   1
_chemical_formula_structural   Y3Zr5(Ni4As3)4
_chemical_formula_sum   'Y3 Zr5 Ni16 As12'
_cell_volume   544.91421466
_cell_formula_units_Z   1
loop_
 _symmetry_equiv_pos_site_id
 _symmetry_equiv_pos_as_xyz
  1  'x, y, z'
loop_
 _atom_site_type_symbol
 _atom_site_label
 _atom_site_symmetry_multiplicity
 _atom_site_fract_x
 _atom_site_fract_y
 _atom_site_fract_z
 _atom_site_occupancy
  Y  Y0  1  0.000000  0.180309  0.500000  1
  Y  Y1  1  0.667939  0.333393  0.000000  1
  Y  Y2  1  0.332061  0.665455  0.000000  1
  Zr  Zr3  1  0.819355  0.819295  0.500000  1
  Zr  Zr4  1  0.180645  0.999940  0.500000  1
  Zr  Zr5  1  0.000000  0.561983  0.000000  1
  Zr  Zr6  1  0.440165  0.439664  0.000000  1
  Zr  Zr7  1  0.559835  0.999499  0.000000  1
  Ni  Ni8  1  0.000000  0.728258  0.500000  1
  Ni  Ni9  1  0.276368  0.272102  0.500000  1
  Ni  Ni10  1  0.723632  0.995733  0.500000  1
  Ni  Ni11  1  0.807506  0.179729  0.000000  1
  Ni  Ni12  1  0.819814  0.630451  0.000000  1
  Ni  Ni13  1  0.372371  0.190638  0.000000  1
  Ni  Ni14  1  0.180186  0.810636  0.000000  1
  Ni  Ni15  1  0.627629  0.818267  0.000000  1
  Ni  Ni16  1  0.192494  0.372223  0.000000  1
  Ni  Ni17  1  0.878892  0.361093  0.500000  1
  Ni  Ni18  1  0.641846  0.522012  0.500000  1
  Ni  Ni19  1  0.480091  0.120655  0.500000  1
  Ni  Ni20  1  0.358154  0.880167  0.500000  1
  Ni  Ni21  1  0.519909  0.640566  0.500000  1
  Ni  Ni22  1  0.121108  0.482201  0.500000  1
  Ni  Ni23  1  0.000000  0.997800  0.000000  1
  As  As24  1  0.000000  0.823989  0.000000  1
  As  As25  1  0.177602  0.174158  0.000000  1
  As  As26  1  0.822398  0.996556  0.000000  1
  As  As27  1  0.692631  0.170548  0.500000  1
  As  As28  1  0.828497  0.521725  0.500000  1
  As  As29  1  0.481724  0.308967  0.500000  1
  As  As30  1  0.171503  0.693228  0.500000  1
  As  As31  1  0.518276  0.827243  0.500000  1
  As  As32  1  0.307369  0.477917  0.500000  1
  As  As33  1  0.000000  0.354753  0.000000  1
  As  As34  1  0.648343  0.648596  0.000000  1
  As  As35  1  0.351657  0.000253  0.000000  1
