# generated using pymatgen
data_Sr(Th2B15)2
_symmetry_space_group_name_H-M   'P 1'
_cell_length_a   4.12341500
_cell_length_b   4.12341500
_cell_length_c   20.63611100
_cell_angle_alpha   90.00000000
_cell_angle_beta   90.00000000
_cell_angle_gamma   90.00000000
_symmetry_Int_Tables_number   1
_chemical_formula_structural   Sr(Th2B15)2
_chemical_formula_sum   'Sr1 Th4 B30'
_cell_volume   350.86653513
_cell_formula_units_Z   1
loop_
 _symmetry_equiv_pos_site_id
 _symmetry_equiv_pos_as_xyz
  1  'x, y, z'
loop_
 _atom_site_type_symbol
 _atom_site_label
 _atom_site_symmetry_multiplicity
 _atom_site_fract_x
 _atom_site_fract_y
 _atom_site_fract_z
 _atom_site_occupancy
  Sr  Sr0  1  0.000000  0.000000  0.000000  1
  Th  Th1  1  0.000000  0.000000  0.202364  1
  Th  Th2  1  0.000000  0.000000  0.401369  1
  Th  Th3  1  0.000000  0.000000  0.598631  1
  Th  Th4  1  0.000000  0.000000  0.797636  1
  B  B5  1  0.500000  0.500000  0.161426  1
  B  B6  1  0.500000  0.500000  0.360870  1
  B  B7  1  0.500000  0.500000  0.560350  1
  B  B8  1  0.500000  0.500000  0.759749  1
  B  B9  1  0.500000  0.500000  0.959381  1
  B  B10  1  0.500000  0.199413  0.101477  1
  B  B11  1  0.500000  0.197533  0.300552  1
  B  B12  1  0.500000  0.197208  0.500000  1
  B  B13  1  0.500000  0.197533  0.699448  1
  B  B14  1  0.500000  0.199413  0.898523  1
  B  B15  1  0.199413  0.500000  0.101477  1
  B  B16  1  0.197533  0.500000  0.300552  1
  B  B17  1  0.197208  0.500000  0.500000  1
  B  B18  1  0.197533  0.500000  0.699448  1
  B  B19  1  0.199413  0.500000  0.898523  1
  B  B20  1  0.500000  0.500000  0.040619  1
  B  B21  1  0.500000  0.500000  0.240251  1
  B  B22  1  0.500000  0.500000  0.439650  1
  B  B23  1  0.500000  0.500000  0.639130  1
  B  B24  1  0.500000  0.500000  0.838574  1
  B  B25  1  0.500000  0.800587  0.101477  1
  B  B26  1  0.500000  0.802467  0.300552  1
  B  B27  1  0.500000  0.802792  0.500000  1
  B  B28  1  0.500000  0.802467  0.699448  1
  B  B29  1  0.500000  0.800587  0.898523  1
  B  B30  1  0.800587  0.500000  0.101477  1
  B  B31  1  0.802467  0.500000  0.300552  1
  B  B32  1  0.802792  0.500000  0.500000  1
  B  B33  1  0.802467  0.500000  0.699448  1
  B  B34  1  0.800587  0.500000  0.898523  1
