# generated using pymatgen
data_Tb2Y5HoAu4
_symmetry_space_group_name_H-M   'P 1'
_cell_length_a   4.94416600
_cell_length_b   7.18757939
_cell_length_c   8.96317028
_cell_angle_alpha   89.86499802
_cell_angle_beta   90.00000000
_cell_angle_gamma   90.00000000
_symmetry_Int_Tables_number   1
_chemical_formula_structural   Tb2Y5HoAu4
_chemical_formula_sum   'Tb2 Y5 Ho1 Au4'
_cell_volume   318.51958382
_cell_formula_units_Z   1
loop_
 _symmetry_equiv_pos_site_id
 _symmetry_equiv_pos_as_xyz
  1  'x, y, z'
loop_
 _atom_site_type_symbol
 _atom_site_label
 _atom_site_symmetry_multiplicity
 _atom_site_fract_x
 _atom_site_fract_y
 _atom_site_fract_z
 _atom_site_occupancy
  Tb  Tb0  1  0.250000  0.351377  0.579943  1
  Tb  Tb1  1  0.750000  0.148590  0.080287  1
  Y  Y2  1  0.250000  0.486399  0.174746  1
  Y  Y3  1  0.750000  0.515122  0.823611  1
  Y  Y4  1  0.250000  0.986007  0.324411  1
  Y  Y5  1  0.750000  0.013798  0.676938  1
  Y  Y6  1  0.750000  0.649426  0.419574  1
  Ho  Ho7  1  0.250000  0.851851  0.920389  1
  Au  Au8  1  0.250000  0.253124  0.899639  1
  Au  Au9  1  0.750000  0.745735  0.097971  1
  Au  Au10  1  0.250000  0.754743  0.602506  1
  Au  Au11  1  0.750000  0.243827  0.399985  1
