# generated using pymatgen
data_LuMn3P6N13
_symmetry_space_group_name_H-M   'P 1'
_cell_length_a   7.11774234
_cell_length_b   7.15537467
_cell_length_c   7.15537500
_cell_angle_alpha   109.57751373
_cell_angle_beta   109.36472870
_cell_angle_gamma   109.36471746
_symmetry_Int_Tables_number   1
_chemical_formula_structural   LuMn3P6N13
_chemical_formula_sum   'Lu1 Mn3 P6 N13'
_cell_volume   280.90161424
_cell_formula_units_Z   1
loop_
 _symmetry_equiv_pos_site_id
 _symmetry_equiv_pos_as_xyz
  1  'x, y, z'
loop_
 _atom_site_type_symbol
 _atom_site_label
 _atom_site_symmetry_multiplicity
 _atom_site_fract_x
 _atom_site_fract_y
 _atom_site_fract_z
 _atom_site_occupancy
  Lu  Lu0  1  0.705411  0.000000  0.000000  1
  Mn  Mn1  1  0.002099  0.000000  0.710047  1
  Mn  Mn2  1  0.002099  0.710047  0.000000  1
  Mn  Mn3  1  0.292052  0.289953  0.289953  1
  P  P4  1  0.246531  0.748304  0.496762  1
  P  P5  1  0.749769  0.251542  0.503238  1
  P  P6  1  0.749769  0.503238  0.251542  1
  P  P7  1  0.246531  0.496762  0.748304  1
  P  P8  1  0.498227  0.748458  0.251696  1
  P  P9  1  0.498227  0.251696  0.748458  1
  N  N10  1  0.008757  0.000000  0.000000  1
  N  N11  1  0.723046  0.277672  0.277672  1
  N  N12  1  0.268047  0.717954  0.269273  1
  N  N13  1  0.290491  0.559284  0.559284  1
  N  N14  1  0.550093  0.551319  0.282046  1
  N  N15  1  0.445373  0.722328  0.000000  1
  N  N16  1  0.998774  0.730727  0.448681  1
  N  N17  1  0.550093  0.282046  0.551319  1
  N  N18  1  0.731207  0.000000  0.440716  1
  N  N19  1  0.445373  0.000000  0.722328  1
  N  N20  1  0.731207  0.440716  0.000000  1
  N  N21  1  0.268047  0.269273  0.717954  1
  N  N22  1  0.998774  0.448681  0.730727  1
