# generated using pymatgen
data_YbV(SiO3)2
_symmetry_space_group_name_H-M   'P 1'
_cell_length_a   5.30788992
_cell_length_b   6.74467745
_cell_length_c   6.74469340
_cell_angle_alpha   84.81008407
_cell_angle_beta   78.79561151
_cell_angle_gamma   78.79569503
_symmetry_Int_Tables_number   1
_chemical_formula_structural   YbV(SiO3)2
_chemical_formula_sum   'Yb2 V2 Si4 O12'
_cell_volume   231.99477984
_cell_formula_units_Z   2
loop_
 _symmetry_equiv_pos_site_id
 _symmetry_equiv_pos_as_xyz
  1  'x, y, z'
loop_
 _atom_site_type_symbol
 _atom_site_label
 _atom_site_symmetry_multiplicity
 _atom_site_fract_x
 _atom_site_fract_y
 _atom_site_fract_z
 _atom_site_occupancy
  Yb  Yb0  1  0.750000  0.298096  0.701905  1
  Yb  Yb1  1  0.249999  0.701900  0.298095  1
  V  V2  1  0.749998  0.907980  0.092014  1
  V  V3  1  0.250004  0.092020  0.907978  1
  Si  Si4  1  0.262921  0.196615  0.381782  1
  Si  Si5  1  0.237076  0.618219  0.803385  1
  Si  Si6  1  0.762921  0.381780  0.196613  1
  Si  Si7  1  0.737077  0.803388  0.618222  1
  O  O8  1  0.501336  0.331835  0.370256  1
  O  O9  1  0.998666  0.629741  0.668163  1
  O  O10  1  0.498666  0.668167  0.629740  1
  O  O11  1  0.001336  0.370262  0.331829  1
  O  O12  1  0.169022  0.119017  0.610378  1
  O  O13  1  0.330976  0.389624  0.880988  1
  O  O14  1  0.830978  0.880989  0.389629  1
  O  O15  1  0.669020  0.610373  0.119007  1
  O  O16  1  0.845819  0.213860  0.026793  1
  O  O17  1  0.654180  0.973212  0.786141  1
  O  O18  1  0.345822  0.026787  0.213869  1
  O  O19  1  0.154179  0.786136  0.973211  1
