# generated using pymatgen
data_TbDy3Th4(ReB6)4
_symmetry_space_group_name_H-M   'P 1'
_cell_length_a   3.77604800
_cell_length_b   9.28868402
_cell_length_c   11.70573602
_cell_angle_alpha   90.00740627
_cell_angle_beta   90.00000000
_cell_angle_gamma   90.00000000
_symmetry_Int_Tables_number   1
_chemical_formula_structural   TbDy3Th4(ReB6)4
_chemical_formula_sum   'Tb1 Dy3 Th4 Re4 B24'
_cell_volume   410.57303041
_cell_formula_units_Z   1
loop_
 _symmetry_equiv_pos_site_id
 _symmetry_equiv_pos_as_xyz
  1  'x, y, z'
loop_
 _atom_site_type_symbol
 _atom_site_label
 _atom_site_symmetry_multiplicity
 _atom_site_fract_x
 _atom_site_fract_y
 _atom_site_fract_z
 _atom_site_occupancy
  Tb  Tb0  1  0.000000  0.944735  0.372668  1
  Dy  Dy1  1  0.000000  0.055326  0.627544  1
  Dy  Dy2  1  0.000000  0.444731  0.127329  1
  Dy  Dy3  1  0.000000  0.555260  0.872612  1
  Th  Th4  1  0.000000  0.322689  0.413958  1
  Th  Th5  1  0.000000  0.677343  0.586156  1
  Th  Th6  1  0.000000  0.822578  0.086025  1
  Th  Th7  1  0.000000  0.177426  0.913888  1
  Re  Re8  1  0.000000  0.638661  0.320270  1
  Re  Re9  1  0.000000  0.361055  0.679734  1
  Re  Re10  1  0.000000  0.139172  0.179517  1
  Re  Re11  1  0.000000  0.860994  0.820338  1
  B  B12  1  0.500000  0.555949  0.430117  1
  B  B13  1  0.500000  0.443933  0.569930  1
  B  B14  1  0.500000  0.056079  0.069812  1
  B  B15  1  0.500000  0.943956  0.930087  1
  B  B16  1  0.500000  0.748773  0.417415  1
  B  B17  1  0.500000  0.250918  0.582600  1
  B  B18  1  0.500000  0.249162  0.082555  1
  B  B19  1  0.500000  0.750879  0.917408  1
  B  B20  1  0.500000  0.790404  0.266937  1
  B  B21  1  0.500000  0.209293  0.733005  1
  B  B22  1  0.500000  0.290839  0.232965  1
  B  B23  1  0.500000  0.709290  0.767004  1
  B  B24  1  0.500000  0.630827  0.186627  1
  B  B25  1  0.500000  0.369091  0.813316  1
  B  B26  1  0.500000  0.131212  0.313150  1
  B  B27  1  0.500000  0.869036  0.686717  1
  B  B28  1  0.500000  0.985702  0.213573  1
  B  B29  1  0.500000  0.014489  0.786211  1
  B  B30  1  0.500000  0.485450  0.286173  1
  B  B31  1  0.500000  0.514487  0.713804  1
  B  B32  1  0.500000  0.604137  0.028733  1
  B  B33  1  0.500000  0.395852  0.971237  1
  B  B34  1  0.500000  0.104608  0.471465  1
  B  B35  1  0.500000  0.895665  0.529120  1
