# generated using pymatgen
data_Tb4Dy3FeBr12
_symmetry_space_group_name_H-M   'P 1'
_cell_length_a   9.15371786
_cell_length_b   9.22766632
_cell_length_c   9.24333141
_cell_angle_alpha   106.90413380
_cell_angle_beta   106.82786697
_cell_angle_gamma   106.58116099
_symmetry_Int_Tables_number   1
_chemical_formula_structural   Tb4Dy3FeBr12
_chemical_formula_sum   'Tb4 Dy3 Fe1 Br12'
_cell_volume   654.23898685
_cell_formula_units_Z   1
loop_
 _symmetry_equiv_pos_site_id
 _symmetry_equiv_pos_as_xyz
  1  'x, y, z'
loop_
 _atom_site_type_symbol
 _atom_site_label
 _atom_site_symmetry_multiplicity
 _atom_site_fract_x
 _atom_site_fract_y
 _atom_site_fract_z
 _atom_site_occupancy
  Tb  Tb0  1  0.705594  0.979279  0.906125  1
  Tb  Tb1  1  0.097259  0.306095  0.021587  1
  Tb  Tb2  1  0.020350  0.097410  0.306379  1
  Tb  Tb3  1  0.293991  0.020574  0.093076  1
  Dy  Dy4  1  0.903042  0.695436  0.978526  1
  Dy  Dy5  1  0.979315  0.902274  0.694921  1
  Dy  Dy6  1  0.500106  0.499675  0.499896  1
  Fe  Fe7  1  0.000078  0.000480  0.000305  1
  Br  Br8  1  0.615154  0.832649  0.539821  1
  Br  Br9  1  0.539389  0.615136  0.832545  1
  Br  Br10  1  0.834811  0.538153  0.614539  1
  Br  Br11  1  0.386057  0.166857  0.459907  1
  Br  Br12  1  0.461717  0.384763  0.167567  1
  Br  Br13  1  0.165990  0.462883  0.386767  1
  Br  Br14  1  0.678914  0.071241  0.222524  1
  Br  Br15  1  0.224761  0.681415  0.073583  1
  Br  Br16  1  0.072764  0.223073  0.679706  1
  Br  Br17  1  0.319405  0.928118  0.776103  1
  Br  Br18  1  0.774260  0.319626  0.926176  1
  Br  Br19  1  0.927045  0.774862  0.319948  1
