# generated using pymatgen
data_YHo3Nb2(B2Ru5)2
_symmetry_space_group_name_H-M   'P 1'
_cell_length_a   9.67524186
_cell_length_b   9.67524186
_cell_length_c   3.12949900
_cell_angle_alpha   90.00000000
_cell_angle_beta   90.00000000
_cell_angle_gamma   90.04829899
_symmetry_Int_Tables_number   1
_chemical_formula_structural   YHo3Nb2(B2Ru5)2
_chemical_formula_sum   'Y1 Ho3 Nb2 B4 Ru10'
_cell_volume   292.95325192
_cell_formula_units_Z   1
loop_
 _symmetry_equiv_pos_site_id
 _symmetry_equiv_pos_as_xyz
  1  'x, y, z'
loop_
 _atom_site_type_symbol
 _atom_site_label
 _atom_site_symmetry_multiplicity
 _atom_site_fract_x
 _atom_site_fract_y
 _atom_site_fract_z
 _atom_site_occupancy
  Y  Y0  1  0.825052  0.674948  0.000000  1
  Ho  Ho1  1  0.174952  0.325048  0.000000  1
  Ho  Ho2  1  0.325067  0.825089  0.000000  1
  Ho  Ho3  1  0.674911  0.174933  0.000000  1
  Nb  Nb4  1  0.499901  0.499969  0.000000  1
  Nb  Nb5  1  0.000031  0.000099  0.000000  1
  B  B6  1  0.620150  0.879850  0.000000  1
  B  B7  1  0.379772  0.120228  0.000000  1
  B  B8  1  0.120356  0.620205  0.000000  1
  B  B9  1  0.879795  0.379644  0.000000  1
  Ru  Ru10  1  0.570183  0.718554  0.500000  1
  Ru  Ru11  1  0.429060  0.281603  0.500000  1
  Ru  Ru12  1  0.071487  0.781794  0.500000  1
  Ru  Ru13  1  0.929052  0.218355  0.500000  1
  Ru  Ru14  1  0.281645  0.570948  0.500000  1
  Ru  Ru15  1  0.718206  0.428513  0.500000  1
  Ru  Ru16  1  0.218397  0.070940  0.500000  1
  Ru  Ru17  1  0.781446  0.929817  0.500000  1
  Ru  Ru18  1  0.499938  0.000062  0.500000  1
  Ru  Ru19  1  0.000601  0.499399  0.500000  1
