# generated using pymatgen
data_Tb5Ce2Nd(Si3Pd)4
_symmetry_space_group_name_H-M   'P 1'
_cell_length_a   8.18832800
_cell_length_b   8.18909352
_cell_length_c   8.29580500
_cell_angle_alpha   90.00000000
_cell_angle_beta   90.00000000
_cell_angle_gamma   119.99690772
_symmetry_Int_Tables_number   1
_chemical_formula_structural   Tb5Ce2Nd(Si3Pd)4
_chemical_formula_sum   'Tb5 Ce2 Nd1 Si12 Pd4'
_cell_volume   481.76335250
_cell_formula_units_Z   1
loop_
 _symmetry_equiv_pos_site_id
 _symmetry_equiv_pos_as_xyz
  1  'x, y, z'
loop_
 _atom_site_type_symbol
 _atom_site_label
 _atom_site_symmetry_multiplicity
 _atom_site_fract_x
 _atom_site_fract_y
 _atom_site_fract_z
 _atom_site_occupancy
  Tb  Tb0  1  0.499970  0.500084  0.750000  1
  Tb  Tb1  1  0.500051  0.499974  0.250000  1
  Tb  Tb2  1  0.000113  0.500084  0.750000  1
  Tb  Tb3  1  0.999923  0.499974  0.250000  1
  Tb  Tb4  1  0.499925  0.999850  0.750000  1
  Ce  Ce5  1  0.999980  0.999959  0.750000  1
  Ce  Ce6  1  0.000010  0.000020  0.250000  1
  Nd  Nd7  1  0.500040  0.000079  0.250000  1
  Si  Si8  1  0.834967  0.165891  0.997829  1
  Si  Si9  1  0.165024  0.834105  0.998454  1
  Si  Si10  1  0.330924  0.165891  0.997829  1
  Si  Si11  1  0.165024  0.834105  0.501546  1
  Si  Si12  1  0.669081  0.834105  0.998454  1
  Si  Si13  1  0.834967  0.165891  0.502171  1
  Si  Si14  1  0.834663  0.669326  0.000205  1
  Si  Si15  1  0.669081  0.834105  0.501546  1
  Si  Si16  1  0.165337  0.330675  0.000755  1
  Si  Si17  1  0.330924  0.165891  0.502171  1
  Si  Si18  1  0.165337  0.330675  0.499245  1
  Si  Si19  1  0.834663  0.669326  0.499795  1
  Pd  Pd20  1  0.667498  0.334996  0.995917  1
  Pd  Pd21  1  0.332499  0.665000  0.995873  1
  Pd  Pd22  1  0.332499  0.665000  0.504127  1
  Pd  Pd23  1  0.667498  0.334996  0.504083  1
