# generated using pymatgen
data_Ba6HgPPb8
_symmetry_space_group_name_H-M   'P 1'
_cell_length_a   9.38432245
_cell_length_b   9.38432230
_cell_length_c   9.38432200
_cell_angle_alpha   120.09744258
_cell_angle_beta   120.09744205
_cell_angle_gamma   89.83130324
_symmetry_Int_Tables_number   1
_chemical_formula_structural   Ba6HgPPb8
_chemical_formula_sum   'Ba6 Hg1 P1 Pb8'
_cell_volume   583.51442854
_cell_formula_units_Z   1
loop_
 _symmetry_equiv_pos_site_id
 _symmetry_equiv_pos_as_xyz
  1  'x, y, z'
loop_
 _atom_site_type_symbol
 _atom_site_label
 _atom_site_symmetry_multiplicity
 _atom_site_fract_x
 _atom_site_fract_y
 _atom_site_fract_z
 _atom_site_occupancy
  Ba  Ba0  1  0.268104  0.268104  0.000000  1
  Ba  Ba1  1  0.731896  0.731896  0.000000  1
  Ba  Ba2  1  0.185685  0.644487  0.830172  1
  Ba  Ba3  1  0.814315  0.355513  0.169828  1
  Ba  Ba4  1  0.644487  0.814315  0.458802  1
  Ba  Ba5  1  0.355513  0.185685  0.541198  1
  Hg  Hg6  1  0.000000  0.000000  0.000000  1
  P  P7  1  0.500000  0.500000  0.000000  1
  Pb  Pb8  1  0.840111  0.323464  0.785482  1
  Pb  Pb9  1  0.159889  0.676536  0.214518  1
  Pb  Pb10  1  0.537983  0.054629  0.214518  1
  Pb  Pb11  1  0.323464  0.537983  0.483354  1
  Pb  Pb12  1  0.945371  0.159889  0.483354  1
  Pb  Pb13  1  0.462017  0.945371  0.785482  1
  Pb  Pb14  1  0.676536  0.462017  0.516646  1
  Pb  Pb15  1  0.054629  0.840111  0.516646  1
