# generated using pymatgen
data_DyHo4(In2Pt)2
_symmetry_space_group_name_H-M   'P 1'
_cell_length_a   3.60848000
_cell_length_b   8.15884900
_cell_length_c   18.24733600
_cell_angle_alpha   90.00000000
_cell_angle_beta   90.00000000
_cell_angle_gamma   90.00000000
_symmetry_Int_Tables_number   1
_chemical_formula_structural   DyHo4(In2Pt)2
_chemical_formula_sum   'Dy2 Ho8 In8 Pt4'
_cell_volume   537.22061183
_cell_formula_units_Z   2
loop_
 _symmetry_equiv_pos_site_id
 _symmetry_equiv_pos_as_xyz
  1  'x, y, z'
loop_
 _atom_site_type_symbol
 _atom_site_label
 _atom_site_symmetry_multiplicity
 _atom_site_fract_x
 _atom_site_fract_y
 _atom_site_fract_z
 _atom_site_occupancy
  Dy  Dy0  1  0.000000  0.000000  0.000000  1
  Dy  Dy1  1  0.000000  0.500000  0.500000  1
  Ho  Ho2  1  0.000000  0.117061  0.414469  1
  Ho  Ho3  1  0.000000  0.882939  0.585531  1
  Ho  Ho4  1  0.000000  0.382939  0.914469  1
  Ho  Ho5  1  0.000000  0.617061  0.085531  1
  Ho  Ho6  1  0.000000  0.243341  0.220087  1
  Ho  Ho7  1  0.000000  0.756659  0.779913  1
  Ho  Ho8  1  0.000000  0.256659  0.720087  1
  Ho  Ho9  1  0.000000  0.743341  0.279913  1
  In  In10  1  0.500000  0.423867  0.350567  1
  In  In11  1  0.500000  0.576133  0.649433  1
  In  In12  1  0.500000  0.076133  0.850567  1
  In  In13  1  0.500000  0.923867  0.149433  1
  In  In14  1  0.500000  0.292702  0.066728  1
  In  In15  1  0.500000  0.707298  0.933272  1
  In  In16  1  0.500000  0.207298  0.566728  1
  In  In17  1  0.500000  0.792702  0.433272  1
  Pt  Pt18  1  0.500000  0.024580  0.303310  1
  Pt  Pt19  1  0.500000  0.975420  0.696690  1
  Pt  Pt20  1  0.500000  0.475420  0.803310  1
  Pt  Pt21  1  0.500000  0.524580  0.196690  1
