# generated using pymatgen
data_Na3Ac17Pb16
_symmetry_space_group_name_H-M   'P 1'
_cell_length_a   8.73956109
_cell_length_b   8.91919698
_cell_length_c   17.25958000
_cell_angle_alpha   90.00000000
_cell_angle_beta   90.00000000
_cell_angle_gamma   90.31522501
_symmetry_Int_Tables_number   1
_chemical_formula_structural   Na3Ac17Pb16
_chemical_formula_sum   'Na3 Ac17 Pb16'
_cell_volume   1345.36160064
_cell_formula_units_Z   1
loop_
 _symmetry_equiv_pos_site_id
 _symmetry_equiv_pos_as_xyz
  1  'x, y, z'
loop_
 _atom_site_type_symbol
 _atom_site_label
 _atom_site_symmetry_multiplicity
 _atom_site_fract_x
 _atom_site_fract_y
 _atom_site_fract_z
 _atom_site_occupancy
  Na  Na0  1  0.706331  0.001163  0.750000  1
  Na  Na1  1  0.793326  0.503936  0.250000  1
  Na  Na2  1  0.292696  0.996386  0.250000  1
  Ac  Ac3  1  0.379259  0.838352  0.879215  1
  Ac  Ac4  1  0.872782  0.669527  0.619056  1
  Ac  Ac5  1  0.621442  0.166459  0.375764  1
  Ac  Ac6  1  0.122120  0.336919  0.121675  1
  Ac  Ac7  1  0.621442  0.166459  0.124236  1
  Ac  Ac8  1  0.122120  0.336919  0.378325  1
  Ac  Ac9  1  0.379259  0.838352  0.620785  1
  Ac  Ac10  1  0.872782  0.669527  0.880944  1
  Ac  Ac11  1  0.527140  0.311591  0.901527  1
  Ac  Ac12  1  0.018491  0.177464  0.598304  1
  Ac  Ac13  1  0.480847  0.686630  0.399876  1
  Ac  Ac14  1  0.978569  0.815074  0.101566  1
  Ac  Ac15  1  0.480847  0.686630  0.100124  1
  Ac  Ac16  1  0.978569  0.815074  0.398434  1
  Ac  Ac17  1  0.527140  0.311591  0.598473  1
  Ac  Ac18  1  0.018491  0.177464  0.901696  1
  Ac  Ac19  1  0.202953  0.501473  0.750000  1
  Pb  Pb20  1  0.287704  0.033405  0.040547  1
  Pb  Pb21  1  0.787187  0.466741  0.459645  1
  Pb  Pb22  1  0.708397  0.965359  0.535361  1
  Pb  Pb23  1  0.210699  0.528870  0.956586  1
  Pb  Pb24  1  0.708397  0.965359  0.964639  1
  Pb  Pb25  1  0.210699  0.528870  0.543414  1
  Pb  Pb26  1  0.287704  0.033405  0.459453  1
  Pb  Pb27  1  0.787187  0.466741  0.040355  1
  Pb  Pb28  1  0.577586  0.610523  0.750000  1
  Pb  Pb29  1  0.065803  0.898767  0.750000  1
  Pb  Pb30  1  0.430747  0.401755  0.250000  1
  Pb  Pb31  1  0.931220  0.102076  0.250000  1
  Pb  Pb32  1  0.331255  0.139627  0.750000  1
  Pb  Pb33  1  0.825405  0.351549  0.750000  1
  Pb  Pb34  1  0.677410  0.857015  0.250000  1
  Pb  Pb35  1  0.175994  0.642946  0.250000  1
