# generated using pymatgen
data_Cs8LiCr3Se10
_symmetry_space_group_name_H-M   'P 1'
_cell_length_a   8.31676076
_cell_length_b   9.18766004
_cell_length_c   11.32837800
_cell_angle_alpha   77.13148186
_cell_angle_beta   86.27537298
_cell_angle_gamma   79.77425561
_symmetry_Int_Tables_number   1
_chemical_formula_structural   Cs8LiCr3Se10
_chemical_formula_sum   'Cs8 Li1 Cr3 Se10'
_cell_volume   830.18217042
_cell_formula_units_Z   1
loop_
 _symmetry_equiv_pos_site_id
 _symmetry_equiv_pos_as_xyz
  1  'x, y, z'
loop_
 _atom_site_type_symbol
 _atom_site_label
 _atom_site_symmetry_multiplicity
 _atom_site_fract_x
 _atom_site_fract_y
 _atom_site_fract_z
 _atom_site_occupancy
  Cs  Cs0  1  0.433064  0.313868  0.092569  1
  Cs  Cs1  1  0.567094  0.685558  0.900396  1
  Cs  Cs2  1  0.188690  0.081352  0.858754  1
  Cs  Cs3  1  0.054615  0.618004  0.746577  1
  Cs  Cs4  1  0.802850  0.918666  0.125336  1
  Cs  Cs5  1  0.942671  0.383045  0.258796  1
  Cs  Cs6  1  0.576813  0.716206  0.506005  1
  Cs  Cs7  1  0.449028  0.270247  0.496459  1
  Li  Li8  1  0.904874  0.086407  0.600200  1
  Cr  Cr9  1  0.091592  0.915383  0.406166  1
  Cr  Cr10  1  0.277386  0.726584  0.216125  1
  Cr  Cr11  1  0.721481  0.275093  0.784398  1
  Se  Se12  1  0.868070  0.365509  0.610389  1
  Se  Se13  1  0.204603  0.959595  0.576399  1
  Se  Se14  1  0.450405  0.398348  0.769324  1
  Se  Se15  1  0.167598  0.680433  0.046195  1
  Se  Se16  1  0.834278  0.319165  0.954223  1
  Se  Se17  1  0.546968  0.599213  0.228323  1
  Se  Se18  1  0.121484  0.654649  0.401142  1
  Se  Se19  1  0.247532  0.989336  0.218145  1
  Se  Se20  1  0.734386  0.016500  0.796159  1
  Se  Se21  1  0.814516  0.026839  0.407919  1
