# generated using pymatgen
data_TbHo3Er8Co4BiIr
_symmetry_space_group_name_H-M   'P 1'
_cell_length_a   8.27552049
_cell_length_b   8.27551955
_cell_length_c   8.27868097
_cell_angle_alpha   110.71155469
_cell_angle_beta   111.08897561
_cell_angle_gamma   106.63338121
_symmetry_Int_Tables_number   1
_chemical_formula_structural   TbHo3Er8Co4BiIr
_chemical_formula_sum   'Tb1 Ho3 Er8 Co4 Bi1 Ir1'
_cell_volume   435.73465410
_cell_formula_units_Z   1
loop_
 _symmetry_equiv_pos_site_id
 _symmetry_equiv_pos_as_xyz
  1  'x, y, z'
loop_
 _atom_site_type_symbol
 _atom_site_label
 _atom_site_symmetry_multiplicity
 _atom_site_fract_x
 _atom_site_fract_y
 _atom_site_fract_z
 _atom_site_occupancy
  Tb  Tb0  1  0.714548  0.183232  0.897781  1
  Ho  Ho1  1  0.284506  0.182641  0.467147  1
  Ho  Ho2  1  0.715151  0.816788  0.531939  1
  Ho  Ho3  1  0.284479  0.817343  0.101820  1
  Er  Er4  1  0.621614  0.312222  0.310051  1
  Er  Er5  1  0.377886  0.687408  0.690256  1
  Er  Er6  1  0.002849  0.312368  0.690256  1
  Er  Er7  1  0.997828  0.688438  0.310051  1
  Er  Er8  1  0.213253  0.410511  0.198031  1
  Er  Er9  1  0.787801  0.590768  0.802569  1
  Er  Er10  1  0.211801  0.014768  0.802569  1
  Er  Er11  1  0.787520  0.984778  0.198031  1
  Co  Co12  1  0.000960  0.375842  0.376801  1
  Co  Co13  1  0.999870  0.624227  0.624096  1
  Co  Co14  1  0.388023  0.887488  0.498329  1
  Co  Co15  1  0.610841  0.110305  0.498329  1
  Bi  Bi16  1  0.500067  0.499849  0.999916  1
  Ir  Ir17  1  0.001004  0.001025  0.002029  1
