# generated using pymatgen
data_Gd8TcW3C8
_symmetry_space_group_name_H-M   'P 1'
_cell_length_a   5.73355242
_cell_length_b   5.73355242
_cell_length_c   10.06670500
_cell_angle_alpha   90.00000000
_cell_angle_beta   90.00000000
_cell_angle_gamma   89.76150527
_symmetry_Int_Tables_number   1
_chemical_formula_structural   Gd8TcW3C8
_chemical_formula_sum   'Gd8 Tc1 W3 C8'
_cell_volume   330.92620140
_cell_formula_units_Z   1
loop_
 _symmetry_equiv_pos_site_id
 _symmetry_equiv_pos_as_xyz
  1  'x, y, z'
loop_
 _atom_site_type_symbol
 _atom_site_label
 _atom_site_symmetry_multiplicity
 _atom_site_fract_x
 _atom_site_fract_y
 _atom_site_fract_z
 _atom_site_occupancy
  Gd  Gd0  1  0.198277  0.799188  0.156234  1
  Gd  Gd1  1  0.799188  0.198277  0.843766  1
  Gd  Gd2  1  0.198277  0.799188  0.843766  1
  Gd  Gd3  1  0.301392  0.301392  0.342423  1
  Gd  Gd4  1  0.697914  0.697914  0.343037  1
  Gd  Gd5  1  0.301392  0.301392  0.657577  1
  Gd  Gd6  1  0.799188  0.198277  0.156234  1
  Gd  Gd7  1  0.697914  0.697914  0.656963  1
  Tc  Tc8  1  0.322947  0.322947  0.000000  1
  W  W9  1  0.178511  0.821615  0.500000  1
  W  W10  1  0.677352  0.677352  0.000000  1
  W  W11  1  0.821615  0.178511  0.500000  1
  C  C12  1  0.000338  0.499772  0.500000  1
  C  C13  1  0.999982  0.999982  0.349679  1
  C  C14  1  0.500101  0.000811  0.000000  1
  C  C15  1  0.999982  0.999982  0.650321  1
  C  C16  1  0.502523  0.502523  0.848980  1
  C  C17  1  0.502523  0.502523  0.151020  1
  C  C18  1  0.499772  0.000338  0.500000  1
  C  C19  1  0.000811  0.500101  0.000000  1
