# generated using pymatgen
data_LaSm7BePd24
_symmetry_space_group_name_H-M   'P 1'
_cell_length_a   8.44688800
_cell_length_b   8.44688698
_cell_length_c   8.44688700
_cell_angle_alpha   89.90751287
_cell_angle_beta   90.09248711
_cell_angle_gamma   90.09249385
_symmetry_Int_Tables_number   1
_chemical_formula_structural   LaSm7BePd24
_chemical_formula_sum   'La1 Sm7 Be1 Pd24'
_cell_volume   602.68225949
_cell_formula_units_Z   1
loop_
 _symmetry_equiv_pos_site_id
 _symmetry_equiv_pos_as_xyz
  1  'x, y, z'
loop_
 _atom_site_type_symbol
 _atom_site_label
 _atom_site_symmetry_multiplicity
 _atom_site_fract_x
 _atom_site_fract_y
 _atom_site_fract_z
 _atom_site_occupancy
  La  La0  1  0.747213  0.252787  0.252787  1
  Sm  Sm1  1  0.250575  0.251530  0.251530  1
  Sm  Sm2  1  0.748800  0.749106  0.749106  1
  Sm  Sm3  1  0.748470  0.749425  0.251530  1
  Sm  Sm4  1  0.748470  0.251530  0.749425  1
  Sm  Sm5  1  0.250894  0.251200  0.749106  1
  Sm  Sm6  1  0.250894  0.749106  0.251200  1
  Sm  Sm7  1  0.252041  0.747959  0.747959  1
  Be  Be8  1  0.002559  0.997441  0.997441  1
  Pd  Pd9  1  0.254304  0.498733  0.000540  1
  Pd  Pd10  1  0.745604  0.501919  0.999192  1
  Pd  Pd11  1  0.000808  0.254396  0.501919  1
  Pd  Pd12  1  0.498081  0.254396  0.999192  1
  Pd  Pd13  1  0.999460  0.745696  0.498733  1
  Pd  Pd14  1  0.501267  0.745696  0.000540  1
  Pd  Pd15  1  0.498081  0.999192  0.254396  1
  Pd  Pd16  1  0.254304  0.000540  0.498733  1
  Pd  Pd17  1  0.501267  0.000540  0.745696  1
  Pd  Pd18  1  0.745604  0.999192  0.501919  1
  Pd  Pd19  1  0.000808  0.501919  0.254396  1
  Pd  Pd20  1  0.999460  0.498733  0.745696  1
  Pd  Pd21  1  0.251109  0.498852  0.498852  1
  Pd  Pd22  1  0.748257  0.502604  0.502604  1
  Pd  Pd23  1  0.497396  0.251743  0.502604  1
  Pd  Pd24  1  0.501148  0.748891  0.498852  1
  Pd  Pd25  1  0.497396  0.502604  0.251743  1
  Pd  Pd26  1  0.501148  0.498852  0.748891  1
  Pd  Pd27  1  0.270709  0.999920  0.999920  1
  Pd  Pd28  1  0.732508  0.999399  0.999399  1
  Pd  Pd29  1  0.000601  0.267492  0.999399  1
  Pd  Pd30  1  0.000080  0.729291  0.999920  1
  Pd  Pd31  1  0.000601  0.999399  0.267492  1
  Pd  Pd32  1  0.000080  0.999920  0.729291  1
