# generated using pymatgen
data_La10Tb2Si12PdAu11
_symmetry_space_group_name_H-M   'P 1'
_cell_length_a   4.38685200
_cell_length_b   7.59732825
_cell_length_c   24.82606827
_cell_angle_alpha   90.00628721
_cell_angle_beta   90.00000000
_cell_angle_gamma   90.00000000
_symmetry_Int_Tables_number   1
_chemical_formula_structural   La10Tb2Si12PdAu11
_chemical_formula_sum   'La10 Tb2 Si12 Pd1 Au11'
_cell_volume   827.41200266
_cell_formula_units_Z   1
loop_
 _symmetry_equiv_pos_site_id
 _symmetry_equiv_pos_as_xyz
  1  'x, y, z'
loop_
 _atom_site_type_symbol
 _atom_site_label
 _atom_site_symmetry_multiplicity
 _atom_site_fract_x
 _atom_site_fract_y
 _atom_site_fract_z
 _atom_site_occupancy
  La  La0  1  0.250000  0.748867  0.341783  1
  La  La1  1  0.750000  0.245487  0.658288  1
  La  La2  1  0.750000  0.250353  0.169860  1
  La  La3  1  0.250000  0.749105  0.829902  1
  La  La4  1  0.250000  0.750602  0.170237  1
  La  La5  1  0.750000  0.249021  0.829925  1
  La  La6  1  0.750000  0.252505  0.341792  1
  La  La7  1  0.250000  0.751789  0.658346  1
  La  La8  1  0.250000  0.750059  0.999658  1
  La  La9  1  0.750000  0.249601  0.999666  1
  Tb  Tb10  1  0.750000  0.242093  0.502610  1
  Tb  Tb11  1  0.250000  0.759427  0.502289  1
  Si  Si12  1  0.250000  0.083242  0.081653  1
  Si  Si13  1  0.750000  0.916291  0.916403  1
  Si  Si14  1  0.750000  0.583424  0.421888  1
  Si  Si15  1  0.250000  0.410749  0.572730  1
  Si  Si16  1  0.250000  0.084621  0.252892  1
  Si  Si17  1  0.750000  0.915058  0.744219  1
  Si  Si18  1  0.750000  0.584376  0.254359  1
  Si  Si19  1  0.250000  0.415897  0.744254  1
  Si  Si20  1  0.250000  0.085061  0.419871  1
  Si  Si21  1  0.750000  0.921216  0.574888  1
  Si  Si22  1  0.750000  0.583794  0.082684  1
  Si  Si23  1  0.250000  0.416530  0.917023  1
  Pd  Pd24  1  0.250000  0.082649  0.577060  1
  Au  Au25  1  0.250000  0.416986  0.255757  1
  Au  Au26  1  0.750000  0.581841  0.744459  1
  Au  Au27  1  0.750000  0.917982  0.256020  1
  Au  Au28  1  0.250000  0.083008  0.744834  1
  Au  Au29  1  0.250000  0.417616  0.433344  1
  Au  Au30  1  0.750000  0.583580  0.573629  1
  Au  Au31  1  0.750000  0.917062  0.085264  1
  Au  Au32  1  0.250000  0.082883  0.913805  1
  Au  Au33  1  0.250000  0.417187  0.085172  1
  Au  Au34  1  0.750000  0.583166  0.913698  1
  Au  Au35  1  0.750000  0.916872  0.429738  1
