# generated using pymatgen
data_DyLu9(GaCo5)2
_symmetry_space_group_name_H-M   'P 1'
_cell_length_a   5.36064696
_cell_length_b   5.36064733
_cell_length_c   20.24974356
_cell_angle_alpha   89.82420212
_cell_angle_beta   90.17579844
_cell_angle_gamma   136.51988539
_symmetry_Int_Tables_number   1
_chemical_formula_structural   DyLu9(GaCo5)2
_chemical_formula_sum   'Dy1 Lu9 Ga2 Co10'
_cell_volume   400.40999991
_cell_formula_units_Z   1
loop_
 _symmetry_equiv_pos_site_id
 _symmetry_equiv_pos_as_xyz
  1  'x, y, z'
loop_
 _atom_site_type_symbol
 _atom_site_label
 _atom_site_symmetry_multiplicity
 _atom_site_fract_x
 _atom_site_fract_y
 _atom_site_fract_z
 _atom_site_occupancy
  Dy  Dy0  1  0.293403  0.706597  0.066115  1
  Lu  Lu1  1  0.291375  0.708625  0.251101  1
  Lu  Lu2  1  0.996210  0.003790  0.841557  1
  Lu  Lu3  1  0.708173  0.291827  0.749393  1
  Lu  Lu4  1  0.707059  0.292941  0.566208  1
  Lu  Lu5  1  0.004000  0.996000  0.342965  1
  Lu  Lu6  1  0.995478  0.004522  0.657338  1
  Lu  Lu7  1  0.707095  0.292905  0.932294  1
  Lu  Lu8  1  0.004607  0.995393  0.159271  1
  Lu  Lu9  1  0.292867  0.707133  0.434214  1
  Ga  Ga10  1  0.000045  0.999955  0.500075  1
  Ga  Ga11  1  0.001748  0.998252  0.998770  1
  Co  Co12  1  0.290328  0.709672  0.654567  1
  Co  Co13  1  0.584378  0.415622  0.441793  1
  Co  Co14  1  0.413293  0.586707  0.749664  1
  Co  Co15  1  0.417475  0.582525  0.939601  1
  Co  Co16  1  0.585300  0.414700  0.251170  1
  Co  Co17  1  0.415769  0.584231  0.558595  1
  Co  Co18  1  0.709406  0.290594  0.346036  1
  Co  Co19  1  0.707382  0.292618  0.156302  1
  Co  Co20  1  0.583850  0.416150  0.058411  1
  Co  Co21  1  0.290758  0.709242  0.844561  1
