# generated using pymatgen
data_Sm6Cd21Ag2Te
_symmetry_space_group_name_H-M   'P 1'
_cell_length_a   10.04267363
_cell_length_b   10.05480996
_cell_length_c   10.04267300
_cell_angle_alpha   59.96001243
_cell_angle_beta   60.07997582
_cell_angle_gamma   59.96000935
_symmetry_Int_Tables_number   1
_chemical_formula_structural   Sm6Cd21Ag2Te
_chemical_formula_sum   'Sm6 Cd21 Ag2 Te1'
_cell_volume   717.06126259
_cell_formula_units_Z   1
loop_
 _symmetry_equiv_pos_site_id
 _symmetry_equiv_pos_as_xyz
  1  'x, y, z'
loop_
 _atom_site_type_symbol
 _atom_site_label
 _atom_site_symmetry_multiplicity
 _atom_site_fract_x
 _atom_site_fract_y
 _atom_site_fract_z
 _atom_site_occupancy
  Sm  Sm0  1  0.782186  0.782186  0.217814  1
  Sm  Sm1  1  0.219426  0.780574  0.219426  1
  Sm  Sm2  1  0.782186  0.217814  0.217814  1
  Sm  Sm3  1  0.217814  0.217814  0.782186  1
  Sm  Sm4  1  0.780574  0.219426  0.780574  1
  Sm  Sm5  1  0.217814  0.782186  0.782186  1
  Cd  Cd6  1  0.834576  0.841364  0.482697  1
  Cd  Cd7  1  0.841364  0.482697  0.841364  1
  Cd  Cd8  1  0.482697  0.841364  0.834576  1
  Cd  Cd9  1  0.841364  0.834576  0.841364  1
  Cd  Cd10  1  0.165424  0.158636  0.517303  1
  Cd  Cd11  1  0.158636  0.517303  0.158636  1
  Cd  Cd12  1  0.517303  0.158636  0.165424  1
  Cd  Cd13  1  0.158636  0.165424  0.158636  1
  Cd  Cd14  1  0.629028  0.621162  0.128647  1
  Cd  Cd15  1  0.621162  0.128647  0.621162  1
  Cd  Cd16  1  0.128647  0.621162  0.629028  1
  Cd  Cd17  1  0.621162  0.629028  0.621162  1
  Cd  Cd18  1  0.370972  0.378838  0.871353  1
  Cd  Cd19  1  0.378838  0.871353  0.378838  1
  Cd  Cd20  1  0.871353  0.378838  0.370972  1
  Cd  Cd21  1  0.378838  0.370972  0.378838  1
  Cd  Cd22  1  0.000000  0.000000  0.500000  1
  Cd  Cd23  1  0.000000  0.500000  0.500000  1
  Cd  Cd24  1  0.500000  0.500000  0.000000  1
  Cd  Cd25  1  0.500000  0.000000  0.000000  1
  Cd  Cd26  1  0.500000  0.500000  0.500000  1
  Ag  Ag27  1  0.500000  0.000000  0.500000  1
  Ag  Ag28  1  0.000000  0.500000  0.000000  1
  Te  Te29  1  0.000000  0.000000  0.000000  1
