# generated using pymatgen
data_BaH5Ir
_symmetry_space_group_name_H-M   'P 1'
_cell_length_a   4.95838800
_cell_length_b   6.89098700
_cell_length_c   9.65568400
_cell_angle_alpha   90.00000000
_cell_angle_beta   90.00000000
_cell_angle_gamma   90.00000000
_symmetry_Int_Tables_number   1
_chemical_formula_structural   BaH5Ir
_chemical_formula_sum   'Ba4 H20 Ir4'
_cell_volume   329.91721893
_cell_formula_units_Z   4
loop_
 _symmetry_equiv_pos_site_id
 _symmetry_equiv_pos_as_xyz
  1  'x, y, z'
loop_
 _atom_site_type_symbol
 _atom_site_label
 _atom_site_symmetry_multiplicity
 _atom_site_fract_x
 _atom_site_fract_y
 _atom_site_fract_z
 _atom_site_occupancy
  Ba  Ba0  1  0.242995  0.353936  0.191367  1
  Ba  Ba1  1  0.742995  0.646064  0.808633  1
  Ba  Ba2  1  0.742995  0.853936  0.308633  1
  Ba  Ba3  1  0.242995  0.146064  0.691367  1
  H  H4  1  0.896749  0.566112  0.514571  1
  H  H5  1  0.396749  0.433888  0.485429  1
  H  H6  1  0.396749  0.066112  0.985429  1
  H  H7  1  0.896749  0.933888  0.014571  1
  H  H8  1  0.029735  0.673930  0.080278  1
  H  H9  1  0.529735  0.326070  0.919722  1
  H  H10  1  0.529735  0.173930  0.419722  1
  H  H11  1  0.029735  0.826070  0.580278  1
  H  H12  1  0.488707  0.711532  0.072368  1
  H  H13  1  0.988707  0.288468  0.927632  1
  H  H14  1  0.988707  0.211532  0.427632  1
  H  H15  1  0.488707  0.788468  0.572368  1
  H  H16  1  0.239193  0.775546  0.876946  1
  H  H17  1  0.739193  0.224454  0.123054  1
  H  H18  1  0.739193  0.275546  0.623054  1
  H  H19  1  0.239193  0.724454  0.376946  1
  H  H20  1  0.237112  0.943426  0.203668  1
  H  H21  1  0.737112  0.056574  0.796332  1
  H  H22  1  0.737112  0.443426  0.296332  1
  H  H23  1  0.237112  0.556574  0.703668  1
  Ir  Ir24  1  0.232508  0.646214  0.539579  1
  Ir  Ir25  1  0.732508  0.353786  0.460421  1
  Ir  Ir26  1  0.732508  0.146214  0.960421  1
  Ir  Ir27  1  0.232508  0.853786  0.039579  1
