# generated using pymatgen
data_La12Pr4Cd4CoPd3
_symmetry_space_group_name_H-M   'P 1'
_cell_length_a   10.13176694
_cell_length_b   10.13587699
_cell_length_c   10.13587720
_cell_angle_alpha   59.88542434
_cell_angle_beta   59.89963672
_cell_angle_gamma   59.89963611
_symmetry_Int_Tables_number   1
_chemical_formula_structural   La12Pr4Cd4CoPd3
_chemical_formula_sum   'La12 Pr4 Cd4 Co1 Pd3'
_cell_volume   734.27044475
_cell_formula_units_Z   1
loop_
 _symmetry_equiv_pos_site_id
 _symmetry_equiv_pos_as_xyz
  1  'x, y, z'
loop_
 _atom_site_type_symbol
 _atom_site_label
 _atom_site_symmetry_multiplicity
 _atom_site_fract_x
 _atom_site_fract_y
 _atom_site_fract_z
 _atom_site_occupancy
  La  La0  1  0.351355  0.351016  0.351016  1
  La  La1  1  0.343619  0.344041  0.953394  1
  La  La2  1  0.343619  0.953394  0.344041  1
  La  La3  1  0.953332  0.343542  0.343542  1
  La  La4  1  0.821683  0.190137  0.190137  1
  La  La5  1  0.192545  0.806588  0.806588  1
  La  La6  1  0.190053  0.822076  0.189882  1
  La  La7  1  0.806897  0.192403  0.806973  1
  La  La8  1  0.190053  0.189882  0.822076  1
  La  La9  1  0.806897  0.806973  0.192403  1
  La  La10  1  0.937185  0.564096  0.564096  1
  La  La11  1  0.562832  0.934278  0.934278  1
  Pr  Pr12  1  0.563167  0.937843  0.563251  1
  Pr  Pr13  1  0.935049  0.562459  0.934967  1
  Pr  Pr14  1  0.563167  0.563251  0.937843  1
  Pr  Pr15  1  0.935049  0.934967  0.562459  1
  Cd  Cd16  1  0.579476  0.579752  0.579752  1
  Cd  Cd17  1  0.580716  0.580287  0.259636  1
  Cd  Cd18  1  0.580716  0.259636  0.580287  1
  Cd  Cd19  1  0.259722  0.580720  0.580720  1
  Co  Co20  1  0.142378  0.142361  0.142361  1
  Pd  Pd21  1  0.144117  0.143838  0.572258  1
  Pd  Pd22  1  0.144117  0.572258  0.143838  1
  Pd  Pd23  1  0.572255  0.144199  0.144199  1
