# generated using pymatgen
data_MgTa6In5Ru12
_symmetry_space_group_name_H-M   'P 1'
_cell_length_a   4.50514500
_cell_length_b   6.35816800
_cell_length_c   13.48717500
_cell_angle_alpha   90.00000000
_cell_angle_beta   89.99909615
_cell_angle_gamma   90.00000000
_symmetry_Int_Tables_number   1
_chemical_formula_structural   MgTa6In5Ru12
_chemical_formula_sum   'Mg1 Ta6 In5 Ru12'
_cell_volume   386.33296312
_cell_formula_units_Z   1
loop_
 _symmetry_equiv_pos_site_id
 _symmetry_equiv_pos_as_xyz
  1  'x, y, z'
loop_
 _atom_site_type_symbol
 _atom_site_label
 _atom_site_symmetry_multiplicity
 _atom_site_fract_x
 _atom_site_fract_y
 _atom_site_fract_z
 _atom_site_occupancy
  Mg  Mg0  1  0.500166  0.499999  0.833345  1
  Ta  Ta1  1  0.999949  0.499999  0.997287  1
  Ta  Ta2  1  0.499965  0.000000  0.164716  1
  Ta  Ta3  1  0.999817  0.499999  0.333299  1
  Ta  Ta4  1  0.499949  0.000000  0.501925  1
  Ta  Ta5  1  0.000089  0.499999  0.669316  1
  Ta  Ta6  1  0.500092  0.000000  0.833346  1
  In  In7  1  0.999952  0.000000  0.998915  1
  In  In8  1  0.499925  0.499999  0.165898  1
  In  In9  1  0.000012  0.000000  0.333318  1
  In  In10  1  0.499943  0.499999  0.500751  1
  In  In11  1  0.000077  0.000000  0.667748  1
  Ru  Ru12  1  0.499968  0.252531  0.998009  1
  Ru  Ru13  1  0.499968  0.747468  0.998009  1
  Ru  Ru14  1  0.999979  0.249047  0.166797  1
  Ru  Ru15  1  0.999979  0.750952  0.166797  1
  Ru  Ru16  1  0.499861  0.249921  0.333387  1
  Ru  Ru17  1  0.499861  0.750079  0.333387  1
  Ru  Ru18  1  0.999932  0.249077  0.499817  1
  Ru  Ru19  1  0.999932  0.750923  0.499817  1
  Ru  Ru20  1  0.500125  0.252531  0.668702  1
  Ru  Ru21  1  0.500125  0.747469  0.668702  1
  Ru  Ru22  1  0.000161  0.255485  0.833354  1
  Ru  Ru23  1  0.000161  0.744514  0.833354  1
