# generated using pymatgen
data_Tb7Dy(ZrIr3)2
_symmetry_space_group_name_H-M   'P 1'
_cell_length_a   10.88213904
_cell_length_b   10.89027300
_cell_length_c   6.29496302
_cell_angle_alpha   90.00000000
_cell_angle_beta   89.98987531
_cell_angle_gamma   90.00000000
_symmetry_Int_Tables_number   1
_chemical_formula_structural   Tb7Dy(ZrIr3)2
_chemical_formula_sum   'Tb14 Dy2 Zr4 Ir12'
_cell_volume   746.01268857
_cell_formula_units_Z   2
loop_
 _symmetry_equiv_pos_site_id
 _symmetry_equiv_pos_as_xyz
  1  'x, y, z'
loop_
 _atom_site_type_symbol
 _atom_site_label
 _atom_site_symmetry_multiplicity
 _atom_site_fract_x
 _atom_site_fract_y
 _atom_site_fract_z
 _atom_site_occupancy
  Tb  Tb0  1  0.710187  0.086740  0.874311  1
  Tb  Tb1  1  0.710187  0.913260  0.374311  1
  Tb  Tb2  1  0.586566  0.789903  0.874379  1
  Tb  Tb3  1  0.586566  0.210097  0.374379  1
  Tb  Tb4  1  0.412950  0.790004  0.374239  1
  Tb  Tb5  1  0.412950  0.209996  0.874239  1
  Tb  Tb6  1  0.210140  0.413137  0.625678  1
  Tb  Tb7  1  0.210140  0.586863  0.125678  1
  Tb  Tb8  1  0.789842  0.413125  0.125817  1
  Tb  Tb9  1  0.789842  0.586875  0.625817  1
  Tb  Tb10  1  0.913176  0.710216  0.125712  1
  Tb  Tb11  1  0.913176  0.289784  0.625712  1
  Tb  Tb12  1  0.087013  0.710363  0.625884  1
  Tb  Tb13  1  0.087013  0.289637  0.125884  1
  Dy  Dy14  1  0.290043  0.086373  0.374695  1
  Dy  Dy15  1  0.290043  0.913627  0.874695  1
  Zr  Zr16  1  0.000372  0.000110  0.499731  1
  Zr  Zr17  1  0.000372  0.999890  0.999731  1
  Zr  Zr18  1  0.499858  0.499982  0.999835  1
  Zr  Zr19  1  0.499858  0.500018  0.499835  1
  Ir  Ir20  1  0.855703  0.144252  0.249953  1
  Ir  Ir21  1  0.855703  0.855748  0.749953  1
  Ir  Ir22  1  0.144813  0.143913  0.749687  1
  Ir  Ir23  1  0.144813  0.856087  0.249687  1
  Ir  Ir24  1  0.644301  0.355694  0.749974  1
  Ir  Ir25  1  0.644301  0.644306  0.249974  1
  Ir  Ir26  1  0.355610  0.355372  0.250128  1
  Ir  Ir27  1  0.355610  0.644628  0.750128  1
  Ir  Ir28  1  0.499399  0.999993  0.119591  1
  Ir  Ir29  1  0.499399  0.000007  0.619591  1
  Ir  Ir30  1  0.000025  0.500034  0.880387  1
  Ir  Ir31  1  0.000025  0.499966  0.380387  1
