# generated using pymatgen
data_Ba2MnFeN6
_symmetry_space_group_name_H-M   'P 1'
_cell_length_a   6.63746072
_cell_length_b   6.63746114
_cell_length_c   5.72873900
_cell_angle_alpha   90.00000000
_cell_angle_beta   90.00000000
_cell_angle_gamma   143.31003010
_symmetry_Int_Tables_number   1
_chemical_formula_structural   Ba2MnFeN6
_chemical_formula_sum   'Ba2 Mn1 Fe1 N6'
_cell_volume   150.79600614
_cell_formula_units_Z   1
loop_
 _symmetry_equiv_pos_site_id
 _symmetry_equiv_pos_as_xyz
  1  'x, y, z'
loop_
 _atom_site_type_symbol
 _atom_site_label
 _atom_site_symmetry_multiplicity
 _atom_site_fract_x
 _atom_site_fract_y
 _atom_site_fract_z
 _atom_site_occupancy
  Ba  Ba0  1  0.871431  0.128568  0.249999  1
  Ba  Ba1  1  0.129757  0.870242  0.750000  1
  Mn  Mn2  1  0.417729  0.582270  0.750000  1
  Fe  Fe3  1  0.581909  0.418090  0.249999  1
  N  N4  1  0.498983  0.501015  0.997701  1
  N  N5  1  0.023160  0.678706  0.249999  1
  N  N6  1  0.321293  0.976838  0.249999  1
  N  N7  1  0.498983  0.501015  0.502300  1
  N  N8  1  0.676868  0.020118  0.750000  1
  N  N9  1  0.979880  0.323131  0.750000  1
