# generated using pymatgen
data_Yb3Pa(Ga8Pt3)3
_symmetry_space_group_name_H-M   'P 1'
_cell_length_a   7.54215994
_cell_length_b   7.59853353
_cell_length_c   13.36944532
_cell_angle_alpha   84.59759907
_cell_angle_beta   79.16722656
_cell_angle_gamma   60.11647789
_symmetry_Int_Tables_number   1
_chemical_formula_structural   Yb3Pa(Ga8Pt3)3
_chemical_formula_sum   'Yb3 Pa1 Ga24 Pt9'
_cell_volume   652.48277371
_cell_formula_units_Z   1
loop_
 _symmetry_equiv_pos_site_id
 _symmetry_equiv_pos_as_xyz
  1  'x, y, z'
loop_
 _atom_site_type_symbol
 _atom_site_label
 _atom_site_symmetry_multiplicity
 _atom_site_fract_x
 _atom_site_fract_y
 _atom_site_fract_z
 _atom_site_occupancy
  Yb  Yb0  1  0.603379  0.832512  0.191204  1
  Yb  Yb1  1  0.732002  0.499863  0.808981  1
  Yb  Yb2  1  0.267831  0.500250  0.191163  1
  Pa  Pa3  1  0.397218  0.167837  0.807845  1
  Ga  Ga4  1  0.685499  0.831957  0.938978  1
  Ga  Ga5  1  0.314696  0.165987  0.060204  1
  Ga  Ga6  1  0.146815  0.832384  0.559725  1
  Ga  Ga7  1  0.853672  0.167913  0.440051  1
  Ga  Ga8  1  0.478768  0.166164  0.557613  1
  Ga  Ga9  1  0.521505  0.833429  0.443357  1
  Ga  Ga10  1  0.220615  0.165169  0.324098  1
  Ga  Ga11  1  0.780516  0.831349  0.677432  1
  Ga  Ga12  1  0.437311  0.506329  0.677080  1
  Ga  Ga13  1  0.563021  0.495833  0.323875  1
  Ga  Ga14  1  0.103645  0.163479  0.676140  1
  Ga  Ga15  1  0.893127  0.837422  0.324501  1
  Ga  Ga16  1  0.359396  0.497509  0.939657  1
  Ga  Ga17  1  0.642653  0.502413  0.059051  1
  Ga  Ga18  1  0.018915  0.171785  0.943270  1
  Ga  Ga19  1  0.980816  0.830010  0.055561  1
  Ga  Ga20  1  0.186233  0.498776  0.443340  1
  Ga  Ga21  1  0.813556  0.501561  0.557241  1
  Ga  Ga22  1  0.732995  0.165525  0.181693  1
  Ga  Ga23  1  0.263686  0.837423  0.818518  1
  Ga  Ga24  1  0.063510  0.629144  0.817406  1
  Ga  Ga25  1  0.937307  0.371855  0.182069  1
  Ga  Ga26  1  0.856961  0.037336  0.817245  1
  Ga  Ga27  1  0.144116  0.959481  0.182691  1
  Pt  Pt28  1  0.118062  0.494458  0.640265  1
  Pt  Pt29  1  0.881948  0.505948  0.361049  1
  Pt  Pt30  1  0.661799  0.168742  0.997789  1
  Pt  Pt31  1  0.339744  0.830258  0.998769  1
  Pt  Pt32  1  0.539554  0.166973  0.361518  1
  Pt  Pt33  1  0.459136  0.832870  0.640381  1
  Pt  Pt34  1  0.778526  0.172844  0.638645  1
  Pt  Pt35  1  0.220757  0.826445  0.363502  1
  Pt  Pt36  1  0.000710  0.500768  0.998092  1
