# generated using pymatgen
data_Er5Zr3(Co4As3)4
_symmetry_space_group_name_H-M   'P 1'
_cell_length_a   12.74222900
_cell_length_b   12.74222974
_cell_length_c   3.83225900
_cell_angle_alpha   90.00000000
_cell_angle_beta   90.00000000
_cell_angle_gamma   120.00000587
_symmetry_Int_Tables_number   1
_chemical_formula_structural   Er5Zr3(Co4As3)4
_chemical_formula_sum   'Er5 Zr3 Co16 As12'
_cell_volume   538.86043284
_cell_formula_units_Z   1
loop_
 _symmetry_equiv_pos_site_id
 _symmetry_equiv_pos_as_xyz
  1  'x, y, z'
loop_
 _atom_site_type_symbol
 _atom_site_label
 _atom_site_symmetry_multiplicity
 _atom_site_fract_x
 _atom_site_fract_y
 _atom_site_fract_z
 _atom_site_occupancy
  Er  Er0  1  0.182941  0.182941  0.500000  1
  Er  Er1  1  0.817059  0.000000  0.500000  1
  Er  Er2  1  0.000000  0.817059  0.500000  1
  Er  Er3  1  0.333333  0.666667  0.000000  1
  Er  Er4  1  0.666667  0.333333  0.000000  1
  Zr  Zr5  1  0.561254  0.561254  0.000000  1
  Zr  Zr6  1  0.438746  0.000000  0.000000  1
  Zr  Zr7  1  0.000000  0.438746  0.000000  1
  Co  Co8  1  0.720493  0.720493  0.500000  1
  Co  Co9  1  0.279507  0.000000  0.500000  1
  Co  Co10  1  0.000000  0.279507  0.500000  1
  Co  Co11  1  0.178049  0.373357  0.000000  1
  Co  Co12  1  0.626643  0.804692  0.000000  1
  Co  Co13  1  0.195308  0.821951  0.000000  1
  Co  Co14  1  0.804692  0.626643  0.000000  1
  Co  Co15  1  0.821951  0.195308  0.000000  1
  Co  Co16  1  0.373357  0.178049  0.000000  1
  Co  Co17  1  0.357625  0.480377  0.500000  1
  Co  Co18  1  0.519623  0.877249  0.500000  1
  Co  Co19  1  0.122751  0.642375  0.500000  1
  Co  Co20  1  0.877249  0.519623  0.500000  1
  Co  Co21  1  0.642375  0.122751  0.500000  1
  Co  Co22  1  0.480377  0.357625  0.500000  1
  Co  Co23  1  0.000000  0.000000  0.000000  1
  As  As24  1  0.823369  0.823369  0.000000  1
  As  As25  1  0.176631  0.000000  0.000000  1
  As  As26  1  0.000000  0.176631  0.000000  1
  As  As27  1  0.174203  0.482094  0.500000  1
  As  As28  1  0.517906  0.692109  0.500000  1
  As  As29  1  0.307891  0.825797  0.500000  1
  As  As30  1  0.692109  0.517906  0.500000  1
  As  As31  1  0.825797  0.307891  0.500000  1
  As  As32  1  0.482094  0.174203  0.500000  1
  As  As33  1  0.351570  0.351570  0.000000  1
  As  As34  1  0.648430  0.000000  0.000000  1
  As  As35  1  0.000000  0.648430  0.000000  1
