# generated using pymatgen
data_Zn22Fe2Pd
_symmetry_space_group_name_H-M   'P 1'
_cell_length_a   7.74638910
_cell_length_b   7.74639003
_cell_length_c   7.76308454
_cell_angle_alpha   72.08269336
_cell_angle_beta   72.08269286
_cell_angle_gamma   57.89470391
_symmetry_Int_Tables_number   1
_chemical_formula_structural   Zn22Fe2Pd
_chemical_formula_sum   'Zn22 Fe2 Pd1'
_cell_volume   369.40692834
_cell_formula_units_Z   1
loop_
 _symmetry_equiv_pos_site_id
 _symmetry_equiv_pos_as_xyz
  1  'x, y, z'
loop_
 _atom_site_type_symbol
 _atom_site_label
 _atom_site_symmetry_multiplicity
 _atom_site_fract_x
 _atom_site_fract_y
 _atom_site_fract_z
 _atom_site_occupancy
  Zn  Zn0  1  0.343124  0.744391  0.310814  1
  Zn  Zn1  1  0.664690  0.254752  0.681217  1
  Zn  Zn2  1  0.254752  0.664690  0.681216  1
  Zn  Zn3  1  0.744391  0.343124  0.310814  1
  Zn  Zn4  1  0.680356  0.323378  0.003297  1
  Zn  Zn5  1  0.323379  0.680356  0.003297  1
  Zn  Zn6  1  0.829796  0.829796  0.783321  1
  Zn  Zn7  1  0.166096  0.166095  0.222522  1
  Zn  Zn8  1  0.976987  0.976987  0.177444  1
  Zn  Zn9  1  0.021242  0.021242  0.825250  1
  Zn  Zn10  1  0.353259  0.353259  0.277060  1
  Zn  Zn11  1  0.649561  0.649560  0.725557  1
  Zn  Zn12  1  0.684745  0.684745  0.376336  1
  Zn  Zn13  1  0.312057  0.312057  0.621834  1
  Zn  Zn14  1  0.662639  0.024139  0.463907  1
  Zn  Zn15  1  0.337805  0.976662  0.535587  1
  Zn  Zn16  1  0.976662  0.337805  0.535587  1
  Zn  Zn17  1  0.024139  0.662639  0.463907  1
  Zn  Zn18  1  0.624104  0.991624  0.100556  1
  Zn  Zn19  1  0.384702  0.995280  0.899919  1
  Zn  Zn20  1  0.995280  0.384702  0.899919  1
  Zn  Zn21  1  0.991624  0.624104  0.100556  1
  Fe  Fe22  1  0.655627  0.655627  0.056480  1
  Fe  Fe23  1  0.999782  0.999782  0.500502  1
  Pd  Pd24  1  0.343200  0.343202  0.943102  1
