# generated using pymatgen
data_Li25Si8Au
_symmetry_space_group_name_H-M   'P 1'
_cell_length_a   7.92826017
_cell_length_b   14.93563101
_cell_length_c   4.41414100
_cell_angle_alpha   90.00000000
_cell_angle_beta   90.00000000
_cell_angle_gamma   89.78481402
_symmetry_Int_Tables_number   1
_chemical_formula_structural   Li25Si8Au
_chemical_formula_sum   'Li25 Si8 Au1'
_cell_volume   522.69050098
_cell_formula_units_Z   1
loop_
 _symmetry_equiv_pos_site_id
 _symmetry_equiv_pos_as_xyz
  1  'x, y, z'
loop_
 _atom_site_type_symbol
 _atom_site_label
 _atom_site_symmetry_multiplicity
 _atom_site_fract_x
 _atom_site_fract_y
 _atom_site_fract_z
 _atom_site_occupancy
  Li  Li0  1  0.154420  0.022506  0.000000  1
  Li  Li1  1  0.768122  0.151710  0.000000  1
  Li  Li2  1  0.091265  0.192392  0.000000  1
  Li  Li3  1  0.595648  0.307388  0.000000  1
  Li  Li4  1  0.267743  0.348308  0.000000  1
  Li  Li5  1  0.651784  0.475406  0.000000  1
  Li  Li6  1  0.000000  0.500000  0.000000  1
  Li  Li7  1  0.348217  0.524593  0.000000  1
  Li  Li8  1  0.732257  0.651693  0.000000  1
  Li  Li9  1  0.404354  0.692613  0.000000  1
  Li  Li10  1  0.908734  0.807609  0.000000  1
  Li  Li11  1  0.231879  0.848290  0.000000  1
  Li  Li12  1  0.845581  0.977493  0.000000  1
  Li  Li13  1  0.264759  0.089507  0.500000  1
  Li  Li14  1  0.598456  0.099766  0.500000  1
  Li  Li15  1  0.904685  0.245261  0.500000  1
  Li  Li16  1  0.407792  0.254837  0.500000  1
  Li  Li17  1  0.095992  0.393636  0.500000  1
  Li  Li18  1  0.758645  0.406752  0.500000  1
  Li  Li19  1  0.241355  0.593248  0.500000  1
  Li  Li20  1  0.904008  0.606364  0.500000  1
  Li  Li21  1  0.592209  0.745163  0.500000  1
  Li  Li22  1  0.095314  0.754739  0.500000  1
  Li  Li23  1  0.401545  0.900234  0.500000  1
  Li  Li24  1  0.735242  0.910493  0.500000  1
  Si  Si25  1  0.417338  0.159917  0.000000  1
  Si  Si26  1  0.916244  0.339762  0.000000  1
  Si  Si27  1  0.083757  0.660238  0.000000  1
  Si  Si28  1  0.582662  0.840083  0.000000  1
  Si  Si29  1  0.934686  0.071051  0.500000  1
  Si  Si30  1  0.425214  0.430405  0.500000  1
  Si  Si31  1  0.574786  0.569595  0.500000  1
  Si  Si32  1  0.065314  0.928950  0.500000  1
  Au  Au33  1  0.500000  0.000000  0.000000  1
