# generated using pymatgen
data_Pr16Er4Ir5Pt7
_symmetry_space_group_name_H-M   'P 1'
_cell_length_a   11.41318684
_cell_length_b   11.41318684
_cell_length_c   6.51503390
_cell_angle_alpha   90.04282471
_cell_angle_beta   90.04282471
_cell_angle_gamma   90.00893780
_symmetry_Int_Tables_number   1
_chemical_formula_structural   Pr16Er4Ir5Pt7
_chemical_formula_sum   'Pr16 Er4 Ir5 Pt7'
_cell_volume   848.65326393
_cell_formula_units_Z   1
loop_
 _symmetry_equiv_pos_site_id
 _symmetry_equiv_pos_as_xyz
  1  'x, y, z'
loop_
 _atom_site_type_symbol
 _atom_site_label
 _atom_site_symmetry_multiplicity
 _atom_site_fract_x
 _atom_site_fract_y
 _atom_site_fract_z
 _atom_site_occupancy
  Pr  Pr0  1  0.291713  0.087055  0.376845  1
  Pr  Pr1  1  0.292068  0.909359  0.877322  1
  Pr  Pr2  1  0.708467  0.087364  0.877055  1
  Pr  Pr3  1  0.708140  0.912324  0.376781  1
  Pr  Pr4  1  0.584506  0.790013  0.876346  1
  Pr  Pr5  1  0.587537  0.209177  0.377338  1
  Pr  Pr6  1  0.410794  0.789050  0.382012  1
  Pr  Pr7  1  0.412366  0.208019  0.877235  1
  Pr  Pr8  1  0.209987  0.415494  0.623654  1
  Pr  Pr9  1  0.210950  0.589206  0.117988  1
  Pr  Pr10  1  0.790823  0.412463  0.122662  1
  Pr  Pr11  1  0.791981  0.587634  0.622765  1
  Pr  Pr12  1  0.912945  0.708287  0.123155  1
  Pr  Pr13  1  0.912636  0.291533  0.622945  1
  Pr  Pr14  1  0.090641  0.707932  0.622678  1
  Pr  Pr15  1  0.087676  0.291860  0.123219  1
  Er  Er16  1  0.999948  0.999731  0.500537  1
  Er  Er17  1  0.000269  0.000052  0.999463  1
  Er  Er18  1  0.498233  0.501241  0.999191  1
  Er  Er19  1  0.498759  0.501767  0.500809  1
  Ir  Ir20  1  0.354417  0.645583  0.750000  1
  Ir  Ir21  1  0.500299  0.000244  0.117924  1
  Ir  Ir22  1  0.500127  0.000928  0.616932  1
  Ir  Ir23  1  0.999072  0.499873  0.883068  1
  Ir  Ir24  1  0.999756  0.499701  0.382076  1
  Pt  Pt25  1  0.854247  0.145753  0.250000  1
  Pt  Pt26  1  0.853927  0.854083  0.750033  1
  Pt  Pt27  1  0.145917  0.146073  0.749967  1
  Pt  Pt28  1  0.145436  0.854564  0.250000  1
  Pt  Pt29  1  0.645843  0.354157  0.750000  1
  Pt  Pt30  1  0.646886  0.646367  0.250051  1
  Pt  Pt31  1  0.353633  0.353114  0.249949  1
