# generated using pymatgen
data_TbTm9(GaBi2)2
_symmetry_space_group_name_H-M   'P 1'
_cell_length_a   8.00869800
_cell_length_b   9.22049400
_cell_length_c   11.90747200
_cell_angle_alpha   90.00000000
_cell_angle_beta   90.00000000
_cell_angle_gamma   90.00000000
_symmetry_Int_Tables_number   1
_chemical_formula_structural   TbTm9(GaBi2)2
_chemical_formula_sum   'Tb2 Tm18 Ga4 Bi8'
_cell_volume   879.29717060
_cell_formula_units_Z   2
loop_
 _symmetry_equiv_pos_site_id
 _symmetry_equiv_pos_as_xyz
  1  'x, y, z'
loop_
 _atom_site_type_symbol
 _atom_site_label
 _atom_site_symmetry_multiplicity
 _atom_site_fract_x
 _atom_site_fract_y
 _atom_site_fract_z
 _atom_site_occupancy
  Tb  Tb0  1  0.354706  0.250000  0.705912  1
  Tb  Tb1  1  0.145294  0.250000  0.205912  1
  Tm  Tm2  1  0.819294  0.553676  0.062631  1
  Tm  Tm3  1  0.680706  0.946324  0.562631  1
  Tm  Tm4  1  0.180589  0.053239  0.937257  1
  Tm  Tm5  1  0.319411  0.446761  0.437257  1
  Tm  Tm6  1  0.180589  0.446761  0.937257  1
  Tm  Tm7  1  0.319411  0.053239  0.437257  1
  Tm  Tm8  1  0.819294  0.946324  0.062631  1
  Tm  Tm9  1  0.680706  0.553676  0.562631  1
  Tm  Tm10  1  0.172370  0.750000  0.215242  1
  Tm  Tm11  1  0.327630  0.750000  0.715242  1
  Tm  Tm12  1  0.827709  0.250000  0.784774  1
  Tm  Tm13  1  0.672291  0.250000  0.284774  1
  Tm  Tm14  1  0.462425  0.750000  0.002988  1
  Tm  Tm15  1  0.037575  0.750000  0.502988  1
  Tm  Tm16  1  0.538202  0.250000  0.997330  1
  Tm  Tm17  1  0.961798  0.250000  0.497330  1
  Tm  Tm18  1  0.645411  0.750000  0.294365  1
  Tm  Tm19  1  0.854589  0.750000  0.794365  1
  Ga  Ga20  1  0.407232  0.750000  0.474743  1
  Ga  Ga21  1  0.092768  0.750000  0.974743  1
  Ga  Ga22  1  0.593909  0.250000  0.524342  1
  Ga  Ga23  1  0.906091  0.250000  0.024342  1
  Bi  Bi24  1  0.937159  0.510183  0.325031  1
  Bi  Bi25  1  0.562841  0.989817  0.825031  1
  Bi  Bi26  1  0.061541  0.008881  0.675232  1
  Bi  Bi27  1  0.438459  0.491119  0.175232  1
  Bi  Bi28  1  0.061541  0.491119  0.675232  1
  Bi  Bi29  1  0.438459  0.008881  0.175232  1
  Bi  Bi30  1  0.937159  0.989817  0.325031  1
  Bi  Bi31  1  0.562841  0.510183  0.825031  1
