# generated using pymatgen
data_Rb12Al(GaTe4)3
_symmetry_space_group_name_H-M   'P 1'
_cell_length_a   14.59591962
_cell_length_b   9.03811094
_cell_length_c   11.73386440
_cell_angle_alpha   52.58244419
_cell_angle_beta   90.16130520
_cell_angle_gamma   90.10985604
_symmetry_Int_Tables_number   1
_chemical_formula_structural   Rb12Al(GaTe4)3
_chemical_formula_sum   'Rb12 Al1 Ga3 Te12'
_cell_volume   1229.40200108
_cell_formula_units_Z   1
loop_
 _symmetry_equiv_pos_site_id
 _symmetry_equiv_pos_as_xyz
  1  'x, y, z'
loop_
 _atom_site_type_symbol
 _atom_site_label
 _atom_site_symmetry_multiplicity
 _atom_site_fract_x
 _atom_site_fract_y
 _atom_site_fract_z
 _atom_site_occupancy
  Rb  Rb0  1  0.306850  0.140488  0.082590  1
  Rb  Rb1  1  0.691023  0.858806  0.916563  1
  Rb  Rb2  1  0.807524  0.857079  0.417689  1
  Rb  Rb3  1  0.898316  0.325709  0.399316  1
  Rb  Rb4  1  0.612860  0.359847  0.474460  1
  Rb  Rb5  1  0.113274  0.637524  0.027049  1
  Rb  Rb6  1  0.387815  0.640640  0.526112  1
  Rb  Rb7  1  0.887409  0.364494  0.972489  1
  Rb  Rb8  1  0.602828  0.325246  0.899005  1
  Rb  Rb9  1  0.100434  0.675042  0.600827  1
  Rb  Rb10  1  0.398261  0.674360  0.100455  1
  Rb  Rb11  1  0.192492  0.139980  0.583855  1
  Al  Al12  1  0.936524  0.058890  0.840353  1
  Ga  Ga13  1  0.064161  0.940409  0.160979  1
  Ga  Ga14  1  0.564536  0.060256  0.337776  1
  Ga  Ga15  1  0.435338  0.940206  0.661870  1
  Te  Te16  1  0.400333  0.168483  0.371772  1
  Te  Te17  1  0.899909  0.832764  0.126383  1
  Te  Te18  1  0.599409  0.831555  0.628051  1
  Te  Te19  1  0.099537  0.169020  0.871176  1
  Te  Te20  1  0.688008  0.331443  0.195049  1
  Te  Te21  1  0.187511  0.668649  0.304723  1
  Te  Te22  1  0.311968  0.668632  0.805031  1
  Te  Te23  1  0.813793  0.328527  0.696268  1
  Te  Te24  1  0.552004  0.872771  0.233259  1
  Te  Te25  1  0.051494  0.127362  0.265525  1
  Te  Te26  1  0.447858  0.127800  0.766312  1
  Te  Te27  1  0.948532  0.874019  0.735066  1
