# generated using pymatgen
data_Pr7Er(Si3Au)4
_symmetry_space_group_name_H-M   'P 1'
_cell_length_a   8.32411000
_cell_length_b   8.27954480
_cell_length_c   8.70554100
_cell_angle_alpha   90.00000000
_cell_angle_beta   90.00000000
_cell_angle_gamma   120.17815251
_symmetry_Int_Tables_number   1
_chemical_formula_structural   Pr7Er(Si3Au)4
_chemical_formula_sum   'Pr7 Er1 Si12 Au4'
_cell_volume   518.66653502
_cell_formula_units_Z   1
loop_
 _symmetry_equiv_pos_site_id
 _symmetry_equiv_pos_as_xyz
  1  'x, y, z'
loop_
 _atom_site_type_symbol
 _atom_site_label
 _atom_site_symmetry_multiplicity
 _atom_site_fract_x
 _atom_site_fract_y
 _atom_site_fract_z
 _atom_site_occupancy
  Pr  Pr0  1  0.999996  0.000002  0.250000  1
  Pr  Pr1  1  0.999907  0.999808  0.750000  1
  Pr  Pr2  1  0.498864  0.500694  0.250000  1
  Pr  Pr3  1  0.498709  0.997418  0.250000  1
  Pr  Pr4  1  0.001843  0.500691  0.250000  1
  Pr  Pr5  1  0.501445  0.498597  0.750000  1
  Pr  Pr6  1  0.997154  0.498599  0.750000  1
  Er  Er7  1  0.501548  0.003233  0.750000  1
  Si  Si8  1  0.836648  0.163679  0.503299  1
  Si  Si9  1  0.834804  0.669605  0.500343  1
  Si  Si10  1  0.327041  0.163685  0.503298  1
  Si  Si11  1  0.836648  0.163679  0.996701  1
  Si  Si12  1  0.834804  0.669605  0.999657  1
  Si  Si13  1  0.327041  0.163685  0.996702  1
  Si  Si14  1  0.163203  0.836094  0.999730  1
  Si  Si15  1  0.672900  0.836095  0.999729  1
  Si  Si16  1  0.165426  0.330849  0.001621  1
  Si  Si17  1  0.163203  0.836094  0.500270  1
  Si  Si18  1  0.672900  0.836095  0.500271  1
  Si  Si19  1  0.165426  0.330849  0.498379  1
  Au  Au20  1  0.664055  0.328099  0.501886  1
  Au  Au21  1  0.664055  0.328099  0.998114  1
  Au  Au22  1  0.336189  0.672371  0.987690  1
  Au  Au23  1  0.336189  0.672371  0.512310  1
