# generated using pymatgen
data_YbEu2GeN
_symmetry_space_group_name_H-M   'P 1'
_cell_length_a   4.91112200
_cell_length_b   4.91112200
_cell_length_c   4.78156600
_cell_angle_alpha   90.00000000
_cell_angle_beta   90.00000000
_cell_angle_gamma   90.00000000
_symmetry_Int_Tables_number   1
_chemical_formula_structural   YbEu2GeN
_chemical_formula_sum   'Yb1 Eu2 Ge1 N1'
_cell_volume   115.32716079
_cell_formula_units_Z   1
loop_
 _symmetry_equiv_pos_site_id
 _symmetry_equiv_pos_as_xyz
  1  'x, y, z'
loop_
 _atom_site_type_symbol
 _atom_site_label
 _atom_site_symmetry_multiplicity
 _atom_site_fract_x
 _atom_site_fract_y
 _atom_site_fract_z
 _atom_site_occupancy
  Yb  Yb0  1  0.500000  0.500000  0.000000  1
  Eu  Eu1  1  0.500000  0.000000  0.500000  1
  Eu  Eu2  1  0.000000  0.500000  0.500000  1
  Ge  Ge3  1  0.000000  0.000000  0.000000  1
  N  N4  1  0.500000  0.500000  0.500000  1
