# generated using pymatgen
data_Lu2Hf2NbSi4
_symmetry_space_group_name_H-M   'P 1'
_cell_length_a   7.15811200
_cell_length_b   7.15811200
_cell_length_c   13.08265400
_cell_angle_alpha   90.00000000
_cell_angle_beta   90.00000000
_cell_angle_gamma   90.00000000
_symmetry_Int_Tables_number   1
_chemical_formula_structural   Lu2Hf2NbSi4
_chemical_formula_sum   'Lu8 Hf8 Nb4 Si16'
_cell_volume   670.33644881
_cell_formula_units_Z   4
loop_
 _symmetry_equiv_pos_site_id
 _symmetry_equiv_pos_as_xyz
  1  'x, y, z'
loop_
 _atom_site_type_symbol
 _atom_site_label
 _atom_site_symmetry_multiplicity
 _atom_site_fract_x
 _atom_site_fract_y
 _atom_site_fract_z
 _atom_site_occupancy
  Lu  Lu0  1  0.498187  0.154456  0.534191  1
  Lu  Lu1  1  0.501813  0.845544  0.034191  1
  Lu  Lu2  1  0.654456  0.001813  0.284191  1
  Lu  Lu3  1  0.345544  0.998187  0.784191  1
  Lu  Lu4  1  0.845544  0.501813  0.965809  1
  Lu  Lu5  1  0.154456  0.498187  0.465809  1
  Lu  Lu6  1  0.001813  0.654456  0.715809  1
  Lu  Lu7  1  0.998187  0.345544  0.215809  1
  Hf  Hf8  1  0.493586  0.355231  0.126095  1
  Hf  Hf9  1  0.506414  0.644769  0.626095  1
  Hf  Hf10  1  0.855231  0.006414  0.876095  1
  Hf  Hf11  1  0.144769  0.993586  0.376095  1
  Hf  Hf12  1  0.644769  0.506414  0.373905  1
  Hf  Hf13  1  0.355231  0.493586  0.873905  1
  Hf  Hf14  1  0.006414  0.855231  0.123905  1
  Hf  Hf15  1  0.993586  0.144769  0.623905  1
  Nb  Nb16  1  0.676452  0.323548  0.750000  1
  Nb  Nb17  1  0.323548  0.676452  0.250000  1
  Nb  Nb18  1  0.823548  0.823548  0.500000  1
  Nb  Nb19  1  0.176452  0.176452  0.000000  1
  Si  Si20  1  0.794958  0.141896  0.068853  1
  Si  Si21  1  0.205042  0.858104  0.568853  1
  Si  Si22  1  0.641896  0.705042  0.818853  1
  Si  Si23  1  0.358104  0.294958  0.318853  1
  Si  Si24  1  0.858104  0.205042  0.431147  1
  Si  Si25  1  0.141896  0.794958  0.931147  1
  Si  Si26  1  0.705042  0.641896  0.181147  1
  Si  Si27  1  0.294958  0.358104  0.681147  1
  Si  Si28  1  0.549486  0.201514  0.935225  1
  Si  Si29  1  0.450514  0.798486  0.435225  1
  Si  Si30  1  0.701514  0.950514  0.685225  1
  Si  Si31  1  0.298486  0.049486  0.185225  1
  Si  Si32  1  0.798486  0.450514  0.564775  1
  Si  Si33  1  0.201514  0.549486  0.064775  1
  Si  Si34  1  0.950514  0.701514  0.314775  1
  Si  Si35  1  0.049486  0.298486  0.814775  1
