# generated using pymatgen
data_Ti3Si3Ir2W
_symmetry_space_group_name_H-M   'P 1'
_cell_length_a   7.44954211
_cell_length_b   7.44954276
_cell_length_c   7.44954188
_cell_angle_alpha   126.61825089
_cell_angle_beta   124.30756003
_cell_angle_gamma   80.78639347
_symmetry_Int_Tables_number   1
_chemical_formula_structural   Ti3Si3Ir2W
_chemical_formula_sum   'Ti6 Si6 Ir4 W2'
_cell_volume   264.24790423
_cell_formula_units_Z   2
loop_
 _symmetry_equiv_pos_site_id
 _symmetry_equiv_pos_as_xyz
  1  'x, y, z'
loop_
 _atom_site_type_symbol
 _atom_site_label
 _atom_site_symmetry_multiplicity
 _atom_site_fract_x
 _atom_site_fract_y
 _atom_site_fract_z
 _atom_site_occupancy
  Ti  Ti0  1  0.246451  0.915081  0.168629  1
  Ti  Ti1  1  0.962910  0.482327  0.019415  1
  Ti  Ti2  1  0.037090  0.056505  0.519415  1
  Ti  Ti3  1  0.439774  0.475284  0.535510  1
  Ti  Ti4  1  0.753549  0.922179  0.668629  1
  Ti  Ti5  1  0.560226  0.095735  0.035510  1
  Si  Si6  1  0.781856  0.551037  0.269181  1
  Si  Si7  1  0.175679  0.159715  0.997098  1
  Si  Si8  1  0.662617  0.159715  0.484035  1
  Si  Si9  1  0.337383  0.821418  0.497098  1
  Si  Si10  1  0.218144  0.487325  0.769181  1
  Si  Si11  1  0.824321  0.821418  0.984035  1
  Ir  Ir12  1  0.834899  0.497174  0.588558  1
  Ir  Ir13  1  0.591385  0.753659  0.088558  1
  Ir  Ir14  1  0.408615  0.497174  0.162275  1
  Ir  Ir15  1  0.165101  0.753659  0.662275  1
  W  W16  1  0.500000  0.246401  0.746401  1
  W  W17  1  0.000000  0.246401  0.246401  1
