# generated using pymatgen
data_Ba4Dy(OsO6)2
_symmetry_space_group_name_H-M   'P 1'
_cell_length_a   10.11026324
_cell_length_b   10.11026351
_cell_length_c   10.11026410
_cell_angle_alpha   33.88908682
_cell_angle_beta   33.88908352
_cell_angle_gamma   33.88909248
_symmetry_Int_Tables_number   1
_chemical_formula_structural   Ba4Dy(OsO6)2
_chemical_formula_sum   'Ba4 Dy1 Os2 O12'
_cell_volume   286.34769979
_cell_formula_units_Z   1
loop_
 _symmetry_equiv_pos_site_id
 _symmetry_equiv_pos_as_xyz
  1  'x, y, z'
loop_
 _atom_site_type_symbol
 _atom_site_label
 _atom_site_symmetry_multiplicity
 _atom_site_fract_x
 _atom_site_fract_y
 _atom_site_fract_z
 _atom_site_occupancy
  Ba  Ba0  1  0.711981  0.711981  0.711981  1
  Ba  Ba1  1  0.288019  0.288019  0.288019  1
  Ba  Ba2  1  0.866250  0.866250  0.866250  1
  Ba  Ba3  1  0.133750  0.133750  0.133750  1
  Dy  Dy4  1  0.000000  0.000000  0.000000  1
  Os  Os5  1  0.579113  0.579113  0.579113  1
  Os  Os6  1  0.420887  0.420887  0.420887  1
  O  O7  1  0.223500  0.688621  0.223500  1
  O  O8  1  0.223500  0.223500  0.688621  1
  O  O9  1  0.688621  0.223500  0.223500  1
  O  O10  1  0.776500  0.311379  0.776500  1
  O  O11  1  0.776500  0.776500  0.311379  1
  O  O12  1  0.311379  0.776500  0.776500  1
  O  O13  1  0.388150  0.858351  0.388150  1
  O  O14  1  0.388150  0.388150  0.858351  1
  O  O15  1  0.858351  0.388150  0.388150  1
  O  O16  1  0.611850  0.141649  0.611850  1
  O  O17  1  0.611850  0.611850  0.141649  1
  O  O18  1  0.141649  0.611850  0.611850  1
