# generated using pymatgen
data_Lu2TaSi2Ru5
_symmetry_space_group_name_H-M   'P 1'
_cell_length_a   9.96373900
_cell_length_b   9.96373900
_cell_length_c   3.23749800
_cell_angle_alpha   90.00000000
_cell_angle_beta   90.00000000
_cell_angle_gamma   90.00000000
_symmetry_Int_Tables_number   1
_chemical_formula_structural   Lu2TaSi2Ru5
_chemical_formula_sum   'Lu4 Ta2 Si4 Ru10'
_cell_volume   321.40615856
_cell_formula_units_Z   2
loop_
 _symmetry_equiv_pos_site_id
 _symmetry_equiv_pos_as_xyz
  1  'x, y, z'
loop_
 _atom_site_type_symbol
 _atom_site_label
 _atom_site_symmetry_multiplicity
 _atom_site_fract_x
 _atom_site_fract_y
 _atom_site_fract_z
 _atom_site_occupancy
  Lu  Lu0  1  0.826155  0.673845  0.000000  1
  Lu  Lu1  1  0.173845  0.326155  0.000000  1
  Lu  Lu2  1  0.326155  0.826155  0.000000  1
  Lu  Lu3  1  0.673845  0.173845  0.000000  1
  Ta  Ta4  1  0.500000  0.500000  0.000000  1
  Ta  Ta5  1  0.000000  0.000000  0.000000  1
  Si  Si6  1  0.625943  0.874057  0.000000  1
  Si  Si7  1  0.374057  0.125943  0.000000  1
  Si  Si8  1  0.125943  0.625943  0.000000  1
  Si  Si9  1  0.874057  0.374057  0.000000  1
  Ru  Ru10  1  0.567485  0.708169  0.500000  1
  Ru  Ru11  1  0.432515  0.291831  0.500000  1
  Ru  Ru12  1  0.067485  0.791831  0.500000  1
  Ru  Ru13  1  0.932515  0.208169  0.500000  1
  Ru  Ru14  1  0.291831  0.567485  0.500000  1
  Ru  Ru15  1  0.708169  0.432515  0.500000  1
  Ru  Ru16  1  0.208169  0.067485  0.500000  1
  Ru  Ru17  1  0.791831  0.932515  0.500000  1
  Ru  Ru18  1  0.500000  0.000000  0.500000  1
  Ru  Ru19  1  0.000000  0.500000  0.500000  1
