# generated using pymatgen
data_Er4TiCr3(Co4P3)4
_symmetry_space_group_name_H-M   'P 1'
_cell_length_a   3.64462300
_cell_length_b   10.30621714
_cell_length_c   11.78307316
_cell_angle_alpha   90.01900721
_cell_angle_beta   90.00000000
_cell_angle_gamma   90.00000000
_symmetry_Int_Tables_number   1
_chemical_formula_structural   Er4TiCr3(Co4P3)4
_chemical_formula_sum   'Er4 Ti1 Cr3 Co16 P12'
_cell_volume   442.59902234
_cell_formula_units_Z   1
loop_
 _symmetry_equiv_pos_site_id
 _symmetry_equiv_pos_as_xyz
  1  'x, y, z'
loop_
 _atom_site_type_symbol
 _atom_site_label
 _atom_site_symmetry_multiplicity
 _atom_site_fract_x
 _atom_site_fract_y
 _atom_site_fract_z
 _atom_site_occupancy
  Er  Er0  1  0.250000  0.582134  0.702619  1
  Er  Er1  1  0.250000  0.919277  0.205534  1
  Er  Er2  1  0.750000  0.417708  0.295802  1
  Er  Er3  1  0.750000  0.084028  0.794262  1
  Ti  Ti4  1  0.250000  0.703834  0.989430  1
  Cr  Cr5  1  0.250000  0.789804  0.488184  1
  Cr  Cr6  1  0.750000  0.292444  0.012129  1
  Cr  Cr7  1  0.750000  0.209393  0.512153  1
  Co  Co8  1  0.250000  0.405319  0.489696  1
  Co  Co9  1  0.250000  0.096093  0.988854  1
  Co  Co10  1  0.750000  0.593462  0.512185  1
  Co  Co11  1  0.750000  0.908027  0.010578  1
  Co  Co12  1  0.250000  0.221062  0.177778  1
  Co  Co13  1  0.250000  0.278366  0.678031  1
  Co  Co14  1  0.750000  0.779553  0.820623  1
  Co  Co15  1  0.750000  0.720181  0.325548  1
  Co  Co16  1  0.250000  0.887163  0.697377  1
  Co  Co17  1  0.250000  0.613620  0.200471  1
  Co  Co18  1  0.750000  0.114969  0.301159  1
  Co  Co19  1  0.750000  0.383508  0.801192  1
  Co  Co20  1  0.250000  0.463064  0.933100  1
  Co  Co21  1  0.250000  0.034380  0.433063  1
  Co  Co22  1  0.750000  0.532413  0.065730  1
  Co  Co23  1  0.750000  0.967099  0.565698  1
  P  P24  1  0.250000  0.416904  0.113721  1
  P  P25  1  0.250000  0.082718  0.612546  1
  P  P26  1  0.750000  0.578517  0.882198  1
  P  P27  1  0.750000  0.917849  0.386650  1
  P  P28  1  0.250000  0.266870  0.869217  1
  P  P29  1  0.250000  0.231522  0.369009  1
  P  P30  1  0.750000  0.730955  0.137791  1
  P  P31  1  0.750000  0.769681  0.630469  1
  P  P32  1  0.250000  0.598826  0.393658  1
  P  P33  1  0.250000  0.907940  0.887447  1
  P  P34  1  0.750000  0.398998  0.608373  1
  P  P35  1  0.750000  0.102320  0.107722  1
