# generated using pymatgen
data_Ac8Si12PdPt3
_symmetry_space_group_name_H-M   'P 1'
_cell_length_a   8.61876800
_cell_length_b   8.61876797
_cell_length_c   8.81809400
_cell_angle_alpha   90.00000000
_cell_angle_beta   90.00000000
_cell_angle_gamma   120.00000012
_symmetry_Int_Tables_number   1
_chemical_formula_structural   Ac8Si12PdPt3
_chemical_formula_sum   'Ac8 Si12 Pd1 Pt3'
_cell_volume   567.27773016
_cell_formula_units_Z   1
loop_
 _symmetry_equiv_pos_site_id
 _symmetry_equiv_pos_as_xyz
  1  'x, y, z'
loop_
 _atom_site_type_symbol
 _atom_site_label
 _atom_site_symmetry_multiplicity
 _atom_site_fract_x
 _atom_site_fract_y
 _atom_site_fract_z
 _atom_site_occupancy
  Ac  Ac0  1  0.500993  0.001986  0.250002  1
  Ac  Ac1  1  0.500134  0.000267  0.750008  1
  Ac  Ac2  1  0.998014  0.499007  0.250002  1
  Ac  Ac3  1  0.999733  0.499866  0.750008  1
  Ac  Ac4  1  0.500993  0.499007  0.250002  1
  Ac  Ac5  1  0.500134  0.499866  0.750008  1
  Ac  Ac6  1  0.000000  0.000000  0.250478  1
  Ac  Ac7  1  0.000000  0.000000  0.749461  1
  Si  Si8  1  0.166294  0.332586  0.001129  1
  Si  Si9  1  0.833998  0.667994  0.998926  1
  Si  Si10  1  0.667414  0.833706  0.001129  1
  Si  Si11  1  0.834310  0.668620  0.498582  1
  Si  Si12  1  0.332006  0.166002  0.998926  1
  Si  Si13  1  0.165177  0.330356  0.501443  1
  Si  Si14  1  0.166294  0.833706  0.001129  1
  Si  Si15  1  0.331380  0.165690  0.498582  1
  Si  Si16  1  0.833998  0.166002  0.998926  1
  Si  Si17  1  0.669644  0.834823  0.501443  1
  Si  Si18  1  0.834310  0.165690  0.498582  1
  Si  Si19  1  0.165177  0.834823  0.501443  1
  Pd  Pd20  1  0.333333  0.666667  0.497900  1
  Pt  Pt21  1  0.333333  0.666667  0.000137  1
  Pt  Pt22  1  0.666667  0.333333  0.999744  1
  Pt  Pt23  1  0.666667  0.333333  0.502016  1
