# generated using pymatgen
data_Dy3LuGa18(Ni2Ru)2
_symmetry_space_group_name_H-M   'P 1'
_cell_length_a   7.48973752
_cell_length_b   7.48988286
_cell_length_c   9.41500763
_cell_angle_alpha   90.04107091
_cell_angle_beta   89.98693771
_cell_angle_gamma   120.04528425
_symmetry_Int_Tables_number   1
_chemical_formula_structural   Dy3LuGa18(Ni2Ru)2
_chemical_formula_sum   'Dy3 Lu1 Ga18 Ni4 Ru2'
_cell_volume   457.18761768
_cell_formula_units_Z   1
loop_
 _symmetry_equiv_pos_site_id
 _symmetry_equiv_pos_as_xyz
  1  'x, y, z'
loop_
 _atom_site_type_symbol
 _atom_site_label
 _atom_site_symmetry_multiplicity
 _atom_site_fract_x
 _atom_site_fract_y
 _atom_site_fract_z
 _atom_site_occupancy
  Dy  Dy0  1  0.665809  0.995780  0.249416  1
  Dy  Dy1  1  0.004154  0.334072  0.750601  1
  Dy  Dy2  1  0.995816  0.665960  0.250583  1
  Lu  Lu3  1  0.334151  0.004129  0.749311  1
  Ga  Ga4  1  0.881593  0.881018  0.749972  1
  Ga  Ga5  1  0.119416  0.119363  0.250028  1
  Ga  Ga6  1  0.668852  0.669597  0.438382  1
  Ga  Ga7  1  0.331093  0.329550  0.937800  1
  Ga  Ga8  1  0.669641  0.668865  0.061659  1
  Ga  Ga9  1  0.330419  0.330352  0.562186  1
  Ga  Ga10  1  0.453399  0.663990  0.752170  1
  Ga  Ga11  1  0.546280  0.336393  0.252141  1
  Ga  Ga12  1  0.662823  0.452615  0.747793  1
  Ga  Ga13  1  0.336460  0.546344  0.247936  1
  Ga  Ga14  1  0.004028  0.333223  0.075294  1
  Ga  Ga15  1  0.996820  0.667684  0.575751  1
  Ga  Ga16  1  0.333312  0.004046  0.425410  1
  Ga  Ga17  1  0.665900  0.995886  0.924255  1
  Ga  Ga18  1  0.006272  0.670249  0.924525  1
  Ga  Ga19  1  0.994771  0.330819  0.425014  1
  Ga  Ga20  1  0.668297  0.005345  0.575470  1
  Ga  Ga21  1  0.330789  0.994674  0.074281  1
  Ni  Ni22  1  0.000126  0.999942  0.500122  1
  Ni  Ni23  1  0.000031  0.000120  0.999877  1
  Ni  Ni24  1  0.669340  0.330535  0.500122  1
  Ni  Ni25  1  0.330651  0.669459  0.999914  1
  Ru  Ru26  1  0.327123  0.673105  0.500440  1
  Ru  Ru27  1  0.672637  0.326885  0.999546  1
