# generated using pymatgen
data_Y7Ho3Sn8
_symmetry_space_group_name_H-M   'P 1'
_cell_length_a   8.05374281
_cell_length_b   8.18185085
_cell_length_c   15.47620430
_cell_angle_alpha   89.98363913
_cell_angle_beta   89.98438082
_cell_angle_gamma   89.92476010
_symmetry_Int_Tables_number   1
_chemical_formula_structural   Y7Ho3Sn8
_chemical_formula_sum   'Y14 Ho6 Sn16'
_cell_volume   1019.79613291
_cell_formula_units_Z   2
loop_
 _symmetry_equiv_pos_site_id
 _symmetry_equiv_pos_as_xyz
  1  'x, y, z'
loop_
 _atom_site_type_symbol
 _atom_site_label
 _atom_site_symmetry_multiplicity
 _atom_site_fract_x
 _atom_site_fract_y
 _atom_site_fract_z
 _atom_site_occupancy
  Y  Y0  1  0.132905  0.337300  0.377646  1
  Y  Y1  1  0.367086  0.837087  0.622504  1
  Y  Y2  1  0.867437  0.662513  0.878030  1
  Y  Y3  1  0.520850  0.321253  0.902947  1
  Y  Y4  1  0.020972  0.178658  0.597306  1
  Y  Y5  1  0.479116  0.678553  0.402735  1
  Y  Y6  1  0.978836  0.821557  0.097308  1
  Y  Y7  1  0.479460  0.678869  0.097025  1
  Y  Y8  1  0.979622  0.821154  0.402875  1
  Y  Y9  1  0.520338  0.321119  0.597186  1
  Y  Y10  1  0.020901  0.179103  0.902896  1
  Y  Y11  1  0.698895  0.997172  0.750160  1
  Y  Y12  1  0.800970  0.497162  0.249872  1
  Y  Y13  1  0.301084  0.003042  0.249729  1
  Ho  Ho14  1  0.367193  0.836951  0.877557  1
  Ho  Ho15  1  0.867320  0.662627  0.622592  1
  Ho  Ho16  1  0.632977  0.163019  0.377385  1
  Ho  Ho17  1  0.132880  0.337520  0.122001  1
  Ho  Ho18  1  0.632183  0.162589  0.122568  1
  Ho  Ho19  1  0.198877  0.503218  0.750080  1
  Sn  Sn20  1  0.293682  0.037236  0.041299  1
  Sn  Sn21  1  0.793100  0.462732  0.458567  1
  Sn  Sn22  1  0.706917  0.962383  0.541245  1
  Sn  Sn23  1  0.207070  0.537351  0.958302  1
  Sn  Sn24  1  0.705993  0.963480  0.958846  1
  Sn  Sn25  1  0.205837  0.536707  0.541956  1
  Sn  Sn26  1  0.294390  0.036865  0.458157  1
  Sn  Sn27  1  0.793226  0.461397  0.041807  1
  Sn  Sn28  1  0.564395  0.618607  0.750451  1
  Sn  Sn29  1  0.065430  0.880929  0.750198  1
  Sn  Sn30  1  0.435367  0.380880  0.249606  1
  Sn  Sn31  1  0.934638  0.119550  0.249207  1
  Sn  Sn32  1  0.330026  0.148296  0.750361  1
  Sn  Sn33  1  0.830982  0.352767  0.749803  1
  Sn  Sn34  1  0.669479  0.852775  0.250093  1
  Sn  Sn35  1  0.169564  0.647578  0.249699  1
