# generated using pymatgen
data_Nb12CrGa9(NiN2)2
_symmetry_space_group_name_H-M   'P 1'
_cell_length_a   8.22083866
_cell_length_b   8.26411132
_cell_length_c   8.22685000
_cell_angle_alpha   60.14903853
_cell_angle_beta   59.97580811
_cell_angle_gamma   60.22008765
_symmetry_Int_Tables_number   1
_chemical_formula_structural   Nb12CrGa9(NiN2)2
_chemical_formula_sum   'Nb12 Cr1 Ga9 Ni2 N4'
_cell_volume   396.23838782
_cell_formula_units_Z   1
loop_
 _symmetry_equiv_pos_site_id
 _symmetry_equiv_pos_as_xyz
  1  'x, y, z'
loop_
 _atom_site_type_symbol
 _atom_site_label
 _atom_site_symmetry_multiplicity
 _atom_site_fract_x
 _atom_site_fract_y
 _atom_site_fract_z
 _atom_site_occupancy
  Nb  Nb0  1  0.814616  0.814530  0.185427  1
  Nb  Nb1  1  0.196743  0.195689  0.803784  1
  Nb  Nb2  1  0.811611  0.186234  0.807193  1
  Nb  Nb3  1  0.187082  0.809977  0.196435  1
  Nb  Nb4  1  0.187082  0.809977  0.806505  1
  Nb  Nb5  1  0.811611  0.186234  0.194960  1
  Nb  Nb6  1  0.435384  0.435470  0.064573  1
  Nb  Nb7  1  0.053257  0.054311  0.446216  1
  Nb  Nb8  1  0.438389  0.063766  0.442807  1
  Nb  Nb9  1  0.062918  0.440023  0.053565  1
  Nb  Nb10  1  0.062918  0.440023  0.443495  1
  Nb  Nb11  1  0.438389  0.063766  0.055040  1
  Cr  Cr12  1  0.625000  0.125000  0.625000  1
  Ga  Ga13  1  0.125000  0.625000  0.625000  1
  Ga  Ga14  1  0.758301  0.419329  0.411185  1
  Ga  Ga15  1  0.429236  0.761571  0.404597  1
  Ga  Ga16  1  0.428616  0.413576  0.753275  1
  Ga  Ga17  1  0.428616  0.413576  0.404534  1
  Ga  Ga18  1  0.491699  0.830671  0.838815  1
  Ga  Ga19  1  0.820764  0.488429  0.845403  1
  Ga  Ga20  1  0.821384  0.836424  0.496725  1
  Ga  Ga21  1  0.821384  0.836424  0.845466  1
  Ni  Ni22  1  0.625000  0.625000  0.125000  1
  Ni  Ni23  1  0.625000  0.625000  0.625000  1
  N  N24  1  0.625000  0.125000  0.125000  1
  N  N25  1  0.125000  0.625000  0.125000  1
  N  N26  1  0.125000  0.125000  0.625000  1
  N  N27  1  0.125000  0.125000  0.125000  1
