# generated using pymatgen
data_Sr3Mn2Cl2O5
_symmetry_space_group_name_H-M   'P 1'
_cell_length_a   4.00351807
_cell_length_b   4.00351660
_cell_length_c   12.43266683
_cell_angle_alpha   99.26836175
_cell_angle_beta   99.26840240
_cell_angle_gamma   90.00019227
_symmetry_Int_Tables_number   1
_chemical_formula_structural   Sr3Mn2Cl2O5
_chemical_formula_sum   'Sr3 Mn2 Cl2 O5'
_cell_volume   194.03465585
_cell_formula_units_Z   1
loop_
 _symmetry_equiv_pos_site_id
 _symmetry_equiv_pos_as_xyz
  1  'x, y, z'
loop_
 _atom_site_type_symbol
 _atom_site_label
 _atom_site_symmetry_multiplicity
 _atom_site_fract_x
 _atom_site_fract_y
 _atom_site_fract_z
 _atom_site_occupancy
  Sr  Sr0  1  0.654706  0.654705  0.309392  1
  Sr  Sr1  1  0.345292  0.345292  0.690607  1
  Sr  Sr2  1  0.499997  0.499999  0.999992  1
  Mn  Mn3  1  0.919175  0.919176  0.838191  1
  Mn  Mn4  1  0.080834  0.080834  0.161838  1
  Cl  Cl5  1  0.202827  0.202826  0.405581  1
  Cl  Cl6  1  0.797178  0.797178  0.594420  1
  O  O7  1  0.910953  0.410937  0.821734  1
  O  O8  1  0.410936  0.910953  0.821734  1
  O  O9  1  0.089044  0.589061  0.178260  1
  O  O10  1  0.999998  0.999998  0.999992  1
  O  O11  1  0.589061  0.089043  0.178260  1
