# generated using pymatgen
data_Pr3Nd4HoSe12
_symmetry_space_group_name_H-M   'P 1'
_cell_length_a   4.19718900
_cell_length_b   11.19667917
_cell_length_c   11.54352300
_cell_angle_alpha   90.01004509
_cell_angle_beta   90.00000000
_cell_angle_gamma   90.00000000
_symmetry_Int_Tables_number   1
_chemical_formula_structural   Pr3Nd4HoSe12
_chemical_formula_sum   'Pr3 Nd4 Ho1 Se12'
_cell_volume   542.48299127
_cell_formula_units_Z   1
loop_
 _symmetry_equiv_pos_site_id
 _symmetry_equiv_pos_as_xyz
  1  'x, y, z'
loop_
 _atom_site_type_symbol
 _atom_site_label
 _atom_site_symmetry_multiplicity
 _atom_site_fract_x
 _atom_site_fract_y
 _atom_site_fract_z
 _atom_site_occupancy
  Pr  Pr0  1  0.250000  0.998945  0.696527  1
  Pr  Pr1  1  0.250000  0.499829  0.191754  1
  Pr  Pr2  1  0.250000  0.313090  0.511415  1
  Nd  Nd3  1  0.750000  0.003261  0.304232  1
  Nd  Nd4  1  0.750000  0.495977  0.807610  1
  Nd  Nd5  1  0.750000  0.687294  0.488947  1
  Nd  Nd6  1  0.750000  0.813929  0.989501  1
  Ho  Ho7  1  0.250000  0.186878  0.010387  1
  Se  Se8  1  0.750000  0.060065  0.885766  1
  Se  Se9  1  0.250000  0.949298  0.117117  1
  Se  Se10  1  0.250000  0.555932  0.621725  1
  Se  Se11  1  0.750000  0.444813  0.379136  1
  Se  Se12  1  0.250000  0.874666  0.454402  1
  Se  Se13  1  0.750000  0.124679  0.544161  1
  Se  Se14  1  0.750000  0.365724  0.042308  1
  Se  Se15  1  0.250000  0.624861  0.954773  1
  Se  Se16  1  0.250000  0.299321  0.776075  1
  Se  Se17  1  0.750000  0.700476  0.228423  1
  Se  Se18  1  0.750000  0.801074  0.729846  1
  Se  Se19  1  0.250000  0.199886  0.265894  1
