# generated using pymatgen
data_CaTb5ErFeI12
_symmetry_space_group_name_H-M   'P 1'
_cell_length_a   9.73975604
_cell_length_b   9.79401415
_cell_length_c   9.74969561
_cell_angle_alpha   107.02714371
_cell_angle_beta   106.77875882
_cell_angle_gamma   106.80618738
_symmetry_Int_Tables_number   1
_chemical_formula_structural   CaTb5ErFeI12
_chemical_formula_sum   'Ca1 Tb5 Er1 Fe1 I12'
_cell_volume   777.25548517
_cell_formula_units_Z   1
loop_
 _symmetry_equiv_pos_site_id
 _symmetry_equiv_pos_as_xyz
  1  'x, y, z'
loop_
 _atom_site_type_symbol
 _atom_site_label
 _atom_site_symmetry_multiplicity
 _atom_site_fract_x
 _atom_site_fract_y
 _atom_site_fract_z
 _atom_site_occupancy
  Ca  Ca0  1  0.500016  0.500150  0.499834  1
  Tb  Tb1  1  0.024327  0.093493  0.287349  1
  Tb  Tb2  1  0.286805  0.024202  0.092923  1
  Tb  Tb3  1  0.902625  0.698575  0.975286  1
  Tb  Tb4  1  0.976122  0.907776  0.712823  1
  Tb  Tb5  1  0.713418  0.976010  0.907164  1
  Er  Er6  1  0.096172  0.296982  0.024574  1
  Fe  Fe7  1  0.999822  0.999671  0.000036  1
  I  I8  1  0.454168  0.377228  0.147494  1
  I  I9  1  0.148295  0.455373  0.375973  1
  I  I10  1  0.378317  0.150270  0.456112  1
  I  I11  1  0.542680  0.623043  0.850972  1
  I  I12  1  0.851643  0.544797  0.620905  1
  I  I13  1  0.621773  0.850098  0.544068  1
  I  I14  1  0.776640  0.317961  0.927232  1
  I  I15  1  0.927730  0.777446  0.319295  1
  I  I16  1  0.317008  0.926681  0.775194  1
  I  I17  1  0.226272  0.681407  0.073675  1
  I  I18  1  0.073030  0.225094  0.684143  1
  I  I19  1  0.683137  0.073742  0.224950  1
