# generated using pymatgen
data_SbAs2OsF16
_symmetry_space_group_name_H-M   'P 1'
_cell_length_a   8.32631100
_cell_length_b   5.73334114
_cell_length_c   7.00959004
_cell_angle_alpha   84.62662687
_cell_angle_beta   90.00000000
_cell_angle_gamma   90.00000000
_symmetry_Int_Tables_number   1
_chemical_formula_structural   SbAs2OsF16
_chemical_formula_sum   'Sb1 As2 Os1 F16'
_cell_volume   333.15041429
_cell_formula_units_Z   1
loop_
 _symmetry_equiv_pos_site_id
 _symmetry_equiv_pos_as_xyz
  1  'x, y, z'
loop_
 _atom_site_type_symbol
 _atom_site_label
 _atom_site_symmetry_multiplicity
 _atom_site_fract_x
 _atom_site_fract_y
 _atom_site_fract_z
 _atom_site_occupancy
  Sb  Sb0  1  0.750000  0.203964  0.217774  1
  As  As1  1  0.250000  0.501176  0.302081  1
  As  As2  1  0.750000  0.502159  0.701414  1
  Os  Os3  1  0.250000  0.787716  0.783865  1
  F  F4  1  0.478604  0.777468  0.784269  1
  F  F5  1  0.978186  0.228604  0.215160  1
  F  F6  1  0.521814  0.228604  0.215160  1
  F  F7  1  0.021396  0.777468  0.784269  1
  F  F8  1  0.250000  0.015605  0.958071  1
  F  F9  1  0.750000  0.981524  0.035863  1
  F  F10  1  0.093827  0.705325  0.291261  1
  F  F11  1  0.593226  0.299340  0.708392  1
  F  F12  1  0.906774  0.299340  0.708392  1
  F  F13  1  0.406173  0.705325  0.291261  1
  F  F14  1  0.250000  0.532870  0.999231  1
  F  F15  1  0.750000  0.463283  0.001468  1
  F  F16  1  0.250000  0.532291  0.610864  1
  F  F17  1  0.750000  0.463944  0.384570  1
  F  F18  1  0.250000  0.014813  0.573148  1
  F  F19  1  0.750000  0.979180  0.433489  1
