# generated using pymatgen
data_TbHo19PtRh11
_symmetry_space_group_name_H-M   'P 1'
_cell_length_a   10.86733307
_cell_length_b   10.86526234
_cell_length_c   6.33630400
_cell_angle_alpha   89.97049062
_cell_angle_beta   90.00668000
_cell_angle_gamma   90.07334978
_symmetry_Int_Tables_number   1
_chemical_formula_structural   TbHo19PtRh11
_chemical_formula_sum   'Tb1 Ho19 Pt1 Rh11'
_cell_volume   748.16740558
_cell_formula_units_Z   1
loop_
 _symmetry_equiv_pos_site_id
 _symmetry_equiv_pos_as_xyz
  1  'x, y, z'
loop_
 _atom_site_type_symbol
 _atom_site_label
 _atom_site_symmetry_multiplicity
 _atom_site_fract_x
 _atom_site_fract_y
 _atom_site_fract_z
 _atom_site_occupancy
  Tb  Tb0  1  0.289963  0.089542  0.378070  1
  Ho  Ho1  1  0.291168  0.911893  0.879577  1
  Ho  Ho2  1  0.708993  0.088666  0.878682  1
  Ho  Ho3  1  0.708815  0.910756  0.378310  1
  Ho  Ho4  1  0.589807  0.791405  0.879524  1
  Ho  Ho5  1  0.589901  0.208855  0.378198  1
  Ho  Ho6  1  0.411869  0.791918  0.376372  1
  Ho  Ho7  1  0.410951  0.209219  0.878402  1
  Ho  Ho8  1  0.208590  0.410444  0.620524  1
  Ho  Ho9  1  0.207883  0.588347  0.123619  1
  Ho  Ho10  1  0.791163  0.410798  0.121626  1
  Ho  Ho11  1  0.790867  0.589357  0.621397  1
  Ho  Ho12  1  0.910848  0.709294  0.121257  1
  Ho  Ho13  1  0.911287  0.290952  0.621269  1
  Ho  Ho14  1  0.087582  0.708891  0.620393  1
  Ho  Ho15  1  0.088599  0.291516  0.121147  1
  Ho  Ho16  1  0.999066  0.999723  0.500358  1
  Ho  Ho17  1  0.999951  0.000303  0.000119  1
  Ho  Ho18  1  0.501283  0.498574  0.000631  1
  Ho  Ho19  1  0.501655  0.498783  0.499655  1
  Pt  Pt20  1  0.345851  0.654102  0.749984  1
  Rh  Rh21  1  0.845856  0.154145  0.250073  1
  Rh  Rh22  1  0.845634  0.846033  0.750118  1
  Rh  Rh23  1  0.153595  0.154744  0.751129  1
  Rh  Rh24  1  0.153701  0.845226  0.249599  1
  Rh  Rh25  1  0.654410  0.345730  0.750176  1
  Rh  Rh26  1  0.654423  0.654134  0.249662  1
  Rh  Rh27  1  0.345949  0.346333  0.250010  1
  Rh  Rh28  1  0.500442  0.000098  0.124336  1
  Rh  Rh29  1  0.500917  0.000220  0.625450  1
  Rh  Rh30  1  0.999431  0.499778  0.875140  1
  Rh  Rh31  1  0.999549  0.500220  0.375193  1
