# generated using pymatgen
data_Th4Cd2CuPd3
_symmetry_space_group_name_H-M   'P 1'
_cell_length_a   7.92521563
_cell_length_b   7.92521521
_cell_length_c   3.81662700
_cell_angle_alpha   90.00000000
_cell_angle_beta   90.00000000
_cell_angle_gamma   90.22687110
_symmetry_Int_Tables_number   1
_chemical_formula_structural   Th4Cd2CuPd3
_chemical_formula_sum   'Th4 Cd2 Cu1 Pd3'
_cell_volume   239.71679672
_cell_formula_units_Z   1
loop_
 _symmetry_equiv_pos_site_id
 _symmetry_equiv_pos_as_xyz
  1  'x, y, z'
loop_
 _atom_site_type_symbol
 _atom_site_label
 _atom_site_symmetry_multiplicity
 _atom_site_fract_x
 _atom_site_fract_y
 _atom_site_fract_z
 _atom_site_occupancy
  Th  Th0  1  0.674652  0.174652  0.500000  1
  Th  Th1  1  0.324574  0.824574  0.500000  1
  Th  Th2  1  0.173342  0.325781  0.500000  1
  Th  Th3  1  0.825781  0.673342  0.500000  1
  Cd  Cd4  1  0.001157  0.996065  0.000000  1
  Cd  Cd5  1  0.496065  0.501157  0.000000  1
  Cu  Cu6  1  0.124906  0.624906  0.000000  1
  Pd  Pd7  1  0.878589  0.378589  0.000000  1
  Pd  Pd8  1  0.629041  0.871893  0.000000  1
  Pd  Pd9  1  0.371893  0.129041  0.000000  1
