# generated using pymatgen
data_Pr3Zn3Pd2Ru
_symmetry_space_group_name_H-M   'P 1'
_cell_length_a   7.40545800
_cell_length_b   7.40545821
_cell_length_c   4.04653100
_cell_angle_alpha   90.00000000
_cell_angle_beta   90.00000000
_cell_angle_gamma   119.99999905
_symmetry_Int_Tables_number   1
_chemical_formula_structural   Pr3Zn3Pd2Ru
_chemical_formula_sum   'Pr3 Zn3 Pd2 Ru1'
_cell_volume   192.18406116
_cell_formula_units_Z   1
loop_
 _symmetry_equiv_pos_site_id
 _symmetry_equiv_pos_as_xyz
  1  'x, y, z'
loop_
 _atom_site_type_symbol
 _atom_site_label
 _atom_site_symmetry_multiplicity
 _atom_site_fract_x
 _atom_site_fract_y
 _atom_site_fract_z
 _atom_site_occupancy
  Pr  Pr0  1  0.582504  0.988401  0.500000  1
  Pr  Pr1  1  0.405898  0.417496  0.500000  1
  Pr  Pr2  1  0.011599  0.594102  0.500000  1
  Zn  Zn3  1  0.754283  0.757189  0.000000  1
  Zn  Zn4  1  0.002906  0.245717  0.000000  1
  Zn  Zn5  1  0.242811  0.997094  0.000000  1
  Pd  Pd6  1  0.000000  0.000000  0.500000  1
  Pd  Pd7  1  0.666667  0.333333  0.000000  1
  Ru  Ru8  1  0.333333  0.666667  0.000000  1
