# generated using pymatgen
data_Ta5Ti7Ga8(CuC)4
_symmetry_space_group_name_H-M   'P 1'
_cell_length_a   8.19985729
_cell_length_b   8.19445953
_cell_length_c   8.19818724
_cell_angle_alpha   60.04092613
_cell_angle_beta   59.90292072
_cell_angle_gamma   60.03012303
_symmetry_Int_Tables_number   1
_chemical_formula_structural   Ta5Ti7Ga8(CuC)4
_chemical_formula_sum   'Ta5 Ti7 Ga8 Cu4 C4'
_cell_volume   389.44168708
_cell_formula_units_Z   1
loop_
 _symmetry_equiv_pos_site_id
 _symmetry_equiv_pos_as_xyz
  1  'x, y, z'
loop_
 _atom_site_type_symbol
 _atom_site_label
 _atom_site_symmetry_multiplicity
 _atom_site_fract_x
 _atom_site_fract_y
 _atom_site_fract_z
 _atom_site_occupancy
  Ta  Ta0  1  0.933966  0.932193  0.566801  1
  Ta  Ta1  1  0.684742  0.317787  0.315606  1
  Ta  Ta2  1  0.315948  0.683006  0.683806  1
  Ta  Ta3  1  0.683062  0.680958  0.317182  1
  Ta  Ta4  1  0.682847  0.317931  0.681561  1
  Ti  Ti5  1  0.317910  0.682761  0.317829  1
  Ti  Ti6  1  0.568374  0.933121  0.565936  1
  Ti  Ti7  1  0.568504  0.932255  0.933369  1
  Ti  Ti8  1  0.933888  0.568359  0.565915  1
  Ti  Ti9  1  0.932692  0.568475  0.932526  1
  Ti  Ti10  1  0.316404  0.318004  0.683857  1
  Ti  Ti11  1  0.566429  0.566302  0.934488  1
  Ga  Ga12  1  0.913512  0.261113  0.912813  1
  Ga  Ga13  1  0.333720  0.333700  0.995250  1
  Ga  Ga14  1  0.999120  0.334101  0.333367  1
  Ga  Ga15  1  0.334048  0.337562  0.337381  1
  Ga  Ga16  1  0.259864  0.913728  0.913426  1
  Ga  Ga17  1  0.912669  0.912470  0.916352  1
  Ga  Ga18  1  0.913436  0.912763  0.257413  1
  Ga  Ga19  1  0.334411  0.994028  0.333852  1
  Cu  Cu20  1  0.125050  0.625454  0.124078  1
  Cu  Cu21  1  0.124184  0.124139  0.626027  1
  Cu  Cu22  1  0.624421  0.125591  0.125140  1
  Cu  Cu23  1  0.123294  0.124355  0.125454  1
  C  C24  1  0.619672  0.123562  0.628073  1
  C  C25  1  0.623465  0.627859  0.120052  1
  C  C26  1  0.127006  0.620539  0.624210  1
  C  C27  1  0.627362  0.627883  0.628235  1
