# generated using pymatgen
data_Yb7HfBi6
_symmetry_space_group_name_H-M   'P 1'
_cell_length_a   8.15378185
_cell_length_b   8.28547249
_cell_length_c   8.28547256
_cell_angle_alpha   109.79094474
_cell_angle_beta   109.14957714
_cell_angle_gamma   109.14956375
_symmetry_Int_Tables_number   1
_chemical_formula_structural   Yb7HfBi6
_chemical_formula_sum   'Yb7 Hf1 Bi6'
_cell_volume   432.59387527
_cell_formula_units_Z   1
loop_
 _symmetry_equiv_pos_site_id
 _symmetry_equiv_pos_as_xyz
  1  'x, y, z'
loop_
 _atom_site_type_symbol
 _atom_site_label
 _atom_site_symmetry_multiplicity
 _atom_site_fract_x
 _atom_site_fract_y
 _atom_site_fract_z
 _atom_site_occupancy
  Yb  Yb0  1  0.643652  0.500000  0.000000  1
  Yb  Yb1  1  0.501037  0.004190  0.654384  1
  Yb  Yb2  1  0.361031  0.356217  0.357170  1
  Yb  Yb3  1  0.504814  0.000953  0.143783  1
  Yb  Yb4  1  0.996847  0.650194  0.495810  1
  Yb  Yb5  1  0.846653  0.845616  0.849806  1
  Yb  Yb6  1  0.003861  0.142830  0.499047  1
  Hf  Hf7  1  0.136681  0.500000  0.000000  1
  Bi  Bi8  1  0.363854  0.619657  0.757182  1
  Bi  Bi9  1  0.890921  0.260878  0.121182  1
  Bi  Bi10  1  0.606672  0.742818  0.362476  1
  Bi  Bi11  1  0.130043  0.860305  0.239122  1
  Bi  Bi12  1  0.244196  0.137524  0.880343  1
  Bi  Bi13  1  0.769739  0.378818  0.639695  1
