# generated using pymatgen
data_Dy3Ta5(MnB6)4
_symmetry_space_group_name_H-M   'P 1'
_cell_length_a   3.31632900
_cell_length_b   8.86930543
_cell_length_c   11.18245100
_cell_angle_alpha   89.92583263
_cell_angle_beta   90.00000000
_cell_angle_gamma   90.00000000
_symmetry_Int_Tables_number   1
_chemical_formula_structural   Dy3Ta5(MnB6)4
_chemical_formula_sum   'Dy3 Ta5 Mn4 B24'
_cell_volume   328.91513618
_cell_formula_units_Z   1
loop_
 _symmetry_equiv_pos_site_id
 _symmetry_equiv_pos_as_xyz
  1  'x, y, z'
loop_
 _atom_site_type_symbol
 _atom_site_label
 _atom_site_symmetry_multiplicity
 _atom_site_fract_x
 _atom_site_fract_y
 _atom_site_fract_z
 _atom_site_occupancy
  Dy  Dy0  1  0.000000  0.823272  0.086341  1
  Dy  Dy1  1  0.000000  0.176295  0.912990  1
  Dy  Dy2  1  0.000000  0.326486  0.415028  1
  Ta  Ta3  1  0.000000  0.674808  0.587320  1
  Ta  Ta4  1  0.000000  0.445530  0.128570  1
  Ta  Ta5  1  0.000000  0.555886  0.868604  1
  Ta  Ta6  1  0.000000  0.943337  0.373130  1
  Ta  Ta7  1  0.000000  0.054480  0.627567  1
  Mn  Mn8  1  0.000000  0.145259  0.184642  1
  Mn  Mn9  1  0.000000  0.852812  0.812156  1
  Mn  Mn10  1  0.000000  0.644518  0.320500  1
  Mn  Mn11  1  0.000000  0.358294  0.682063  1
  B  B12  1  0.500000  0.055185  0.068361  1
  B  B13  1  0.500000  0.943854  0.931006  1
  B  B14  1  0.500000  0.557004  0.437250  1
  B  B15  1  0.500000  0.448862  0.566835  1
  B  B16  1  0.500000  0.252213  0.083672  1
  B  B17  1  0.500000  0.747662  0.915289  1
  B  B18  1  0.500000  0.750721  0.421586  1
  B  B19  1  0.500000  0.248166  0.582966  1
  B  B20  1  0.500000  0.296574  0.237163  1
  B  B21  1  0.500000  0.702742  0.759784  1
  B  B22  1  0.500000  0.795884  0.265844  1
  B  B23  1  0.500000  0.202954  0.735434  1
  B  B24  1  0.500000  0.130437  0.317624  1
  B  B25  1  0.500000  0.866436  0.680403  1
  B  B26  1  0.500000  0.631058  0.184090  1
  B  B27  1  0.500000  0.369430  0.815392  1
  B  B28  1  0.500000  0.484833  0.287946  1
  B  B29  1  0.500000  0.518913  0.710318  1
  B  B30  1  0.500000  0.983203  0.214690  1
  B  B31  1  0.500000  0.015494  0.785462  1
  B  B32  1  0.500000  0.100497  0.473738  1
  B  B33  1  0.500000  0.896007  0.527577  1
  B  B34  1  0.500000  0.600196  0.025790  1
  B  B35  1  0.500000  0.400704  0.972871  1
