# generated using pymatgen
data_U4Te12Rh
_symmetry_space_group_name_H-M   'P 1'
_cell_length_a   7.46567949
_cell_length_b   7.46567940
_cell_length_c   10.74816627
_cell_angle_alpha   75.12162041
_cell_angle_beta   75.12162136
_cell_angle_gamma   67.62714025
_symmetry_Int_Tables_number   1
_chemical_formula_structural   U4Te12Rh
_chemical_formula_sum   'U4 Te12 Rh1'
_cell_volume   526.85243421
_cell_formula_units_Z   1
loop_
 _symmetry_equiv_pos_site_id
 _symmetry_equiv_pos_as_xyz
  1  'x, y, z'
loop_
 _atom_site_type_symbol
 _atom_site_label
 _atom_site_symmetry_multiplicity
 _atom_site_fract_x
 _atom_site_fract_y
 _atom_site_fract_z
 _atom_site_occupancy
  U  U0  1  0.794264  0.794264  0.848956  1
  U  U1  1  0.297458  0.297458  0.837255  1
  U  U2  1  0.697823  0.196722  0.158268  1
  U  U3  1  0.196722  0.697823  0.158268  1
  Te  Te4  1  0.032723  0.032723  0.323086  1
  Te  Te5  1  0.518404  0.518404  0.330518  1
  Te  Te6  1  0.471402  0.965943  0.669517  1
  Te  Te7  1  0.965943  0.471402  0.669517  1
  Te  Te8  1  0.284417  0.284417  0.337613  1
  Te  Te9  1  0.780697  0.780697  0.337872  1
  Te  Te10  1  0.204812  0.716645  0.659546  1
  Te  Te11  1  0.716645  0.204812  0.659546  1
  Te  Te12  1  0.019208  0.019208  0.931488  1
  Te  Te13  1  0.516859  0.516859  0.931925  1
  Te  Te14  1  0.471495  0.981389  0.065368  1
  Te  Te15  1  0.981389  0.471495  0.065368  1
  Rh  Rh16  1  0.861038  0.861038  0.550287  1
