# generated using pymatgen
data_Sm7ThInPd24
_symmetry_space_group_name_H-M   'P 1'
_cell_length_a   8.49254627
_cell_length_b   8.49254627
_cell_length_c   8.49254627
_cell_angle_alpha   89.92890933
_cell_angle_beta   89.92890933
_cell_angle_gamma   89.92890933
_symmetry_Int_Tables_number   1
_chemical_formula_structural   Sm7ThInPd24
_chemical_formula_sum   'Sm7 Th1 In1 Pd24'
_cell_volume   612.50940632
_cell_formula_units_Z   1
loop_
 _symmetry_equiv_pos_site_id
 _symmetry_equiv_pos_as_xyz
  1  'x, y, z'
loop_
 _atom_site_type_symbol
 _atom_site_label
 _atom_site_symmetry_multiplicity
 _atom_site_fract_x
 _atom_site_fract_y
 _atom_site_fract_z
 _atom_site_occupancy
  Sm  Sm0  1  0.748341  0.748341  0.748341  1
  Sm  Sm1  1  0.748439  0.748439  0.251495  1
  Sm  Sm2  1  0.748439  0.251495  0.748439  1
  Sm  Sm3  1  0.251432  0.251432  0.748882  1
  Sm  Sm4  1  0.251432  0.748882  0.251432  1
  Sm  Sm5  1  0.251495  0.748439  0.748439  1
  Sm  Sm6  1  0.748882  0.251432  0.251432  1
  Th  Th7  1  0.252788  0.252788  0.252788  1
  In  In8  1  0.999210  0.999210  0.999210  1
  Pd  Pd9  1  0.266044  0.499185  0.001343  1
  Pd  Pd10  1  0.733948  0.499812  0.000013  1
  Pd  Pd11  1  0.001343  0.266044  0.499185  1
  Pd  Pd12  1  0.499185  0.266044  0.001343  1
  Pd  Pd13  1  0.000013  0.733948  0.499812  1
  Pd  Pd14  1  0.499812  0.733948  0.000013  1
  Pd  Pd15  1  0.499185  0.001343  0.266044  1
  Pd  Pd16  1  0.266044  0.001343  0.499185  1
  Pd  Pd17  1  0.499812  0.000013  0.733948  1
  Pd  Pd18  1  0.733948  0.000013  0.499812  1
  Pd  Pd19  1  0.001343  0.499185  0.266044  1
  Pd  Pd20  1  0.000013  0.499812  0.733948  1
  Pd  Pd21  1  0.255027  0.499124  0.499124  1
  Pd  Pd22  1  0.745281  0.499868  0.499868  1
  Pd  Pd23  1  0.499124  0.255027  0.499124  1
  Pd  Pd24  1  0.499868  0.745281  0.499868  1
  Pd  Pd25  1  0.499124  0.499124  0.255027  1
  Pd  Pd26  1  0.499868  0.499868  0.745281  1
  Pd  Pd27  1  0.311302  0.000679  0.000679  1
  Pd  Pd28  1  0.688029  0.999936  0.999936  1
  Pd  Pd29  1  0.000679  0.311302  0.000679  1
  Pd  Pd30  1  0.999936  0.688029  0.999936  1
  Pd  Pd31  1  0.000679  0.000679  0.311302  1
  Pd  Pd32  1  0.999936  0.999936  0.688029  1
