# generated using pymatgen
data_Zn2CdCo(AsO2)8
_symmetry_space_group_name_H-M   'P 1'
_cell_length_a   5.25075557
_cell_length_b   4.69126240
_cell_length_c   18.57914470
_cell_angle_alpha   90.00530309
_cell_angle_beta   89.89099135
_cell_angle_gamma   90.30089733
_symmetry_Int_Tables_number   1
_chemical_formula_structural   Zn2CdCo(AsO2)8
_chemical_formula_sum   'Zn2 Cd1 Co1 As8 O16'
_cell_volume   457.64684025
_cell_formula_units_Z   1
loop_
 _symmetry_equiv_pos_site_id
 _symmetry_equiv_pos_as_xyz
  1  'x, y, z'
loop_
 _atom_site_type_symbol
 _atom_site_label
 _atom_site_symmetry_multiplicity
 _atom_site_fract_x
 _atom_site_fract_y
 _atom_site_fract_z
 _atom_site_occupancy
  Zn  Zn0  1  0.010265  0.253651  0.746968  1
  Zn  Zn1  1  0.510485  0.746611  0.752114  1
  Cd  Cd2  1  0.994010  0.742593  0.251466  1
  Co  Co3  1  0.490245  0.253825  0.246384  1
  As  As4  1  0.283887  0.511896  0.407188  1
  As  As5  1  0.779087  0.479286  0.092351  1
  As  As6  1  0.719858  0.484061  0.599382  1
  As  As7  1  0.219253  0.517320  0.900267  1
  As  As8  1  0.702348  0.017552  0.403530  1
  As  As9  1  0.208740  0.988097  0.093754  1
  As  As10  1  0.294376  0.985667  0.601280  1
  As  As11  1  0.793356  0.011648  0.898605  1
  O  O12  1  0.259655  0.472063  0.311252  1
  O  O13  1  0.715839  0.495430  0.187013  1
  O  O14  1  0.758489  0.502646  0.695743  1
  O  O15  1  0.257693  0.497478  0.804075  1
  O  O16  1  0.718183  0.019652  0.307297  1
  O  O17  1  0.248613  0.026583  0.188688  1
  O  O18  1  0.267708  0.003722  0.697539  1
  O  O19  1  0.767994  0.995766  0.802383  1
  O  O20  1  0.369878  0.891013  0.414015  1
  O  O21  1  0.874474  0.104272  0.085344  1
  O  O22  1  0.627342  0.108111  0.590514  1
  O  O23  1  0.126103  0.891887  0.909485  1
  O  O24  1  0.886790  0.388456  0.904604  1
  O  O25  1  0.387135  0.609265  0.596288  1
  O  O26  1  0.112506  0.609553  0.096440  1
  O  O27  1  0.615692  0.391897  0.416035  1
