# generated using pymatgen
data_TbYGa3Co14
_symmetry_space_group_name_H-M   'P 1'
_cell_length_a   6.34423124
_cell_length_b   6.34423120
_cell_length_c   6.34423106
_cell_angle_alpha   82.69495155
_cell_angle_beta   82.69494615
_cell_angle_gamma   82.69496738
_symmetry_Int_Tables_number   1
_chemical_formula_structural   TbYGa3Co14
_chemical_formula_sum   'Tb1 Y1 Ga3 Co14'
_cell_volume   249.61864994
_cell_formula_units_Z   1
loop_
 _symmetry_equiv_pos_site_id
 _symmetry_equiv_pos_as_xyz
  1  'x, y, z'
loop_
 _atom_site_type_symbol
 _atom_site_label
 _atom_site_symmetry_multiplicity
 _atom_site_fract_x
 _atom_site_fract_y
 _atom_site_fract_z
 _atom_site_occupancy
  Tb  Tb0  1  0.333395  0.333395  0.333395  1
  Y  Y1  1  0.659153  0.659153  0.659153  1
  Ga  Ga2  1  0.155187  0.652541  0.652541  1
  Ga  Ga3  1  0.652541  0.652541  0.155187  1
  Ga  Ga4  1  0.652541  0.155187  0.652541  1
  Co  Co5  1  0.907720  0.907720  0.907720  1
  Co  Co6  1  0.095232  0.095232  0.095232  1
  Co  Co7  1  0.004753  0.004753  0.495754  1
  Co  Co8  1  0.004753  0.495754  0.004753  1
  Co  Co9  1  0.495754  0.004753  0.004753  1
  Co  Co10  1  0.286775  0.714350  0.001591  1
  Co  Co11  1  0.714350  0.001591  0.286775  1
  Co  Co12  1  0.001591  0.286775  0.714350  1
  Co  Co13  1  0.286775  0.001591  0.714350  1
  Co  Co14  1  0.001591  0.714350  0.286775  1
  Co  Co15  1  0.714350  0.286775  0.001591  1
  Co  Co16  1  0.854935  0.339302  0.339302  1
  Co  Co17  1  0.339302  0.339302  0.854935  1
  Co  Co18  1  0.339302  0.854935  0.339302  1
