# generated using pymatgen
data_Sc2CoSn2Pd
_symmetry_space_group_name_H-M   'P 1'
_cell_length_a   7.47780400
_cell_length_b   7.47780467
_cell_length_c   6.89124000
_cell_angle_alpha   90.00000000
_cell_angle_beta   90.00000000
_cell_angle_gamma   119.99999704
_symmetry_Int_Tables_number   1
_chemical_formula_structural   Sc2CoSn2Pd
_chemical_formula_sum   'Sc6 Co3 Sn6 Pd3'
_cell_volume   333.71537356
_cell_formula_units_Z   3
loop_
 _symmetry_equiv_pos_site_id
 _symmetry_equiv_pos_as_xyz
  1  'x, y, z'
loop_
 _atom_site_type_symbol
 _atom_site_label
 _atom_site_symmetry_multiplicity
 _atom_site_fract_x
 _atom_site_fract_y
 _atom_site_fract_z
 _atom_site_occupancy
  Sc  Sc0  1  0.386815  0.991147  0.245481  1
  Sc  Sc1  1  0.604332  0.613185  0.245481  1
  Sc  Sc2  1  0.008853  0.395668  0.245481  1
  Sc  Sc3  1  0.386291  0.988740  0.754424  1
  Sc  Sc4  1  0.602449  0.613709  0.754424  1
  Sc  Sc5  1  0.011260  0.397551  0.754424  1
  Co  Co6  1  0.333333  0.666667  0.999856  1
  Co  Co7  1  0.000000  0.000000  0.227821  1
  Co  Co8  1  0.000000  0.000000  0.772455  1
  Sn  Sn9  1  0.721940  0.995247  0.000342  1
  Sn  Sn10  1  0.260351  0.254982  0.500055  1
  Sn  Sn11  1  0.994632  0.739649  0.500055  1
  Sn  Sn12  1  0.004753  0.726693  0.000342  1
  Sn  Sn13  1  0.273307  0.278060  0.000342  1
  Sn  Sn14  1  0.745018  0.005368  0.500055  1
  Pd  Pd15  1  0.333333  0.666667  0.499235  1
  Pd  Pd16  1  0.666667  0.333333  0.998718  1
  Pd  Pd17  1  0.666667  0.333333  0.501010  1
