# generated using pymatgen
data_Er9Sc(TlSb)4
_symmetry_space_group_name_H-M   'P 1'
_cell_length_a   8.73014675
_cell_length_b   8.73014759
_cell_length_c   8.01451800
_cell_angle_alpha   90.04548802
_cell_angle_beta   90.04548802
_cell_angle_gamma   125.35306369
_symmetry_Int_Tables_number   1
_chemical_formula_structural   Er9Sc(TlSb)4
_chemical_formula_sum   'Er9 Sc1 Tl4 Sb4'
_cell_volume   498.19367095
_cell_formula_units_Z   1
loop_
 _symmetry_equiv_pos_site_id
 _symmetry_equiv_pos_as_xyz
  1  'x, y, z'
loop_
 _atom_site_type_symbol
 _atom_site_label
 _atom_site_symmetry_multiplicity
 _atom_site_fract_x
 _atom_site_fract_y
 _atom_site_fract_z
 _atom_site_occupancy
  Er  Er0  1  0.030476  0.303986  0.333922  1
  Er  Er1  1  0.969524  0.696014  0.666078  1
  Er  Er2  1  0.468822  0.193017  0.835734  1
  Er  Er3  1  0.806983  0.531178  0.164266  1
  Er  Er4  1  0.531178  0.806983  0.164266  1
  Er  Er5  1  0.193017  0.468822  0.835734  1
  Er  Er6  1  0.696014  0.969524  0.666078  1
  Er  Er7  1  0.303986  0.030476  0.333922  1
  Er  Er8  1  0.500000  0.500000  0.500000  1
  Sc  Sc9  1  0.000000  0.000000  0.000000  1
  Tl  Tl10  1  0.362074  0.362074  0.130205  1
  Tl  Tl11  1  0.637926  0.637926  0.869795  1
  Tl  Tl12  1  0.131848  0.131848  0.637460  1
  Tl  Tl13  1  0.868152  0.868152  0.362540  1
  Sb  Sb14  1  0.799550  0.200450  0.000000  1
  Sb  Sb15  1  0.200450  0.799550  0.000000  1
  Sb  Sb16  1  0.703290  0.296710  0.500000  1
  Sb  Sb17  1  0.296710  0.703290  0.500000  1
