# generated using pymatgen
data_Er4ReRuC4
_symmetry_space_group_name_H-M   'P 1'
_cell_length_a   5.04880800
_cell_length_b   6.49951000
_cell_length_c   9.76002400
_cell_angle_alpha   90.00000000
_cell_angle_beta   90.00000000
_cell_angle_gamma   90.00000000
_symmetry_Int_Tables_number   1
_chemical_formula_structural   Er4ReRuC4
_chemical_formula_sum   'Er8 Re2 Ru2 C8'
_cell_volume   320.27302166
_cell_formula_units_Z   2
loop_
 _symmetry_equiv_pos_site_id
 _symmetry_equiv_pos_as_xyz
  1  'x, y, z'
loop_
 _atom_site_type_symbol
 _atom_site_label
 _atom_site_symmetry_multiplicity
 _atom_site_fract_x
 _atom_site_fract_y
 _atom_site_fract_z
 _atom_site_occupancy
  Er  Er0  1  0.750000  0.825217  0.055536  1
  Er  Er1  1  0.250000  0.674783  0.555536  1
  Er  Er2  1  0.750000  0.319404  0.442448  1
  Er  Er3  1  0.250000  0.180596  0.942448  1
  Er  Er4  1  0.750000  0.467505  0.783425  1
  Er  Er5  1  0.250000  0.032495  0.283425  1
  Er  Er6  1  0.750000  0.969870  0.716313  1
  Er  Er7  1  0.250000  0.530130  0.216313  1
  Re  Re8  1  0.750000  0.778792  0.366233  1
  Re  Re9  1  0.250000  0.721208  0.866233  1
  Ru  Ru10  1  0.750000  0.278386  0.133054  1
  Ru  Ru11  1  0.250000  0.221614  0.633054  1
  C  C12  1  0.750000  0.174664  0.946709  1
  C  C13  1  0.250000  0.823738  0.053598  1
  C  C14  1  0.750000  0.676262  0.553598  1
  C  C15  1  0.250000  0.325336  0.446709  1
  C  C16  1  0.750000  0.043949  0.260354  1
  C  C17  1  0.250000  0.456051  0.760354  1
  C  C18  1  0.750000  0.545239  0.242331  1
  C  C19  1  0.250000  0.954761  0.742331  1
