# generated using pymatgen
data_Ti8Al15Ir5Pd2
_symmetry_space_group_name_H-M   'P 1'
_cell_length_a   8.67640968
_cell_length_b   8.67640979
_cell_length_c   8.67641028
_cell_angle_alpha   120.11653714
_cell_angle_beta   119.88227658
_cell_angle_gamma   90.00115027
_symmetry_Int_Tables_number   1
_chemical_formula_structural   Ti8Al15Ir5Pd2
_chemical_formula_sum   'Ti8 Al15 Ir5 Pd2'
_cell_volume   461.85622397
_cell_formula_units_Z   1
loop_
 _symmetry_equiv_pos_site_id
 _symmetry_equiv_pos_as_xyz
  1  'x, y, z'
loop_
 _atom_site_type_symbol
 _atom_site_label
 _atom_site_symmetry_multiplicity
 _atom_site_fract_x
 _atom_site_fract_y
 _atom_site_fract_z
 _atom_site_occupancy
  Ti  Ti0  1  0.790470  0.292807  0.077129  1
  Ti  Ti1  1  0.215678  0.292807  0.502338  1
  Ti  Ti2  1  0.207190  0.707190  0.500000  1
  Ti  Ti3  1  0.215678  0.713340  0.922871  1
  Ti  Ti4  1  0.790470  0.713340  0.497662  1
  Ti  Ti5  1  0.786528  0.286528  0.500000  1
  Ti  Ti6  1  0.377184  0.124394  0.747210  1
  Ti  Ti7  1  0.377184  0.629974  0.252790  1
  Al  Al8  1  0.997225  0.497225  0.500000  1
  Al  Al9  1  0.153633  0.345269  0.191635  1
  Al  Al10  1  0.153633  0.961997  0.808365  1
  Al  Al11  1  0.149816  0.346851  0.802964  1
  Al  Al12  1  0.543885  0.346851  0.197036  1
  Al  Al13  1  0.844966  0.651027  0.806063  1
  Al  Al14  1  0.844966  0.038903  0.193937  1
  Al  Al15  1  0.842900  0.655130  0.187769  1
  Al  Al16  1  0.467360  0.655130  0.812231  1
  Al  Al17  1  0.382423  0.124408  0.258016  1
  Al  Al18  1  0.866393  0.124408  0.741984  1
  Al  Al19  1  0.622191  0.875532  0.253342  1
  Al  Al20  1  0.622191  0.368848  0.746658  1
  Al  Al21  1  0.616637  0.875489  0.741148  1
  Al  Al22  1  0.134340  0.875489  0.258852  1
  Ir  Ir23  1  0.002249  0.000317  0.502465  1
  Ir  Ir24  1  0.497853  0.000317  0.998068  1
  Ir  Ir25  1  0.496922  0.496922  0.000000  1
  Ir  Ir26  1  0.497853  0.499784  0.497535  1
  Ir  Ir27  1  0.002249  0.499784  0.001932  1
  Pd  Pd28  1  0.999563  0.999563  0.000000  1
  Pd  Pd29  1  0.500372  0.000372  0.500000  1
