# generated using pymatgen
data_Li3Dy4GaPt4
_symmetry_space_group_name_H-M   'P 1'
_cell_length_a   4.03325400
_cell_length_b   7.01956668
_cell_length_c   8.44671834
_cell_angle_alpha   88.87158501
_cell_angle_beta   90.00000000
_cell_angle_gamma   90.00000000
_symmetry_Int_Tables_number   1
_chemical_formula_structural   Li3Dy4GaPt4
_chemical_formula_sum   'Li3 Dy4 Ga1 Pt4'
_cell_volume   239.09453968
_cell_formula_units_Z   1
loop_
 _symmetry_equiv_pos_site_id
 _symmetry_equiv_pos_as_xyz
  1  'x, y, z'
loop_
 _atom_site_type_symbol
 _atom_site_label
 _atom_site_symmetry_multiplicity
 _atom_site_fract_x
 _atom_site_fract_y
 _atom_site_fract_z
 _atom_site_occupancy
  Li  Li0  1  0.250000  0.372116  0.559420  1
  Li  Li1  1  0.250000  0.873426  0.942157  1
  Li  Li2  1  0.750000  0.624750  0.443048  1
  Dy  Dy3  1  0.250000  0.955751  0.317787  1
  Dy  Dy4  1  0.250000  0.449645  0.179357  1
  Dy  Dy5  1  0.750000  0.051513  0.679408  1
  Dy  Dy6  1  0.750000  0.544718  0.820711  1
  Ga  Ga7  1  0.750000  0.126339  0.058806  1
  Pt  Pt8  1  0.250000  0.249358  0.881823  1
  Pt  Pt9  1  0.250000  0.759377  0.626176  1
  Pt  Pt10  1  0.750000  0.748362  0.122039  1
  Pt  Pt11  1  0.750000  0.244643  0.369267  1
