# generated using pymatgen
data_La4Ho3Lu3Si8
_symmetry_space_group_name_H-M   'P 1'
_cell_length_a   7.78752721
_cell_length_b   7.78659106
_cell_length_c   14.33984765
_cell_angle_alpha   89.98605960
_cell_angle_beta   90.13239610
_cell_angle_gamma   90.00197998
_symmetry_Int_Tables_number   1
_chemical_formula_structural   La4Ho3Lu3Si8
_chemical_formula_sum   'La8 Ho6 Lu6 Si16'
_cell_volume   869.54148935
_cell_formula_units_Z   2
loop_
 _symmetry_equiv_pos_site_id
 _symmetry_equiv_pos_as_xyz
  1  'x, y, z'
loop_
 _atom_site_type_symbol
 _atom_site_label
 _atom_site_symmetry_multiplicity
 _atom_site_fract_x
 _atom_site_fract_y
 _atom_site_fract_z
 _atom_site_occupancy
  La  La0  1  0.991444  0.644023  0.039685  1
  La  La1  1  0.008224  0.355875  0.539964  1
  La  La2  1  0.644466  0.991955  0.960224  1
  La  La3  1  0.144009  0.508662  0.790003  1
  La  La4  1  0.856017  0.491670  0.289569  1
  La  La5  1  0.508057  0.144419  0.210031  1
  La  La6  1  0.491835  0.856036  0.710262  1
  La  La7  1  0.355866  0.008104  0.460055  1
  Ho  Ho8  1  0.359893  0.493661  0.374991  1
  Ho  Ho9  1  0.859628  0.006149  0.374723  1
  Ho  Ho10  1  0.994126  0.140021  0.124839  1
  Ho  Ho11  1  0.006344  0.860178  0.625280  1
  Ho  Ho12  1  0.639832  0.506028  0.875165  1
  Ho  Ho13  1  0.493473  0.359615  0.625122  1
  Lu  Lu14  1  0.505470  0.640743  0.124776  1
  Lu  Lu15  1  0.140589  0.993927  0.875134  1
  Lu  Lu16  1  0.682270  0.682057  0.500097  1
  Lu  Lu17  1  0.818905  0.181599  0.750217  1
  Lu  Lu18  1  0.182530  0.817902  0.249861  1
  Lu  Lu19  1  0.318344  0.318262  0.000052  1
  Si  Si20  1  0.063485  0.711565  0.436920  1
  Si  Si21  1  0.937610  0.287350  0.936429  1
  Si  Si22  1  0.711635  0.063554  0.563113  1
  Si  Si23  1  0.212660  0.437554  0.186406  1
  Si  Si24  1  0.788511  0.563413  0.686892  1
  Si  Si25  1  0.435189  0.210712  0.813577  1
  Si  Si26  1  0.563046  0.787732  0.312159  1
  Si  Si27  1  0.288594  0.935740  0.062621  1
  Si  Si28  1  0.850742  0.797113  0.810812  1
  Si  Si29  1  0.150655  0.203643  0.310007  1
  Si  Si30  1  0.794484  0.848428  0.189234  1
  Si  Si31  1  0.295923  0.650674  0.560032  1
  Si  Si32  1  0.702487  0.350798  0.060782  1
  Si  Si33  1  0.650642  0.295792  0.439900  1
  Si  Si34  1  0.349126  0.705133  0.940204  1
  Si  Si35  1  0.203890  0.149916  0.690861  1
