# generated using pymatgen
data_Y5In4PdAu
_symmetry_space_group_name_H-M   'P 1'
_cell_length_a   3.66651700
_cell_length_b   8.20871403
_cell_length_c   18.38916813
_cell_angle_alpha   90.01182429
_cell_angle_beta   90.00000000
_cell_angle_gamma   90.00000000
_symmetry_Int_Tables_number   1
_chemical_formula_structural   Y5In4PdAu
_chemical_formula_sum   'Y10 In8 Pd2 Au2'
_cell_volume   553.46594483
_cell_formula_units_Z   2
loop_
 _symmetry_equiv_pos_site_id
 _symmetry_equiv_pos_as_xyz
  1  'x, y, z'
loop_
 _atom_site_type_symbol
 _atom_site_label
 _atom_site_symmetry_multiplicity
 _atom_site_fract_x
 _atom_site_fract_y
 _atom_site_fract_z
 _atom_site_occupancy
  Y  Y0  1  0.500000  0.246829  0.783103  1
  Y  Y1  1  0.500000  0.753171  0.216897  1
  Y  Y2  1  0.500000  0.267909  0.280818  1
  Y  Y3  1  0.500000  0.732091  0.719182  1
  Y  Y4  1  0.500000  0.120062  0.580195  1
  Y  Y5  1  0.500000  0.879938  0.419805  1
  Y  Y6  1  0.500000  0.383255  0.082496  1
  Y  Y7  1  0.500000  0.616745  0.917504  1
  Y  Y8  1  0.500000  0.000000  0.000000  1
  Y  Y9  1  0.500000  0.500000  0.500000  1
  In  In10  1  0.000000  0.082597  0.148290  1
  In  In11  1  0.000000  0.917403  0.851710  1
  In  In12  1  0.000000  0.422592  0.649218  1
  In  In13  1  0.000000  0.577408  0.350782  1
  In  In14  1  0.000000  0.209768  0.432832  1
  In  In15  1  0.000000  0.790232  0.567168  1
  In  In16  1  0.000000  0.291965  0.932709  1
  In  In17  1  0.000000  0.708035  0.067291  1
  Pd  Pd18  1  0.000000  0.474365  0.196135  1
  Pd  Pd19  1  0.000000  0.525635  0.803865  1
  Au  Au20  1  0.000000  0.026544  0.697661  1
  Au  Au21  1  0.000000  0.973456  0.302339  1
