# generated using pymatgen
data_Ti12Be11CuN4
_symmetry_space_group_name_H-M   'P 1'
_cell_length_a   7.67756756
_cell_length_b   7.67756667
_cell_length_c   7.67639604
_cell_angle_alpha   59.99495740
_cell_angle_beta   59.99496121
_cell_angle_gamma   60.00000065
_symmetry_Int_Tables_number   1
_chemical_formula_structural   Ti12Be11CuN4
_chemical_formula_sum   'Ti12 Be11 Cu1 N4'
_cell_volume   319.93115045
_cell_formula_units_Z   1
loop_
 _symmetry_equiv_pos_site_id
 _symmetry_equiv_pos_as_xyz
  1  'x, y, z'
loop_
 _atom_site_type_symbol
 _atom_site_label
 _atom_site_symmetry_multiplicity
 _atom_site_fract_x
 _atom_site_fract_y
 _atom_site_fract_z
 _atom_site_occupancy
  Ti  Ti0  1  0.941678  0.557227  0.559417  1
  Ti  Ti1  1  0.692773  0.308322  0.690583  1
  Ti  Ti2  1  0.942785  0.556927  0.943362  1
  Ti  Ti3  1  0.556927  0.942785  0.943362  1
  Ti  Ti4  1  0.307215  0.693073  0.306638  1
  Ti  Ti5  1  0.557227  0.941678  0.559417  1
  Ti  Ti6  1  0.693073  0.693073  0.306638  1
  Ti  Ti7  1  0.941678  0.941678  0.559417  1
  Ti  Ti8  1  0.308322  0.308322  0.690583  1
  Ti  Ti9  1  0.693073  0.307215  0.306638  1
  Ti  Ti10  1  0.556927  0.556927  0.943362  1
  Ti  Ti11  1  0.308322  0.692773  0.690583  1
  Be  Be12  1  0.223489  0.924059  0.928393  1
  Be  Be13  1  0.325941  0.325941  0.321607  1
  Be  Be14  1  0.324368  0.324368  0.026894  1
  Be  Be15  1  0.924059  0.223489  0.928393  1
  Be  Be16  1  0.924059  0.924059  0.928393  1
  Be  Be17  1  0.026511  0.325941  0.321607  1
  Be  Be18  1  0.925632  0.925632  0.223106  1
  Be  Be19  1  0.325941  0.026511  0.321607  1
  Be  Be20  1  0.125000  0.625000  0.125000  1
  Be  Be21  1  0.625000  0.125000  0.125000  1
  Be  Be22  1  0.125000  0.125000  0.125000  1
  Cu  Cu23  1  0.125000  0.125000  0.625000  1
  N  N24  1  0.625000  0.125000  0.625000  1
  N  N25  1  0.625000  0.625000  0.125000  1
  N  N26  1  0.125000  0.625000  0.625000  1
  N  N27  1  0.625000  0.625000  0.625000  1
