# generated using pymatgen
data_Yb2Sm3Bi3O14
_symmetry_space_group_name_H-M   'P 1'
_cell_length_a   7.54359045
_cell_length_b   7.54357741
_cell_length_c   7.54358400
_cell_angle_alpha   117.04996008
_cell_angle_beta   62.95006490
_cell_angle_gamma   117.04981983
_symmetry_Int_Tables_number   1
_chemical_formula_structural   Yb2Sm3Bi3O14
_chemical_formula_sum   'Yb2 Sm3 Bi3 O14'
_cell_volume   323.42929679
_cell_formula_units_Z   1
loop_
 _symmetry_equiv_pos_site_id
 _symmetry_equiv_pos_as_xyz
  1  'x, y, z'
loop_
 _atom_site_type_symbol
 _atom_site_label
 _atom_site_symmetry_multiplicity
 _atom_site_fract_x
 _atom_site_fract_y
 _atom_site_fract_z
 _atom_site_occupancy
  Yb  Yb0  1  0.499961  0.499952  0.999997  1
  Yb  Yb1  1  0.000002  0.999980  0.499982  1
  Sm  Sm2  1  0.999979  0.499988  0.000023  1
  Sm  Sm3  1  0.500021  0.000014  0.000023  1
  Sm  Sm4  1  0.500024  0.499983  0.499984  1
  Bi  Bi5  1  0.499970  0.000061  0.499949  1
  Bi  Bi6  1  0.999928  0.500050  0.499934  1
  Bi  Bi7  1  0.999969  0.000039  0.999975  1
  O  O8  1  0.626233  0.373762  0.126234  1
  O  O9  1  0.373757  0.626238  0.873759  1
  O  O10  1  0.093537  0.332082  0.167924  1
  O  O11  1  0.667933  0.906503  0.167933  1
  O  O12  1  0.667922  0.332083  0.593544  1
  O  O13  1  0.906482  0.667919  0.832088  1
  O  O14  1  0.332095  0.093546  0.832096  1
  O  O15  1  0.332085  0.667920  0.406484  1
  O  O16  1  0.641987  0.898879  0.601125  1
  O  O17  1  0.101122  0.357996  0.601121  1
  O  O18  1  0.101126  0.898879  0.141971  1
  O  O19  1  0.358048  0.101099  0.398914  1
  O  O20  1  0.898902  0.641931  0.398905  1
  O  O21  1  0.898914  0.101097  0.858031  1
