# generated using pymatgen
data_ThCoNiP2
_symmetry_space_group_name_H-M   'P 1'
_cell_length_a   4.06067300
_cell_length_b   4.06037800
_cell_length_c   9.09983800
_cell_angle_alpha   90.00000000
_cell_angle_beta   90.00000000
_cell_angle_gamma   90.00000000
_symmetry_Int_Tables_number   1
_chemical_formula_structural   ThCoNiP2
_chemical_formula_sum   'Th2 Co2 Ni2 P4'
_cell_volume   150.03692153
_cell_formula_units_Z   2
loop_
 _symmetry_equiv_pos_site_id
 _symmetry_equiv_pos_as_xyz
  1  'x, y, z'
loop_
 _atom_site_type_symbol
 _atom_site_label
 _atom_site_symmetry_multiplicity
 _atom_site_fract_x
 _atom_site_fract_y
 _atom_site_fract_z
 _atom_site_occupancy
  Th  Th0  1  0.000000  0.500000  0.747454  1
  Th  Th1  1  0.500000  0.000000  0.252546  1
  Co  Co2  1  0.000000  0.500000  0.390566  1
  Co  Co3  1  0.500000  0.000000  0.609434  1
  Ni  Ni4  1  0.500000  0.500000  0.999995  1
  Ni  Ni5  1  0.000000  0.000000  0.000005  1
  P  P6  1  0.500000  0.000000  0.866033  1
  P  P7  1  0.000000  0.500000  0.133967  1
  P  P8  1  0.000000  0.000000  0.499995  1
  P  P9  1  0.500000  0.500000  0.500005  1
