# generated using pymatgen
data_TbHo3ReTcC4
_symmetry_space_group_name_H-M   'P 1'
_cell_length_a   5.09371400
_cell_length_b   6.57614300
_cell_length_c   9.86043900
_cell_angle_alpha   90.00000000
_cell_angle_beta   90.00000000
_cell_angle_gamma   90.00000000
_symmetry_Int_Tables_number   1
_chemical_formula_structural   TbHo3ReTcC4
_chemical_formula_sum   'Tb2 Ho6 Re2 Tc2 C8'
_cell_volume   330.29504300
_cell_formula_units_Z   2
loop_
 _symmetry_equiv_pos_site_id
 _symmetry_equiv_pos_as_xyz
  1  'x, y, z'
loop_
 _atom_site_type_symbol
 _atom_site_label
 _atom_site_symmetry_multiplicity
 _atom_site_fract_x
 _atom_site_fract_y
 _atom_site_fract_z
 _atom_site_occupancy
  Tb  Tb0  1  0.750000  0.968400  0.715465  1
  Tb  Tb1  1  0.250000  0.531600  0.215465  1
  Ho  Ho2  1  0.750000  0.822867  0.056830  1
  Ho  Ho3  1  0.250000  0.677133  0.556830  1
  Ho  Ho4  1  0.750000  0.320940  0.441947  1
  Ho  Ho5  1  0.250000  0.179060  0.941947  1
  Ho  Ho6  1  0.750000  0.467467  0.783385  1
  Ho  Ho7  1  0.250000  0.032533  0.283385  1
  Re  Re8  1  0.750000  0.779240  0.365953  1
  Re  Re9  1  0.250000  0.720760  0.865953  1
  Tc  Tc10  1  0.750000  0.278809  0.134073  1
  Tc  Tc11  1  0.250000  0.221191  0.634073  1
  C  C12  1  0.750000  0.177830  0.951388  1
  C  C13  1  0.250000  0.824130  0.049394  1
  C  C14  1  0.750000  0.675870  0.549394  1
  C  C15  1  0.250000  0.322170  0.451388  1
  C  C16  1  0.750000  0.045027  0.259765  1
  C  C17  1  0.250000  0.454973  0.759765  1
  C  C18  1  0.750000  0.546950  0.241800  1
  C  C19  1  0.250000  0.953050  0.741800  1
