# generated using pymatgen
data_Y5Tm5Si5Pb
_symmetry_space_group_name_H-M   'P 1'
_cell_length_a   8.50156800
_cell_length_b   8.51446812
_cell_length_c   6.34050200
_cell_angle_alpha   90.00000000
_cell_angle_beta   90.00000000
_cell_angle_gamma   120.25178808
_symmetry_Int_Tables_number   1
_chemical_formula_structural   Y5Tm5Si5Pb
_chemical_formula_sum   'Y5 Tm5 Si5 Pb1'
_cell_volume   396.46362377
_cell_formula_units_Z   1
loop_
 _symmetry_equiv_pos_site_id
 _symmetry_equiv_pos_as_xyz
  1  'x, y, z'
loop_
 _atom_site_type_symbol
 _atom_site_label
 _atom_site_symmetry_multiplicity
 _atom_site_fract_x
 _atom_site_fract_y
 _atom_site_fract_z
 _atom_site_occupancy
  Y  Y0  1  0.766779  0.766999  0.250000  1
  Y  Y1  1  0.240614  0.987973  0.250000  1
  Y  Y2  1  0.240224  0.240592  0.750000  1
  Y  Y3  1  0.755758  0.998603  0.750000  1
  Y  Y4  1  0.998269  0.754829  0.750000  1
  Tm  Tm5  1  0.675443  0.330995  0.503517  1
  Tm  Tm6  1  0.330982  0.674981  0.503658  1
  Tm  Tm7  1  0.330982  0.674981  0.996342  1
  Tm  Tm8  1  0.675443  0.330995  0.996483  1
  Tm  Tm9  1  0.987420  0.240990  0.250000  1
  Si  Si10  1  0.604261  0.999172  0.250000  1
  Si  Si11  1  0.998191  0.601908  0.250000  1
  Si  Si12  1  0.604775  0.604848  0.750000  1
  Si  Si13  1  0.394700  0.001720  0.750000  1
  Si  Si14  1  0.001632  0.394813  0.750000  1
  Pb  Pb15  1  0.394528  0.395601  0.250000  1
