# generated using pymatgen
data_HoErCI
_symmetry_space_group_name_H-M   'P 1'
_cell_length_a   3.73026000
_cell_length_b   3.73026043
_cell_length_c   14.65941200
_cell_angle_alpha   90.00000000
_cell_angle_beta   90.00000000
_cell_angle_gamma   119.99997842
_symmetry_Int_Tables_number   1
_chemical_formula_structural   HoErCI
_chemical_formula_sum   'Ho2 Er2 C2 I2'
_cell_volume   176.65483720
_cell_formula_units_Z   2
loop_
 _symmetry_equiv_pos_site_id
 _symmetry_equiv_pos_as_xyz
  1  'x, y, z'
loop_
 _atom_site_type_symbol
 _atom_site_label
 _atom_site_symmetry_multiplicity
 _atom_site_fract_x
 _atom_site_fract_y
 _atom_site_fract_z
 _atom_site_occupancy
  Ho  Ho0  1  0.666667  0.333333  0.914732  1
  Ho  Ho1  1  0.333333  0.666667  0.414732  1
  Er  Er2  1  0.333333  0.666667  0.084840  1
  Er  Er3  1  0.666667  0.333333  0.584840  1
  C  C4  1  0.000000  0.000000  0.000527  1
  C  C5  1  0.000000  0.000000  0.500527  1
  I  I6  1  0.333333  0.666667  0.749901  1
  I  I7  1  0.666667  0.333333  0.249901  1
