# generated using pymatgen
data_Ac2Ho(SnRh)3
_symmetry_space_group_name_H-M   'P 1'
_cell_length_a   7.55769700
_cell_length_b   7.66966260
_cell_length_c   4.24948900
_cell_angle_alpha   90.00000000
_cell_angle_beta   90.00000000
_cell_angle_gamma   119.51825331
_symmetry_Int_Tables_number   1
_chemical_formula_structural   Ac2Ho(SnRh)3
_chemical_formula_sum   'Ac2 Ho1 Sn3 Rh3'
_cell_volume   214.34872892
_cell_formula_units_Z   1
loop_
 _symmetry_equiv_pos_site_id
 _symmetry_equiv_pos_as_xyz
  1  'x, y, z'
loop_
 _atom_site_type_symbol
 _atom_site_label
 _atom_site_symmetry_multiplicity
 _atom_site_fract_x
 _atom_site_fract_y
 _atom_site_fract_z
 _atom_site_occupancy
  Ac  Ac0  1  0.998478  0.414976  0.000000  1
  Ac  Ac1  1  0.583502  0.585024  0.000000  1
  Ho  Ho2  1  0.407716  0.000000  0.000000  1
  Sn  Sn3  1  0.248108  0.235775  0.500000  1
  Sn  Sn4  1  0.012333  0.764225  0.500000  1
  Sn  Sn5  1  0.742281  0.000000  0.500000  1
  Rh  Rh6  1  0.659599  0.321907  0.500000  1
  Rh  Rh7  1  0.337692  0.678093  0.500000  1
  Rh  Rh8  1  0.010291  0.000000  0.000000  1
