# generated using pymatgen
data_LaPr2Sm3RuBr10
_symmetry_space_group_name_H-M   'P 1'
_cell_length_a   7.68579614
_cell_length_b   9.37712596
_cell_length_c   9.66262533
_cell_angle_alpha   109.14217184
_cell_angle_beta   97.18412114
_cell_angle_gamma   105.74768302
_symmetry_Int_Tables_number   1
_chemical_formula_structural   LaPr2Sm3RuBr10
_chemical_formula_sum   'La1 Pr2 Sm3 Ru1 Br10'
_cell_volume   615.39739295
_cell_formula_units_Z   1
loop_
 _symmetry_equiv_pos_site_id
 _symmetry_equiv_pos_as_xyz
  1  'x, y, z'
loop_
 _atom_site_type_symbol
 _atom_site_label
 _atom_site_symmetry_multiplicity
 _atom_site_fract_x
 _atom_site_fract_y
 _atom_site_fract_z
 _atom_site_occupancy
  La  La0  1  0.027534  0.714547  0.910504  1
  Pr  Pr1  1  0.375140  0.149571  0.193185  1
  Pr  Pr2  1  0.970046  0.288131  0.088829  1
  Sm  Sm3  1  0.127455  0.048170  0.749923  1
  Sm  Sm4  1  0.629992  0.855594  0.811272  1
  Sm  Sm5  1  0.869392  0.949938  0.248977  1
  Ru  Ru6  1  0.001003  0.990164  0.997129  1
  Br  Br7  1  0.207207  0.746862  0.648542  1
  Br  Br8  1  0.633829  0.538634  0.722607  1
  Br  Br9  1  0.243407  0.079720  0.454783  1
  Br  Br10  1  0.804914  0.256986  0.353802  1
  Br  Br11  1  0.549229  0.171672  0.915999  1
  Br  Br12  1  0.751092  0.917101  0.548152  1
  Br  Br13  1  0.905659  0.633741  0.174644  1
  Br  Br14  1  0.357047  0.467595  0.275260  1
  Br  Br15  1  0.092192  0.366209  0.827154  1
  Br  Br16  1  0.454861  0.825369  0.079238  1
