# generated using pymatgen
data_RbYbZrF7
_symmetry_space_group_name_H-M   'P 1'
_cell_length_a   6.59445188
_cell_length_b   6.59445066
_cell_length_c   8.58633300
_cell_angle_alpha   90.00000000
_cell_angle_beta   90.00000000
_cell_angle_gamma   116.86484738
_symmetry_Int_Tables_number   1
_chemical_formula_structural   RbYbZrF7
_chemical_formula_sum   'Rb2 Yb2 Zr2 F14'
_cell_volume   333.09368240
_cell_formula_units_Z   2
loop_
 _symmetry_equiv_pos_site_id
 _symmetry_equiv_pos_as_xyz
  1  'x, y, z'
loop_
 _atom_site_type_symbol
 _atom_site_label
 _atom_site_symmetry_multiplicity
 _atom_site_fract_x
 _atom_site_fract_y
 _atom_site_fract_z
 _atom_site_occupancy
  Rb  Rb0  1  0.000000  0.000000  0.000000  1
  Rb  Rb1  1  0.000000  0.000000  0.500000  1
  Yb  Yb2  1  0.307835  0.692165  0.750000  1
  Yb  Yb3  1  0.692165  0.307835  0.250000  1
  Zr  Zr4  1  0.693001  0.306999  0.750000  1
  Zr  Zr5  1  0.306999  0.693001  0.250000  1
  F  F6  1  0.508141  0.491859  0.750000  1
  F  F7  1  0.491859  0.508141  0.250000  1
  F  F8  1  0.700438  0.299562  0.989245  1
  F  F9  1  0.299562  0.700438  0.010755  1
  F  F10  1  0.299562  0.700438  0.489245  1
  F  F11  1  0.700438  0.299562  0.510755  1
  F  F12  1  0.669269  0.973377  0.750000  1
  F  F13  1  0.330731  0.026623  0.250000  1
  F  F14  1  0.026623  0.330731  0.750000  1
  F  F15  1  0.973377  0.669269  0.250000  1
  F  F16  1  0.345636  0.059419  0.750000  1
  F  F17  1  0.654364  0.940581  0.250000  1
  F  F18  1  0.940581  0.654364  0.750000  1
  F  F19  1  0.059419  0.345636  0.250000  1
