# generated using pymatgen
data_Cs3SrInI6
_symmetry_space_group_name_H-M   'P 1'
_cell_length_a   10.52689566
_cell_length_b   10.52689633
_cell_length_c   10.52689517
_cell_angle_alpha   91.78385201
_cell_angle_beta   91.78385093
_cell_angle_gamma   91.78385586
_symmetry_Int_Tables_number   1
_chemical_formula_structural   Cs3SrInI6
_chemical_formula_sum   'Cs6 Sr2 In2 I12'
_cell_volume   1164.81148591
_cell_formula_units_Z   2
loop_
 _symmetry_equiv_pos_site_id
 _symmetry_equiv_pos_as_xyz
  1  'x, y, z'
loop_
 _atom_site_type_symbol
 _atom_site_label
 _atom_site_symmetry_multiplicity
 _atom_site_fract_x
 _atom_site_fract_y
 _atom_site_fract_z
 _atom_site_occupancy
  Cs  Cs0  1  0.250000  0.627935  0.872065  1
  Cs  Cs1  1  0.872065  0.250000  0.627935  1
  Cs  Cs2  1  0.627935  0.872065  0.250000  1
  Cs  Cs3  1  0.750000  0.372065  0.127935  1
  Cs  Cs4  1  0.127935  0.750000  0.372065  1
  Cs  Cs5  1  0.372065  0.127935  0.750000  1
  Sr  Sr6  1  0.000000  0.000000  0.000000  1
  Sr  Sr7  1  0.500000  0.500000  0.500000  1
  In  In8  1  0.250000  0.250000  0.250000  1
  In  In9  1  0.750000  0.750000  0.750000  1
  I  I10  1  0.548358  0.202105  0.418111  1
  I  I11  1  0.418111  0.548358  0.202105  1
  I  I12  1  0.202105  0.418111  0.548358  1
  I  I13  1  0.951642  0.081889  0.297895  1
  I  I14  1  0.297895  0.951642  0.081889  1
  I  I15  1  0.081889  0.297895  0.951642  1
  I  I16  1  0.451642  0.797895  0.581889  1
  I  I17  1  0.581889  0.451642  0.797895  1
  I  I18  1  0.797895  0.581889  0.451642  1
  I  I19  1  0.048358  0.918111  0.702105  1
  I  I20  1  0.918111  0.702105  0.048358  1
  I  I21  1  0.702105  0.048358  0.918111  1
