# generated using pymatgen
data_Lu8Tl3Pd
_symmetry_space_group_name_H-M   'P 1'
_cell_length_a   10.31915700
_cell_length_b   10.31915802
_cell_length_c   6.84776100
_cell_angle_alpha   90.00000000
_cell_angle_beta   90.00000000
_cell_angle_gamma   119.99999993
_symmetry_Int_Tables_number   1
_chemical_formula_structural   Lu8Tl3Pd
_chemical_formula_sum   'Lu16 Tl6 Pd2'
_cell_volume   631.49179100
_cell_formula_units_Z   2
loop_
 _symmetry_equiv_pos_site_id
 _symmetry_equiv_pos_as_xyz
  1  'x, y, z'
loop_
 _atom_site_type_symbol
 _atom_site_label
 _atom_site_symmetry_multiplicity
 _atom_site_fract_x
 _atom_site_fract_y
 _atom_site_fract_z
 _atom_site_occupancy
  Lu  Lu0  1  0.529506  0.059012  0.528475  1
  Lu  Lu1  1  0.940988  0.470494  0.528475  1
  Lu  Lu2  1  0.529506  0.470494  0.528475  1
  Lu  Lu3  1  0.470494  0.940988  0.028475  1
  Lu  Lu4  1  0.059012  0.529506  0.028475  1
  Lu  Lu5  1  0.470494  0.529506  0.028475  1
  Lu  Lu6  1  0.175481  0.350960  0.731198  1
  Lu  Lu7  1  0.649040  0.824519  0.731198  1
  Lu  Lu8  1  0.175481  0.824519  0.731198  1
  Lu  Lu9  1  0.824519  0.649040  0.231198  1
  Lu  Lu10  1  0.350960  0.175481  0.231198  1
  Lu  Lu11  1  0.824519  0.175481  0.231198  1
  Lu  Lu12  1  0.666667  0.333333  0.897742  1
  Lu  Lu13  1  0.333333  0.666667  0.397742  1
  Lu  Lu14  1  0.000000  0.000000  0.503950  1
  Lu  Lu15  1  0.000000  0.000000  0.003950  1
  Tl  Tl16  1  0.837466  0.674932  0.767076  1
  Tl  Tl17  1  0.325068  0.162534  0.767076  1
  Tl  Tl18  1  0.837466  0.162534  0.767076  1
  Tl  Tl19  1  0.162534  0.325068  0.267076  1
  Tl  Tl20  1  0.674932  0.837466  0.267076  1
  Tl  Tl21  1  0.162534  0.837466  0.267076  1
  Pd  Pd22  1  0.666667  0.333333  0.295900  1
  Pd  Pd23  1  0.333333  0.666667  0.795900  1
