# generated using pymatgen
data_IrCl3O
_symmetry_space_group_name_H-M   'P 1'
_cell_length_a   11.81844000
_cell_length_b   11.81844000
_cell_length_c   3.71536400
_cell_angle_alpha   90.00000000
_cell_angle_beta   90.00000000
_cell_angle_gamma   90.00000000
_symmetry_Int_Tables_number   1
_chemical_formula_structural   IrCl3O
_chemical_formula_sum   'Ir4 Cl12 O4'
_cell_volume   518.94541368
_cell_formula_units_Z   4
loop_
 _symmetry_equiv_pos_site_id
 _symmetry_equiv_pos_as_xyz
  1  'x, y, z'
loop_
 _atom_site_type_symbol
 _atom_site_label
 _atom_site_symmetry_multiplicity
 _atom_site_fract_x
 _atom_site_fract_y
 _atom_site_fract_z
 _atom_site_occupancy
  Ir  Ir0  1  0.107734  0.107734  0.000000  1
  Ir  Ir1  1  0.607734  0.392266  0.500000  1
  Ir  Ir2  1  0.892266  0.892266  0.000000  1
  Ir  Ir3  1  0.392266  0.607734  0.500000  1
  Cl  Cl4  1  0.894189  0.697894  0.000000  1
  Cl  Cl5  1  0.598747  0.598747  0.500000  1
  Cl  Cl6  1  0.802106  0.394189  0.500000  1
  Cl  Cl7  1  0.098747  0.901253  0.000000  1
  Cl  Cl8  1  0.401253  0.401253  0.500000  1
  Cl  Cl9  1  0.302106  0.105811  0.000000  1
  Cl  Cl10  1  0.105811  0.302106  0.000000  1
  Cl  Cl11  1  0.394189  0.802106  0.500000  1
  Cl  Cl12  1  0.197894  0.605811  0.500000  1
  Cl  Cl13  1  0.605811  0.197894  0.500000  1
  Cl  Cl14  1  0.697894  0.894189  0.000000  1
  Cl  Cl15  1  0.901253  0.098747  0.000000  1
  O  O16  1  0.602700  0.397300  0.000000  1
  O  O17  1  0.102700  0.102700  0.500000  1
  O  O18  1  0.897300  0.897300  0.500000  1
  O  O19  1  0.397300  0.602700  0.000000  1
