# generated using pymatgen
data_HoCdCu3Pt
_symmetry_space_group_name_H-M   'P 1'
_cell_length_a   5.14075575
_cell_length_b   5.14075560
_cell_length_c   5.19446110
_cell_angle_alpha   60.34142483
_cell_angle_beta   60.34142258
_cell_angle_gamma   59.99999050
_symmetry_Int_Tables_number   1
_chemical_formula_structural   HoCdCu3Pt
_chemical_formula_sum   'Ho1 Cd1 Cu3 Pt1'
_cell_volume   97.56666314
_cell_formula_units_Z   1
loop_
 _symmetry_equiv_pos_site_id
 _symmetry_equiv_pos_as_xyz
  1  'x, y, z'
loop_
 _atom_site_type_symbol
 _atom_site_label
 _atom_site_symmetry_multiplicity
 _atom_site_fract_x
 _atom_site_fract_y
 _atom_site_fract_z
 _atom_site_occupancy
  Ho  Ho0  1  0.748744  0.748744  0.753769  1
  Cd  Cd1  1  0.999772  0.999772  0.000685  1
  Cu  Cu2  1  0.375180  0.876321  0.373318  1
  Cu  Cu3  1  0.375180  0.375180  0.373318  1
  Cu  Cu4  1  0.876321  0.375180  0.373318  1
  Pt  Pt5  1  0.374802  0.374802  0.875593  1
