# generated using pymatgen
data_Tb4Fe3Co13(MoP3)4
_symmetry_space_group_name_H-M   'P 1'
_cell_length_a   3.71439400
_cell_length_b   10.41116578
_cell_length_c   11.88930983
_cell_angle_alpha   90.12176866
_cell_angle_beta   90.00000000
_cell_angle_gamma   90.00000000
_symmetry_Int_Tables_number   1
_chemical_formula_structural   Tb4Fe3Co13(MoP3)4
_chemical_formula_sum   'Tb4 Fe3 Co13 Mo4 P12'
_cell_volume   459.77250340
_cell_formula_units_Z   1
loop_
 _symmetry_equiv_pos_site_id
 _symmetry_equiv_pos_as_xyz
  1  'x, y, z'
loop_
 _atom_site_type_symbol
 _atom_site_label
 _atom_site_symmetry_multiplicity
 _atom_site_fract_x
 _atom_site_fract_y
 _atom_site_fract_z
 _atom_site_occupancy
  Tb  Tb0  1  0.250000  0.582403  0.704856  1
  Tb  Tb1  1  0.250000  0.917638  0.206037  1
  Tb  Tb2  1  0.750000  0.417917  0.294800  1
  Tb  Tb3  1  0.750000  0.081535  0.793749  1
  Fe  Fe4  1  0.250000  0.036495  0.433095  1
  Fe  Fe5  1  0.750000  0.534780  0.065434  1
  Fe  Fe6  1  0.750000  0.963898  0.566924  1
  Co  Co7  1  0.250000  0.406647  0.488963  1
  Co  Co8  1  0.250000  0.093470  0.988693  1
  Co  Co9  1  0.750000  0.593441  0.511517  1
  Co  Co10  1  0.750000  0.906507  0.011497  1
  Co  Co11  1  0.250000  0.223311  0.175846  1
  Co  Co12  1  0.250000  0.276994  0.676807  1
  Co  Co13  1  0.750000  0.777186  0.823782  1
  Co  Co14  1  0.750000  0.722957  0.323702  1
  Co  Co15  1  0.250000  0.884215  0.702277  1
  Co  Co16  1  0.250000  0.614857  0.201028  1
  Co  Co17  1  0.750000  0.115949  0.297795  1
  Co  Co18  1  0.750000  0.385601  0.799272  1
  Co  Co19  1  0.250000  0.463789  0.932388  1
  Mo  Mo20  1  0.250000  0.707266  0.989319  1
  Mo  Mo21  1  0.250000  0.793898  0.489464  1
  Mo  Mo22  1  0.750000  0.292645  0.011306  1
  Mo  Mo23  1  0.750000  0.206282  0.510518  1
  P  P24  1  0.250000  0.423224  0.114196  1
  P  P25  1  0.250000  0.076008  0.613258  1
  P  P26  1  0.750000  0.578772  0.886155  1
  P  P27  1  0.750000  0.924007  0.386682  1
  P  P28  1  0.250000  0.268672  0.863962  1
  P  P29  1  0.250000  0.229978  0.363590  1
  P  P30  1  0.750000  0.729341  0.136568  1
  P  P31  1  0.750000  0.770213  0.636097  1
  P  P32  1  0.250000  0.596846  0.391524  1
  P  P33  1  0.250000  0.903342  0.891756  1
  P  P34  1  0.750000  0.403521  0.608597  1
  P  P35  1  0.750000  0.096395  0.108543  1
