# generated using pymatgen
data_Er3Zr(Co3Si5)2
_symmetry_space_group_name_H-M   'P 1'
_cell_length_a   5.49695959
_cell_length_b   7.80571764
_cell_length_c   7.80905167
_cell_angle_alpha   74.72833634
_cell_angle_beta   69.39392422
_cell_angle_gamma   69.38536903
_symmetry_Int_Tables_number   1
_chemical_formula_structural   Er3Zr(Co3Si5)2
_chemical_formula_sum   'Er3 Zr1 Co6 Si10'
_cell_volume   289.80524707
_cell_formula_units_Z   1
loop_
 _symmetry_equiv_pos_site_id
 _symmetry_equiv_pos_as_xyz
  1  'x, y, z'
loop_
 _atom_site_type_symbol
 _atom_site_label
 _atom_site_symmetry_multiplicity
 _atom_site_fract_x
 _atom_site_fract_y
 _atom_site_fract_z
 _atom_site_occupancy
  Er  Er0  1  0.633867  0.133496  0.598675  1
  Er  Er1  1  0.865795  0.399645  0.868813  1
  Er  Er2  1  0.135776  0.597048  0.131496  1
  Zr  Zr3  1  0.364973  0.867076  0.402878  1
  Co  Co4  1  0.751418  0.997509  0.998493  1
  Co  Co5  1  0.252569  0.997500  0.998515  1
  Co  Co6  1  0.136587  0.258139  0.468650  1
  Co  Co7  1  0.860492  0.754121  0.524922  1
  Co  Co8  1  0.637048  0.467084  0.258854  1
  Co  Co9  1  0.361744  0.527856  0.748663  1
  Si  Si10  1  0.744245  0.507606  0.503649  1
  Si  Si11  1  0.244520  0.507596  0.503645  1
  Si  Si12  1  0.523729  0.222477  0.225458  1
  Si  Si13  1  0.977425  0.771789  0.771125  1
  Si  Si14  1  0.479695  0.771783  0.771107  1
  Si  Si15  1  0.028329  0.222446  0.225463  1
  Si  Si16  1  0.103347  0.056976  0.736308  1
  Si  Si17  1  0.900712  0.941008  0.257473  1
  Si  Si18  1  0.597913  0.739640  0.064612  1
  Si  Si19  1  0.399818  0.259203  0.941201  1
