# generated using pymatgen
data_ThCo3P2
_symmetry_space_group_name_H-M   'P 1'
_cell_length_a   3.82538200
_cell_length_b   10.57959700
_cell_length_c   12.43792100
_cell_angle_alpha   90.00000000
_cell_angle_beta   90.00000000
_cell_angle_gamma   90.00000000
_symmetry_Int_Tables_number   1
_chemical_formula_structural   ThCo3P2
_chemical_formula_sum   'Th6 Co18 P12'
_cell_volume   503.37509993
_cell_formula_units_Z   6
loop_
 _symmetry_equiv_pos_site_id
 _symmetry_equiv_pos_as_xyz
  1  'x, y, z'
loop_
 _atom_site_type_symbol
 _atom_site_label
 _atom_site_symmetry_multiplicity
 _atom_site_fract_x
 _atom_site_fract_y
 _atom_site_fract_z
 _atom_site_occupancy
  Th  Th0  1  0.000000  0.500000  0.521088  1
  Th  Th1  1  0.500000  0.000000  0.478912  1
  Th  Th2  1  0.500000  0.814798  0.207040  1
  Th  Th3  1  0.500000  0.185202  0.207040  1
  Th  Th4  1  0.000000  0.685202  0.792960  1
  Th  Th5  1  0.000000  0.314798  0.792960  1
  Co  Co6  1  0.500000  0.500000  0.157749  1
  Co  Co7  1  0.000000  0.000000  0.842251  1
  Co  Co8  1  0.500000  0.500000  0.704117  1
  Co  Co9  1  0.000000  0.000000  0.295883  1
  Co  Co10  1  0.000000  0.500000  0.983922  1
  Co  Co11  1  0.500000  0.000000  0.016078  1
  Co  Co12  1  0.500000  0.333996  0.995738  1
  Co  Co13  1  0.500000  0.666004  0.995738  1
  Co  Co14  1  0.000000  0.166004  0.004262  1
  Co  Co15  1  0.000000  0.833996  0.004262  1
  Co  Co16  1  0.500000  0.300611  0.428189  1
  Co  Co17  1  0.500000  0.699389  0.428189  1
  Co  Co18  1  0.000000  0.199389  0.571811  1
  Co  Co19  1  0.000000  0.800611  0.571811  1
  Co  Co20  1  0.500000  0.881369  0.713962  1
  Co  Co21  1  0.500000  0.118631  0.713962  1
  Co  Co22  1  0.000000  0.618631  0.286038  1
  Co  Co23  1  0.000000  0.381369  0.286038  1
  P  P24  1  0.500000  0.500000  0.885569  1
  P  P25  1  0.000000  0.000000  0.114431  1
  P  P26  1  0.500000  0.500000  0.338311  1
  P  P27  1  0.000000  0.000000  0.661689  1
  P  P28  1  0.500000  0.305660  0.612168  1
  P  P29  1  0.500000  0.694340  0.612168  1
  P  P30  1  0.000000  0.194340  0.387832  1
  P  P31  1  0.000000  0.805660  0.387832  1
  P  P32  1  0.500000  0.849958  0.897838  1
  P  P33  1  0.500000  0.150042  0.897838  1
  P  P34  1  0.000000  0.650042  0.102162  1
  P  P35  1  0.000000  0.349958  0.102162  1
