# generated using pymatgen
data_Sc10As6C
_symmetry_space_group_name_H-M   'P 1'
_cell_length_a   7.91670800
_cell_length_b   7.91670642
_cell_length_c   5.83542900
_cell_angle_alpha   90.00000000
_cell_angle_beta   90.00000000
_cell_angle_gamma   119.99999823
_symmetry_Int_Tables_number   1
_chemical_formula_structural   Sc10As6C
_chemical_formula_sum   'Sc10 As6 C1'
_cell_volume   316.73247596
_cell_formula_units_Z   1
loop_
 _symmetry_equiv_pos_site_id
 _symmetry_equiv_pos_as_xyz
  1  'x, y, z'
loop_
 _atom_site_type_symbol
 _atom_site_label
 _atom_site_symmetry_multiplicity
 _atom_site_fract_x
 _atom_site_fract_y
 _atom_site_fract_z
 _atom_site_occupancy
  Sc  Sc0  1  0.000000  0.767642  0.268223  1
  Sc  Sc1  1  0.232358  0.232358  0.268223  1
  Sc  Sc2  1  0.767642  0.000000  0.268223  1
  Sc  Sc3  1  0.000000  0.232358  0.731777  1
  Sc  Sc4  1  0.767642  0.767642  0.731777  1
  Sc  Sc5  1  0.232358  0.000000  0.731777  1
  Sc  Sc6  1  0.333333  0.666667  0.000000  1
  Sc  Sc7  1  0.666667  0.333333  0.000000  1
  Sc  Sc8  1  0.666667  0.333333  0.500000  1
  Sc  Sc9  1  0.333333  0.666667  0.500000  1
  As  As10  1  0.000000  0.397983  0.250447  1
  As  As11  1  0.602017  0.602017  0.250447  1
  As  As12  1  0.397983  0.000000  0.250447  1
  As  As13  1  0.000000  0.602017  0.749553  1
  As  As14  1  0.397983  0.397983  0.749553  1
  As  As15  1  0.602017  0.000000  0.749553  1
  C  C16  1  0.000000  0.000000  0.500000  1
