# generated using pymatgen
data_MgBi4Te4(RhO8)3
_symmetry_space_group_name_H-M   'P 1'
_cell_length_a   5.30595309
_cell_length_b   9.18449100
_cell_length_c   10.01686617
_cell_angle_alpha   89.99937292
_cell_angle_beta   89.97899454
_cell_angle_gamma   89.99962552
_symmetry_Int_Tables_number   1
_chemical_formula_structural   MgBi4Te4(RhO8)3
_chemical_formula_sum   'Mg1 Bi4 Te4 Rh3 O24'
_cell_volume   488.14668179
_cell_formula_units_Z   1
loop_
 _symmetry_equiv_pos_site_id
 _symmetry_equiv_pos_as_xyz
  1  'x, y, z'
loop_
 _atom_site_type_symbol
 _atom_site_label
 _atom_site_symmetry_multiplicity
 _atom_site_fract_x
 _atom_site_fract_y
 _atom_site_fract_z
 _atom_site_occupancy
  Mg  Mg0  1  0.500008  0.832420  0.749997  1
  Bi  Bi1  1  0.992961  0.994675  0.507734  1
  Bi  Bi2  1  0.509225  0.505529  0.508554  1
  Bi  Bi3  1  0.007052  0.994669  0.992262  1
  Bi  Bi4  1  0.490777  0.505529  0.991446  1
  Te  Te5  1  0.499995  0.164253  0.749998  1
  Te  Te6  1  0.000004  0.668692  0.749999  1
  Te  Te7  1  0.999997  0.331245  0.250000  1
  Te  Te8  1  0.500001  0.834313  0.250006  1
  Rh  Rh9  1  0.499990  0.167191  0.249996  1
  Rh  Rh10  1  0.999986  0.334187  0.750005  1
  Rh  Rh11  1  0.000013  0.666078  0.250002  1
  O  O12  1  0.631127  0.009618  0.638058  1
  O  O13  1  0.138901  0.503673  0.642471  1
  O  O14  1  0.676152  0.318968  0.642731  1
  O  O15  1  0.169078  0.810940  0.639190  1
  O  O16  1  0.188913  0.180964  0.641543  1
  O  O17  1  0.695835  0.676865  0.639560  1
  O  O18  1  0.177786  0.184684  0.139656  1
  O  O19  1  0.677138  0.686573  0.140601  1
  O  O20  1  0.132448  0.495979  0.140880  1
  O  O21  1  0.636010  0.995724  0.141408  1
  O  O22  1  0.688168  0.317860  0.141433  1
  O  O23  1  0.189785  0.818742  0.139840  1
  O  O24  1  0.867533  0.495978  0.359124  1
  O  O25  1  0.363983  0.995729  0.358572  1
  O  O26  1  0.822192  0.184683  0.360342  1
  O  O27  1  0.322881  0.686585  0.359395  1
  O  O28  1  0.311807  0.317859  0.358566  1
  O  O29  1  0.810232  0.818744  0.360171  1
  O  O30  1  0.323851  0.318985  0.857272  1
  O  O31  1  0.830932  0.810939  0.860809  1
  O  O32  1  0.368892  0.009617  0.861954  1
  O  O33  1  0.861095  0.503680  0.857535  1
  O  O34  1  0.811070  0.180962  0.858458  1
  O  O35  1  0.304180  0.676868  0.860433  1
