# generated using pymatgen
data_Th4ZnIn4Cu19
_symmetry_space_group_name_H-M   'P 1'
_cell_length_a   5.09676023
_cell_length_b   8.37077430
_cell_length_c   10.63660911
_cell_angle_alpha   89.99541016
_cell_angle_beta   90.01620733
_cell_angle_gamma   90.03011861
_symmetry_Int_Tables_number   1
_chemical_formula_structural   Th4ZnIn4Cu19
_chemical_formula_sum   'Th4 Zn1 In4 Cu19'
_cell_volume   453.79839544
_cell_formula_units_Z   1
loop_
 _symmetry_equiv_pos_site_id
 _symmetry_equiv_pos_as_xyz
  1  'x, y, z'
loop_
 _atom_site_type_symbol
 _atom_site_label
 _atom_site_symmetry_multiplicity
 _atom_site_fract_x
 _atom_site_fract_y
 _atom_site_fract_z
 _atom_site_occupancy
  Th  Th0  1  0.749035  0.245330  0.937344  1
  Th  Th1  1  0.251263  0.754851  0.056088  1
  Th  Th2  1  0.750971  0.747312  0.559726  1
  Th  Th3  1  0.250614  0.251825  0.444751  1
  Zn  Zn4  1  0.994731  0.432004  0.187320  1
  In  In5  1  0.750413  0.361366  0.639162  1
  In  In6  1  0.252911  0.640332  0.362320  1
  In  In7  1  0.750557  0.860583  0.860970  1
  In  In8  1  0.254727  0.135323  0.138863  1
  Cu  Cu9  1  0.501748  0.568184  0.812062  1
  Cu  Cu10  1  0.499520  0.933078  0.312855  1
  Cu  Cu11  1  0.999263  0.067448  0.687339  1
  Cu  Cu12  1  0.999174  0.567826  0.812472  1
  Cu  Cu13  1  0.493802  0.432247  0.188368  1
  Cu  Cu14  1  0.501478  0.067431  0.687431  1
  Cu  Cu15  1  0.001475  0.932126  0.312667  1
  Cu  Cu16  1  0.747189  0.438688  0.395606  1
  Cu  Cu17  1  0.250159  0.561987  0.606584  1
  Cu  Cu18  1  0.751199  0.938369  0.106070  1
  Cu  Cu19  1  0.249596  0.062440  0.893329  1
  Cu  Cu20  1  0.750998  0.181708  0.255268  1
  Cu  Cu21  1  0.250404  0.818365  0.744987  1
  Cu  Cu22  1  0.747718  0.684461  0.245627  1
  Cu  Cu23  1  0.250171  0.318580  0.754066  1
  Cu  Cu24  1  0.750506  0.083490  0.483648  1
  Cu  Cu25  1  0.250598  0.916010  0.516385  1
  Cu  Cu26  1  0.748662  0.582668  0.016074  1
  Cu  Cu27  1  0.251117  0.415968  0.982615  1
