# generated using pymatgen
data_Ba4FeCoIrO10
_symmetry_space_group_name_H-M   'P 1'
_cell_length_a   7.27276981
_cell_length_b   7.27277044
_cell_length_c   13.17930900
_cell_angle_alpha   90.00000000
_cell_angle_beta   90.00000000
_cell_angle_gamma   132.54927373
_symmetry_Int_Tables_number   1
_chemical_formula_structural   Ba4FeCoIrO10
_chemical_formula_sum   'Ba8 Fe2 Co2 Ir2 O20'
_cell_volume   513.54760958
_cell_formula_units_Z   2
loop_
 _symmetry_equiv_pos_site_id
 _symmetry_equiv_pos_as_xyz
  1  'x, y, z'
loop_
 _atom_site_type_symbol
 _atom_site_label
 _atom_site_symmetry_multiplicity
 _atom_site_fract_x
 _atom_site_fract_y
 _atom_site_fract_z
 _atom_site_occupancy
  Ba  Ba0  1  0.483175  0.516825  0.887493  1
  Ba  Ba1  1  0.012302  0.987698  0.110192  1
  Ba  Ba2  1  0.516825  0.483175  0.387493  1
  Ba  Ba3  1  0.987698  0.012302  0.610192  1
  Ba  Ba4  1  0.282765  0.717235  0.634506  1
  Ba  Ba5  1  0.216416  0.783584  0.359908  1
  Ba  Ba6  1  0.717235  0.282765  0.134506  1
  Ba  Ba7  1  0.783584  0.216416  0.859908  1
  Fe  Fe8  1  0.619349  0.380652  0.645059  1
  Fe  Fe9  1  0.380651  0.619349  0.145059  1
  Co  Co10  1  0.747815  0.252185  0.503734  1
  Co  Co11  1  0.252185  0.747815  0.003734  1
  Ir  Ir12  1  0.873054  0.126946  0.350911  1
  Ir  Ir13  1  0.126946  0.873054  0.850911  1
  O  O14  1  0.781646  0.218354  0.645903  1
  O  O15  1  0.720687  0.279313  0.355597  1
  O  O16  1  0.218354  0.781646  0.145903  1
  O  O17  1  0.279313  0.720687  0.855597  1
  O  O18  1  0.421452  0.130069  0.530363  1
  O  O19  1  0.633949  0.920952  0.464530  1
  O  O20  1  0.130069  0.421452  0.030363  1
  O  O21  1  0.920952  0.633949  0.964530  1
  O  O22  1  0.079048  0.366051  0.464530  1
  O  O23  1  0.869931  0.578548  0.530363  1
  O  O24  1  0.366051  0.079048  0.964530  1
  O  O25  1  0.578548  0.869931  0.030363  1
  O  O26  1  0.476385  0.523615  0.660228  1
  O  O27  1  0.017927  0.982073  0.352871  1
  O  O28  1  0.523615  0.476385  0.160228  1
  O  O29  1  0.982073  0.017927  0.852871  1
  O  O30  1  0.370515  0.112122  0.751909  1
  O  O31  1  0.629485  0.887878  0.251909  1
  O  O32  1  0.112122  0.370515  0.251909  1
  O  O33  1  0.887878  0.629485  0.751909  1
