# generated using pymatgen
data_TbY3(TcC2)2
_symmetry_space_group_name_H-M   'P 1'
_cell_length_a   5.11481700
_cell_length_b   6.59112200
_cell_length_c   9.91929700
_cell_angle_alpha   90.00000000
_cell_angle_beta   90.00000000
_cell_angle_gamma   90.00000000
_symmetry_Int_Tables_number   1
_chemical_formula_structural   TbY3(TcC2)2
_chemical_formula_sum   'Tb2 Y6 Tc4 C8'
_cell_volume   334.40313811
_cell_formula_units_Z   2
loop_
 _symmetry_equiv_pos_site_id
 _symmetry_equiv_pos_as_xyz
  1  'x, y, z'
loop_
 _atom_site_type_symbol
 _atom_site_label
 _atom_site_symmetry_multiplicity
 _atom_site_fract_x
 _atom_site_fract_y
 _atom_site_fract_z
 _atom_site_occupancy
  Tb  Tb0  1  0.750000  0.531711  0.784380  1
  Tb  Tb1  1  0.250000  0.968289  0.284380  1
  Y  Y2  1  0.750000  0.677747  0.442530  1
  Y  Y3  1  0.250000  0.822253  0.942530  1
  Y  Y4  1  0.750000  0.178635  0.057527  1
  Y  Y5  1  0.250000  0.321365  0.557527  1
  Y  Y6  1  0.250000  0.467918  0.215807  1
  Y  Y7  1  0.750000  0.032082  0.715807  1
  Tc  Tc8  1  0.250000  0.279229  0.864848  1
  Tc  Tc9  1  0.250000  0.778935  0.635009  1
  Tc  Tc10  1  0.750000  0.220771  0.364848  1
  Tc  Tc11  1  0.750000  0.721065  0.135009  1
  C  C12  1  0.250000  0.678862  0.453021  1
  C  C13  1  0.250000  0.546135  0.758641  1
  C  C14  1  0.750000  0.454050  0.241208  1
  C  C15  1  0.750000  0.821138  0.953021  1
  C  C16  1  0.250000  0.045950  0.741208  1
  C  C17  1  0.250000  0.179658  0.047029  1
  C  C18  1  0.750000  0.320342  0.547029  1
  C  C19  1  0.750000  0.953865  0.258641  1
