# generated using pymatgen
data_Co8Mo12As4CN3
_symmetry_space_group_name_H-M   'P 1'
_cell_length_a   7.86613669
_cell_length_b   7.88209835
_cell_length_c   7.86577932
_cell_angle_alpha   60.06386096
_cell_angle_beta   59.99422167
_cell_angle_gamma   60.06344845
_symmetry_Int_Tables_number   1
_chemical_formula_structural   Co8Mo12As4CN3
_chemical_formula_sum   'Co8 Mo12 As4 C1 N3'
_cell_volume   345.16621153
_cell_formula_units_Z   1
loop_
 _symmetry_equiv_pos_site_id
 _symmetry_equiv_pos_as_xyz
  1  'x, y, z'
loop_
 _atom_site_type_symbol
 _atom_site_label
 _atom_site_symmetry_multiplicity
 _atom_site_fract_x
 _atom_site_fract_y
 _atom_site_fract_z
 _atom_site_occupancy
  Co  Co0  1  0.252179  0.915340  0.916248  1
  Co  Co1  1  0.916142  0.251712  0.916094  1
  Co  Co2  1  0.916309  0.915348  0.916271  1
  Co  Co3  1  0.916267  0.915317  0.252223  1
  Co  Co4  1  0.997706  0.334719  0.333792  1
  Co  Co5  1  0.333875  0.334772  0.997538  1
  Co  Co6  1  0.334056  0.997935  0.334008  1
  Co  Co7  1  0.333874  0.334787  0.333844  1
  Mo  Mo8  1  0.692214  0.307685  0.692122  1
  Mo  Mo9  1  0.557886  0.558632  0.941725  1
  Mo  Mo10  1  0.557839  0.942252  0.557906  1
  Mo  Mo11  1  0.941830  0.942156  0.558047  1
  Mo  Mo12  1  0.941669  0.558659  0.557969  1
  Mo  Mo13  1  0.941610  0.558763  0.941619  1
  Mo  Mo14  1  0.692303  0.307618  0.307946  1
  Mo  Mo15  1  0.308026  0.691617  0.308004  1
  Mo  Mo16  1  0.307850  0.307509  0.692359  1
  Mo  Mo17  1  0.308103  0.691526  0.692329  1
  Mo  Mo18  1  0.692265  0.691368  0.308205  1
  Mo  Mo19  1  0.557968  0.942183  0.941899  1
  As  As20  1  0.624911  0.125100  0.124979  1
  As  As21  1  0.125034  0.125082  0.624884  1
  As  As22  1  0.125091  0.624802  0.125026  1
  As  As23  1  0.125096  0.125107  0.124975  1
  C  C24  1  0.624897  0.125128  0.624957  1
  N  N25  1  0.624929  0.624999  0.624990  1
  N  N26  1  0.125175  0.624925  0.624922  1
  N  N27  1  0.624896  0.624962  0.125121  1
