# generated using pymatgen
data_SrPtRhO6
_symmetry_space_group_name_H-M   'P 1'
_cell_length_a   5.28918800
_cell_length_b   5.28918872
_cell_length_c   5.37782800
_cell_angle_alpha   90.00000000
_cell_angle_beta   90.00000000
_cell_angle_gamma   119.99999552
_symmetry_Int_Tables_number   1
_chemical_formula_structural   SrPtRhO6
_chemical_formula_sum   'Sr1 Pt1 Rh1 O6'
_cell_volume   130.29136259
_cell_formula_units_Z   1
loop_
 _symmetry_equiv_pos_site_id
 _symmetry_equiv_pos_as_xyz
  1  'x, y, z'
loop_
 _atom_site_type_symbol
 _atom_site_label
 _atom_site_symmetry_multiplicity
 _atom_site_fract_x
 _atom_site_fract_y
 _atom_site_fract_z
 _atom_site_occupancy
  Sr  Sr0  1  0.333333  0.666667  0.000000  1
  Pt  Pt1  1  0.000000  0.000000  0.500000  1
  Rh  Rh2  1  0.666667  0.333333  0.500000  1
  O  O3  1  0.703426  0.039239  0.700905  1
  O  O4  1  0.960761  0.664187  0.700905  1
  O  O5  1  0.335813  0.296574  0.700905  1
  O  O6  1  0.703426  0.664187  0.299095  1
  O  O7  1  0.335813  0.039239  0.299095  1
  O  O8  1  0.960761  0.296574  0.299095  1
