# generated using pymatgen
data_Na3Yb(ZnPt3)2
_symmetry_space_group_name_H-M   'P 1'
_cell_length_a   5.23351580
_cell_length_b   5.44323693
_cell_length_c   9.34641700
_cell_angle_alpha   73.07055770
_cell_angle_beta   92.68950742
_cell_angle_gamma   121.33470206
_symmetry_Int_Tables_number   1
_chemical_formula_structural   Na3Yb(ZnPt3)2
_chemical_formula_sum   'Na3 Yb1 Zn2 Pt6'
_cell_volume   215.77699575
_cell_formula_units_Z   1
loop_
 _symmetry_equiv_pos_site_id
 _symmetry_equiv_pos_as_xyz
  1  'x, y, z'
loop_
 _atom_site_type_symbol
 _atom_site_label
 _atom_site_symmetry_multiplicity
 _atom_site_fract_x
 _atom_site_fract_y
 _atom_site_fract_z
 _atom_site_occupancy
  Na  Na0  1  0.804327  0.121100  0.562129  1
  Na  Na1  1  0.195089  0.875474  0.444139  1
  Na  Na2  1  0.692057  0.879590  0.932877  1
  Yb  Yb3  1  0.301130  0.121176  0.058777  1
  Zn  Zn4  1  0.244787  0.495740  0.253309  1
  Zn  Zn5  1  0.758407  0.505571  0.747265  1
  Pt  Pt6  1  0.000541  0.500203  0.000137  1
  Pt  Pt7  1  0.500502  0.499993  0.500518  1
  Pt  Pt8  1  0.745719  0.998192  0.246912  1
  Pt  Pt9  1  0.255860  0.003092  0.753514  1
  Pt  Pt10  1  0.745719  0.500615  0.246912  1
  Pt  Pt11  1  0.255860  0.499255  0.753514  1
