# generated using pymatgen
data_Y3Er3Tm4Cd3Ru
_symmetry_space_group_name_H-M   'P 1'
_cell_length_a   9.54102500
_cell_length_b   9.54102473
_cell_length_c   9.76146500
_cell_angle_alpha   90.00000000
_cell_angle_beta   90.00000000
_cell_angle_gamma   119.99999748
_symmetry_Int_Tables_number   1
_chemical_formula_structural   Y3Er3Tm4Cd3Ru
_chemical_formula_sum   'Y6 Er6 Tm8 Cd6 Ru2'
_cell_volume   769.54797427
_cell_formula_units_Z   2
loop_
 _symmetry_equiv_pos_site_id
 _symmetry_equiv_pos_as_xyz
  1  'x, y, z'
loop_
 _atom_site_type_symbol
 _atom_site_label
 _atom_site_symmetry_multiplicity
 _atom_site_fract_x
 _atom_site_fract_y
 _atom_site_fract_z
 _atom_site_occupancy
  Y  Y0  1  0.540642  0.459358  0.249899  1
  Y  Y1  1  0.540642  0.081284  0.249899  1
  Y  Y2  1  0.918716  0.459358  0.249899  1
  Y  Y3  1  0.459358  0.540642  0.750101  1
  Y  Y4  1  0.459358  0.918716  0.750101  1
  Y  Y5  1  0.081284  0.540642  0.750101  1
  Er  Er6  1  0.209883  0.790117  0.440105  1
  Er  Er7  1  0.209883  0.419766  0.440105  1
  Er  Er8  1  0.580234  0.790117  0.440105  1
  Er  Er9  1  0.790117  0.209883  0.559895  1
  Er  Er10  1  0.790117  0.580234  0.559895  1
  Er  Er11  1  0.419766  0.209883  0.559895  1
  Tm  Tm12  1  0.000000  0.000000  0.500000  1
  Tm  Tm13  1  0.000000  0.000000  0.000000  1
  Tm  Tm14  1  0.790055  0.209945  0.940139  1
  Tm  Tm15  1  0.790055  0.580109  0.940139  1
  Tm  Tm16  1  0.419891  0.209945  0.940139  1
  Tm  Tm17  1  0.209945  0.790055  0.059861  1
  Tm  Tm18  1  0.209945  0.419891  0.059861  1
  Tm  Tm19  1  0.580109  0.790055  0.059861  1
  Cd  Cd20  1  0.885875  0.114125  0.249958  1
  Cd  Cd21  1  0.885875  0.771750  0.249958  1
  Cd  Cd22  1  0.228250  0.114125  0.249958  1
  Cd  Cd23  1  0.114125  0.885875  0.750042  1
  Cd  Cd24  1  0.114125  0.228250  0.750042  1
  Cd  Cd25  1  0.771750  0.885875  0.750042  1
  Ru  Ru26  1  0.333333  0.666667  0.249851  1
  Ru  Ru27  1  0.666667  0.333333  0.750149  1
