# generated using pymatgen
data_Ba4Ni3P4Ru
_symmetry_space_group_name_H-M   'P 1'
_cell_length_a   6.25623491
_cell_length_b   6.25363725
_cell_length_c   7.52210699
_cell_angle_alpha   89.31448625
_cell_angle_beta   89.44228786
_cell_angle_gamma   105.90549429
_symmetry_Int_Tables_number   1
_chemical_formula_structural   Ba4Ni3P4Ru
_chemical_formula_sum   'Ba4 Ni3 P4 Ru1'
_cell_volume   282.98329300
_cell_formula_units_Z   1
loop_
 _symmetry_equiv_pos_site_id
 _symmetry_equiv_pos_as_xyz
  1  'x, y, z'
loop_
 _atom_site_type_symbol
 _atom_site_label
 _atom_site_symmetry_multiplicity
 _atom_site_fract_x
 _atom_site_fract_y
 _atom_site_fract_z
 _atom_site_occupancy
  Ba  Ba0  1  0.187330  0.817982  0.508336  1
  Ba  Ba1  1  0.679495  0.312312  0.993084  1
  Ba  Ba2  1  0.819063  0.189378  0.486653  1
  Ba  Ba3  1  0.312968  0.682592  0.012663  1
  Ni  Ni4  1  0.381234  0.384630  0.618961  1
  Ni  Ni5  1  0.620250  0.617149  0.382679  1
  Ni  Ni6  1  0.122697  0.117511  0.121175  1
  P  P7  1  0.168902  0.188210  0.826162  1
  P  P8  1  0.663350  0.674691  0.668536  1
  P  P9  1  0.835327  0.815790  0.177467  1
  P  P10  1  0.335597  0.316519  0.327483  1
  Ru  Ru11  1  0.873787  0.883233  0.876802  1
