# generated using pymatgen
data_Dy2Y2Os7W
_symmetry_space_group_name_H-M   'P 1'
_cell_length_a   5.30557404
_cell_length_b   5.30554250
_cell_length_c   8.89966000
_cell_angle_alpha   90.00259565
_cell_angle_beta   89.99741245
_cell_angle_gamma   117.98537402
_symmetry_Int_Tables_number   1
_chemical_formula_structural   Dy2Y2Os7W
_chemical_formula_sum   'Dy2 Y2 Os7 W1'
_cell_volume   221.22257750
_cell_formula_units_Z   1
loop_
 _symmetry_equiv_pos_site_id
 _symmetry_equiv_pos_as_xyz
  1  'x, y, z'
loop_
 _atom_site_type_symbol
 _atom_site_label
 _atom_site_symmetry_multiplicity
 _atom_site_fract_x
 _atom_site_fract_y
 _atom_site_fract_z
 _atom_site_occupancy
  Dy  Dy0  1  0.666099  0.333901  0.933688  1
  Dy  Dy1  1  0.328675  0.671322  0.062006  1
  Y  Y2  1  0.328723  0.671276  0.437411  1
  Y  Y3  1  0.666187  0.333815  0.566704  1
  Os  Os4  1  0.992419  0.007579  0.502606  1
  Os  Os5  1  0.992164  0.007831  0.997472  1
  Os  Os6  1  0.824839  0.649189  0.249769  1
  Os  Os7  1  0.350813  0.175162  0.249769  1
  Os  Os8  1  0.178128  0.821874  0.750266  1
  Os  Os9  1  0.172463  0.337838  0.750229  1
  Os  Os10  1  0.662163  0.827538  0.750230  1
  W  W11  1  0.837324  0.162677  0.249851  1
