# generated using pymatgen
data_Sm7Dy(Si3Pt)4
_symmetry_space_group_name_H-M   'P 1'
_cell_length_a   8.19462523
_cell_length_b   8.20315576
_cell_length_c   8.38851600
_cell_angle_alpha   90.00000000
_cell_angle_beta   90.00000000
_cell_angle_gamma   120.03443563
_symmetry_Int_Tables_number   1
_chemical_formula_structural   Sm7Dy(Si3Pt)4
_chemical_formula_sum   'Sm7 Dy1 Si12 Pt4'
_cell_volume   488.17442162
_cell_formula_units_Z   1
loop_
 _symmetry_equiv_pos_site_id
 _symmetry_equiv_pos_as_xyz
  1  'x, y, z'
loop_
 _atom_site_type_symbol
 _atom_site_label
 _atom_site_symmetry_multiplicity
 _atom_site_fract_x
 _atom_site_fract_y
 _atom_site_fract_z
 _atom_site_occupancy
  Sm  Sm0  1  0.000100  0.000050  0.250000  1
  Sm  Sm1  1  0.999970  0.999986  0.750000  1
  Sm  Sm2  1  0.500535  0.499302  0.250000  1
  Sm  Sm3  1  0.500535  0.001234  0.250000  1
  Sm  Sm4  1  0.998753  0.499376  0.250000  1
  Sm  Sm5  1  0.499315  0.500795  0.750000  1
  Sm  Sm6  1  0.499315  0.998519  0.750000  1
  Dy  Dy7  1  0.001260  0.500629  0.750000  1
  Si  Si8  1  0.165454  0.834231  0.499874  1
  Si  Si9  1  0.165454  0.331225  0.499874  1
  Si  Si10  1  0.667889  0.833945  0.498394  1
  Si  Si11  1  0.834556  0.165755  0.501879  1
  Si  Si12  1  0.834556  0.668801  0.501879  1
  Si  Si13  1  0.332172  0.166086  0.500800  1
  Si  Si14  1  0.834556  0.165755  0.998121  1
  Si  Si15  1  0.834556  0.668801  0.998121  1
  Si  Si16  1  0.332172  0.166086  0.999200  1
  Si  Si17  1  0.165454  0.834231  0.000126  1
  Si  Si18  1  0.165454  0.331225  0.000126  1
  Si  Si19  1  0.667889  0.833945  0.001606  1
  Pt  Pt20  1  0.331750  0.665875  0.501914  1
  Pt  Pt21  1  0.668277  0.334137  0.504185  1
  Pt  Pt22  1  0.668277  0.334137  0.995815  1
  Pt  Pt23  1  0.331750  0.665875  0.998086  1
