# generated using pymatgen
data_FeRh6W
_symmetry_space_group_name_H-M   'P 1'
_cell_length_a   5.49383900
_cell_length_b   5.49383863
_cell_length_c   4.36098700
_cell_angle_alpha   90.00000000
_cell_angle_beta   90.00000000
_cell_angle_gamma   119.99999621
_symmetry_Int_Tables_number   1
_chemical_formula_structural   FeRh6W
_chemical_formula_sum   'Fe1 Rh6 W1'
_cell_volume   113.99013479
_cell_formula_units_Z   1
loop_
 _symmetry_equiv_pos_site_id
 _symmetry_equiv_pos_as_xyz
  1  'x, y, z'
loop_
 _atom_site_type_symbol
 _atom_site_label
 _atom_site_symmetry_multiplicity
 _atom_site_fract_x
 _atom_site_fract_y
 _atom_site_fract_z
 _atom_site_occupancy
  Fe  Fe0  1  0.666667  0.333333  0.250000  1
  Rh  Rh1  1  0.166392  0.332783  0.250000  1
  Rh  Rh2  1  0.667217  0.833608  0.250000  1
  Rh  Rh3  1  0.166392  0.833608  0.250000  1
  Rh  Rh4  1  0.831584  0.663167  0.750000  1
  Rh  Rh5  1  0.336833  0.168416  0.750000  1
  Rh  Rh6  1  0.831584  0.168416  0.750000  1
  W  W7  1  0.333333  0.666667  0.750000  1
