# generated using pymatgen
data_Sr6Li12Tl4N
_symmetry_space_group_name_H-M   'P 1'
_cell_length_a   9.17418962
_cell_length_b   9.17419072
_cell_length_c   9.17419000
_cell_angle_alpha   109.47121684
_cell_angle_beta   109.47121926
_cell_angle_gamma   109.47122896
_symmetry_Int_Tables_number   1
_chemical_formula_structural   Sr6Li12Tl4N
_chemical_formula_sum   'Sr6 Li12 Tl4 N1'
_cell_volume   594.40341971
_cell_formula_units_Z   1
loop_
 _symmetry_equiv_pos_site_id
 _symmetry_equiv_pos_as_xyz
  1  'x, y, z'
loop_
 _atom_site_type_symbol
 _atom_site_label
 _atom_site_symmetry_multiplicity
 _atom_site_fract_x
 _atom_site_fract_y
 _atom_site_fract_z
 _atom_site_occupancy
  Sr  Sr0  1  0.000000  0.246976  0.246976  1
  Sr  Sr1  1  0.246976  0.000000  0.246976  1
  Sr  Sr2  1  0.753024  0.000000  0.753024  1
  Sr  Sr3  1  0.753024  0.753024  0.000000  1
  Sr  Sr4  1  0.246976  0.246976  0.000000  1
  Sr  Sr5  1  0.000000  0.753024  0.753024  1
  Li  Li6  1  0.665371  0.332685  0.332685  1
  Li  Li7  1  0.332685  0.000000  0.667315  1
  Li  Li8  1  0.332685  0.665371  0.332685  1
  Li  Li9  1  0.332685  0.332685  0.665371  1
  Li  Li10  1  0.332685  0.667315  0.000000  1
  Li  Li11  1  0.000000  0.332685  0.667315  1
  Li  Li12  1  0.000000  0.667315  0.332685  1
  Li  Li13  1  0.667315  0.667315  0.334629  1
  Li  Li14  1  0.667315  0.000000  0.332685  1
  Li  Li15  1  0.667315  0.332685  0.000000  1
  Li  Li16  1  0.667315  0.334629  0.667315  1
  Li  Li17  1  0.334629  0.667315  0.667315  1
  Tl  Tl18  1  0.500000  0.500000  0.500000  1
  Tl  Tl19  1  0.500000  0.000000  0.000000  1
  Tl  Tl20  1  0.000000  0.500000  0.000000  1
  Tl  Tl21  1  0.000000  0.000000  0.500000  1
  N  N22  1  0.000000  0.000000  0.000000  1
