# generated using pymatgen
data_Pr3YThP12Ru19
_symmetry_space_group_name_H-M   'P 1'
_cell_length_a   12.63975200
_cell_length_b   12.63975308
_cell_length_c   4.02552900
_cell_angle_alpha   90.00000000
_cell_angle_beta   90.00000000
_cell_angle_gamma   120.00000241
_symmetry_Int_Tables_number   1
_chemical_formula_structural   Pr3YThP12Ru19
_chemical_formula_sum   'Pr3 Y1 Th1 P12 Ru19'
_cell_volume   556.96861530
_cell_formula_units_Z   1
loop_
 _symmetry_equiv_pos_site_id
 _symmetry_equiv_pos_as_xyz
  1  'x, y, z'
loop_
 _atom_site_type_symbol
 _atom_site_label
 _atom_site_symmetry_multiplicity
 _atom_site_fract_x
 _atom_site_fract_y
 _atom_site_fract_z
 _atom_site_occupancy
  Pr  Pr0  1  0.815559  0.999940  0.500000  1
  Pr  Pr1  1  0.000060  0.815619  0.500000  1
  Pr  Pr2  1  0.184381  0.184441  0.500000  1
  Y  Y3  1  0.666667  0.333333  0.000000  1
  Th  Th4  1  0.333333  0.666667  0.000000  1
  P  P5  1  0.188483  0.001157  0.000000  1
  P  P6  1  0.998843  0.187326  0.000000  1
  P  P7  1  0.812674  0.811517  0.000000  1
  P  P8  1  0.525310  0.695571  0.500000  1
  P  P9  1  0.304429  0.829740  0.500000  1
  P  P10  1  0.170260  0.474690  0.500000  1
  P  P11  1  0.478280  0.173156  0.500000  1
  P  P12  1  0.694876  0.521720  0.500000  1
  P  P13  1  0.826844  0.305124  0.500000  1
  P  P14  1  0.625941  0.001066  0.000000  1
  P  P15  1  0.998934  0.624875  0.000000  1
  P  P16  1  0.375125  0.374059  0.000000  1
  Ru  Ru17  1  0.445663  0.999741  0.000000  1
  Ru  Ru18  1  0.000259  0.445921  0.000000  1
  Ru  Ru19  1  0.554079  0.554337  0.000000  1
  Ru  Ru20  1  0.286341  0.000986  0.500000  1
  Ru  Ru21  1  0.999014  0.285355  0.500000  1
  Ru  Ru22  1  0.714645  0.713659  0.500000  1
  Ru  Ru23  1  0.620952  0.805660  0.000000  1
  Ru  Ru24  1  0.194340  0.815291  0.000000  1
  Ru  Ru25  1  0.184709  0.379048  0.000000  1
  Ru  Ru26  1  0.380707  0.185352  0.000000  1
  Ru  Ru27  1  0.804646  0.619293  0.000000  1
  Ru  Ru28  1  0.814648  0.195354  0.000000  1
  Ru  Ru29  1  0.506694  0.874168  0.500000  1
  Ru  Ru30  1  0.125832  0.632527  0.500000  1
  Ru  Ru31  1  0.367473  0.493306  0.500000  1
  Ru  Ru32  1  0.493594  0.367246  0.500000  1
  Ru  Ru33  1  0.873653  0.506406  0.500000  1
  Ru  Ru34  1  0.632754  0.126347  0.500000  1
  Ru  Ru35  1  0.000000  0.000000  0.000000  1
