# generated using pymatgen
data_YbPa2TiSb5
_symmetry_space_group_name_H-M   'P 1'
_cell_length_a   9.17644500
_cell_length_b   9.20563490
_cell_length_c   6.22642500
_cell_angle_alpha   90.00000000
_cell_angle_beta   90.00000000
_cell_angle_gamma   119.89516726
_symmetry_Int_Tables_number   1
_chemical_formula_structural   YbPa2TiSb5
_chemical_formula_sum   'Yb2 Pa4 Ti2 Sb10'
_cell_volume   455.99009606
_cell_formula_units_Z   2
loop_
 _symmetry_equiv_pos_site_id
 _symmetry_equiv_pos_as_xyz
  1  'x, y, z'
loop_
 _atom_site_type_symbol
 _atom_site_label
 _atom_site_symmetry_multiplicity
 _atom_site_fract_x
 _atom_site_fract_y
 _atom_site_fract_z
 _atom_site_occupancy
  Yb  Yb0  1  0.612630  0.000000  0.250000  1
  Yb  Yb1  1  0.387370  0.000000  0.750000  1
  Pa  Pa2  1  0.007315  0.615636  0.250000  1
  Pa  Pa3  1  0.992685  0.384364  0.750000  1
  Pa  Pa4  1  0.391679  0.384364  0.250000  1
  Pa  Pa5  1  0.608321  0.615636  0.750000  1
  Ti  Ti6  1  0.000000  0.000000  0.000000  1
  Ti  Ti7  1  0.000000  0.000000  0.500000  1
  Sb  Sb8  1  0.256629  0.000000  0.250000  1
  Sb  Sb9  1  0.743371  0.000000  0.750000  1
  Sb  Sb10  1  0.003201  0.262405  0.250000  1
  Sb  Sb11  1  0.996799  0.737595  0.750000  1
  Sb  Sb12  1  0.740796  0.737595  0.250000  1
  Sb  Sb13  1  0.259204  0.262405  0.750000  1
  Sb  Sb14  1  0.329063  0.658127  0.000000  1
  Sb  Sb15  1  0.670937  0.341873  0.000000  1
  Sb  Sb16  1  0.670937  0.341873  0.500000  1
  Sb  Sb17  1  0.329063  0.658127  0.500000  1
