# generated using pymatgen
data_ZrSc3Cu14
_symmetry_space_group_name_H-M   'P 1'
_cell_length_a   4.82668740
_cell_length_b   4.82668787
_cell_length_c   12.60439451
_cell_angle_alpha   87.01258186
_cell_angle_beta   87.01258342
_cell_angle_gamma   119.78122262
_symmetry_Int_Tables_number   1
_chemical_formula_structural   ZrSc3Cu14
_chemical_formula_sum   'Zr1 Sc3 Cu14'
_cell_volume   253.48238141
_cell_formula_units_Z   1
loop_
 _symmetry_equiv_pos_site_id
 _symmetry_equiv_pos_as_xyz
  1  'x, y, z'
loop_
 _atom_site_type_symbol
 _atom_site_label
 _atom_site_symmetry_multiplicity
 _atom_site_fract_x
 _atom_site_fract_y
 _atom_site_fract_z
 _atom_site_occupancy
  Zr  Zr0  1  0.275958  0.275958  0.116283  1
  Sc  Sc1  1  0.722724  0.722724  0.886202  1
  Sc  Sc2  1  0.787048  0.787048  0.615195  1
  Sc  Sc3  1  0.213547  0.213547  0.383968  1
  Cu  Cu4  1  0.369081  0.045516  0.923555  1
  Cu  Cu5  1  0.045516  0.369081  0.923555  1
  Cu  Cu6  1  0.259984  0.758524  0.749893  1
  Cu  Cu7  1  0.758524  0.259984  0.749893  1
  Cu  Cu8  1  0.257861  0.257861  0.749813  1
  Cu  Cu9  1  0.140315  0.468794  0.576227  1
  Cu  Cu10  1  0.468794  0.140315  0.576227  1
  Cu  Cu11  1  0.859706  0.530746  0.424124  1
  Cu  Cu12  1  0.530746  0.859706  0.424124  1
  Cu  Cu13  1  0.743689  0.743689  0.250624  1
  Cu  Cu14  1  0.741889  0.242226  0.250039  1
  Cu  Cu15  1  0.242226  0.741889  0.250039  1
  Cu  Cu16  1  0.628036  0.954357  0.075118  1
  Cu  Cu17  1  0.954357  0.628036  0.075118  1
