# generated using pymatgen
data_Sc4Al18(PtRh)3
_symmetry_space_group_name_H-M   'P 1'
_cell_length_a   7.51709488
_cell_length_b   7.51709465
_cell_length_c   9.28762391
_cell_angle_alpha   89.97478037
_cell_angle_beta   89.97478500
_cell_angle_gamma   119.82807458
_symmetry_Int_Tables_number   1
_chemical_formula_structural   Sc4Al18(PtRh)3
_chemical_formula_sum   'Sc4 Al18 Pt3 Rh3'
_cell_volume   455.28665234
_cell_formula_units_Z   1
loop_
 _symmetry_equiv_pos_site_id
 _symmetry_equiv_pos_as_xyz
  1  'x, y, z'
loop_
 _atom_site_type_symbol
 _atom_site_label
 _atom_site_symmetry_multiplicity
 _atom_site_fract_x
 _atom_site_fract_y
 _atom_site_fract_z
 _atom_site_occupancy
  Sc  Sc0  1  0.995512  0.671267  0.250647  1
  Sc  Sc1  1  0.003981  0.328167  0.749584  1
  Sc  Sc2  1  0.671833  0.996019  0.250416  1
  Sc  Sc3  1  0.328733  0.004488  0.749353  1
  Al  Al4  1  0.129415  0.128677  0.250463  1
  Al  Al5  1  0.871323  0.870585  0.749537  1
  Al  Al6  1  0.000762  0.338432  0.078883  1
  Al  Al7  1  0.006979  0.665637  0.920837  1
  Al  Al8  1  0.003808  0.661596  0.577371  1
  Al  Al9  1  0.338404  0.996192  0.422629  1
  Al  Al10  1  0.996971  0.338116  0.422289  1
  Al  Al11  1  0.661884  0.003029  0.577711  1
  Al  Al12  1  0.661568  0.999238  0.921117  1
  Al  Al13  1  0.334363  0.993021  0.079163  1
  Al  Al14  1  0.333703  0.333769  0.558715  1
  Al  Al15  1  0.666231  0.666297  0.441285  1
  Al  Al16  1  0.665113  0.668846  0.060960  1
  Al  Al17  1  0.331154  0.334887  0.939040  1
  Al  Al18  1  0.339404  0.554982  0.250634  1
  Al  Al19  1  0.660942  0.448472  0.746780  1
  Al  Al20  1  0.551528  0.339058  0.253220  1
  Al  Al21  1  0.445018  0.660596  0.749366  1
  Pt  Pt22  1  0.672334  0.327666  0.000000  1
  Pt  Pt23  1  0.999960  0.000040  0.000000  1
  Pt  Pt24  1  0.000229  0.999771  0.500000  1
  Rh  Rh25  1  0.328186  0.671814  0.000000  1
  Rh  Rh26  1  0.328185  0.671815  0.500000  1
  Rh  Rh27  1  0.672481  0.327519  0.500000  1
