# generated using pymatgen
data_NdTmFeCoSi2
_symmetry_space_group_name_H-M   'P 1'
_cell_length_a   3.98153400
_cell_length_b   3.98186000
_cell_length_c   6.78800700
_cell_angle_alpha   90.00000000
_cell_angle_beta   90.00000000
_cell_angle_gamma   90.00000000
_symmetry_Int_Tables_number   1
_chemical_formula_structural   NdTmFeCoSi2
_chemical_formula_sum   'Nd1 Tm1 Fe1 Co1 Si2'
_cell_volume   107.61645866
_cell_formula_units_Z   1
loop_
 _symmetry_equiv_pos_site_id
 _symmetry_equiv_pos_as_xyz
  1  'x, y, z'
loop_
 _atom_site_type_symbol
 _atom_site_label
 _atom_site_symmetry_multiplicity
 _atom_site_fract_x
 _atom_site_fract_y
 _atom_site_fract_z
 _atom_site_occupancy
  Nd  Nd0  1  0.000000  0.500000  0.328539  1
  Tm  Tm1  1  0.500000  0.000000  0.694735  1
  Fe  Fe2  1  0.000000  0.000000  0.994310  1
  Co  Co3  1  0.500000  0.500000  0.993888  1
  Si  Si4  1  0.000000  0.500000  0.817777  1
  Si  Si5  1  0.500000  0.000000  0.170750  1
