# generated using pymatgen
data_Yb(NpH4)3
_symmetry_space_group_name_H-M   'P 1'
_cell_length_a   6.60419600
_cell_length_b   6.59092000
_cell_length_c   6.59092000
_cell_angle_alpha   90.00000000
_cell_angle_beta   90.00000000
_cell_angle_gamma   90.00000000
_symmetry_Int_Tables_number   1
_chemical_formula_structural   Yb(NpH4)3
_chemical_formula_sum   'Yb2 Np6 H24'
_cell_volume   286.88776974
_cell_formula_units_Z   2
loop_
 _symmetry_equiv_pos_site_id
 _symmetry_equiv_pos_as_xyz
  1  'x, y, z'
loop_
 _atom_site_type_symbol
 _atom_site_label
 _atom_site_symmetry_multiplicity
 _atom_site_fract_x
 _atom_site_fract_y
 _atom_site_fract_z
 _atom_site_occupancy
  Yb  Yb0  1  0.250000  0.000000  0.500000  1
  Yb  Yb1  1  0.750000  0.000000  0.500000  1
  Np  Np2  1  0.000000  0.000000  0.000000  1
  Np  Np3  1  0.500000  0.500000  0.500000  1
  Np  Np4  1  0.000000  0.500000  0.253026  1
  Np  Np5  1  0.000000  0.500000  0.746974  1
  Np  Np6  1  0.500000  0.753026  0.000000  1
  Np  Np7  1  0.500000  0.246974  0.000000  1
  H  H8  1  0.000000  0.160107  0.291644  1
  H  H9  1  0.500000  0.208356  0.660107  1
  H  H10  1  0.500000  0.791644  0.339893  1
  H  H11  1  0.808715  0.648568  0.500000  1
  H  H12  1  0.191285  0.648568  0.500000  1
  H  H13  1  0.344860  0.500000  0.804020  1
  H  H14  1  0.655140  0.500000  0.804020  1
  H  H15  1  0.308715  0.000000  0.148568  1
  H  H16  1  0.155140  0.304020  0.000000  1
  H  H17  1  0.844860  0.695980  0.000000  1
  H  H18  1  0.308715  0.000000  0.851432  1
  H  H19  1  0.844860  0.304020  0.000000  1
  H  H20  1  0.691285  0.000000  0.148568  1
  H  H21  1  0.691285  0.000000  0.851432  1
  H  H22  1  0.155140  0.695980  0.000000  1
  H  H23  1  0.000000  0.839893  0.708356  1
  H  H24  1  0.000000  0.160107  0.708356  1
  H  H25  1  0.000000  0.839893  0.291644  1
  H  H26  1  0.655140  0.500000  0.195980  1
  H  H27  1  0.344860  0.500000  0.195980  1
  H  H28  1  0.808715  0.351432  0.500000  1
  H  H29  1  0.191285  0.351432  0.500000  1
  H  H30  1  0.500000  0.791644  0.660107  1
  H  H31  1  0.500000  0.208356  0.339893  1
