# generated using pymatgen
data_CaErIn8Rh
_symmetry_space_group_name_H-M   'P 1'
_cell_length_a   4.69926400
_cell_length_b   4.69926400
_cell_length_c   12.16049400
_cell_angle_alpha   90.00000000
_cell_angle_beta   90.00000000
_cell_angle_gamma   90.00000000
_symmetry_Int_Tables_number   1
_chemical_formula_structural   CaErIn8Rh
_chemical_formula_sum   'Ca1 Er1 In8 Rh1'
_cell_volume   268.54118789
_cell_formula_units_Z   1
loop_
 _symmetry_equiv_pos_site_id
 _symmetry_equiv_pos_as_xyz
  1  'x, y, z'
loop_
 _atom_site_type_symbol
 _atom_site_label
 _atom_site_symmetry_multiplicity
 _atom_site_fract_x
 _atom_site_fract_y
 _atom_site_fract_z
 _atom_site_occupancy
  Ca  Ca0  1  0.500000  0.500000  0.689852  1
  Er  Er1  1  0.500000  0.500000  0.307595  1
  In  In2  1  0.000000  0.500000  0.498341  1
  In  In3  1  0.500000  0.000000  0.498341  1
  In  In4  1  0.000000  0.500000  0.877789  1
  In  In5  1  0.500000  0.000000  0.877789  1
  In  In6  1  0.000000  0.500000  0.124019  1
  In  In7  1  0.500000  0.000000  0.124019  1
  In  In8  1  0.000000  0.000000  0.691196  1
  In  In9  1  0.000000  0.000000  0.308979  1
  Rh  Rh10  1  0.500000  0.500000  0.002080  1
