# generated using pymatgen
data_Ho8Si12NiPt3
_symmetry_space_group_name_H-M   'P 1'
_cell_length_a   8.13508400
_cell_length_b   8.13508415
_cell_length_c   7.87622300
_cell_angle_alpha   90.00000000
_cell_angle_beta   90.00000000
_cell_angle_gamma   120.00000753
_symmetry_Int_Tables_number   1
_chemical_formula_structural   Ho8Si12NiPt3
_chemical_formula_sum   'Ho8 Si12 Ni1 Pt3'
_cell_volume   451.41157800
_cell_formula_units_Z   1
loop_
 _symmetry_equiv_pos_site_id
 _symmetry_equiv_pos_as_xyz
  1  'x, y, z'
loop_
 _atom_site_type_symbol
 _atom_site_label
 _atom_site_symmetry_multiplicity
 _atom_site_fract_x
 _atom_site_fract_y
 _atom_site_fract_z
 _atom_site_occupancy
  Ho  Ho0  1  0.000000  0.000000  0.248286  1
  Ho  Ho1  1  0.000000  0.000000  0.751981  1
  Ho  Ho2  1  0.508026  0.491974  0.247340  1
  Ho  Ho3  1  0.508026  0.016051  0.247340  1
  Ho  Ho4  1  0.983949  0.491974  0.247340  1
  Ho  Ho5  1  0.489392  0.510608  0.751616  1
  Ho  Ho6  1  0.489392  0.978783  0.751616  1
  Ho  Ho7  1  0.021217  0.510608  0.751616  1
  Si  Si8  1  0.164988  0.835012  0.498497  1
  Si  Si9  1  0.164988  0.329975  0.498497  1
  Si  Si10  1  0.670025  0.835012  0.498497  1
  Si  Si11  1  0.834464  0.165536  0.501198  1
  Si  Si12  1  0.834464  0.668927  0.501198  1
  Si  Si13  1  0.331073  0.165536  0.501198  1
  Si  Si14  1  0.836105  0.163895  0.998704  1
  Si  Si15  1  0.836105  0.672211  0.998704  1
  Si  Si16  1  0.327789  0.163895  0.998704  1
  Si  Si17  1  0.171760  0.828240  0.002210  1
  Si  Si18  1  0.171760  0.343521  0.002210  1
  Si  Si19  1  0.656479  0.828240  0.002210  1
  Ni  Ni20  1  0.333333  0.666667  0.034635  1
  Pt  Pt21  1  0.333333  0.666667  0.466409  1
  Pt  Pt22  1  0.666667  0.333333  0.532815  1
  Pt  Pt23  1  0.666667  0.333333  0.967177  1
