# generated using pymatgen
data_Zr4CoTc2Os
_symmetry_space_group_name_H-M   'P 1'
_cell_length_a   6.51566100
_cell_length_b   4.63957600
_cell_length_c   9.26691800
_cell_angle_alpha   90.00000000
_cell_angle_beta   89.99985285
_cell_angle_gamma   90.00000000
_symmetry_Int_Tables_number   1
_chemical_formula_structural   Zr4CoTc2Os
_chemical_formula_sum   'Zr8 Co2 Tc4 Os2'
_cell_volume   280.13804522
_cell_formula_units_Z   2
loop_
 _symmetry_equiv_pos_site_id
 _symmetry_equiv_pos_as_xyz
  1  'x, y, z'
loop_
 _atom_site_type_symbol
 _atom_site_label
 _atom_site_symmetry_multiplicity
 _atom_site_fract_x
 _atom_site_fract_y
 _atom_site_fract_z
 _atom_site_occupancy
  Zr  Zr0  1  0.499458  0.750000  0.124457  1
  Zr  Zr1  1  0.000615  0.750000  0.124463  1
  Zr  Zr2  1  0.500610  0.250000  0.375539  1
  Zr  Zr3  1  0.999460  0.250000  0.375545  1
  Zr  Zr4  1  0.999061  0.750000  0.625476  1
  Zr  Zr5  1  0.500890  0.750000  0.625484  1
  Zr  Zr6  1  0.000873  0.250000  0.874516  1
  Zr  Zr7  1  0.499078  0.250000  0.874524  1
  Co  Co8  1  0.749938  0.250000  0.625507  1
  Co  Co9  1  0.249938  0.750000  0.874491  1
  Tc  Tc10  1  0.250034  0.250000  0.122886  1
  Tc  Tc11  1  0.750030  0.750000  0.377114  1
  Tc  Tc12  1  0.249977  0.250000  0.627266  1
  Tc  Tc13  1  0.749976  0.750000  0.872730  1
  Os  Os14  1  0.750030  0.250000  0.123879  1
  Os  Os15  1  0.250030  0.750000  0.376122  1
