# generated using pymatgen
data_Dy9Ho3InGaNi4
_symmetry_space_group_name_H-M   'P 1'
_cell_length_a   8.35126946
_cell_length_b   8.35025948
_cell_length_c   8.35126837
_cell_angle_alpha   113.63801004
_cell_angle_beta   109.51871562
_cell_angle_gamma   105.36748386
_symmetry_Int_Tables_number   1
_chemical_formula_structural   Dy9Ho3InGaNi4
_chemical_formula_sum   'Dy9 Ho3 In1 Ga1 Ni4'
_cell_volume   445.95360398
_cell_formula_units_Z   1
loop_
 _symmetry_equiv_pos_site_id
 _symmetry_equiv_pos_as_xyz
  1  'x, y, z'
loop_
 _atom_site_type_symbol
 _atom_site_label
 _atom_site_symmetry_multiplicity
 _atom_site_fract_x
 _atom_site_fract_y
 _atom_site_fract_z
 _atom_site_occupancy
  Dy  Dy0  1  0.425796  0.229068  0.196027  1
  Dy  Dy1  1  0.574706  0.770795  0.804489  1
  Dy  Dy2  1  0.033040  0.229068  0.803271  1
  Dy  Dy3  1  0.966306  0.770795  0.196089  1
  Dy  Dy4  1  0.181182  0.290033  0.471716  1
  Dy  Dy5  1  0.819152  0.709778  0.528698  1
  Dy  Dy6  1  0.181081  0.709778  0.890625  1
  Dy  Dy7  1  0.818315  0.290033  0.108851  1
  Dy  Dy8  1  0.324217  0.633823  0.309608  1
  Ho  Ho9  1  0.675381  0.365020  0.689637  1
  Ho  Ho10  1  0.324965  0.015019  0.690054  1
  Ho  Ho11  1  0.675189  0.985200  0.310011  1
  In  In12  1  0.500176  0.499844  0.999667  1
  Ga  Ga13  1  0.000294  0.000377  0.000082  1
  Ni  Ni14  1  0.351854  0.000735  0.351998  1
  Ni  Ni15  1  0.648738  0.000735  0.648882  1
  Ni  Ni16  1  0.123025  0.623557  0.500533  1
  Ni  Ni17  1  0.876583  0.376344  0.499762  1
