# generated using pymatgen
data_LiPr4Mg(FeO6)2
_symmetry_space_group_name_H-M   'P 1'
_cell_length_a   5.49497169
_cell_length_b   5.69368727
_cell_length_c   7.70305412
_cell_angle_alpha   90.01040057
_cell_angle_beta   90.19498433
_cell_angle_gamma   91.32082790
_symmetry_Int_Tables_number   1
_chemical_formula_structural   LiPr4Mg(FeO6)2
_chemical_formula_sum   'Li1 Pr4 Mg1 Fe2 O12'
_cell_volume   240.93732227
_cell_formula_units_Z   1
loop_
 _symmetry_equiv_pos_site_id
 _symmetry_equiv_pos_as_xyz
  1  'x, y, z'
loop_
 _atom_site_type_symbol
 _atom_site_label
 _atom_site_symmetry_multiplicity
 _atom_site_fract_x
 _atom_site_fract_y
 _atom_site_fract_z
 _atom_site_occupancy
  Li  Li0  1  0.000000  0.500000  0.500000  1
  Pr  Pr1  1  0.013383  0.941739  0.748951  1
  Pr  Pr2  1  0.511856  0.553151  0.250687  1
  Pr  Pr3  1  0.488144  0.446849  0.749313  1
  Pr  Pr4  1  0.986617  0.058261  0.251049  1
  Mg  Mg5  1  0.500000  0.000000  0.000000  1
  Fe  Fe6  1  0.500000  0.000000  0.500000  1
  Fe  Fe7  1  0.000000  0.500000  0.000000  1
  O  O8  1  0.697120  0.273054  0.454069  1
  O  O9  1  0.231076  0.195127  0.541244  1
  O  O10  1  0.792626  0.797072  0.045948  1
  O  O11  1  0.286839  0.694245  0.960123  1
  O  O12  1  0.302880  0.726946  0.545931  1
  O  O13  1  0.768924  0.804873  0.458756  1
  O  O14  1  0.207374  0.202928  0.954052  1
  O  O15  1  0.713161  0.305755  0.039877  1
  O  O16  1  0.076942  0.480635  0.238843  1
  O  O17  1  0.585695  0.021668  0.737932  1
  O  O18  1  0.414305  0.978332  0.262068  1
  O  O19  1  0.923058  0.519365  0.761157  1
