# generated using pymatgen
data_TbHo4(In2Pt)2
_symmetry_space_group_name_H-M   'P 1'
_cell_length_a   3.62032900
_cell_length_b   8.14120200
_cell_length_c   18.25258400
_cell_angle_alpha   90.00000000
_cell_angle_beta   90.00000000
_cell_angle_gamma   90.00000000
_symmetry_Int_Tables_number   1
_chemical_formula_structural   TbHo4(In2Pt)2
_chemical_formula_sum   'Tb2 Ho8 In8 Pt4'
_cell_volume   537.97355232
_cell_formula_units_Z   2
loop_
 _symmetry_equiv_pos_site_id
 _symmetry_equiv_pos_as_xyz
  1  'x, y, z'
loop_
 _atom_site_type_symbol
 _atom_site_label
 _atom_site_symmetry_multiplicity
 _atom_site_fract_x
 _atom_site_fract_y
 _atom_site_fract_z
 _atom_site_occupancy
  Tb  Tb0  1  0.000000  0.000000  0.000000  1
  Tb  Tb1  1  0.000000  0.500000  0.500000  1
  Ho  Ho2  1  0.000000  0.116708  0.414695  1
  Ho  Ho3  1  0.000000  0.883292  0.585305  1
  Ho  Ho4  1  0.000000  0.383292  0.914695  1
  Ho  Ho5  1  0.000000  0.616708  0.085305  1
  Ho  Ho6  1  0.000000  0.243563  0.220206  1
  Ho  Ho7  1  0.000000  0.756437  0.779794  1
  Ho  Ho8  1  0.000000  0.256437  0.720206  1
  Ho  Ho9  1  0.000000  0.743563  0.279794  1
  In  In10  1  0.500000  0.423379  0.350877  1
  In  In11  1  0.500000  0.576621  0.649123  1
  In  In12  1  0.500000  0.076621  0.850877  1
  In  In13  1  0.500000  0.923379  0.149123  1
  In  In14  1  0.500000  0.293184  0.066887  1
  In  In15  1  0.500000  0.706816  0.933113  1
  In  In16  1  0.500000  0.206816  0.566887  1
  In  In17  1  0.500000  0.793184  0.433113  1
  Pt  Pt18  1  0.500000  0.025473  0.303481  1
  Pt  Pt19  1  0.500000  0.974527  0.696519  1
  Pt  Pt20  1  0.500000  0.474527  0.803481  1
  Pt  Pt21  1  0.500000  0.525473  0.196519  1
