# generated using pymatgen
data_Pr5Nd2ThSe12
_symmetry_space_group_name_H-M   'P 1'
_cell_length_a   11.56879923
_cell_length_b   4.18297800
_cell_length_c   11.29030710
_cell_angle_alpha   90.00000000
_cell_angle_beta   89.94827461
_cell_angle_gamma   90.00000000
_symmetry_Int_Tables_number   1
_chemical_formula_structural   Pr5Nd2ThSe12
_chemical_formula_sum   'Pr5 Nd2 Th1 Se12'
_cell_volume   546.36068739
_cell_formula_units_Z   1
loop_
 _symmetry_equiv_pos_site_id
 _symmetry_equiv_pos_as_xyz
  1  'x, y, z'
loop_
 _atom_site_type_symbol
 _atom_site_label
 _atom_site_symmetry_multiplicity
 _atom_site_fract_x
 _atom_site_fract_y
 _atom_site_fract_z
 _atom_site_occupancy
  Pr  Pr0  1  0.514514  0.750000  0.811783  1
  Pr  Pr1  1  0.011731  0.750000  0.684501  1
  Pr  Pr2  1  0.692815  0.750000  0.496005  1
  Pr  Pr3  1  0.307782  0.250000  0.507292  1
  Pr  Pr4  1  0.804968  0.250000  0.999495  1
  Nd  Nd5  1  0.489246  0.250000  0.189114  1
  Nd  Nd6  1  0.986661  0.250000  0.315043  1
  Th  Th7  1  0.191960  0.750000  0.998987  1
  Se  Se8  1  0.546303  0.250000  0.625793  1
  Se  Se9  1  0.049137  0.250000  0.876321  1
  Se  Se10  1  0.451539  0.750000  0.372471  1
  Se  Se11  1  0.958717  0.750000  0.125459  1
  Se  Se12  1  0.618838  0.750000  0.054930  1
  Se  Se13  1  0.122976  0.750000  0.443108  1
  Se  Se14  1  0.377556  0.250000  0.947461  1
  Se  Se15  1  0.878080  0.250000  0.554325  1
  Se  Se16  1  0.729330  0.250000  0.297008  1
  Se  Se17  1  0.222795  0.250000  0.191467  1
  Se  Se18  1  0.270072  0.750000  0.707136  1
  Se  Se19  1  0.774983  0.750000  0.802301  1
