# generated using pymatgen
data_Er4FeTc3B16
_symmetry_space_group_name_H-M   'P 1'
_cell_length_a   3.52986900
_cell_length_b   5.93315838
_cell_length_c   11.47948373
_cell_angle_alpha   89.95913262
_cell_angle_beta   90.00000000
_cell_angle_gamma   90.00000000
_symmetry_Int_Tables_number   1
_chemical_formula_structural   Er4FeTc3B16
_chemical_formula_sum   'Er4 Fe1 Tc3 B16'
_cell_volume   240.41788705
_cell_formula_units_Z   1
loop_
 _symmetry_equiv_pos_site_id
 _symmetry_equiv_pos_as_xyz
  1  'x, y, z'
loop_
 _atom_site_type_symbol
 _atom_site_label
 _atom_site_symmetry_multiplicity
 _atom_site_fract_x
 _atom_site_fract_y
 _atom_site_fract_z
 _atom_site_occupancy
  Er  Er0  1  0.000000  0.628374  0.352231  1
  Er  Er1  1  0.000000  0.374546  0.647671  1
  Er  Er2  1  0.000000  0.127424  0.151888  1
  Er  Er3  1  0.000000  0.872372  0.846547  1
  Fe  Fe4  1  0.000000  0.864367  0.589565  1
  Tc  Tc5  1  0.000000  0.632362  0.087031  1
  Tc  Tc6  1  0.000000  0.367030  0.911462  1
  Tc  Tc7  1  0.000000  0.133320  0.413620  1
  B  B8  1  0.500000  0.787255  0.186231  1
  B  B9  1  0.500000  0.211156  0.813018  1
  B  B10  1  0.500000  0.287029  0.315452  1
  B  B11  1  0.500000  0.716205  0.682540  1
  B  B12  1  0.500000  0.865305  0.031231  1
  B  B13  1  0.500000  0.134341  0.968035  1
  B  B14  1  0.500000  0.365243  0.470320  1
  B  B15  1  0.500000  0.638118  0.532659  1
  B  B16  1  0.500000  0.885266  0.454584  1
  B  B17  1  0.500000  0.111210  0.548424  1
  B  B18  1  0.500000  0.385907  0.047169  1
  B  B19  1  0.500000  0.614217  0.951679  1
  B  B20  1  0.500000  0.974427  0.308699  1
  B  B21  1  0.500000  0.022103  0.690912  1
  B  B22  1  0.500000  0.476765  0.193425  1
  B  B23  1  0.500000  0.525659  0.805607  1
