# generated using pymatgen
data_Pr4Ga17SiRh6
_symmetry_space_group_name_H-M   'P 1'
_cell_length_a   7.65423975
_cell_length_b   7.63373450
_cell_length_c   9.66272618
_cell_angle_alpha   90.02482476
_cell_angle_beta   89.88491918
_cell_angle_gamma   119.54859140
_symmetry_Int_Tables_number   1
_chemical_formula_structural   Pr4Ga17SiRh6
_chemical_formula_sum   'Pr4 Ga17 Si1 Rh6'
_cell_volume   491.16341036
_cell_formula_units_Z   1
loop_
 _symmetry_equiv_pos_site_id
 _symmetry_equiv_pos_as_xyz
  1  'x, y, z'
loop_
 _atom_site_type_symbol
 _atom_site_label
 _atom_site_symmetry_multiplicity
 _atom_site_fract_x
 _atom_site_fract_y
 _atom_site_fract_z
 _atom_site_occupancy
  Pr  Pr0  1  0.997321  0.666169  0.748005  1
  Pr  Pr1  1  0.002661  0.330236  0.251111  1
  Pr  Pr2  1  0.673822  0.002257  0.747957  1
  Pr  Pr3  1  0.329661  0.002489  0.250544  1
  Ga  Ga4  1  0.130597  0.131033  0.750233  1
  Ga  Ga5  1  0.870400  0.872297  0.250218  1
  Ga  Ga6  1  0.995107  0.668862  0.420822  1
  Ga  Ga7  1  0.996389  0.664881  0.077047  1
  Ga  Ga8  1  0.335203  0.002138  0.922434  1
  Ga  Ga9  1  0.003915  0.335745  0.924720  1
  Ga  Ga10  1  0.664045  0.995831  0.077043  1
  Ga  Ga11  1  0.659399  0.991734  0.420861  1
  Ga  Ga12  1  0.334506  0.002018  0.578529  1
  Ga  Ga13  1  0.333875  0.332938  0.056453  1
  Ga  Ga14  1  0.667815  0.667982  0.942049  1
  Ga  Ga15  1  0.666287  0.667287  0.560099  1
  Ga  Ga16  1  0.339150  0.334412  0.442675  1
  Ga  Ga17  1  0.341547  0.546764  0.751054  1
  Ga  Ga18  1  0.660159  0.452385  0.250710  1
  Ga  Ga19  1  0.546263  0.340923  0.750538  1
  Ga  Ga20  1  0.451376  0.657042  0.250098  1
  Si  Si21  1  0.003769  0.335139  0.571977  1
  Rh  Rh22  1  0.682324  0.329536  0.502849  1
  Rh  Rh23  1  0.315351  0.657101  0.501618  1
  Rh  Rh24  1  0.328935  0.670697  0.999911  1
  Rh  Rh25  1  0.670885  0.328864  0.999939  1
  Rh  Rh26  1  0.999477  0.013025  0.501235  1
  Rh  Rh27  1  0.999762  0.000217  0.999272  1
