# generated using pymatgen
data_Dy2Sc(Si3Pt2)2
_symmetry_space_group_name_H-M   'P 1'
_cell_length_a   4.20825600
_cell_length_b   8.49595971
_cell_length_c   12.86400000
_cell_angle_alpha   80.31498284
_cell_angle_beta   90.00000000
_cell_angle_gamma   90.00000000
_symmetry_Int_Tables_number   1
_chemical_formula_structural   Dy2Sc(Si3Pt2)2
_chemical_formula_sum   'Dy4 Sc2 Si12 Pt8'
_cell_volume   453.37368500
_cell_formula_units_Z   2
loop_
 _symmetry_equiv_pos_site_id
 _symmetry_equiv_pos_as_xyz
  1  'x, y, z'
loop_
 _atom_site_type_symbol
 _atom_site_label
 _atom_site_symmetry_multiplicity
 _atom_site_fract_x
 _atom_site_fract_y
 _atom_site_fract_z
 _atom_site_occupancy
  Dy  Dy0  1  0.750000  0.234451  0.561344  1
  Dy  Dy1  1  0.750000  0.417023  0.810169  1
  Dy  Dy2  1  0.750000  0.927289  0.812922  1
  Dy  Dy3  1  0.250000  0.069869  0.186842  1
  Sc  Sc4  1  0.250000  0.765001  0.435836  1
  Sc  Sc5  1  0.250000  0.589669  0.189652  1
  Si  Si6  1  0.750000  0.590419  0.564523  1
  Si  Si7  1  0.750000  0.126128  0.008922  1
  Si  Si8  1  0.750000  0.871829  0.568204  1
  Si  Si9  1  0.250000  0.696643  0.713735  1
  Si  Si10  1  0.750000  0.302824  0.288304  1
  Si  Si11  1  0.750000  0.803467  0.278893  1
  Si  Si12  1  0.250000  0.872198  0.995925  1
  Si  Si13  1  0.250000  0.194915  0.723750  1
  Si  Si14  1  0.250000  0.380278  0.002951  1
  Si  Si15  1  0.250000  0.123569  0.428060  1
  Si  Si16  1  0.750000  0.620280  0.001669  1
  Si  Si17  1  0.250000  0.414916  0.427843  1
  Pt  Pt18  1  0.750000  0.353919  0.102361  1
  Pt  Pt19  1  0.250000  0.969750  0.621668  1
  Pt  Pt20  1  0.750000  0.846563  0.091099  1
  Pt  Pt21  1  0.750000  0.025505  0.376295  1
  Pt  Pt22  1  0.250000  0.647948  0.901054  1
  Pt  Pt23  1  0.250000  0.150770  0.913315  1
  Pt  Pt24  1  0.750000  0.534978  0.373504  1
  Pt  Pt25  1  0.250000  0.469798  0.621161  1
