# generated using pymatgen
data_Na2TcCl6
_symmetry_space_group_name_H-M   'P 1'
_cell_length_a   6.94252400
_cell_length_b   6.75298724
_cell_length_c   11.64819600
_cell_angle_alpha   54.62242127
_cell_angle_beta   90.00000000
_cell_angle_gamma   90.00000000
_symmetry_Int_Tables_number   1
_chemical_formula_structural   Na2TcCl6
_chemical_formula_sum   'Na4 Tc2 Cl12'
_cell_volume   445.26485655
_cell_formula_units_Z   2
loop_
 _symmetry_equiv_pos_site_id
 _symmetry_equiv_pos_as_xyz
  1  'x, y, z'
loop_
 _atom_site_type_symbol
 _atom_site_label
 _atom_site_symmetry_multiplicity
 _atom_site_fract_x
 _atom_site_fract_y
 _atom_site_fract_z
 _atom_site_occupancy
  Na  Na0  1  0.571746  0.735283  0.254718  1
  Na  Na1  1  0.428254  0.264717  0.745282  1
  Na  Na2  1  0.928254  0.735283  0.754718  1
  Na  Na3  1  0.071746  0.264717  0.245282  1
  Tc  Tc4  1  0.500000  0.000000  0.500000  1
  Tc  Tc5  1  0.000000  0.000000  0.000000  1
  Cl  Cl6  1  0.289188  0.774640  0.052205  1
  Cl  Cl7  1  0.818599  0.659483  0.050696  1
  Cl  Cl8  1  0.210812  0.774640  0.552205  1
  Cl  Cl9  1  0.789188  0.225360  0.447795  1
  Cl  Cl10  1  0.681401  0.659483  0.550696  1
  Cl  Cl11  1  0.318599  0.340517  0.449304  1
  Cl  Cl12  1  0.970946  0.860062  0.239302  1
  Cl  Cl13  1  0.181401  0.340517  0.949304  1
  Cl  Cl14  1  0.029054  0.139938  0.760698  1
  Cl  Cl15  1  0.710812  0.225360  0.947795  1
  Cl  Cl16  1  0.470946  0.139938  0.260698  1
  Cl  Cl17  1  0.529054  0.860062  0.739302  1
