# generated using pymatgen
data_GdEr(SeI)2
_symmetry_space_group_name_H-M   'P 1'
_cell_length_a   4.26509900
_cell_length_b   5.63636800
_cell_length_c   10.37983300
_cell_angle_alpha   90.00000000
_cell_angle_beta   90.00000000
_cell_angle_gamma   90.00000000
_symmetry_Int_Tables_number   1
_chemical_formula_structural   GdEr(SeI)2
_chemical_formula_sum   'Gd1 Er1 Se2 I2'
_cell_volume   249.52773424
_cell_formula_units_Z   1
loop_
 _symmetry_equiv_pos_site_id
 _symmetry_equiv_pos_as_xyz
  1  'x, y, z'
loop_
 _atom_site_type_symbol
 _atom_site_label
 _atom_site_symmetry_multiplicity
 _atom_site_fract_x
 _atom_site_fract_y
 _atom_site_fract_z
 _atom_site_occupancy
  Gd  Gd0  1  0.500000  0.000000  0.885527  1
  Er  Er1  1  0.000000  0.500000  0.114116  1
  Se  Se2  1  0.500000  0.500000  0.932161  1
  Se  Se3  1  0.000000  0.000000  0.074912  1
  I  I4  1  0.000000  0.000000  0.670399  1
  I  I5  1  0.500000  0.500000  0.322885  1
