# generated using pymatgen
data_SmIr5O13
_symmetry_space_group_name_H-M   'P 1'
_cell_length_a   5.47199000
_cell_length_b   5.47198892
_cell_length_c   16.17414700
_cell_angle_alpha   90.00000000
_cell_angle_beta   90.00000000
_cell_angle_gamma   108.39452643
_symmetry_Int_Tables_number   1
_chemical_formula_structural   SmIr5O13
_chemical_formula_sum   'Sm2 Ir10 O26'
_cell_volume   459.55252510
_cell_formula_units_Z   2
loop_
 _symmetry_equiv_pos_site_id
 _symmetry_equiv_pos_as_xyz
  1  'x, y, z'
loop_
 _atom_site_type_symbol
 _atom_site_label
 _atom_site_symmetry_multiplicity
 _atom_site_fract_x
 _atom_site_fract_y
 _atom_site_fract_z
 _atom_site_occupancy
  Sm  Sm0  1  0.883319  0.120626  0.750000  1
  Sm  Sm1  1  0.120626  0.883319  0.250000  1
  Ir  Ir2  1  0.383683  0.619069  0.076970  1
  Ir  Ir3  1  0.619069  0.383683  0.923030  1
  Ir  Ir4  1  0.001388  0.001388  0.000000  1
  Ir  Ir5  1  0.383683  0.619069  0.423030  1
  Ir  Ir6  1  0.619069  0.383683  0.576970  1
  Ir  Ir7  1  0.001388  0.001388  0.500000  1
  Ir  Ir8  1  0.762266  0.240803  0.362864  1
  Ir  Ir9  1  0.762266  0.240803  0.137136  1
  Ir  Ir10  1  0.240803  0.762266  0.862864  1
  Ir  Ir11  1  0.240803  0.762266  0.637136  1
  O  O12  1  0.549061  0.067028  0.854867  1
  O  O13  1  0.067028  0.549061  0.354867  1
  O  O14  1  0.067028  0.549061  0.145133  1
  O  O15  1  0.549061  0.067028  0.645133  1
  O  O16  1  0.309652  0.309652  0.000000  1
  O  O17  1  0.309652  0.309652  0.500000  1
  O  O18  1  0.021835  0.981292  0.621163  1
  O  O19  1  0.169223  0.833719  0.750000  1
  O  O20  1  0.228142  0.774841  0.987965  1
  O  O21  1  0.228142  0.774841  0.512035  1
  O  O22  1  0.458339  0.543684  0.655681  1
  O  O23  1  0.543684  0.458339  0.155681  1
  O  O24  1  0.774841  0.228142  0.487965  1
  O  O25  1  0.981292  0.021835  0.378837  1
  O  O26  1  0.543684  0.458339  0.344319  1
  O  O27  1  0.981292  0.021835  0.121163  1
  O  O28  1  0.833719  0.169223  0.250000  1
  O  O29  1  0.774841  0.228142  0.012035  1
  O  O30  1  0.021835  0.981292  0.878837  1
  O  O31  1  0.458339  0.543684  0.844319  1
  O  O32  1  0.693057  0.693057  0.500000  1
  O  O33  1  0.693057  0.693057  0.000000  1
  O  O34  1  0.454175  0.935768  0.354921  1
  O  O35  1  0.935768  0.454175  0.645079  1
  O  O36  1  0.935768  0.454175  0.854921  1
  O  O37  1  0.454175  0.935768  0.145079  1
