# generated using pymatgen
data_Sc6Zn23Si
_symmetry_space_group_name_H-M   'P 1'
_cell_length_a   8.81938000
_cell_length_b   8.81937971
_cell_length_c   8.81938000
_cell_angle_alpha   120.00000107
_cell_angle_beta   90.00000000
_cell_angle_gamma   120.00000107
_symmetry_Int_Tables_number   1
_chemical_formula_structural   Sc6Zn23Si
_chemical_formula_sum   'Sc6 Zn23 Si1'
_cell_volume   485.06410781
_cell_formula_units_Z   1
loop_
 _symmetry_equiv_pos_site_id
 _symmetry_equiv_pos_as_xyz
  1  'x, y, z'
loop_
 _atom_site_type_symbol
 _atom_site_label
 _atom_site_symmetry_multiplicity
 _atom_site_fract_x
 _atom_site_fract_y
 _atom_site_fract_z
 _atom_site_occupancy
  Sc  Sc0  1  0.211908  0.000000  0.211908  1
  Sc  Sc1  1  0.788092  0.000000  0.211908  1
  Sc  Sc2  1  0.211908  0.423815  0.211908  1
  Sc  Sc3  1  0.211908  0.000000  0.788092  1
  Sc  Sc4  1  0.788092  0.000000  0.788092  1
  Sc  Sc5  1  0.788092  0.576185  0.788092  1
  Zn  Zn6  1  0.499999  0.000000  0.000000  1
  Zn  Zn7  1  0.000000  0.499999  0.000000  1
  Zn  Zn8  1  0.499999  0.499999  0.000000  1
  Zn  Zn9  1  0.376594  0.753186  0.129780  1
  Zn  Zn10  1  0.493435  0.328956  0.164479  1
  Zn  Zn11  1  0.835521  0.328956  0.164479  1
  Zn  Zn12  1  0.835521  0.671044  0.164479  1
  Zn  Zn13  1  0.623406  0.246814  0.376594  1
  Zn  Zn14  1  0.129780  0.753186  0.376594  1
  Zn  Zn15  1  0.623406  0.753186  0.376594  1
  Zn  Zn16  1  0.164479  0.328956  0.493435  1
  Zn  Zn17  1  0.000000  0.000000  0.499999  1
  Zn  Zn18  1  0.000000  0.499999  0.499999  1
  Zn  Zn19  1  0.499999  0.499999  0.499999  1
  Zn  Zn20  1  0.500000  0.000000  0.500000  1
  Zn  Zn21  1  0.835521  0.671044  0.506565  1
  Zn  Zn22  1  0.376594  0.753186  0.623406  1
  Zn  Zn23  1  0.376594  0.246814  0.623406  1
  Zn  Zn24  1  0.870220  0.246814  0.623406  1
  Zn  Zn25  1  0.164479  0.328956  0.835521  1
  Zn  Zn26  1  0.164479  0.671044  0.835521  1
  Zn  Zn27  1  0.506565  0.671044  0.835521  1
  Zn  Zn28  1  0.623406  0.246814  0.870220  1
  Si  Si29  1  0.000000  0.000000  0.000000  1
