# generated using pymatgen
data_CrFeAg(P2O7)2
_symmetry_space_group_name_H-M   'P 1'
_cell_length_a   4.91336636
_cell_length_b   7.04536712
_cell_length_c   7.94087823
_cell_angle_alpha   90.51219927
_cell_angle_beta   85.84686556
_cell_angle_gamma   74.51473502
_symmetry_Int_Tables_number   1
_chemical_formula_structural   CrFeAg(P2O7)2
_chemical_formula_sum   'Cr1 Fe1 Ag1 P4 O14'
_cell_volume   264.09662377
_cell_formula_units_Z   1
loop_
 _symmetry_equiv_pos_site_id
 _symmetry_equiv_pos_as_xyz
  1  'x, y, z'
loop_
 _atom_site_type_symbol
 _atom_site_label
 _atom_site_symmetry_multiplicity
 _atom_site_fract_x
 _atom_site_fract_y
 _atom_site_fract_z
 _atom_site_occupancy
  Cr  Cr0  1  0.000000  0.500000  0.000000  1
  Fe  Fe1  1  0.500000  0.000000  0.500000  1
  Ag  Ag2  1  0.500000  0.000000  0.000000  1
  P  P3  1  0.121851  0.770007  0.292250  1
  P  P4  1  0.878149  0.229993  0.707750  1
  P  P5  1  0.485539  0.623312  0.754872  1
  P  P6  1  0.514461  0.376688  0.245128  1
  O  O7  1  0.031309  0.747216  0.113316  1
  O  O8  1  0.968691  0.252784  0.886684  1
  O  O9  1  0.669702  0.098199  0.715773  1
  O  O10  1  0.330298  0.901801  0.284227  1
  O  O11  1  0.413450  0.796555  0.641033  1
  O  O12  1  0.586550  0.203445  0.358967  1
  O  O13  1  0.227054  0.551714  0.803595  1
  O  O14  1  0.772946  0.448286  0.196405  1
  O  O15  1  0.363658  0.326846  0.089415  1
  O  O16  1  0.636342  0.673154  0.910585  1
  O  O17  1  0.882382  0.832042  0.428260  1
  O  O18  1  0.117618  0.167958  0.571740  1
  O  O19  1  0.710741  0.448021  0.649893  1
  O  O20  1  0.289259  0.551979  0.350107  1
