# generated using pymatgen
data_Ti2V2SiAs
_symmetry_space_group_name_H-M   'P 1'
_cell_length_a   3.37123700
_cell_length_b   6.58341950
_cell_length_c   7.93445507
_cell_angle_alpha   90.03378001
_cell_angle_beta   90.00000000
_cell_angle_gamma   90.00000000
_symmetry_Int_Tables_number   1
_chemical_formula_structural   Ti2V2SiAs
_chemical_formula_sum   'Ti4 V4 Si2 As2'
_cell_volume   176.09938692
_cell_formula_units_Z   2
loop_
 _symmetry_equiv_pos_site_id
 _symmetry_equiv_pos_as_xyz
  1  'x, y, z'
loop_
 _atom_site_type_symbol
 _atom_site_label
 _atom_site_symmetry_multiplicity
 _atom_site_fract_x
 _atom_site_fract_y
 _atom_site_fract_z
 _atom_site_occupancy
  Ti  Ti0  1  0.250000  0.545453  0.162836  1
  Ti  Ti1  1  0.750000  0.454547  0.837164  1
  Ti  Ti2  1  0.750000  0.947451  0.669767  1
  Ti  Ti3  1  0.250000  0.052549  0.330233  1
  V  V4  1  0.250000  0.628681  0.561616  1
  V  V5  1  0.750000  0.371319  0.438384  1
  V  V6  1  0.750000  0.874154  0.058278  1
  V  V7  1  0.250000  0.125846  0.941722  1
  Si  Si8  1  0.250000  0.750265  0.860622  1
  Si  Si9  1  0.750000  0.249735  0.139378  1
  As  As10  1  0.750000  0.750279  0.358649  1
  As  As11  1  0.250000  0.249721  0.641351  1
