# generated using pymatgen
data_Eu2Hf(SiO3)4
_symmetry_space_group_name_H-M   'P 1'
_cell_length_a   13.97841000
_cell_length_b   5.50931517
_cell_length_c   7.52882075
_cell_angle_alpha   71.84877360
_cell_angle_beta   90.00000000
_cell_angle_gamma   90.00000000
_symmetry_Int_Tables_number   1
_chemical_formula_structural   Eu2Hf(SiO3)4
_chemical_formula_sum   'Eu4 Hf2 Si8 O24'
_cell_volume   550.95300226
_cell_formula_units_Z   2
loop_
 _symmetry_equiv_pos_site_id
 _symmetry_equiv_pos_as_xyz
  1  'x, y, z'
loop_
 _atom_site_type_symbol
 _atom_site_label
 _atom_site_symmetry_multiplicity
 _atom_site_fract_x
 _atom_site_fract_y
 _atom_site_fract_z
 _atom_site_occupancy
  Eu  Eu0  1  0.000000  0.000000  0.500000  1
  Eu  Eu1  1  0.250000  0.166492  0.176829  1
  Eu  Eu2  1  0.750000  0.833508  0.823171  1
  Eu  Eu3  1  0.500000  0.000000  0.500000  1
  Hf  Hf4  1  0.500000  0.000000  0.000000  1
  Hf  Hf5  1  0.000000  0.000000  0.000000  1
  Si  Si6  1  0.639818  0.417145  0.618882  1
  Si  Si7  1  0.864570  0.431557  0.183118  1
  Si  Si8  1  0.860182  0.417145  0.618882  1
  Si  Si9  1  0.135430  0.568443  0.816882  1
  Si  Si10  1  0.139818  0.582855  0.381118  1
  Si  Si11  1  0.635430  0.431557  0.183118  1
  Si  Si12  1  0.364570  0.568443  0.816882  1
  Si  Si13  1  0.360182  0.582855  0.381118  1
  O  O14  1  0.072928  0.797908  0.850795  1
  O  O15  1  0.868345  0.701595  0.627191  1
  O  O16  1  0.891551  0.721478  0.057989  1
  O  O17  1  0.121021  0.609849  0.591549  1
  O  O18  1  0.929135  0.194153  0.752184  1
  O  O19  1  0.750000  0.304103  0.680793  1
  O  O20  1  0.878979  0.390151  0.408451  1
  O  O21  1  0.250000  0.695897  0.319207  1
  O  O22  1  0.368345  0.298405  0.372809  1
  O  O23  1  0.750000  0.398876  0.135851  1
  O  O24  1  0.250000  0.601124  0.864149  1
  O  O25  1  0.621021  0.390151  0.408451  1
  O  O26  1  0.108449  0.278522  0.942011  1
  O  O27  1  0.427072  0.797908  0.850795  1
  O  O28  1  0.070865  0.805847  0.247816  1
  O  O29  1  0.927072  0.202092  0.149205  1
  O  O30  1  0.570865  0.194153  0.752184  1
  O  O31  1  0.608449  0.721478  0.057989  1
  O  O32  1  0.631655  0.701595  0.627191  1
  O  O33  1  0.378979  0.609849  0.591549  1
  O  O34  1  0.131655  0.298405  0.372809  1
  O  O35  1  0.429135  0.805847  0.247816  1
  O  O36  1  0.391551  0.278522  0.942011  1
  O  O37  1  0.572928  0.202092  0.149205  1
