# generated using pymatgen
data_Tb3MgCdIn3Ir
_symmetry_space_group_name_H-M   'P 1'
_cell_length_a   8.26372000
_cell_length_b   8.26372098
_cell_length_c   3.69626900
_cell_angle_alpha   90.00000000
_cell_angle_beta   90.00000000
_cell_angle_gamma   120.00000410
_symmetry_Int_Tables_number   1
_chemical_formula_structural   Tb3MgCdIn3Ir
_chemical_formula_sum   'Tb3 Mg1 Cd1 In3 Ir1'
_cell_volume   218.59761643
_cell_formula_units_Z   1
loop_
 _symmetry_equiv_pos_site_id
 _symmetry_equiv_pos_as_xyz
  1  'x, y, z'
loop_
 _atom_site_type_symbol
 _atom_site_label
 _atom_site_symmetry_multiplicity
 _atom_site_fract_x
 _atom_site_fract_y
 _atom_site_fract_z
 _atom_site_occupancy
  Tb  Tb0  1  0.419490  0.375449  0.000000  1
  Tb  Tb1  1  0.624551  0.044040  0.000000  1
  Tb  Tb2  1  0.955960  0.580510  0.000000  1
  Mg  Mg3  1  0.000000  0.000000  0.000000  1
  Cd  Cd4  1  0.333333  0.666667  0.500000  1
  In  In5  1  0.007061  0.284122  0.500000  1
  In  In6  1  0.715878  0.722939  0.500000  1
  In  In7  1  0.277061  0.992939  0.500000  1
  Ir  Ir8  1  0.666667  0.333333  0.500000  1
