# generated using pymatgen
data_Mg3ScGa2(B2Rh5)2
_symmetry_space_group_name_H-M   'P 1'
_cell_length_a   9.41944109
_cell_length_b   9.41944109
_cell_length_c   2.96676400
_cell_angle_alpha   90.00000000
_cell_angle_beta   90.00000000
_cell_angle_gamma   90.43569379
_symmetry_Int_Tables_number   1
_chemical_formula_structural   Mg3ScGa2(B2Rh5)2
_chemical_formula_sum   'Mg3 Sc1 Ga2 B4 Rh10'
_cell_volume   263.22110744
_cell_formula_units_Z   1
loop_
 _symmetry_equiv_pos_site_id
 _symmetry_equiv_pos_as_xyz
  1  'x, y, z'
loop_
 _atom_site_type_symbol
 _atom_site_label
 _atom_site_symmetry_multiplicity
 _atom_site_fract_x
 _atom_site_fract_y
 _atom_site_fract_z
 _atom_site_occupancy
  Mg  Mg0  1  0.824191  0.324890  0.000000  1
  Mg  Mg1  1  0.175109  0.675811  0.000000  1
  Mg  Mg2  1  0.676835  0.823167  0.000000  1
  Sc  Sc3  1  0.324974  0.175025  0.000000  1
  Ga  Ga4  1  0.999873  0.999608  0.000000  1
  Ga  Ga5  1  0.500392  0.500127  0.000000  1
  B  B6  1  0.626778  0.126406  0.000000  1
  B  B7  1  0.124092  0.375907  0.000000  1
  B  B8  1  0.873962  0.626039  0.000000  1
  B  B9  1  0.373593  0.873223  0.000000  1
  Rh  Rh10  1  0.500467  0.999533  0.499998  1
  Rh  Rh11  1  0.784571  0.071658  0.499998  1
  Rh  Rh12  1  0.072201  0.215685  0.499998  1
  Rh  Rh13  1  0.570335  0.284035  0.499998  1
  Rh  Rh14  1  0.284315  0.427801  0.499998  1
  Rh  Rh15  1  0.999941  0.500059  0.499998  1
  Rh  Rh16  1  0.715301  0.571236  0.499998  1
  Rh  Rh17  1  0.428344  0.715430  0.499998  1
  Rh  Rh18  1  0.928764  0.784700  0.499998  1
  Rh  Rh19  1  0.215965  0.929665  0.499998  1
