# generated using pymatgen
data_TcSn4Hg
_symmetry_space_group_name_H-M   'P 1'
_cell_length_a   6.90775300
_cell_length_b   6.90775300
_cell_length_c   6.18674300
_cell_angle_alpha   90.00000000
_cell_angle_beta   90.00000000
_cell_angle_gamma   90.00000000
_symmetry_Int_Tables_number   1
_chemical_formula_structural   TcSn4Hg
_chemical_formula_sum   'Tc2 Sn8 Hg2'
_cell_volume   295.21313440
_cell_formula_units_Z   2
loop_
 _symmetry_equiv_pos_site_id
 _symmetry_equiv_pos_as_xyz
  1  'x, y, z'
loop_
 _atom_site_type_symbol
 _atom_site_label
 _atom_site_symmetry_multiplicity
 _atom_site_fract_x
 _atom_site_fract_y
 _atom_site_fract_z
 _atom_site_occupancy
  Tc  Tc0  1  0.500000  0.500000  0.250000  1
  Tc  Tc1  1  0.500000  0.500000  0.750000  1
  Sn  Sn2  1  0.383157  0.185635  0.000000  1
  Sn  Sn3  1  0.616843  0.814365  0.000000  1
  Sn  Sn4  1  0.185635  0.616843  0.000000  1
  Sn  Sn5  1  0.383157  0.814365  0.500000  1
  Sn  Sn6  1  0.814365  0.383157  0.000000  1
  Sn  Sn7  1  0.616843  0.185635  0.500000  1
  Sn  Sn8  1  0.185635  0.383157  0.500000  1
  Sn  Sn9  1  0.814365  0.616843  0.500000  1
  Hg  Hg10  1  0.000000  0.000000  0.000000  1
  Hg  Hg11  1  0.000000  0.000000  0.500000  1
