# generated using pymatgen
data_Dy2AlSnRh2
_symmetry_space_group_name_H-M   'P 1'
_cell_length_a   4.15926900
_cell_length_b   7.31340300
_cell_length_c   16.12406300
_cell_angle_alpha   90.00000000
_cell_angle_beta   90.00000000
_cell_angle_gamma   90.00000000
_symmetry_Int_Tables_number   1
_chemical_formula_structural   Dy2AlSnRh2
_chemical_formula_sum   'Dy8 Al4 Sn4 Rh8'
_cell_volume   490.46836537
_cell_formula_units_Z   4
loop_
 _symmetry_equiv_pos_site_id
 _symmetry_equiv_pos_as_xyz
  1  'x, y, z'
loop_
 _atom_site_type_symbol
 _atom_site_label
 _atom_site_symmetry_multiplicity
 _atom_site_fract_x
 _atom_site_fract_y
 _atom_site_fract_z
 _atom_site_occupancy
  Dy  Dy0  1  0.250000  0.168946  0.559487  1
  Dy  Dy1  1  0.750000  0.831054  0.440513  1
  Dy  Dy2  1  0.250000  0.668946  0.940513  1
  Dy  Dy3  1  0.750000  0.331054  0.059487  1
  Dy  Dy4  1  0.250000  0.046006  0.783225  1
  Dy  Dy5  1  0.750000  0.953994  0.216775  1
  Dy  Dy6  1  0.250000  0.546006  0.716775  1
  Dy  Dy7  1  0.750000  0.453994  0.283225  1
  Al  Al8  1  0.250000  0.002819  0.062258  1
  Al  Al9  1  0.750000  0.997181  0.937742  1
  Al  Al10  1  0.250000  0.502819  0.437742  1
  Al  Al11  1  0.750000  0.497181  0.562258  1
  Sn  Sn12  1  0.250000  0.122065  0.349317  1
  Sn  Sn13  1  0.750000  0.877935  0.650683  1
  Sn  Sn14  1  0.250000  0.622065  0.150683  1
  Sn  Sn15  1  0.750000  0.377935  0.849317  1
  Rh  Rh16  1  0.750000  0.281182  0.436293  1
  Rh  Rh17  1  0.250000  0.718818  0.563707  1
  Rh  Rh18  1  0.750000  0.781182  0.063707  1
  Rh  Rh19  1  0.250000  0.218818  0.936293  1
  Rh  Rh20  1  0.750000  0.757826  0.819159  1
  Rh  Rh21  1  0.250000  0.242174  0.180841  1
  Rh  Rh22  1  0.750000  0.257826  0.680841  1
  Rh  Rh23  1  0.250000  0.742174  0.319159  1
