# generated using pymatgen
data_Dy2Er3Zr3(As3Rh4)4
_symmetry_space_group_name_H-M   'P 1'
_cell_length_a   13.32885600
_cell_length_b   13.32885659
_cell_length_c   4.00637400
_cell_angle_alpha   90.00000000
_cell_angle_beta   90.00000000
_cell_angle_gamma   120.00000351
_symmetry_Int_Tables_number   1
_chemical_formula_structural   Dy2Er3Zr3(As3Rh4)4
_chemical_formula_sum   'Dy2 Er3 Zr3 As12 Rh16'
_cell_volume   616.40744615
_cell_formula_units_Z   1
loop_
 _symmetry_equiv_pos_site_id
 _symmetry_equiv_pos_as_xyz
  1  'x, y, z'
loop_
 _atom_site_type_symbol
 _atom_site_label
 _atom_site_symmetry_multiplicity
 _atom_site_fract_x
 _atom_site_fract_y
 _atom_site_fract_z
 _atom_site_occupancy
  Dy  Dy0  1  0.333333  0.666667  0.000000  1
  Dy  Dy1  1  0.666667  0.333333  0.000000  1
  Er  Er2  1  0.187476  0.187476  0.500000  1
  Er  Er3  1  0.812524  0.000000  0.500000  1
  Er  Er4  1  0.000000  0.812524  0.500000  1
  Zr  Zr5  1  0.555764  0.555764  0.000000  1
  Zr  Zr6  1  0.444236  0.000000  0.000000  1
  Zr  Zr7  1  0.000000  0.444236  0.000000  1
  As  As8  1  0.825283  0.825283  0.000000  1
  As  As9  1  0.174717  0.000000  0.000000  1
  As  As10  1  0.000000  0.174717  0.000000  1
  As  As11  1  0.170380  0.485510  0.500000  1
  As  As12  1  0.514490  0.684870  0.500000  1
  As  As13  1  0.315130  0.829620  0.500000  1
  As  As14  1  0.684870  0.514490  0.500000  1
  As  As15  1  0.829620  0.315130  0.500000  1
  As  As16  1  0.485510  0.170380  0.500000  1
  As  As17  1  0.353260  0.353260  0.000000  1
  As  As18  1  0.646740  0.000000  0.000000  1
  As  As19  1  0.000000  0.646740  0.000000  1
  Rh  Rh20  1  0.719800  0.719800  0.500000  1
  Rh  Rh21  1  0.280200  0.000000  0.500000  1
  Rh  Rh22  1  0.000000  0.280200  0.500000  1
  Rh  Rh23  1  0.176206  0.372896  0.000000  1
  Rh  Rh24  1  0.627104  0.803310  0.000000  1
  Rh  Rh25  1  0.196690  0.823794  0.000000  1
  Rh  Rh26  1  0.803310  0.627104  0.000000  1
  Rh  Rh27  1  0.823794  0.196690  0.000000  1
  Rh  Rh28  1  0.372896  0.176206  0.000000  1
  Rh  Rh29  1  0.354667  0.482451  0.500000  1
  Rh  Rh30  1  0.517549  0.872216  0.500000  1
  Rh  Rh31  1  0.127784  0.645333  0.500000  1
  Rh  Rh32  1  0.872216  0.517549  0.500000  1
  Rh  Rh33  1  0.645333  0.127784  0.500000  1
  Rh  Rh34  1  0.482451  0.354667  0.500000  1
  Rh  Rh35  1  0.000000  0.000000  0.000000  1
