# generated using pymatgen
data_Ta5AlGaP
_symmetry_space_group_name_H-M   'P 1'
_cell_length_a   6.65626800
_cell_length_b   7.60300952
_cell_length_c   6.64766600
_cell_angle_alpha   115.92366717
_cell_angle_beta   90.00000000
_cell_angle_gamma   115.95971101
_symmetry_Int_Tables_number   1
_chemical_formula_structural   Ta5AlGaP
_chemical_formula_sum   'Ta10 Al2 Ga2 P2'
_cell_volume   264.31451084
_cell_formula_units_Z   2
loop_
 _symmetry_equiv_pos_site_id
 _symmetry_equiv_pos_as_xyz
  1  'x, y, z'
loop_
 _atom_site_type_symbol
 _atom_site_label
 _atom_site_symmetry_multiplicity
 _atom_site_fract_x
 _atom_site_fract_y
 _atom_site_fract_z
 _atom_site_occupancy
  Ta  Ta0  1  0.991082  0.000000  0.997764  1
  Ta  Ta1  1  0.508918  0.000000  0.497764  1
  Ta  Ta2  1  0.521489  0.704565  0.690212  1
  Ta  Ta3  1  0.192067  0.694267  0.009898  1
  Ta  Ta4  1  0.683075  0.704565  0.190212  1
  Ta  Ta5  1  0.002199  0.694267  0.509898  1
  Ta  Ta6  1  0.497801  0.305733  0.315632  1
  Ta  Ta7  1  0.816925  0.295435  0.985649  1
  Ta  Ta8  1  0.307933  0.305733  0.815632  1
  Ta  Ta9  1  0.978511  0.295435  0.485649  1
  Al  Al10  1  0.750000  0.500000  0.756654  1
  Al  Al11  1  0.250000  0.500000  0.256654  1
  Ga  Ga12  1  0.138709  0.000000  0.363011  1
  Ga  Ga13  1  0.361291  0.000000  0.863011  1
  P  P14  1  0.871419  0.000000  0.631181  1
  P  P15  1  0.628581  0.000000  0.131181  1
