# generated using pymatgen
data_Ho2Bi2Os2O11
_symmetry_space_group_name_H-M   'P 1'
_cell_length_a   6.55547305
_cell_length_b   7.50909983
_cell_length_c   9.65992310
_cell_angle_alpha   101.19356611
_cell_angle_beta   90.87493029
_cell_angle_gamma   90.08165864
_symmetry_Int_Tables_number   1
_chemical_formula_structural   Ho2Bi2Os2O11
_chemical_formula_sum   'Ho4 Bi4 Os4 O22'
_cell_volume   466.41166607
_cell_formula_units_Z   2
loop_
 _symmetry_equiv_pos_site_id
 _symmetry_equiv_pos_as_xyz
  1  'x, y, z'
loop_
 _atom_site_type_symbol
 _atom_site_label
 _atom_site_symmetry_multiplicity
 _atom_site_fract_x
 _atom_site_fract_y
 _atom_site_fract_z
 _atom_site_occupancy
  Ho  Ho0  1  0.743771  0.368919  0.482336  1
  Ho  Ho1  1  0.256229  0.631081  0.517664  1
  Ho  Ho2  1  0.755801  0.872400  0.490725  1
  Ho  Ho3  1  0.244199  0.127600  0.509275  1
  Bi  Bi4  1  0.455091  0.955662  0.819773  1
  Bi  Bi5  1  0.544909  0.044338  0.180227  1
  Bi  Bi6  1  0.400139  0.454844  0.825458  1
  Bi  Bi7  1  0.599861  0.545156  0.174542  1
  Os  Os8  1  0.926758  0.701535  0.808220  1
  Os  Os9  1  0.073242  0.298465  0.191780  1
  Os  Os10  1  0.928268  0.201016  0.806711  1
  Os  Os11  1  0.071732  0.798984  0.193289  1
  O  O12  1  0.221761  0.717552  0.756106  1
  O  O13  1  0.778239  0.282448  0.243894  1
  O  O14  1  0.630973  0.680018  0.840657  1
  O  O15  1  0.369027  0.319982  0.159343  1
  O  O16  1  0.632277  0.239044  0.838478  1
  O  O17  1  0.367723  0.760956  0.161522  1
  O  O18  1  0.891531  0.159326  0.591056  1
  O  O19  1  0.108469  0.840674  0.408944  1
  O  O20  1  0.221050  0.157819  0.751640  1
  O  O21  1  0.778950  0.842181  0.248360  1
  O  O22  1  0.891166  0.635444  0.596554  1
  O  O23  1  0.108834  0.364556  0.403446  1
  O  O24  1  0.024870  0.546652  0.184394  1
  O  O25  1  0.975130  0.453348  0.815606  1
  O  O26  1  0.998655  0.777621  0.001273  1
  O  O27  1  0.001345  0.222379  0.998727  1
  O  O28  1  0.568699  0.600004  0.397886  1
  O  O29  1  0.431301  0.399996  0.602114  1
  O  O30  1  0.152049  0.055600  0.220789  1
  O  O31  1  0.847951  0.944400  0.779211  1
  O  O32  1  0.543798  0.102107  0.403018  1
  O  O33  1  0.456202  0.897893  0.596982  1
