# generated using pymatgen
data_LaYbFeIr3
_symmetry_space_group_name_H-M   'P 1'
_cell_length_a   5.18829202
_cell_length_b   5.18829110
_cell_length_c   5.18829153
_cell_angle_alpha   64.41964209
_cell_angle_beta   64.41965415
_cell_angle_gamma   64.41964583
_symmetry_Int_Tables_number   1
_chemical_formula_structural   LaYbFeIr3
_chemical_formula_sum   'La1 Yb1 Fe1 Ir3'
_cell_volume   108.33360538
_cell_formula_units_Z   1
loop_
 _symmetry_equiv_pos_site_id
 _symmetry_equiv_pos_as_xyz
  1  'x, y, z'
loop_
 _atom_site_type_symbol
 _atom_site_label
 _atom_site_symmetry_multiplicity
 _atom_site_fract_x
 _atom_site_fract_y
 _atom_site_fract_z
 _atom_site_occupancy
  La  La0  1  0.249486  0.249486  0.249486  1
  Yb  Yb1  1  0.999177  0.999177  0.999177  1
  Fe  Fe2  1  0.625128  0.625128  0.625128  1
  Ir  Ir3  1  0.626339  0.626339  0.123531  1
  Ir  Ir4  1  0.626339  0.123531  0.626339  1
  Ir  Ir5  1  0.123531  0.626339  0.626339  1
