# generated using pymatgen
data_CaHfU2Bi5
_symmetry_space_group_name_H-M   'P 1'
_cell_length_a   9.62160200
_cell_length_b   9.56055471
_cell_length_c   6.43009700
_cell_angle_alpha   90.00000000
_cell_angle_beta   90.00000000
_cell_angle_gamma   119.79034052
_symmetry_Int_Tables_number   1
_chemical_formula_structural   CaHfU2Bi5
_chemical_formula_sum   'Ca2 Hf2 U4 Bi10'
_cell_volume   513.32484413
_cell_formula_units_Z   2
loop_
 _symmetry_equiv_pos_site_id
 _symmetry_equiv_pos_as_xyz
  1  'x, y, z'
loop_
 _atom_site_type_symbol
 _atom_site_label
 _atom_site_symmetry_multiplicity
 _atom_site_fract_x
 _atom_site_fract_y
 _atom_site_fract_z
 _atom_site_occupancy
  Ca  Ca0  1  0.378034  0.001354  0.750000  1
  Ca  Ca1  1  0.378034  0.376680  0.250000  1
  Hf  Hf2  1  0.998452  0.999226  0.500000  1
  Hf  Hf3  1  0.998452  0.999226  0.000000  1
  U  U4  1  0.004030  0.615677  0.250000  1
  U  U5  1  0.004030  0.388353  0.750000  1
  U  U6  1  0.617318  0.617174  0.750000  1
  U  U7  1  0.617318  0.000144  0.250000  1
  Bi  Bi8  1  0.336236  0.668118  0.500000  1
  Bi  Bi9  1  0.673916  0.336957  0.000000  1
  Bi  Bi10  1  0.673916  0.336957  0.500000  1
  Bi  Bi11  1  0.336236  0.668118  0.000000  1
  Bi  Bi12  1  0.732048  0.002241  0.750000  1
  Bi  Bi13  1  0.732048  0.729806  0.250000  1
  Bi  Bi14  1  0.996473  0.267369  0.250000  1
  Bi  Bi15  1  0.996473  0.729105  0.750000  1
  Bi  Bi16  1  0.263494  0.996427  0.250000  1
  Bi  Bi17  1  0.263494  0.267066  0.750000  1
