# generated using pymatgen
data_Tm4Al3ZnRu4
_symmetry_space_group_name_H-M   'P 1'
_cell_length_a   4.02929500
_cell_length_b   6.91135348
_cell_length_c   8.01669689
_cell_angle_alpha   89.92353237
_cell_angle_beta   90.00000000
_cell_angle_gamma   90.00000000
_symmetry_Int_Tables_number   1
_chemical_formula_structural   Tm4Al3ZnRu4
_chemical_formula_sum   'Tm4 Al3 Zn1 Ru4'
_cell_volume   223.24783057
_cell_formula_units_Z   1
loop_
 _symmetry_equiv_pos_site_id
 _symmetry_equiv_pos_as_xyz
  1  'x, y, z'
loop_
 _atom_site_type_symbol
 _atom_site_label
 _atom_site_symmetry_multiplicity
 _atom_site_fract_x
 _atom_site_fract_y
 _atom_site_fract_z
 _atom_site_occupancy
  Tm  Tm0  1  0.250000  0.034405  0.676811  1
  Tm  Tm1  1  0.250000  0.526143  0.823769  1
  Tm  Tm2  1  0.750000  0.971680  0.321206  1
  Tm  Tm3  1  0.750000  0.467284  0.174581  1
  Al  Al4  1  0.250000  0.639821  0.443612  1
  Al  Al5  1  0.750000  0.858131  0.942727  1
  Al  Al6  1  0.750000  0.363081  0.558489  1
  Zn  Zn7  1  0.250000  0.139969  0.059307  1
  Ru  Ru8  1  0.250000  0.272952  0.373986  1
  Ru  Ru9  1  0.250000  0.764197  0.131899  1
  Ru  Ru10  1  0.750000  0.732963  0.630607  1
  Ru  Ru11  1  0.750000  0.229374  0.863005  1
