# generated using pymatgen
data_Pr4Nd3Ho13Si16
_symmetry_space_group_name_H-M   'P 1'
_cell_length_a   7.71417272
_cell_length_b   7.72008284
_cell_length_c   14.26713800
_cell_angle_alpha   89.99147252
_cell_angle_beta   89.85203981
_cell_angle_gamma   90.07577509
_symmetry_Int_Tables_number   1
_chemical_formula_structural   Pr4Nd3Ho13Si16
_chemical_formula_sum   'Pr4 Nd3 Ho13 Si16'
_cell_volume   849.66229893
_cell_formula_units_Z   1
loop_
 _symmetry_equiv_pos_site_id
 _symmetry_equiv_pos_as_xyz
  1  'x, y, z'
loop_
 _atom_site_type_symbol
 _atom_site_label
 _atom_site_symmetry_multiplicity
 _atom_site_fract_x
 _atom_site_fract_y
 _atom_site_fract_z
 _atom_site_occupancy
  Pr  Pr0  1  0.357838  0.007608  0.958382  1
  Pr  Pr1  1  0.992419  0.643492  0.540705  1
  Pr  Pr2  1  0.490248  0.857840  0.209598  1
  Pr  Pr3  1  0.509541  0.140417  0.707092  1
  Nd  Nd4  1  0.859098  0.490444  0.791723  1
  Nd  Nd5  1  0.140212  0.508536  0.292841  1
  Nd  Nd6  1  0.007414  0.357803  0.042711  1
  Ho  Ho7  1  0.491196  0.360823  0.124928  1
  Ho  Ho8  1  0.991693  0.136824  0.624231  1
  Ho  Ho9  1  0.861917  0.008295  0.874716  1
  Ho  Ho10  1  0.137400  0.993269  0.375123  1
  Ho  Ho11  1  0.511069  0.639637  0.622895  1
  Ho  Ho12  1  0.361188  0.491066  0.875285  1
  Ho  Ho13  1  0.639806  0.509940  0.376181  1
  Ho  Ho14  1  0.006657  0.861277  0.126630  1
  Ho  Ho15  1  0.636755  0.996059  0.456072  1
  Ho  Ho16  1  0.318184  0.317141  0.499807  1
  Ho  Ho17  1  0.183871  0.816349  0.749147  1
  Ho  Ho18  1  0.815520  0.182927  0.250522  1
  Ho  Ho19  1  0.682851  0.681354  0.000289  1
  Si  Si20  1  0.294092  0.938297  0.559823  1
  Si  Si21  1  0.710234  0.064065  0.061639  1
  Si  Si22  1  0.933516  0.287788  0.438128  1
  Si  Si23  1  0.437675  0.209754  0.312873  1
  Si  Si24  1  0.565345  0.787614  0.811470  1
  Si  Si25  1  0.211291  0.436106  0.688063  1
  Si  Si26  1  0.789086  0.564543  0.189205  1
  Si  Si27  1  0.063841  0.709611  0.938814  1
  Si  Si28  1  0.798746  0.844774  0.690996  1
  Si  Si29  1  0.202261  0.153732  0.189853  1
  Si  Si30  1  0.843939  0.800967  0.314205  1
  Si  Si31  1  0.350915  0.707326  0.437793  1
  Si  Si32  1  0.653800  0.296347  0.939859  1
  Si  Si33  1  0.702156  0.342612  0.558430  1
  Si  Si34  1  0.295094  0.652152  0.060661  1
  Si  Si35  1  0.153128  0.203207  0.809310  1
