# generated using pymatgen
data_CsNdMn(H6Ir)2
_symmetry_space_group_name_H-M   'P 1'
_cell_length_a   4.95128500
_cell_length_b   4.95128647
_cell_length_c   9.83328900
_cell_angle_alpha   90.00000000
_cell_angle_beta   90.00000000
_cell_angle_gamma   119.99999686
_symmetry_Int_Tables_number   1
_chemical_formula_structural   CsNdMn(H6Ir)2
_chemical_formula_sum   'Cs1 Nd1 Mn1 H12 Ir2'
_cell_volume   208.76871996
_cell_formula_units_Z   1
loop_
 _symmetry_equiv_pos_site_id
 _symmetry_equiv_pos_as_xyz
  1  'x, y, z'
loop_
 _atom_site_type_symbol
 _atom_site_label
 _atom_site_symmetry_multiplicity
 _atom_site_fract_x
 _atom_site_fract_y
 _atom_site_fract_z
 _atom_site_occupancy
  Cs  Cs0  1  0.000000  0.000000  0.002626  1
  Nd  Nd1  1  0.333333  0.666667  0.611427  1
  Mn  Mn2  1  0.666667  0.333333  0.334221  1
  H  H3  1  0.166849  0.833151  0.391870  1
  H  H4  1  0.666302  0.833151  0.391870  1
  H  H5  1  0.166849  0.333698  0.391870  1
  H  H6  1  0.832823  0.167177  0.614087  1
  H  H7  1  0.334354  0.167177  0.614087  1
  H  H8  1  0.832823  0.665646  0.614087  1
  H  H9  1  0.512671  0.025342  0.810316  1
  H  H10  1  0.512671  0.487329  0.810316  1
  H  H11  1  0.974658  0.487329  0.810316  1
  H  H12  1  0.489495  0.978990  0.197676  1
  H  H13  1  0.489495  0.510505  0.197676  1
  H  H14  1  0.021010  0.510505  0.197676  1
  Ir  Ir15  1  0.666667  0.333333  0.706264  1
  Ir  Ir16  1  0.333333  0.666667  0.303615  1
