# generated using pymatgen
data_Ba6V3PSe16
_symmetry_space_group_name_H-M   'P 1'
_cell_length_a   11.51659912
_cell_length_b   11.51659823
_cell_length_c   11.51659900
_cell_angle_alpha   51.64256770
_cell_angle_beta   51.64257121
_cell_angle_gamma   51.64257368
_symmetry_Int_Tables_number   1
_chemical_formula_structural   Ba6V3PSe16
_chemical_formula_sum   'Ba6 V3 P1 Se16'
_cell_volume   867.64749446
_cell_formula_units_Z   1
loop_
 _symmetry_equiv_pos_site_id
 _symmetry_equiv_pos_as_xyz
  1  'x, y, z'
loop_
 _atom_site_type_symbol
 _atom_site_label
 _atom_site_symmetry_multiplicity
 _atom_site_fract_x
 _atom_site_fract_y
 _atom_site_fract_z
 _atom_site_occupancy
  Ba  Ba0  1  0.746866  0.432418  0.069968  1
  Ba  Ba1  1  0.572287  0.929782  0.249031  1
  Ba  Ba2  1  0.069968  0.746866  0.432419  1
  Ba  Ba3  1  0.929783  0.249031  0.572287  1
  Ba  Ba4  1  0.432419  0.069969  0.746865  1
  Ba  Ba5  1  0.249031  0.572287  0.929783  1
  V  V6  1  0.339544  0.339544  0.339544  1
  V  V7  1  0.660404  0.660404  0.660404  1
  V  V8  1  0.839385  0.839385  0.839385  1
  P  P9  1  0.160614  0.160614  0.160614  1
  Se  Se10  1  0.612341  0.789562  0.039478  1
  Se  Se11  1  0.085398  0.085398  0.085398  1
  Se  Se12  1  0.539389  0.288519  0.113096  1
  Se  Se13  1  0.963572  0.379931  0.212178  1
  Se  Se14  1  0.113096  0.539388  0.288519  1
  Se  Se15  1  0.212177  0.963573  0.379931  1
  Se  Se16  1  0.417074  0.417074  0.417074  1
  Se  Se17  1  0.711373  0.887014  0.460938  1
  Se  Se18  1  0.288519  0.113096  0.539389  1
  Se  Se19  1  0.582852  0.582852  0.582852  1
  Se  Se20  1  0.789562  0.039478  0.612341  1
  Se  Se21  1  0.887014  0.460939  0.711373  1
  Se  Se22  1  0.039478  0.612341  0.789562  1
  Se  Se23  1  0.460939  0.711373  0.887014  1
  Se  Se24  1  0.916984  0.916984  0.916984  1
  Se  Se25  1  0.379932  0.212177  0.963572  1
