# generated using pymatgen
data_Er4Mg2B4Ir3Rh7
_symmetry_space_group_name_H-M   'P 1'
_cell_length_a   9.65168709
_cell_length_b   9.63650509
_cell_length_c   3.16098000
_cell_angle_alpha   90.00000000
_cell_angle_beta   90.00000000
_cell_angle_gamma   89.98444043
_symmetry_Int_Tables_number   1
_chemical_formula_structural   Er4Mg2B4Ir3Rh7
_chemical_formula_sum   'Er4 Mg2 B4 Ir3 Rh7'
_cell_volume   293.99809785
_cell_formula_units_Z   1
loop_
 _symmetry_equiv_pos_site_id
 _symmetry_equiv_pos_as_xyz
  1  'x, y, z'
loop_
 _atom_site_type_symbol
 _atom_site_label
 _atom_site_symmetry_multiplicity
 _atom_site_fract_x
 _atom_site_fract_y
 _atom_site_fract_z
 _atom_site_occupancy
  Er  Er0  1  0.677035  0.177297  0.000000  1
  Er  Er1  1  0.322404  0.822949  0.000000  1
  Er  Er2  1  0.177028  0.323156  0.000000  1
  Er  Er3  1  0.822449  0.677558  0.000000  1
  Mg  Mg4  1  0.999303  0.999580  0.000000  1
  Mg  Mg5  1  0.500077  0.499947  0.000000  1
  B  B6  1  0.122083  0.622407  0.000000  1
  B  B7  1  0.878222  0.377812  0.000000  1
  B  B8  1  0.621573  0.878157  0.000000  1
  B  B9  1  0.375990  0.121605  0.000000  1
  Ir  Ir10  1  0.501163  0.999657  0.500000  1
  Ir  Ir11  1  0.999783  0.500664  0.500000  1
  Ir  Ir12  1  0.224117  0.070204  0.500000  1
  Rh  Rh13  1  0.776245  0.929356  0.500000  1
  Rh  Rh14  1  0.070313  0.776363  0.500000  1
  Rh  Rh15  1  0.724311  0.429143  0.500000  1
  Rh  Rh16  1  0.930380  0.223781  0.500000  1
  Rh  Rh17  1  0.276003  0.570319  0.500000  1
  Rh  Rh18  1  0.570654  0.723455  0.500000  1
  Rh  Rh19  1  0.430869  0.276591  0.500000  1
