# generated using pymatgen
data_Sc2Be2GeIrRh4
_symmetry_space_group_name_H-M   'P 1'
_cell_length_a   9.48006400
_cell_length_b   9.48006400
_cell_length_c   3.11269200
_cell_angle_alpha   90.00000000
_cell_angle_beta   90.00000000
_cell_angle_gamma   90.00000000
_symmetry_Int_Tables_number   1
_chemical_formula_structural   Sc2Be2GeIrRh4
_chemical_formula_sum   'Sc4 Be4 Ge2 Ir2 Rh8'
_cell_volume   279.74265219
_cell_formula_units_Z   2
loop_
 _symmetry_equiv_pos_site_id
 _symmetry_equiv_pos_as_xyz
  1  'x, y, z'
loop_
 _atom_site_type_symbol
 _atom_site_label
 _atom_site_symmetry_multiplicity
 _atom_site_fract_x
 _atom_site_fract_y
 _atom_site_fract_z
 _atom_site_occupancy
  Sc  Sc0  1  0.674470  0.174470  0.000000  1
  Sc  Sc1  1  0.325530  0.825530  0.000000  1
  Sc  Sc2  1  0.174470  0.325530  0.000000  1
  Sc  Sc3  1  0.825530  0.674470  0.000000  1
  Be  Be4  1  0.123915  0.623915  0.000000  1
  Be  Be5  1  0.876085  0.376085  0.000000  1
  Be  Be6  1  0.623915  0.876085  0.000000  1
  Be  Be7  1  0.376085  0.123915  0.000000  1
  Ge  Ge8  1  0.000000  0.000000  0.000000  1
  Ge  Ge9  1  0.500000  0.500000  0.000000  1
  Ir  Ir10  1  0.500000  0.000000  0.500000  1
  Ir  Ir11  1  0.000000  0.500000  0.500000  1
  Rh  Rh12  1  0.207609  0.068867  0.500000  1
  Rh  Rh13  1  0.792391  0.931133  0.500000  1
  Rh  Rh14  1  0.068867  0.792391  0.500000  1
  Rh  Rh15  1  0.707609  0.431133  0.500000  1
  Rh  Rh16  1  0.931133  0.207609  0.500000  1
  Rh  Rh17  1  0.292391  0.568867  0.500000  1
  Rh  Rh18  1  0.568867  0.707609  0.500000  1
  Rh  Rh19  1  0.431133  0.292391  0.500000  1
