# generated using pymatgen
data_KAc3(SbPt)4
_symmetry_space_group_name_H-M   'P 1'
_cell_length_a   4.64812700
_cell_length_b   8.73073038
_cell_length_c   7.97671700
_cell_angle_alpha   89.94957343
_cell_angle_beta   90.00000000
_cell_angle_gamma   90.00000000
_symmetry_Int_Tables_number   1
_chemical_formula_structural   KAc3(SbPt)4
_chemical_formula_sum   'K1 Ac3 Sb4 Pt4'
_cell_volume   323.70736347
_cell_formula_units_Z   1
loop_
 _symmetry_equiv_pos_site_id
 _symmetry_equiv_pos_as_xyz
  1  'x, y, z'
loop_
 _atom_site_type_symbol
 _atom_site_label
 _atom_site_symmetry_multiplicity
 _atom_site_fract_x
 _atom_site_fract_y
 _atom_site_fract_z
 _atom_site_occupancy
  K  K0  1  0.250000  0.502236  0.247981  1
  Ac  Ac1  1  0.750000  0.001031  0.747899  1
  Ac  Ac2  1  0.250000  0.001972  0.251396  1
  Ac  Ac3  1  0.750000  0.501742  0.752829  1
  Sb  Sb4  1  0.750000  0.263140  0.413307  1
  Sb  Sb5  1  0.250000  0.260751  0.917951  1
  Sb  Sb6  1  0.250000  0.745683  0.581910  1
  Sb  Sb7  1  0.750000  0.751206  0.086438  1
  Pt  Pt8  1  0.250000  0.758009  0.915910  1
  Pt  Pt9  1  0.250000  0.229782  0.583413  1
  Pt  Pt10  1  0.750000  0.757928  0.423731  1
  Pt  Pt11  1  0.750000  0.226522  0.077236  1
