# generated using pymatgen
data_Er5TlIn(HgPd)2
_symmetry_space_group_name_H-M   'P 1'
_cell_length_a   3.60292900
_cell_length_b   8.00802242
_cell_length_c   18.22472779
_cell_angle_alpha   89.67282373
_cell_angle_beta   90.00000000
_cell_angle_gamma   90.00000000
_symmetry_Int_Tables_number   1
_chemical_formula_structural   Er5TlIn(HgPd)2
_chemical_formula_sum   'Er10 Tl2 In2 Hg4 Pd4'
_cell_volume   525.81740048
_cell_formula_units_Z   2
loop_
 _symmetry_equiv_pos_site_id
 _symmetry_equiv_pos_as_xyz
  1  'x, y, z'
loop_
 _atom_site_type_symbol
 _atom_site_label
 _atom_site_symmetry_multiplicity
 _atom_site_fract_x
 _atom_site_fract_y
 _atom_site_fract_z
 _atom_site_occupancy
  Er  Er0  1  0.000000  0.500000  0.500000  1
  Er  Er1  1  0.000000  0.000000  0.000000  1
  Er  Er2  1  0.000000  0.744799  0.284572  1
  Er  Er3  1  0.000000  0.255201  0.715428  1
  Er  Er4  1  0.000000  0.754542  0.785862  1
  Er  Er5  1  0.000000  0.245458  0.214138  1
  Er  Er6  1  0.000000  0.610337  0.083088  1
  Er  Er7  1  0.000000  0.389663  0.916912  1
  Er  Er8  1  0.000000  0.891883  0.584700  1
  Er  Er9  1  0.000000  0.108117  0.415300  1
  Tl  Tl10  1  0.500000  0.580611  0.648423  1
  Tl  Tl11  1  0.500000  0.419389  0.351577  1
  In  In12  1  0.500000  0.918870  0.148587  1
  In  In13  1  0.500000  0.081130  0.851413  1
  Hg  Hg14  1  0.500000  0.712224  0.934358  1
  Hg  Hg15  1  0.500000  0.287776  0.065642  1
  Hg  Hg16  1  0.500000  0.791372  0.434969  1
  Hg  Hg17  1  0.500000  0.208628  0.565031  1
  Pd  Pd18  1  0.500000  0.535514  0.196454  1
  Pd  Pd19  1  0.500000  0.464486  0.803546  1
  Pd  Pd20  1  0.500000  0.970276  0.699300  1
  Pd  Pd21  1  0.500000  0.029724  0.300700  1
