# generated using pymatgen
data_LiSc2Ga7Co
_symmetry_space_group_name_H-M   'P 1'
_cell_length_a   4.12227100
_cell_length_b   4.14509500
_cell_length_c   10.71357600
_cell_angle_alpha   90.00000000
_cell_angle_beta   90.00000000
_cell_angle_gamma   90.00000000
_symmetry_Int_Tables_number   1
_chemical_formula_structural   LiSc2Ga7Co
_chemical_formula_sum   'Li1 Sc2 Ga7 Co1'
_cell_volume   183.06506844
_cell_formula_units_Z   1
loop_
 _symmetry_equiv_pos_site_id
 _symmetry_equiv_pos_as_xyz
  1  'x, y, z'
loop_
 _atom_site_type_symbol
 _atom_site_label
 _atom_site_symmetry_multiplicity
 _atom_site_fract_x
 _atom_site_fract_y
 _atom_site_fract_z
 _atom_site_occupancy
  Li  Li0  1  0.000000  0.500000  0.500000  1
  Sc  Sc1  1  0.000000  0.000000  0.302087  1
  Sc  Sc2  1  0.000000  0.000000  0.697913  1
  Ga  Ga3  1  0.000000  0.500000  0.122793  1
  Ga  Ga4  1  0.000000  0.500000  0.877207  1
  Ga  Ga5  1  0.500000  0.000000  0.122278  1
  Ga  Ga6  1  0.500000  0.000000  0.877722  1
  Ga  Ga7  1  0.500000  0.500000  0.316515  1
  Ga  Ga8  1  0.500000  0.500000  0.683485  1
  Ga  Ga9  1  0.500000  0.000000  0.500000  1
  Co  Co10  1  0.000000  0.000000  0.000000  1
