# generated using pymatgen
data_SmDy3Hf4F28
_symmetry_space_group_name_H-M   'P 1'
_cell_length_a   5.73529356
_cell_length_b   9.08498279
_cell_length_c   12.20245093
_cell_angle_alpha   62.29354954
_cell_angle_beta   89.97636769
_cell_angle_gamma   90.00762818
_symmetry_Int_Tables_number   1
_chemical_formula_structural   SmDy3Hf4F28
_chemical_formula_sum   'Sm1 Dy3 Hf4 F28'
_cell_volume   562.90808047
_cell_formula_units_Z   1
loop_
 _symmetry_equiv_pos_site_id
 _symmetry_equiv_pos_as_xyz
  1  'x, y, z'
loop_
 _atom_site_type_symbol
 _atom_site_label
 _atom_site_symmetry_multiplicity
 _atom_site_fract_x
 _atom_site_fract_y
 _atom_site_fract_z
 _atom_site_occupancy
  Sm  Sm0  1  0.756540  0.814934  0.766565  1
  Dy  Dy1  1  0.743558  0.815514  0.266299  1
  Dy  Dy2  1  0.243531  0.185777  0.233702  1
  Dy  Dy3  1  0.256752  0.188218  0.733358  1
  Hf  Hf4  1  0.744054  0.276022  0.453879  1
  Hf  Hf5  1  0.244639  0.725762  0.047354  1
  Hf  Hf6  1  0.255177  0.725986  0.542355  1
  Hf  Hf7  1  0.755330  0.271614  0.956324  1
  F  F8  1  0.461206  0.709466  0.924736  1
  F  F9  1  0.964013  0.289176  0.576756  1
  F  F10  1  0.534746  0.287690  0.077863  1
  F  F11  1  0.034316  0.710897  0.420803  1
  F  F12  1  0.457142  0.282324  0.547946  1
  F  F13  1  0.957734  0.715997  0.955550  1
  F  F14  1  0.544348  0.718412  0.450379  1
  F  F15  1  0.042555  0.280215  0.049443  1
  F  F16  1  0.767705  0.519447  0.860021  1
  F  F17  1  0.267116  0.477153  0.639793  1
  F  F18  1  0.234113  0.476568  0.142238  1
  F  F19  1  0.733081  0.524397  0.357979  1
  F  F20  1  0.759789  0.023643  0.057753  1
  F  F21  1  0.259621  0.974214  0.442001  1
  F  F22  1  0.239743  0.973392  0.943759  1
  F  F23  1  0.739847  0.027947  0.554153  1
  F  F24  1  0.987232  0.731793  0.645599  1
  F  F25  1  0.486989  0.266334  0.852379  1
  F  F26  1  0.011734  0.266401  0.350896  1
  F  F27  1  0.513258  0.733883  0.149897  1
  F  F28  1  0.035061  0.746043  0.172952  1
  F  F29  1  0.534245  0.254627  0.328437  1
  F  F30  1  0.964810  0.252936  0.829635  1
  F  F31  1  0.460062  0.743999  0.669905  1
  F  F32  1  0.428524  0.973490  0.234887  1
  F  F33  1  0.929157  0.027158  0.265106  1
  F  F34  1  0.571627  0.033435  0.765789  1
  F  F35  1  0.080643  0.975137  0.733507  1
