# generated using pymatgen
data_Rb3Eu(MnN2)4
_symmetry_space_group_name_H-M   'P 1'
_cell_length_a   6.57979517
_cell_length_b   6.57979463
_cell_length_c   7.86745344
_cell_angle_alpha   90.58532023
_cell_angle_beta   89.41467817
_cell_angle_gamma   128.18002415
_symmetry_Int_Tables_number   1
_chemical_formula_structural   Rb3Eu(MnN2)4
_chemical_formula_sum   'Rb3 Eu1 Mn4 N8'
_cell_volume   267.72779363
_cell_formula_units_Z   1
loop_
 _symmetry_equiv_pos_site_id
 _symmetry_equiv_pos_as_xyz
  1  'x, y, z'
loop_
 _atom_site_type_symbol
 _atom_site_label
 _atom_site_symmetry_multiplicity
 _atom_site_fract_x
 _atom_site_fract_y
 _atom_site_fract_z
 _atom_site_occupancy
  Rb  Rb0  1  0.833324  0.166676  0.560499  1
  Rb  Rb1  1  0.158776  0.841224  0.440486  1
  Rb  Rb2  1  0.665363  0.334637  0.065517  1
  Eu  Eu3  1  0.362147  0.637853  0.979132  1
  Mn  Mn4  1  0.537374  0.462626  0.634638  1
  Mn  Mn5  1  0.452372  0.547628  0.365370  1
  Mn  Mn6  1  0.960443  0.039557  0.129741  1
  Mn  Mn7  1  0.045261  0.954739  0.860955  1
  N  N8  1  0.898263  0.101737  0.921050  1
  N  N9  1  0.108446  0.891554  0.069294  1
  N  N10  1  0.596234  0.403766  0.422973  1
  N  N11  1  0.392123  0.607877  0.581343  1
  N  N12  1  0.325984  0.178430  0.747994  1
  N  N13  1  0.178700  0.336381  0.236507  1
  N  N14  1  0.663619  0.821300  0.236507  1
  N  N15  1  0.821570  0.674016  0.747994  1
