# generated using pymatgen
data_Ca4NiSb4Pt3
_symmetry_space_group_name_H-M   'P 1'
_cell_length_a   4.60305100
_cell_length_b   7.38854750
_cell_length_c   7.88371897
_cell_angle_alpha   90.43758816
_cell_angle_beta   90.00000000
_cell_angle_gamma   90.00000000
_symmetry_Int_Tables_number   1
_chemical_formula_structural   Ca4NiSb4Pt3
_chemical_formula_sum   'Ca4 Ni1 Sb4 Pt3'
_cell_volume   268.11636608
_cell_formula_units_Z   1
loop_
 _symmetry_equiv_pos_site_id
 _symmetry_equiv_pos_as_xyz
  1  'x, y, z'
loop_
 _atom_site_type_symbol
 _atom_site_label
 _atom_site_symmetry_multiplicity
 _atom_site_fract_x
 _atom_site_fract_y
 _atom_site_fract_z
 _atom_site_occupancy
  Ca  Ca0  1  0.750000  0.993336  0.695736  1
  Ca  Ca1  1  0.250000  0.003448  0.303452  1
  Ca  Ca2  1  0.750000  0.486025  0.800683  1
  Ca  Ca3  1  0.250000  0.510046  0.197465  1
  Ni  Ni4  1  0.250000  0.815714  0.917441  1
  Sb  Sb5  1  0.750000  0.315465  0.409004  1
  Sb  Sb6  1  0.250000  0.176826  0.909014  1
  Sb  Sb7  1  0.250000  0.692534  0.602148  1
  Sb  Sb8  1  0.750000  0.807783  0.080421  1
  Pt  Pt9  1  0.250000  0.302751  0.585162  1
  Pt  Pt10  1  0.750000  0.698992  0.415155  1
  Pt  Pt11  1  0.750000  0.197082  0.084319  1
