# generated using pymatgen
data_LiUI5Br
_symmetry_space_group_name_H-M   'P 1'
_cell_length_a   7.97091731
_cell_length_b   7.92077451
_cell_length_c   7.34764380
_cell_angle_alpha   81.70693354
_cell_angle_beta   81.71594020
_cell_angle_gamma   119.72805705
_symmetry_Int_Tables_number   1
_chemical_formula_structural   LiUI5Br
_chemical_formula_sum   'Li1 U1 I5 Br1'
_cell_volume   385.88114221
_cell_formula_units_Z   1
loop_
 _symmetry_equiv_pos_site_id
 _symmetry_equiv_pos_as_xyz
  1  'x, y, z'
loop_
 _atom_site_type_symbol
 _atom_site_label
 _atom_site_symmetry_multiplicity
 _atom_site_fract_x
 _atom_site_fract_y
 _atom_site_fract_z
 _atom_site_occupancy
  Li  Li0  1  0.912211  0.104953  0.491576  1
  U  U1  1  0.995043  0.010381  0.002467  1
  I  I2  1  0.742488  0.752081  0.780473  1
  I  I3  1  0.040132  0.362355  0.740092  1
  I  I4  1  0.351536  0.071744  0.763117  1
  I  I5  1  0.930859  0.653016  0.247956  1
  I  I6  1  0.643338  0.967385  0.257268  1
  Br  Br7  1  0.218395  0.244084  0.217050  1
