# generated using pymatgen
data_RbLi2(AgBi)2
_symmetry_space_group_name_H-M   'P 1'
_cell_length_a   10.33157824
_cell_length_b   10.33157867
_cell_length_c   10.33157906
_cell_angle_alpha   26.81355158
_cell_angle_beta   26.81354872
_cell_angle_gamma   26.81355376
_symmetry_Int_Tables_number   1
_chemical_formula_structural   RbLi2(AgBi)2
_chemical_formula_sum   'Rb1 Li2 Ag2 Bi2'
_cell_volume   197.88008193
_cell_formula_units_Z   1
loop_
 _symmetry_equiv_pos_site_id
 _symmetry_equiv_pos_as_xyz
  1  'x, y, z'
loop_
 _atom_site_type_symbol
 _atom_site_label
 _atom_site_symmetry_multiplicity
 _atom_site_fract_x
 _atom_site_fract_y
 _atom_site_fract_z
 _atom_site_occupancy
  Rb  Rb0  1  0.000000  0.000000  0.000000  1
  Li  Li1  1  0.857311  0.857311  0.857311  1
  Li  Li2  1  0.142689  0.142689  0.142689  1
  Ag  Ag3  1  0.548690  0.548690  0.548690  1
  Ag  Ag4  1  0.451310  0.451310  0.451310  1
  Bi  Bi5  1  0.757947  0.757947  0.757947  1
  Bi  Bi6  1  0.242053  0.242053  0.242053  1
