# generated using pymatgen
data_Ti8Si6Mo2C
_symmetry_space_group_name_H-M   'P 1'
_cell_length_a   7.42577700
_cell_length_b   7.42577716
_cell_length_c   5.11009000
_cell_angle_alpha   90.00000000
_cell_angle_beta   90.00000000
_cell_angle_gamma   119.99999483
_symmetry_Int_Tables_number   1
_chemical_formula_structural   Ti8Si6Mo2C
_chemical_formula_sum   'Ti8 Si6 Mo2 C1'
_cell_volume   244.02988703
_cell_formula_units_Z   1
loop_
 _symmetry_equiv_pos_site_id
 _symmetry_equiv_pos_as_xyz
  1  'x, y, z'
loop_
 _atom_site_type_symbol
 _atom_site_label
 _atom_site_symmetry_multiplicity
 _atom_site_fract_x
 _atom_site_fract_y
 _atom_site_fract_z
 _atom_site_occupancy
  Ti  Ti0  1  0.000000  0.761617  0.258080  1
  Ti  Ti1  1  0.238383  0.238383  0.258080  1
  Ti  Ti2  1  0.761617  0.000000  0.258080  1
  Ti  Ti3  1  0.000000  0.238383  0.741920  1
  Ti  Ti4  1  0.761617  0.761617  0.741920  1
  Ti  Ti5  1  0.238383  0.000000  0.741920  1
  Ti  Ti6  1  0.333333  0.666667  0.000000  1
  Ti  Ti7  1  0.666667  0.333333  0.000000  1
  Si  Si8  1  0.000000  0.400887  0.248333  1
  Si  Si9  1  0.599113  0.599113  0.248333  1
  Si  Si10  1  0.400887  0.000000  0.248333  1
  Si  Si11  1  0.000000  0.599113  0.751667  1
  Si  Si12  1  0.400887  0.400887  0.751667  1
  Si  Si13  1  0.599113  0.000000  0.751667  1
  Mo  Mo14  1  0.666667  0.333333  0.500000  1
  Mo  Mo15  1  0.333333  0.666667  0.500000  1
  C  C16  1  0.000000  0.000000  0.500000  1
