# generated using pymatgen
data_Na4ThPaTe6
_symmetry_space_group_name_H-M   'P 1'
_cell_length_a   7.91947543
_cell_length_b   7.91969774
_cell_length_c   7.92916474
_cell_angle_alpha   80.31317957
_cell_angle_beta   80.31498255
_cell_angle_gamma   119.96470911
_symmetry_Int_Tables_number   1
_chemical_formula_structural   Na4ThPaTe6
_chemical_formula_sum   'Na4 Th1 Pa1 Te6'
_cell_volume   405.74471388
_cell_formula_units_Z   1
loop_
 _symmetry_equiv_pos_site_id
 _symmetry_equiv_pos_as_xyz
  1  'x, y, z'
loop_
 _atom_site_type_symbol
 _atom_site_label
 _atom_site_symmetry_multiplicity
 _atom_site_fract_x
 _atom_site_fract_y
 _atom_site_fract_z
 _atom_site_occupancy
  Na  Na0  1  0.340799  0.659193  0.499998  1
  Na  Na1  1  0.659431  0.340568  0.500000  1
  Na  Na2  1  0.000058  0.999932  0.500000  1
  Na  Na3  1  0.499968  0.500027  0.999999  1
  Th  Th4  1  0.831808  0.168208  0.000013  1
  Pa  Pa5  1  0.167939  0.832075  0.999994  1
  Te  Te6  1  0.772830  0.769137  0.237018  1
  Te  Te7  1  0.415762  0.066562  0.236922  1
  Te  Te8  1  0.070867  0.423766  0.237655  1
  Te  Te9  1  0.576244  0.929134  0.762342  1
  Te  Te10  1  0.933431  0.584227  0.763087  1
  Te  Te11  1  0.230865  0.227171  0.762971  1
