# generated using pymatgen
data_Dy2Ni10P7W2
_symmetry_space_group_name_H-M   'P 1'
_cell_length_a   9.13780818
_cell_length_b   9.19046191
_cell_length_c   3.72346200
_cell_angle_alpha   90.00000000
_cell_angle_beta   90.00000000
_cell_angle_gamma   119.91328601
_symmetry_Int_Tables_number   1
_chemical_formula_structural   Dy2Ni10P7W2
_chemical_formula_sum   'Dy2 Ni10 P7 W2'
_cell_volume   271.04147511
_cell_formula_units_Z   1
loop_
 _symmetry_equiv_pos_site_id
 _symmetry_equiv_pos_as_xyz
  1  'x, y, z'
loop_
 _atom_site_type_symbol
 _atom_site_label
 _atom_site_symmetry_multiplicity
 _atom_site_fract_x
 _atom_site_fract_y
 _atom_site_fract_z
 _atom_site_occupancy
  Dy  Dy0  1  0.337632  0.668330  0.000000  1
  Dy  Dy1  1  0.667473  0.334505  0.500000  1
  Ni  Ni2  1  0.433288  0.063214  0.000000  1
  Ni  Ni3  1  0.158471  0.285778  0.000000  1
  Ni  Ni4  1  0.938685  0.370770  0.000000  1
  Ni  Ni5  1  0.627929  0.564403  0.000000  1
  Ni  Ni6  1  0.122040  0.841849  0.000000  1
  Ni  Ni7  1  0.721933  0.874059  0.000000  1
  Ni  Ni8  1  0.385528  0.439405  0.500000  1
  Ni  Ni9  1  0.049213  0.617730  0.500000  1
  Ni  Ni10  1  0.875725  0.776009  0.500000  1
  Ni  Ni11  1  0.560125  0.943311  0.500000  1
  P  P12  1  0.998692  0.995404  0.000000  1
  P  P13  1  0.701514  0.112023  0.000000  1
  P  P14  1  0.411043  0.299115  0.000000  1
  P  P15  1  0.887066  0.590712  0.000000  1
  P  P16  1  0.115441  0.411189  0.500000  1
  P  P17  1  0.597752  0.709624  0.500000  1
  P  P18  1  0.291313  0.883024  0.500000  1
  W  W19  1  0.215642  0.099313  0.500000  1
  W  W20  1  0.903493  0.120233  0.500000  1
