# generated using pymatgen
data_Tb16Ni4AgHg3
_symmetry_space_group_name_H-M   'P 1'
_cell_length_a   9.53284864
_cell_length_b   9.54013235
_cell_length_c   9.54013200
_cell_angle_alpha   59.99999428
_cell_angle_beta   59.97471600
_cell_angle_gamma   59.97471120
_symmetry_Int_Tables_number   1
_chemical_formula_structural   Tb16Ni4AgHg3
_chemical_formula_sum   'Tb16 Ni4 Ag1 Hg3'
_cell_volume   613.26809249
_cell_formula_units_Z   1
loop_
 _symmetry_equiv_pos_site_id
 _symmetry_equiv_pos_as_xyz
  1  'x, y, z'
loop_
 _atom_site_type_symbol
 _atom_site_label
 _atom_site_symmetry_multiplicity
 _atom_site_fract_x
 _atom_site_fract_y
 _atom_site_fract_z
 _atom_site_occupancy
  Tb  Tb0  1  0.349757  0.349139  0.349139  1
  Tb  Tb1  1  0.349757  0.349139  0.951965  1
  Tb  Tb2  1  0.349757  0.951965  0.349139  1
  Tb  Tb3  1  0.949778  0.350074  0.350074  1
  Tb  Tb4  1  0.809967  0.189592  0.189592  1
  Tb  Tb5  1  0.188345  0.811470  0.811470  1
  Tb  Tb6  1  0.188345  0.811470  0.188715  1
  Tb  Tb7  1  0.809967  0.189592  0.810851  1
  Tb  Tb8  1  0.188345  0.188715  0.811470  1
  Tb  Tb9  1  0.809967  0.810851  0.189592  1
  Tb  Tb10  1  0.939492  0.563628  0.563628  1
  Tb  Tb11  1  0.565125  0.935567  0.935567  1
  Tb  Tb12  1  0.565125  0.935567  0.563742  1
  Tb  Tb13  1  0.939492  0.563628  0.933251  1
  Tb  Tb14  1  0.565125  0.563742  0.935567  1
  Tb  Tb15  1  0.939492  0.933251  0.563628  1
  Ni  Ni16  1  0.140125  0.143220  0.143220  1
  Ni  Ni17  1  0.140125  0.143220  0.573436  1
  Ni  Ni18  1  0.140125  0.573436  0.143220  1
  Ni  Ni19  1  0.573278  0.142240  0.142240  1
  Ag  Ag20  1  0.251621  0.582793  0.582793  1
  Hg  Hg21  1  0.582297  0.585544  0.585544  1
  Hg  Hg22  1  0.582297  0.585544  0.246613  1
  Hg  Hg23  1  0.582297  0.246613  0.585544  1
