# generated using pymatgen
data_RbZnGaF6
_symmetry_space_group_name_H-M   'P 1'
_cell_length_a   7.38772782
_cell_length_b   7.38772716
_cell_length_c   7.38772728
_cell_angle_alpha   120.95912208
_cell_angle_beta   119.42132641
_cell_angle_gamma   89.67602789
_symmetry_Int_Tables_number   1
_chemical_formula_structural   RbZnGaF6
_chemical_formula_sum   'Rb2 Zn2 Ga2 F12'
_cell_volume   284.22422628
_cell_formula_units_Z   2
loop_
 _symmetry_equiv_pos_site_id
 _symmetry_equiv_pos_as_xyz
  1  'x, y, z'
loop_
 _atom_site_type_symbol
 _atom_site_label
 _atom_site_symmetry_multiplicity
 _atom_site_fract_x
 _atom_site_fract_y
 _atom_site_fract_z
 _atom_site_occupancy
  Rb  Rb0  1  0.367119  0.117119  0.250000  1
  Rb  Rb1  1  0.632881  0.882881  0.750000  1
  Zn  Zn2  1  0.000000  0.500000  0.000000  1
  Zn  Zn3  1  0.000000  0.000000  0.500000  1
  Ga  Ga4  1  0.000000  0.500000  0.500000  1
  Ga  Ga5  1  0.500000  0.500000  0.000000  1
  F  F6  1  0.308468  0.558468  0.750000  1
  F  F7  1  0.920092  0.170092  0.750000  1
  F  F8  1  0.334965  0.189520  0.769046  1
  F  F9  1  0.920474  0.565920  0.730954  1
  F  F10  1  0.334965  0.565920  0.145446  1
  F  F11  1  0.920474  0.189520  0.354554  1
  F  F12  1  0.691532  0.441532  0.250000  1
  F  F13  1  0.079908  0.829908  0.250000  1
  F  F14  1  0.665035  0.810480  0.230954  1
  F  F15  1  0.079526  0.434080  0.269046  1
  F  F16  1  0.665035  0.434080  0.854554  1
  F  F17  1  0.079526  0.810480  0.645446  1
