# generated using pymatgen
data_Er2Hf3Si4
_symmetry_space_group_name_H-M   'P 1'
_cell_length_a   7.25350500
_cell_length_b   7.25350500
_cell_length_c   13.30701300
_cell_angle_alpha   90.00000000
_cell_angle_beta   90.00000000
_cell_angle_gamma   90.00000000
_symmetry_Int_Tables_number   1
_chemical_formula_structural   Er2Hf3Si4
_chemical_formula_sum   'Er8 Hf12 Si16'
_cell_volume   700.12632996
_cell_formula_units_Z   4
loop_
 _symmetry_equiv_pos_site_id
 _symmetry_equiv_pos_as_xyz
  1  'x, y, z'
loop_
 _atom_site_type_symbol
 _atom_site_label
 _atom_site_symmetry_multiplicity
 _atom_site_fract_x
 _atom_site_fract_y
 _atom_site_fract_z
 _atom_site_occupancy
  Er  Er0  1  0.495471  0.152888  0.534724  1
  Er  Er1  1  0.504529  0.847112  0.034724  1
  Er  Er2  1  0.652888  0.004529  0.284724  1
  Er  Er3  1  0.347112  0.995471  0.784724  1
  Er  Er4  1  0.847112  0.504529  0.965276  1
  Er  Er5  1  0.152888  0.495471  0.465276  1
  Er  Er6  1  0.004529  0.652888  0.715276  1
  Er  Er7  1  0.995471  0.347112  0.215276  1
  Hf  Hf8  1  0.676211  0.323789  0.750000  1
  Hf  Hf9  1  0.323789  0.676211  0.250000  1
  Hf  Hf10  1  0.823789  0.823789  0.500000  1
  Hf  Hf11  1  0.176211  0.176211  0.000000  1
  Hf  Hf12  1  0.496497  0.353213  0.125458  1
  Hf  Hf13  1  0.503503  0.646787  0.625458  1
  Hf  Hf14  1  0.853213  0.003503  0.875458  1
  Hf  Hf15  1  0.146787  0.996497  0.375458  1
  Hf  Hf16  1  0.646787  0.503503  0.374542  1
  Hf  Hf17  1  0.353213  0.496497  0.874542  1
  Hf  Hf18  1  0.003503  0.853213  0.124542  1
  Hf  Hf19  1  0.996497  0.146787  0.624542  1
  Si  Si20  1  0.795464  0.141564  0.068375  1
  Si  Si21  1  0.204536  0.858436  0.568375  1
  Si  Si22  1  0.641564  0.704536  0.818375  1
  Si  Si23  1  0.358436  0.295464  0.318375  1
  Si  Si24  1  0.858436  0.204536  0.431625  1
  Si  Si25  1  0.141564  0.795464  0.931625  1
  Si  Si26  1  0.704536  0.641564  0.181625  1
  Si  Si27  1  0.295464  0.358436  0.681625  1
  Si  Si28  1  0.550504  0.204977  0.936038  1
  Si  Si29  1  0.449496  0.795023  0.436038  1
  Si  Si30  1  0.704977  0.949496  0.686038  1
  Si  Si31  1  0.295023  0.050504  0.186038  1
  Si  Si32  1  0.795023  0.449496  0.563962  1
  Si  Si33  1  0.204977  0.550504  0.063962  1
  Si  Si34  1  0.949496  0.704977  0.313962  1
  Si  Si35  1  0.050504  0.295023  0.813962  1
