# generated using pymatgen
data_Be4CrIr
_symmetry_space_group_name_H-M   'P 1'
_cell_length_a   4.33377007
_cell_length_b   4.33377032
_cell_length_c   4.33377100
_cell_angle_alpha   60.00000241
_cell_angle_beta   60.00000057
_cell_angle_gamma   60.00001104
_symmetry_Int_Tables_number   1
_chemical_formula_structural   Be4CrIr
_chemical_formula_sum   'Be4 Cr1 Ir1'
_cell_volume   57.55496103
_cell_formula_units_Z   1
loop_
 _symmetry_equiv_pos_site_id
 _symmetry_equiv_pos_as_xyz
  1  'x, y, z'
loop_
 _atom_site_type_symbol
 _atom_site_label
 _atom_site_symmetry_multiplicity
 _atom_site_fract_x
 _atom_site_fract_y
 _atom_site_fract_z
 _atom_site_occupancy
  Be  Be0  1  0.625453  0.625453  0.123639  1
  Be  Be1  1  0.625453  0.123639  0.625453  1
  Be  Be2  1  0.123639  0.625453  0.625453  1
  Be  Be3  1  0.625453  0.625453  0.625453  1
  Cr  Cr4  1  0.000000  0.000000  0.000000  1
  Ir  Ir5  1  0.250000  0.250000  0.250000  1
