# generated using pymatgen
data_Hf6CoSi(As2Ru3)2
_symmetry_space_group_name_H-M   'P 1'
_cell_length_a   7.64219846
_cell_length_b   7.64540007
_cell_length_c   7.64219974
_cell_angle_alpha   128.29580937
_cell_angle_beta   120.79258233
_cell_angle_gamma   82.42304887
_symmetry_Int_Tables_number   1
_chemical_formula_structural   Hf6CoSi(As2Ru3)2
_chemical_formula_sum   'Hf6 Co1 Si1 As4 Ru6'
_cell_volume   289.42691886
_cell_formula_units_Z   1
loop_
 _symmetry_equiv_pos_site_id
 _symmetry_equiv_pos_as_xyz
  1  'x, y, z'
loop_
 _atom_site_type_symbol
 _atom_site_label
 _atom_site_symmetry_multiplicity
 _atom_site_fract_x
 _atom_site_fract_y
 _atom_site_fract_z
 _atom_site_occupancy
  Hf  Hf0  1  0.436418  0.628568  0.692150  1
  Hf  Hf1  1  0.538331  0.251768  0.213438  1
  Hf  Hf2  1  0.749707  0.849357  0.599650  1
  Hf  Hf3  1  0.250170  0.871257  0.121086  1
  Hf  Hf4  1  0.065589  0.254809  0.689219  1
  Hf  Hf5  1  0.958523  0.668378  0.209855  1
  Co  Co6  1  0.252190  0.248156  0.495968  1
  Si  Si7  1  0.747488  0.259528  0.012039  1
  As  As8  1  0.332771  0.586285  0.251745  1
  As  As9  1  0.667256  0.919198  0.252973  1
  As  As10  1  0.166225  0.919198  0.751942  1
  As  As11  1  0.834539  0.586285  0.753514  1
  Ru  Ru12  1  0.511671  0.493517  0.004979  1
  Ru  Ru13  1  0.988538  0.493517  0.481845  1
  Ru  Ru14  1  0.101379  0.253199  0.112532  1
  Ru  Ru15  1  0.864048  0.011691  0.117199  1
  Ru  Ru16  1  0.394492  0.011691  0.647645  1
  Ru  Ru17  1  0.640667  0.253199  0.651820  1
