# generated using pymatgen
data_Y4Mg4Ir3Rh
_symmetry_space_group_name_H-M   'P 1'
_cell_length_a   4.12775100
_cell_length_b   7.10909741
_cell_length_c   8.55457937
_cell_angle_alpha   90.28587373
_cell_angle_beta   90.00000000
_cell_angle_gamma   90.00000000
_symmetry_Int_Tables_number   1
_chemical_formula_structural   Y4Mg4Ir3Rh
_chemical_formula_sum   'Y4 Mg4 Ir3 Rh1'
_cell_volume   251.02744796
_cell_formula_units_Z   1
loop_
 _symmetry_equiv_pos_site_id
 _symmetry_equiv_pos_as_xyz
  1  'x, y, z'
loop_
 _atom_site_type_symbol
 _atom_site_label
 _atom_site_symmetry_multiplicity
 _atom_site_fract_x
 _atom_site_fract_y
 _atom_site_fract_z
 _atom_site_occupancy
  Y  Y0  1  0.250000  0.536521  0.177224  1
  Y  Y1  1  0.750000  0.457219  0.825556  1
  Y  Y2  1  0.250000  0.038170  0.323355  1
  Y  Y3  1  0.750000  0.965930  0.673410  1
  Mg  Mg4  1  0.250000  0.135337  0.938965  1
  Mg  Mg5  1  0.750000  0.864002  0.060905  1
  Mg  Mg6  1  0.250000  0.636196  0.560545  1
  Mg  Mg7  1  0.750000  0.364715  0.438819  1
  Ir  Ir8  1  0.750000  0.747559  0.371262  1
  Ir  Ir9  1  0.250000  0.254720  0.630388  1
  Ir  Ir10  1  0.750000  0.247073  0.128181  1
  Rh  Rh11  1  0.250000  0.752559  0.871387  1
