# generated using pymatgen
data_Tb2ErMg3Sn2Au
_symmetry_space_group_name_H-M   'P 1'
_cell_length_a   7.55323758
_cell_length_b   7.55323781
_cell_length_c   4.44597000
_cell_angle_alpha   90.00000000
_cell_angle_beta   90.00000000
_cell_angle_gamma   119.82724405
_symmetry_Int_Tables_number   1
_chemical_formula_structural   Tb2ErMg3Sn2Au
_chemical_formula_sum   'Tb2 Er1 Mg3 Sn2 Au1'
_cell_volume   220.04771133
_cell_formula_units_Z   1
loop_
 _symmetry_equiv_pos_site_id
 _symmetry_equiv_pos_as_xyz
  1  'x, y, z'
loop_
 _atom_site_type_symbol
 _atom_site_label
 _atom_site_symmetry_multiplicity
 _atom_site_fract_x
 _atom_site_fract_y
 _atom_site_fract_z
 _atom_site_occupancy
  Tb  Tb0  1  0.594757  0.999451  0.000000  1
  Tb  Tb1  1  0.999451  0.594757  0.000000  1
  Er  Er2  1  0.404287  0.404287  0.000000  1
  Mg  Mg3  1  0.237733  0.000408  0.500000  1
  Mg  Mg4  1  0.000408  0.237733  0.500000  1
  Mg  Mg5  1  0.762139  0.762139  0.500000  1
  Sn  Sn6  1  0.334235  0.665405  0.500000  1
  Sn  Sn7  1  0.665405  0.334235  0.500000  1
  Au  Au8  1  0.001586  0.001586  0.000000  1
