# generated using pymatgen
data_YbSc3Al24Pt7Au2
_symmetry_space_group_name_H-M   'P 1'
_cell_length_a   7.51093349
_cell_length_b   7.53093512
_cell_length_c   13.10191654
_cell_angle_alpha   84.61885866
_cell_angle_beta   79.06940437
_cell_angle_gamma   59.91961082
_symmetry_Int_Tables_number   1
_chemical_formula_structural   YbSc3Al24Pt7Au2
_chemical_formula_sum   'Yb1 Sc3 Al24 Pt7 Au2'
_cell_volume   629.65685723
_cell_formula_units_Z   1
loop_
 _symmetry_equiv_pos_site_id
 _symmetry_equiv_pos_as_xyz
  1  'x, y, z'
loop_
 _atom_site_type_symbol
 _atom_site_label
 _atom_site_symmetry_multiplicity
 _atom_site_fract_x
 _atom_site_fract_y
 _atom_site_fract_z
 _atom_site_occupancy
  Yb  Yb0  1  0.391421  0.169424  0.810438  1
  Sc  Sc1  1  0.607521  0.830588  0.190813  1
  Sc  Sc2  1  0.733615  0.498988  0.810143  1
  Sc  Sc3  1  0.266005  0.500508  0.189951  1
  Al  Al4  1  0.682623  0.831942  0.945660  1
  Al  Al5  1  0.318758  0.165781  0.058477  1
  Al  Al6  1  0.145889  0.838854  0.561940  1
  Al  Al7  1  0.854107  0.161096  0.436790  1
  Al  Al8  1  0.487665  0.159290  0.559512  1
  Al  Al9  1  0.512485  0.841142  0.439551  1
  Al  Al10  1  0.229256  0.160643  0.318305  1
  Al  Al11  1  0.774459  0.837675  0.677482  1
  Al  Al12  1  0.442216  0.505073  0.678444  1
  Al  Al13  1  0.559244  0.496788  0.318076  1
  Al  Al14  1  0.106253  0.157576  0.676124  1
  Al  Al15  1  0.893369  0.842070  0.320421  1
  Al  Al16  1  0.355689  0.498407  0.945071  1
  Al  Al17  1  0.641897  0.504804  0.058467  1
  Al  Al18  1  0.013555  0.169806  0.953084  1
  Al  Al19  1  0.982842  0.828853  0.051464  1
  Al  Al20  1  0.196224  0.499441  0.436532  1
  Al  Al21  1  0.804539  0.500244  0.562911  1
  Al  Al22  1  0.729130  0.164520  0.182560  1
  Al  Al23  1  0.271051  0.830713  0.817436  1
  Al  Al24  1  0.054768  0.635118  0.818636  1
  Al  Al25  1  0.939344  0.370413  0.181937  1
  Al  Al26  1  0.854270  0.047221  0.817017  1
  Al  Al27  1  0.150506  0.952835  0.183223  1
  Pt  Pt28  1  0.657544  0.171222  0.000755  1
  Pt  Pt29  1  0.341600  0.828962  0.001094  1
  Pt  Pt30  1  0.538089  0.167165  0.361072  1
  Pt  Pt31  1  0.461788  0.832937  0.637547  1
  Pt  Pt32  1  0.780734  0.174225  0.636160  1
  Pt  Pt33  1  0.220634  0.825195  0.362502  1
  Pt  Pt34  1  0.999914  0.499944  0.001123  1
  Au  Au35  1  0.120735  0.491226  0.637859  1
  Au  Au36  1  0.880260  0.509312  0.361420  1
