# generated using pymatgen
data_Tb9Tm(In3Cl)2
_symmetry_space_group_name_H-M   'P 1'
_cell_length_a   9.17518800
_cell_length_b   9.17518946
_cell_length_c   6.65103800
_cell_angle_alpha   90.00000000
_cell_angle_beta   90.00000000
_cell_angle_gamma   120.00000195
_symmetry_Int_Tables_number   1
_chemical_formula_structural   Tb9Tm(In3Cl)2
_chemical_formula_sum   'Tb9 Tm1 In6 Cl2'
_cell_volume   484.89763376
_cell_formula_units_Z   1
loop_
 _symmetry_equiv_pos_site_id
 _symmetry_equiv_pos_as_xyz
  1  'x, y, z'
loop_
 _atom_site_type_symbol
 _atom_site_label
 _atom_site_symmetry_multiplicity
 _atom_site_fract_x
 _atom_site_fract_y
 _atom_site_fract_z
 _atom_site_occupancy
  Tb  Tb0  1  0.741924  0.742442  0.250385  1
  Tb  Tb1  1  0.000518  0.742442  0.749615  1
  Tb  Tb2  1  0.741924  0.999482  0.749615  1
  Tb  Tb3  1  0.257558  0.258076  0.749615  1
  Tb  Tb4  1  0.000518  0.258076  0.250385  1
  Tb  Tb5  1  0.666667  0.333333  0.500000  1
  Tb  Tb6  1  0.257558  0.999482  0.250385  1
  Tb  Tb7  1  0.333333  0.666667  0.000000  1
  Tb  Tb8  1  0.666667  0.333333  0.000000  1
  Tm  Tm9  1  0.333333  0.666667  0.500000  1
  In  In10  1  0.394421  0.998996  0.749472  1
  In  In11  1  0.001004  0.605579  0.250528  1
  In  In12  1  0.604575  0.998996  0.250528  1
  In  In13  1  0.001004  0.395425  0.749472  1
  In  In14  1  0.394421  0.395425  0.250528  1
  In  In15  1  0.604575  0.605579  0.749472  1
  Cl  Cl16  1  0.000000  0.000000  0.500000  1
  Cl  Cl17  1  0.000000  0.000000  0.000000  1
