# generated using pymatgen
data_SrDy3(ZnSn)4
_symmetry_space_group_name_H-M   'P 1'
_cell_length_a   4.52952600
_cell_length_b   4.52952636
_cell_length_c   16.53041800
_cell_angle_alpha   90.00000000
_cell_angle_beta   90.00000000
_cell_angle_gamma   119.99999736
_symmetry_Int_Tables_number   1
_chemical_formula_structural   SrDy3(ZnSn)4
_chemical_formula_sum   'Sr1 Dy3 Zn4 Sn4'
_cell_volume   293.71087510
_cell_formula_units_Z   1
loop_
 _symmetry_equiv_pos_site_id
 _symmetry_equiv_pos_as_xyz
  1  'x, y, z'
loop_
 _atom_site_type_symbol
 _atom_site_label
 _atom_site_symmetry_multiplicity
 _atom_site_fract_x
 _atom_site_fract_y
 _atom_site_fract_z
 _atom_site_occupancy
  Sr  Sr0  1  0.000000  0.000000  0.000000  1
  Dy  Dy1  1  0.000000  0.000000  0.258738  1
  Dy  Dy2  1  0.000000  0.000000  0.741262  1
  Dy  Dy3  1  0.000000  0.000000  0.500000  1
  Zn  Zn4  1  0.333333  0.666667  0.174087  1
  Zn  Zn5  1  0.666667  0.333333  0.825913  1
  Zn  Zn6  1  0.666667  0.333333  0.654714  1
  Zn  Zn7  1  0.333333  0.666667  0.345286  1
  Sn  Sn8  1  0.333333  0.666667  0.607945  1
  Sn  Sn9  1  0.666667  0.333333  0.392055  1
  Sn  Sn10  1  0.666667  0.333333  0.131092  1
  Sn  Sn11  1  0.333333  0.666667  0.868908  1
