# generated using pymatgen
data_Ac(MgIn)2
_symmetry_space_group_name_H-M   'P 1'
_cell_length_a   7.15353650
_cell_length_b   7.15353672
_cell_length_c   7.15353547
_cell_angle_alpha   141.46701286
_cell_angle_beta   141.46701011
_cell_angle_gamma   55.63248408
_symmetry_Int_Tables_number   1
_chemical_formula_structural   Ac(MgIn)2
_chemical_formula_sum   'Ac1 Mg2 In2'
_cell_volume   141.00156856
_cell_formula_units_Z   1
loop_
 _symmetry_equiv_pos_site_id
 _symmetry_equiv_pos_as_xyz
  1  'x, y, z'
loop_
 _atom_site_type_symbol
 _atom_site_label
 _atom_site_symmetry_multiplicity
 _atom_site_fract_x
 _atom_site_fract_y
 _atom_site_fract_z
 _atom_site_occupancy
  Ac  Ac0  1  0.000000  0.000000  0.000000  1
  Mg  Mg1  1  0.750000  0.250000  0.500001  1
  Mg  Mg2  1  0.250000  0.750000  0.500001  1
  In  In3  1  0.387770  0.387770  0.000000  1
  In  In4  1  0.612230  0.612230  0.000000  1
