# generated using pymatgen
data_Y3Al3CuSiPd
_symmetry_space_group_name_H-M   'P 1'
_cell_length_a   6.97371200
_cell_length_b   6.97371272
_cell_length_c   4.20099900
_cell_angle_alpha   90.00000000
_cell_angle_beta   90.00000000
_cell_angle_gamma   120.00000609
_symmetry_Int_Tables_number   1
_chemical_formula_structural   Y3Al3CuSiPd
_chemical_formula_sum   'Y3 Al3 Cu1 Si1 Pd1'
_cell_volume   176.93397874
_cell_formula_units_Z   1
loop_
 _symmetry_equiv_pos_site_id
 _symmetry_equiv_pos_as_xyz
  1  'x, y, z'
loop_
 _atom_site_type_symbol
 _atom_site_label
 _atom_site_symmetry_multiplicity
 _atom_site_fract_x
 _atom_site_fract_y
 _atom_site_fract_z
 _atom_site_occupancy
  Y  Y0  1  0.418572  0.420725  0.500000  1
  Y  Y1  1  0.579275  0.997846  0.500000  1
  Y  Y2  1  0.002154  0.581428  0.500000  1
  Al  Al3  1  0.009422  0.245469  0.000000  1
  Al  Al4  1  0.754531  0.763952  0.000000  1
  Al  Al5  1  0.236048  0.990578  0.000000  1
  Cu  Cu6  1  0.333333  0.666667  0.000000  1
  Si  Si7  1  0.666667  0.333333  0.000000  1
  Pd  Pd8  1  0.000000  0.000000  0.500000  1
