# generated using pymatgen
data_Ce2OsN3
_symmetry_space_group_name_H-M   'P 1'
_cell_length_a   6.85601936
_cell_length_b   6.85602019
_cell_length_c   6.85601938
_cell_angle_alpha   150.39173326
_cell_angle_beta   147.67364251
_cell_angle_gamma   44.40271246
_symmetry_Int_Tables_number   1
_chemical_formula_structural   Ce2OsN3
_chemical_formula_sum   'Ce2 Os1 N3'
_cell_volume   84.89224843
_cell_formula_units_Z   1
loop_
 _symmetry_equiv_pos_site_id
 _symmetry_equiv_pos_as_xyz
  1  'x, y, z'
loop_
 _atom_site_type_symbol
 _atom_site_label
 _atom_site_symmetry_multiplicity
 _atom_site_fract_x
 _atom_site_fract_y
 _atom_site_fract_z
 _atom_site_occupancy
  Ce  Ce0  1  0.649870  0.649870  0.000000  1
  Ce  Ce1  1  0.350130  0.350130  0.000000  1
  Os  Os2  1  0.000000  0.000000  0.000000  1
  N  N3  1  0.831410  0.831410  0.000000  1
  N  N4  1  0.168590  0.168590  0.000000  1
  N  N5  1  0.500000  0.000000  0.500000  1
