# generated using pymatgen
data_Li(La4Ir3)2
_symmetry_space_group_name_H-M   'P 1'
_cell_length_a   7.75329650
_cell_length_b   7.75329550
_cell_length_c   7.75329679
_cell_angle_alpha   69.52716674
_cell_angle_beta   69.52716571
_cell_angle_gamma   69.52715555
_symmetry_Int_Tables_number   1
_chemical_formula_structural   Li(La4Ir3)2
_chemical_formula_sum   'Li1 La8 Ir6'
_cell_volume   395.08869638
_cell_formula_units_Z   1
loop_
 _symmetry_equiv_pos_site_id
 _symmetry_equiv_pos_as_xyz
  1  'x, y, z'
loop_
 _atom_site_type_symbol
 _atom_site_label
 _atom_site_symmetry_multiplicity
 _atom_site_fract_x
 _atom_site_fract_y
 _atom_site_fract_z
 _atom_site_occupancy
  Li  Li0  1  0.000000  0.000000  0.000000  1
  La  La1  1  0.813258  0.813258  0.813258  1
  La  La2  1  0.186742  0.186742  0.186742  1
  La  La3  1  0.138666  0.380841  0.685083  1
  La  La4  1  0.685083  0.138666  0.380841  1
  La  La5  1  0.380841  0.685083  0.138666  1
  La  La6  1  0.861334  0.619159  0.314917  1
  La  La7  1  0.314917  0.861334  0.619159  1
  La  La8  1  0.619159  0.314917  0.861334  1
  Ir  Ir9  1  0.948973  0.185517  0.572932  1
  Ir  Ir10  1  0.572932  0.948973  0.185517  1
  Ir  Ir11  1  0.185517  0.572932  0.948973  1
  Ir  Ir12  1  0.051027  0.814483  0.427068  1
  Ir  Ir13  1  0.427068  0.051027  0.814483  1
  Ir  Ir14  1  0.814483  0.427068  0.051027  1
