# generated using pymatgen
data_Ca12GaAs7Rh8
_symmetry_space_group_name_H-M   'P 1'
_cell_length_a   5.62248800
_cell_length_b   7.99078400
_cell_length_c   13.43206100
_cell_angle_alpha   90.00129176
_cell_angle_beta   90.00000000
_cell_angle_gamma   90.00000000
_symmetry_Int_Tables_number   1
_chemical_formula_structural   Ca12GaAs7Rh8
_chemical_formula_sum   'Ca12 Ga1 As7 Rh8'
_cell_volume   603.47680717
_cell_formula_units_Z   1
loop_
 _symmetry_equiv_pos_site_id
 _symmetry_equiv_pos_as_xyz
  1  'x, y, z'
loop_
 _atom_site_type_symbol
 _atom_site_label
 _atom_site_symmetry_multiplicity
 _atom_site_fract_x
 _atom_site_fract_y
 _atom_site_fract_z
 _atom_site_occupancy
  Ca  Ca0  1  0.136621  0.611415  0.103987  1
  Ca  Ca1  1  0.136621  0.888585  0.896013  1
  Ca  Ca2  1  0.861281  0.107678  0.397200  1
  Ca  Ca3  1  0.861281  0.392322  0.602800  1
  Ca  Ca4  1  0.862892  0.387798  0.896290  1
  Ca  Ca5  1  0.862892  0.112202  0.103710  1
  Ca  Ca6  1  0.136054  0.889291  0.602191  1
  Ca  Ca7  1  0.136054  0.610709  0.397809  1
  Ca  Ca8  1  0.365281  0.249333  0.250425  1
  Ca  Ca9  1  0.365281  0.250667  0.749575  1
  Ca  Ca10  1  0.633444  0.749441  0.249469  1
  Ca  Ca11  1  0.633444  0.750559  0.750531  1
  Ga  Ga12  1  0.385786  0.250000  0.500000  1
  As  As13  1  0.391282  0.250000  0.000000  1
  As  As14  1  0.619834  0.750000  0.500000  1
  As  As15  1  0.607530  0.750000  0.000000  1
  As  As16  1  0.856913  0.398179  0.248840  1
  As  As17  1  0.856913  0.101821  0.751160  1
  As  As18  1  0.141888  0.899510  0.248693  1
  As  As19  1  0.141888  0.600490  0.751307  1
  Rh  Rh20  1  0.633751  0.474066  0.086655  1
  Rh  Rh21  1  0.633751  0.025934  0.913345  1
  Rh  Rh22  1  0.370668  0.968652  0.411404  1
  Rh  Rh23  1  0.370668  0.531348  0.588596  1
  Rh  Rh24  1  0.366711  0.526792  0.913348  1
  Rh  Rh25  1  0.366711  0.973208  0.086652  1
  Rh  Rh26  1  0.632281  0.025499  0.590989  1
  Rh  Rh27  1  0.632281  0.474501  0.409011  1
