# generated using pymatgen
data_HfZr7(Ta3Ge4)4
_symmetry_space_group_name_H-M   'P 1'
_cell_length_a   6.85853805
_cell_length_b   6.96782106
_cell_length_c   13.32081407
_cell_angle_alpha   90.00959337
_cell_angle_beta   90.00736545
_cell_angle_gamma   90.01150324
_symmetry_Int_Tables_number   1
_chemical_formula_structural   HfZr7(Ta3Ge4)4
_chemical_formula_sum   'Hf1 Zr7 Ta12 Ge16'
_cell_volume   636.58923400
_cell_formula_units_Z   1
loop_
 _symmetry_equiv_pos_site_id
 _symmetry_equiv_pos_as_xyz
  1  'x, y, z'
loop_
 _atom_site_type_symbol
 _atom_site_label
 _atom_site_symmetry_multiplicity
 _atom_site_fract_x
 _atom_site_fract_y
 _atom_site_fract_z
 _atom_site_occupancy
  Hf  Hf0  1  0.987418  0.825468  0.590765  1
  Zr  Zr1  1  0.488341  0.674441  0.591029  1
  Zr  Zr2  1  0.988507  0.825437  0.909131  1
  Zr  Zr3  1  0.511547  0.325519  0.091020  1
  Zr  Zr4  1  0.011388  0.173883  0.409328  1
  Zr  Zr5  1  0.511158  0.325200  0.409191  1
  Zr  Zr6  1  0.011551  0.174473  0.090981  1
  Zr  Zr7  1  0.488418  0.674340  0.908763  1
  Ta  Ta8  1  0.659263  0.163992  0.624666  1
  Ta  Ta9  1  0.158834  0.336056  0.874854  1
  Ta  Ta10  1  0.341425  0.835685  0.124963  1
  Ta  Ta11  1  0.842024  0.665044  0.375612  1
  Ta  Ta12  1  0.341303  0.835710  0.375198  1
  Ta  Ta13  1  0.841203  0.664392  0.124973  1
  Ta  Ta14  1  0.658976  0.163939  0.874818  1
  Ta  Ta15  1  0.158829  0.335767  0.624939  1
  Ta  Ta16  1  0.836360  0.489580  0.749759  1
  Ta  Ta17  1  0.335861  0.010536  0.749669  1
  Ta  Ta18  1  0.164153  0.510793  0.250204  1
  Ta  Ta19  1  0.663934  0.989343  0.250174  1
  Ge  Ge20  1  0.683172  0.960005  0.460095  1
  Ge  Ge21  1  0.182919  0.539767  0.040283  1
  Ge  Ge22  1  0.317061  0.039884  0.959594  1
  Ge  Ge23  1  0.817251  0.460902  0.540481  1
  Ge  Ge24  1  0.315651  0.038868  0.540587  1
  Ge  Ge25  1  0.817066  0.460155  0.959606  1
  Ge  Ge26  1  0.682835  0.960221  0.040163  1
  Ge  Ge27  1  0.182991  0.539978  0.460038  1
  Ge  Ge28  1  0.461890  0.388116  0.749866  1
  Ge  Ge29  1  0.961958  0.111421  0.749749  1
  Ge  Ge30  1  0.538639  0.612015  0.250209  1
  Ge  Ge31  1  0.038331  0.888200  0.250016  1
  Ge  Ge32  1  0.693234  0.848377  0.749638  1
  Ge  Ge33  1  0.191791  0.652336  0.749354  1
  Ge  Ge34  1  0.307333  0.151434  0.250059  1
  Ge  Ge35  1  0.807386  0.348721  0.250225  1
