# generated using pymatgen
data_TiV9Si6C
_symmetry_space_group_name_H-M   'P 1'
_cell_length_a   7.17495533
_cell_length_b   7.16284333
_cell_length_c   4.84805887
_cell_angle_alpha   89.56502528
_cell_angle_beta   90.21711597
_cell_angle_gamma   119.94416863
_symmetry_Int_Tables_number   1
_chemical_formula_structural   TiV9Si6C
_chemical_formula_sum   'Ti1 V9 Si6 C1'
_cell_volume   215.89108620
_cell_formula_units_Z   1
loop_
 _symmetry_equiv_pos_site_id
 _symmetry_equiv_pos_as_xyz
  1  'x, y, z'
loop_
 _atom_site_type_symbol
 _atom_site_label
 _atom_site_symmetry_multiplicity
 _atom_site_fract_x
 _atom_site_fract_y
 _atom_site_fract_z
 _atom_site_occupancy
  Ti  Ti0  1  0.000000  0.763922  0.248647  1
  V  V1  1  0.238257  0.237576  0.257874  1
  V  V2  1  0.761743  0.999320  0.257874  1
  V  V3  1  0.000000  0.236746  0.747038  1
  V  V4  1  0.761555  0.761999  0.743197  1
  V  V5  1  0.238445  0.000444  0.743197  1
  V  V6  1  0.333041  0.666679  0.000152  1
  V  V7  1  0.666959  0.333638  0.000152  1
  V  V8  1  0.667509  0.333884  0.499504  1
  V  V9  1  0.332491  0.666376  0.499504  1
  Si  Si10  1  0.000000  0.397904  0.241412  1
  Si  Si11  1  0.594607  0.596554  0.242438  1
  Si  Si12  1  0.405393  0.001946  0.242438  1
  Si  Si13  1  0.000000  0.598020  0.755927  1
  Si  Si14  1  0.401110  0.401098  0.757821  1
  Si  Si15  1  0.598890  0.999988  0.757821  1
  C  C16  1  0.000000  0.003905  0.505003  1
