# generated using pymatgen
data_Er4Cu2(TcRu)3
_symmetry_space_group_name_H-M   'P 1'
_cell_length_a   5.28079870
_cell_length_b   5.28079819
_cell_length_c   8.89123000
_cell_angle_alpha   90.00000000
_cell_angle_beta   90.00000000
_cell_angle_gamma   121.53276317
_symmetry_Int_Tables_number   1
_chemical_formula_structural   Er4Cu2(TcRu)3
_chemical_formula_sum   'Er4 Cu2 Tc3 Ru3'
_cell_volume   211.33651149
_cell_formula_units_Z   1
loop_
 _symmetry_equiv_pos_site_id
 _symmetry_equiv_pos_as_xyz
  1  'x, y, z'
loop_
 _atom_site_type_symbol
 _atom_site_label
 _atom_site_symmetry_multiplicity
 _atom_site_fract_x
 _atom_site_fract_y
 _atom_site_fract_z
 _atom_site_occupancy
  Er  Er0  1  0.329898  0.670102  0.433983  1
  Er  Er1  1  0.660958  0.339042  0.559511  1
  Er  Er2  1  0.660958  0.339042  0.940489  1
  Er  Er3  1  0.329898  0.670102  0.066017  1
  Cu  Cu4  1  0.347035  0.157179  0.250000  1
  Cu  Cu5  1  0.842821  0.652965  0.250000  1
  Tc  Tc6  1  0.165590  0.338611  0.750000  1
  Tc  Tc7  1  0.170978  0.829022  0.750000  1
  Tc  Tc8  1  0.661389  0.834410  0.750000  1
  Ru  Ru9  1  0.992025  0.007975  0.005522  1
  Ru  Ru10  1  0.846427  0.153573  0.250000  1
  Ru  Ru11  1  0.992025  0.007975  0.494478  1
