# generated using pymatgen
data_RbPSO6
_symmetry_space_group_name_H-M   'P 1'
_cell_length_a   11.99545400
_cell_length_b   10.32058800
_cell_length_c   4.77849500
_cell_angle_alpha   90.00000000
_cell_angle_beta   90.00000000
_cell_angle_gamma   90.00000000
_symmetry_Int_Tables_number   1
_chemical_formula_structural   RbPSO6
_chemical_formula_sum   'Rb4 P4 S4 O24'
_cell_volume   591.57834333
_cell_formula_units_Z   4
loop_
 _symmetry_equiv_pos_site_id
 _symmetry_equiv_pos_as_xyz
  1  'x, y, z'
loop_
 _atom_site_type_symbol
 _atom_site_label
 _atom_site_symmetry_multiplicity
 _atom_site_fract_x
 _atom_site_fract_y
 _atom_site_fract_z
 _atom_site_occupancy
  Rb  Rb0  1  0.373732  0.375468  0.253340  1
  Rb  Rb1  1  0.626268  0.875467  0.246660  1
  Rb  Rb2  1  0.126267  0.624533  0.753340  1
  Rb  Rb3  1  0.873733  0.124533  0.746659  1
  P  P4  1  0.206218  0.922491  0.273775  1
  P  P5  1  0.793781  0.422492  0.226225  1
  P  P6  1  0.293782  0.077508  0.773775  1
  P  P7  1  0.706219  0.577509  0.726225  1
  S  S8  1  0.027230  0.358336  0.307167  1
  S  S9  1  0.972769  0.858336  0.192833  1
  S  S10  1  0.472770  0.641664  0.807167  1
  S  S11  1  0.527231  0.141663  0.692833  1
  O  O12  1  0.918632  0.443869  0.138469  1
  O  O13  1  0.000534  0.875581  0.899543  1
  O  O14  1  0.729219  0.461724  0.944752  1
  O  O15  1  0.015248  0.228384  0.198946  1
  O  O16  1  0.759457  0.293599  0.325058  1
  O  O17  1  0.122262  0.433036  0.209728  1
  O  O18  1  0.877737  0.933036  0.290272  1
  O  O19  1  0.240543  0.793600  0.174942  1
  O  O20  1  0.984752  0.728384  0.301054  1
  O  O21  1  0.270782  0.961724  0.555248  1
  O  O22  1  0.999466  0.375581  0.600457  1
  O  O23  1  0.081368  0.943868  0.361531  1
  O  O24  1  0.581369  0.556132  0.638471  1
  O  O25  1  0.499466  0.124420  0.399543  1
  O  O26  1  0.770781  0.538277  0.444752  1
  O  O27  1  0.484752  0.771615  0.698946  1
  O  O28  1  0.740544  0.706400  0.825058  1
  O  O29  1  0.377737  0.566965  0.709727  1
  O  O30  1  0.622263  0.066965  0.790272  1
  O  O31  1  0.259456  0.206400  0.674942  1
  O  O32  1  0.515249  0.271615  0.801054  1
  O  O33  1  0.229219  0.038276  0.055247  1
  O  O34  1  0.500534  0.624419  0.100459  1
  O  O35  1  0.418631  0.056131  0.861531  1
