# generated using pymatgen
data_Sc8MnCr10Si16W
_symmetry_space_group_name_H-M   'P 1'
_cell_length_a   6.40763972
_cell_length_b   6.54368412
_cell_length_c   12.22034800
_cell_angle_alpha   90.00000000
_cell_angle_beta   90.00000000
_cell_angle_gamma   90.12523669
_symmetry_Int_Tables_number   1
_chemical_formula_structural   Sc8MnCr10Si16W
_chemical_formula_sum   'Sc8 Mn1 Cr10 Si16 W1'
_cell_volume   512.39271684
_cell_formula_units_Z   1
loop_
 _symmetry_equiv_pos_site_id
 _symmetry_equiv_pos_as_xyz
  1  'x, y, z'
loop_
 _atom_site_type_symbol
 _atom_site_label
 _atom_site_symmetry_multiplicity
 _atom_site_fract_x
 _atom_site_fract_y
 _atom_site_fract_z
 _atom_site_occupancy
  Sc  Sc0  1  0.491788  0.664617  0.594238  1
  Sc  Sc1  1  0.993417  0.832843  0.904607  1
  Sc  Sc2  1  0.509492  0.332205  0.092160  1
  Sc  Sc3  1  0.006206  0.165140  0.407411  1
  Sc  Sc4  1  0.509492  0.332205  0.407840  1
  Sc  Sc5  1  0.006206  0.165140  0.092589  1
  Sc  Sc6  1  0.491788  0.664617  0.905762  1
  Sc  Sc7  1  0.993417  0.832843  0.595393  1
  Mn  Mn8  1  0.170666  0.495523  0.250000  1
  Cr  Cr9  1  0.669233  0.162286  0.625515  1
  Cr  Cr10  1  0.167823  0.339724  0.877179  1
  Cr  Cr11  1  0.336296  0.841931  0.123461  1
  Cr  Cr12  1  0.826693  0.662724  0.376594  1
  Cr  Cr13  1  0.336296  0.841931  0.376539  1
  Cr  Cr14  1  0.826693  0.662724  0.123406  1
  Cr  Cr15  1  0.669233  0.162286  0.874485  1
  Cr  Cr16  1  0.167823  0.339724  0.622821  1
  Cr  Cr17  1  0.829465  0.502178  0.750000  1
  Cr  Cr18  1  0.329037  0.997274  0.750000  1
  Si  Si19  1  0.664216  0.955655  0.458946  1
  Si  Si20  1  0.161781  0.546920  0.049046  1
  Si  Si21  1  0.336960  0.044304  0.951362  1
  Si  Si22  1  0.837143  0.456035  0.547221  1
  Si  Si23  1  0.336960  0.044304  0.548638  1
  Si  Si24  1  0.837143  0.456035  0.952779  1
  Si  Si25  1  0.664216  0.955655  0.041054  1
  Si  Si26  1  0.161781  0.546920  0.450954  1
  Si  Si27  1  0.463161  0.359947  0.750000  1
  Si  Si28  1  0.966399  0.139767  0.750000  1
  Si  Si29  1  0.527336  0.629349  0.250000  1
  Si  Si30  1  0.044345  0.853676  0.250000  1
  Si  Si31  1  0.690796  0.867518  0.750000  1
  Si  Si32  1  0.191692  0.631540  0.750000  1
  Si  Si33  1  0.299737  0.139659  0.250000  1
  Si  Si34  1  0.813812  0.373741  0.250000  1
  W  W35  1  0.671457  0.001061  0.250000  1
