# generated using pymatgen
data_TaNb2Co2WN
_symmetry_space_group_name_H-M   'P 1'
_cell_length_a   8.16809681
_cell_length_b   8.16539057
_cell_length_c   8.16539045
_cell_angle_alpha   60.02192533
_cell_angle_beta   59.98902899
_cell_angle_gamma   59.98903418
_symmetry_Int_Tables_number   1
_chemical_formula_structural   TaNb2Co2WN
_chemical_formula_sum   'Ta4 Nb8 Co8 W4 N4'
_cell_volume   385.08771600
_cell_formula_units_Z   4
loop_
 _symmetry_equiv_pos_site_id
 _symmetry_equiv_pos_as_xyz
  1  'x, y, z'
loop_
 _atom_site_type_symbol
 _atom_site_label
 _atom_site_symmetry_multiplicity
 _atom_site_fract_x
 _atom_site_fract_y
 _atom_site_fract_z
 _atom_site_occupancy
  Ta  Ta0  1  0.809866  0.809866  0.190134  1
  Ta  Ta1  1  0.190134  0.190134  0.809866  1
  Ta  Ta2  1  0.809866  0.190134  0.809866  1
  Ta  Ta3  1  0.190134  0.809866  0.190134  1
  Nb  Nb4  1  0.189863  0.810137  0.810137  1
  Nb  Nb5  1  0.810137  0.189863  0.189863  1
  Nb  Nb6  1  0.439730  0.439730  0.060270  1
  Nb  Nb7  1  0.060270  0.060270  0.439730  1
  Nb  Nb8  1  0.439730  0.060270  0.439730  1
  Nb  Nb9  1  0.060270  0.439730  0.060270  1
  Nb  Nb10  1  0.059614  0.440386  0.440386  1
  Nb  Nb11  1  0.440386  0.059614  0.059614  1
  Co  Co12  1  0.730962  0.423356  0.423356  1
  Co  Co13  1  0.423356  0.730962  0.422327  1
  Co  Co14  1  0.423356  0.422327  0.730962  1
  Co  Co15  1  0.422327  0.423356  0.423356  1
  Co  Co16  1  0.517686  0.827817  0.827817  1
  Co  Co17  1  0.827817  0.517686  0.826679  1
  Co  Co18  1  0.827817  0.826679  0.517686  1
  Co  Co19  1  0.826679  0.827817  0.827817  1
  W  W20  1  0.125178  0.624903  0.624903  1
  W  W21  1  0.624903  0.125178  0.625016  1
  W  W22  1  0.624903  0.625016  0.125178  1
  W  W23  1  0.625016  0.624903  0.624903  1
  N  N24  1  0.627944  0.123101  0.123101  1
  N  N25  1  0.123101  0.627944  0.125853  1
  N  N26  1  0.123101  0.125853  0.627944  1
  N  N27  1  0.125853  0.123101  0.123101  1
