# generated using pymatgen
data_Lu16ZnIn3Rh4
_symmetry_space_group_name_H-M   'P 1'
_cell_length_a   9.42186998
_cell_length_b   9.42187031
_cell_length_c   9.42187031
_cell_angle_alpha   59.95065069
_cell_angle_beta   59.95064701
_cell_angle_gamma   59.95065117
_symmetry_Int_Tables_number   1
_chemical_formula_structural   Lu16ZnIn3Rh4
_chemical_formula_sum   'Lu16 Zn1 In3 Rh4'
_cell_volume   590.75852758
_cell_formula_units_Z   1
loop_
 _symmetry_equiv_pos_site_id
 _symmetry_equiv_pos_as_xyz
  1  'x, y, z'
loop_
 _atom_site_type_symbol
 _atom_site_label
 _atom_site_symmetry_multiplicity
 _atom_site_fract_x
 _atom_site_fract_y
 _atom_site_fract_z
 _atom_site_occupancy
  Lu  Lu0  1  0.599885  0.599885  0.599885  1
  Lu  Lu1  1  0.602038  0.602038  0.196915  1
  Lu  Lu2  1  0.602038  0.196915  0.602038  1
  Lu  Lu3  1  0.196915  0.602038  0.602038  1
  Lu  Lu4  1  0.059086  0.440185  0.440185  1
  Lu  Lu5  1  0.440580  0.059806  0.059806  1
  Lu  Lu6  1  0.440185  0.059086  0.440185  1
  Lu  Lu7  1  0.059806  0.440580  0.059806  1
  Lu  Lu8  1  0.440185  0.440185  0.059086  1
  Lu  Lu9  1  0.059806  0.059806  0.440580  1
  Lu  Lu10  1  0.182707  0.812738  0.812738  1
  Lu  Lu11  1  0.811949  0.187860  0.187860  1
  Lu  Lu12  1  0.812738  0.182707  0.812738  1
  Lu  Lu13  1  0.187860  0.811949  0.187860  1
  Lu  Lu14  1  0.812738  0.812738  0.182707  1
  Lu  Lu15  1  0.187860  0.187860  0.811949  1
  Zn  Zn16  1  0.834337  0.834337  0.834337  1
  In  In17  1  0.833540  0.833540  0.502566  1
  In  In18  1  0.833540  0.502566  0.833540  1
  In  In19  1  0.502566  0.833540  0.833540  1
  Rh  Rh20  1  0.392756  0.392756  0.392756  1
  Rh  Rh21  1  0.392439  0.392439  0.822005  1
  Rh  Rh22  1  0.392439  0.822005  0.392439  1
  Rh  Rh23  1  0.822005  0.392439  0.392439  1
