# generated using pymatgen
data_Li2La3MgAu3
_symmetry_space_group_name_H-M   'P 1'
_cell_length_a   7.86822584
_cell_length_b   7.86822575
_cell_length_c   4.17646200
_cell_angle_alpha   90.00000000
_cell_angle_beta   90.00000000
_cell_angle_gamma   120.23708194
_symmetry_Int_Tables_number   1
_chemical_formula_structural   Li2La3MgAu3
_chemical_formula_sum   'Li2 La3 Mg1 Au3'
_cell_volume   223.38309420
_cell_formula_units_Z   1
loop_
 _symmetry_equiv_pos_site_id
 _symmetry_equiv_pos_as_xyz
  1  'x, y, z'
loop_
 _atom_site_type_symbol
 _atom_site_label
 _atom_site_symmetry_multiplicity
 _atom_site_fract_x
 _atom_site_fract_y
 _atom_site_fract_z
 _atom_site_occupancy
  Li  Li0  1  0.236186  0.999407  0.500000  1
  Li  Li1  1  0.999407  0.236186  0.500000  1
  La  La2  1  0.588098  0.000888  0.000000  1
  La  La3  1  0.000888  0.588098  0.000000  1
  La  La4  1  0.408288  0.408288  0.000000  1
  Mg  Mg5  1  0.763778  0.763778  0.500000  1
  Au  Au6  1  0.335203  0.666849  0.500000  1
  Au  Au7  1  0.666849  0.335203  0.500000  1
  Au  Au8  1  0.001302  0.001302  0.000000  1
