# generated using pymatgen
data_Er2GaGe3(AsRh4)3
_symmetry_space_group_name_H-M   'P 1'
_cell_length_a   9.95760400
_cell_length_b   9.95760284
_cell_length_c   3.91963600
_cell_angle_alpha   90.00000000
_cell_angle_beta   90.00000000
_cell_angle_gamma   119.99998877
_symmetry_Int_Tables_number   1
_chemical_formula_structural   Er2GaGe3(AsRh4)3
_chemical_formula_sum   'Er2 Ga1 Ge3 As3 Rh12'
_cell_volume   336.57826721
_cell_formula_units_Z   1
loop_
 _symmetry_equiv_pos_site_id
 _symmetry_equiv_pos_as_xyz
  1  'x, y, z'
loop_
 _atom_site_type_symbol
 _atom_site_label
 _atom_site_symmetry_multiplicity
 _atom_site_fract_x
 _atom_site_fract_y
 _atom_site_fract_z
 _atom_site_occupancy
  Er  Er0  1  0.666667  0.333333  0.748470  1
  Er  Er1  1  0.333333  0.666667  0.245624  1
  Ga  Ga2  1  0.000000  0.000000  0.674203  1
  Ge  Ge3  1  0.285604  0.883062  0.746295  1
  Ge  Ge4  1  0.116938  0.402542  0.746295  1
  Ge  Ge5  1  0.597458  0.714396  0.746295  1
  As  As6  1  0.709682  0.113817  0.246519  1
  As  As7  1  0.886183  0.595865  0.246519  1
  As  As8  1  0.404135  0.290318  0.246519  1
  Rh  Rh9  1  0.065217  0.618365  0.746690  1
  Rh  Rh10  1  0.381635  0.446852  0.746690  1
  Rh  Rh11  1  0.553148  0.934783  0.746690  1
  Rh  Rh12  1  0.938618  0.383329  0.246055  1
  Rh  Rh13  1  0.616671  0.555287  0.246055  1
  Rh  Rh14  1  0.444713  0.061382  0.246055  1
  Rh  Rh15  1  0.280757  0.126899  0.746433  1
  Rh  Rh16  1  0.873101  0.153860  0.746433  1
  Rh  Rh17  1  0.846140  0.719243  0.746433  1
  Rh  Rh18  1  0.749114  0.887586  0.246452  1
  Rh  Rh19  1  0.112414  0.861530  0.246452  1
  Rh  Rh20  1  0.138470  0.250886  0.246452  1
