# generated using pymatgen
data_Y4HoOs2
_symmetry_space_group_name_H-M   'P 1'
_cell_length_a   6.38476583
_cell_length_b   7.35357886
_cell_length_c   8.46534875
_cell_angle_alpha   96.79342276
_cell_angle_beta   112.15490325
_cell_angle_gamma   89.99999307
_symmetry_Int_Tables_number   1
_chemical_formula_structural   Y4HoOs2
_chemical_formula_sum   'Y8 Ho2 Os4'
_cell_volume   365.09578596
_cell_formula_units_Z   2
loop_
 _symmetry_equiv_pos_site_id
 _symmetry_equiv_pos_as_xyz
  1  'x, y, z'
loop_
 _atom_site_type_symbol
 _atom_site_label
 _atom_site_symmetry_multiplicity
 _atom_site_fract_x
 _atom_site_fract_y
 _atom_site_fract_z
 _atom_site_occupancy
  Y  Y0  1  0.976340  0.915792  0.183898  1
  Y  Y1  1  0.792441  0.584208  0.816102  1
  Y  Y2  1  0.023660  0.084208  0.816102  1
  Y  Y3  1  0.207559  0.415792  0.183898  1
  Y  Y4  1  0.639319  0.816262  0.435034  1
  Y  Y5  1  0.204285  0.683738  0.564966  1
  Y  Y6  1  0.360681  0.183738  0.564966  1
  Y  Y7  1  0.795715  0.316262  0.435034  1
  Ho  Ho8  1  0.422736  0.750000  0.000000  1
  Ho  Ho9  1  0.577264  0.250000  0.000000  1
  Os  Os10  1  0.819663  0.575871  0.217797  1
  Os  Os11  1  0.601867  0.924129  0.782203  1
  Os  Os12  1  0.180337  0.424129  0.782203  1
  Os  Os13  1  0.398133  0.075871  0.217797  1
