# generated using pymatgen
data_AlVCo(CuO2)3
_symmetry_space_group_name_H-M   'P 1'
_cell_length_a   5.17460237
_cell_length_b   5.17447846
_cell_length_c   11.55906790
_cell_angle_alpha   94.33718873
_cell_angle_beta   85.67027087
_cell_angle_gamma   60.05390654
_symmetry_Int_Tables_number   1
_chemical_formula_structural   AlVCo(CuO2)3
_chemical_formula_sum   'Al2 V2 Co2 Cu6 O12'
_cell_volume   265.10885481
_cell_formula_units_Z   2
loop_
 _symmetry_equiv_pos_site_id
 _symmetry_equiv_pos_as_xyz
  1  'x, y, z'
loop_
 _atom_site_type_symbol
 _atom_site_label
 _atom_site_symmetry_multiplicity
 _atom_site_fract_x
 _atom_site_fract_y
 _atom_site_fract_z
 _atom_site_occupancy
  Al  Al0  1  0.250020  0.750034  0.250001  1
  Al  Al1  1  0.750026  0.250031  0.750000  1
  V  V2  1  0.583371  0.083351  0.249998  1
  V  V3  1  0.083380  0.583337  0.750002  1
  Co  Co4  1  0.916570  0.416572  0.249997  1
  Co  Co5  1  0.416581  0.916565  0.749997  1
  Cu  Cu6  1  0.163941  0.163890  0.499896  1
  Cu  Cu7  1  0.840784  0.840957  0.500002  1
  Cu  Cu8  1  0.495442  0.495339  0.499987  1
  Cu  Cu9  1  0.663826  0.663962  0.000107  1
  Cu  Cu10  1  0.340949  0.340795  0.000015  1
  Cu  Cu11  1  0.995380  0.995430  0.999999  1
  O  O12  1  0.241783  0.082760  0.338429  1
  O  O13  1  0.741768  0.582758  0.838429  1
  O  O14  1  0.582722  0.741774  0.161568  1
  O  O15  1  0.082744  0.241768  0.661570  1
  O  O16  1  0.523677  0.455905  0.338286  1
  O  O17  1  0.023711  0.955890  0.838259  1
  O  O18  1  0.895150  0.800680  0.338181  1
  O  O19  1  0.395173  0.300633  0.838163  1
  O  O20  1  0.300629  0.395136  0.161834  1
  O  O21  1  0.800582  0.895159  0.661858  1
  O  O22  1  0.955891  0.023631  0.161698  1
  O  O23  1  0.455896  0.523643  0.661722  1
