# generated using pymatgen
data_Dy5Y5TlSb5
_symmetry_space_group_name_H-M   'P 1'
_cell_length_a   6.39576500
_cell_length_b   8.99773417
_cell_length_c   8.97903400
_cell_angle_alpha   120.06496886
_cell_angle_beta   90.00001792
_cell_angle_gamma   89.99997192
_symmetry_Int_Tables_number   1
_chemical_formula_structural   Dy5Y5TlSb5
_chemical_formula_sum   'Dy5 Y5 Tl1 Sb5'
_cell_volume   447.19940001
_cell_formula_units_Z   1
loop_
 _symmetry_equiv_pos_site_id
 _symmetry_equiv_pos_as_xyz
  1  'x, y, z'
loop_
 _atom_site_type_symbol
 _atom_site_label
 _atom_site_symmetry_multiplicity
 _atom_site_fract_x
 _atom_site_fract_y
 _atom_site_fract_z
 _atom_site_occupancy
  Dy  Dy0  1  0.498636  0.334472  0.668221  1
  Dy  Dy1  1  0.498641  0.666321  0.331811  1
  Dy  Dy2  1  0.001358  0.666322  0.331811  1
  Dy  Dy3  1  0.001363  0.334473  0.668221  1
  Dy  Dy4  1  0.250001  0.001591  0.754905  1
  Y  Y5  1  0.750001  0.243544  0.999891  1
  Y  Y6  1  0.750001  0.754354  0.757061  1
  Y  Y7  1  0.750001  0.997230  0.243007  1
  Y  Y8  1  0.249999  0.756913  0.999999  1
  Y  Y9  1  0.250001  0.246488  0.244904  1
  Tl  Tl10  1  0.749999  0.606563  0.999994  1
  Sb  Sb11  1  0.750001  0.389384  0.390237  1
  Sb  Sb12  1  0.750001  0.999222  0.609881  1
  Sb  Sb13  1  0.250000  0.390356  0.999863  1
  Sb  Sb14  1  0.250000  0.611442  0.610091  1
  Sb  Sb15  1  0.250000  0.001322  0.390103  1
