# generated using pymatgen
data_Hf6Zn19Ni4Ge
_symmetry_space_group_name_H-M   'P 1'
_cell_length_a   8.66556474
_cell_length_b   8.55710464
_cell_length_c   8.66556440
_cell_angle_alpha   60.41317437
_cell_angle_beta   59.17365717
_cell_angle_gamma   60.41317699
_symmetry_Int_Tables_number   1
_chemical_formula_structural   Hf6Zn19Ni4Ge
_chemical_formula_sum   'Hf6 Zn19 Ni4 Ge1'
_cell_volume   454.22516119
_cell_formula_units_Z   1
loop_
 _symmetry_equiv_pos_site_id
 _symmetry_equiv_pos_as_xyz
  1  'x, y, z'
loop_
 _atom_site_type_symbol
 _atom_site_label
 _atom_site_symmetry_multiplicity
 _atom_site_fract_x
 _atom_site_fract_y
 _atom_site_fract_z
 _atom_site_occupancy
  Hf  Hf0  1  0.718984  0.281016  0.281016  1
  Hf  Hf1  1  0.281016  0.718984  0.718984  1
  Hf  Hf2  1  0.289600  0.710400  0.289600  1
  Hf  Hf3  1  0.710400  0.289600  0.710400  1
  Hf  Hf4  1  0.281016  0.281016  0.718984  1
  Hf  Hf5  1  0.718984  0.718984  0.281016  1
  Zn  Zn6  1  0.131268  0.114622  0.131268  1
  Zn  Zn7  1  0.868732  0.885378  0.868732  1
  Zn  Zn8  1  0.114622  0.131268  0.622841  1
  Zn  Zn9  1  0.131268  0.622841  0.131268  1
  Zn  Zn10  1  0.885378  0.868732  0.377159  1
  Zn  Zn11  1  0.868732  0.377159  0.868732  1
  Zn  Zn12  1  0.622841  0.131268  0.114622  1
  Zn  Zn13  1  0.377159  0.868732  0.885378  1
  Zn  Zn14  1  0.000000  0.500000  0.000000  1
  Zn  Zn15  1  0.500000  0.000000  0.500000  1
  Zn  Zn16  1  0.336180  0.342050  0.336180  1
  Zn  Zn17  1  0.663820  0.657950  0.663820  1
  Zn  Zn18  1  0.342050  0.336180  0.985592  1
  Zn  Zn19  1  0.336180  0.985592  0.336180  1
  Zn  Zn20  1  0.657950  0.663820  0.014408  1
  Zn  Zn21  1  0.663820  0.014408  0.663820  1
  Zn  Zn22  1  0.985592  0.336180  0.342050  1
  Zn  Zn23  1  0.014408  0.663820  0.657950  1
  Zn  Zn24  1  0.000000  0.000000  0.000000  1
  Ni  Ni25  1  0.500000  0.000000  0.000000  1
  Ni  Ni26  1  0.000000  0.500000  0.500000  1
  Ni  Ni27  1  0.000000  0.000000  0.500000  1
  Ni  Ni28  1  0.500000  0.500000  0.000000  1
  Ge  Ge29  1  0.500000  0.500000  0.500000  1
