# generated using pymatgen
data_Tb6Dy2Sc11Si16Tc
_symmetry_space_group_name_H-M   'P 1'
_cell_length_a   7.03691221
_cell_length_b   7.36441800
_cell_length_c   13.92458355
_cell_angle_alpha   89.97137158
_cell_angle_beta   89.98515025
_cell_angle_gamma   90.12273822
_symmetry_Int_Tables_number   1
_chemical_formula_structural   Tb6Dy2Sc11Si16Tc
_chemical_formula_sum   'Tb6 Dy2 Sc11 Si16 Tc1'
_cell_volume   721.60862275
_cell_formula_units_Z   1
loop_
 _symmetry_equiv_pos_site_id
 _symmetry_equiv_pos_as_xyz
  1  'x, y, z'
loop_
 _atom_site_type_symbol
 _atom_site_label
 _atom_site_symmetry_multiplicity
 _atom_site_fract_x
 _atom_site_fract_y
 _atom_site_fract_z
 _atom_site_occupancy
  Tb  Tb0  1  0.486937  0.671887  0.901413  1
  Tb  Tb1  1  0.992742  0.819171  0.599567  1
  Tb  Tb2  1  0.511658  0.324096  0.095678  1
  Tb  Tb3  1  0.012053  0.176647  0.406208  1
  Tb  Tb4  1  0.511517  0.324192  0.404245  1
  Tb  Tb5  1  0.486958  0.671899  0.598706  1
  Dy  Dy6  1  0.012061  0.176932  0.093961  1
  Dy  Dy7  1  0.992730  0.818620  0.900199  1
  Sc  Sc8  1  0.841344  0.496587  0.249917  1
  Sc  Sc9  1  0.341647  0.003023  0.249910  1
  Sc  Sc10  1  0.657984  0.996684  0.750071  1
  Sc  Sc11  1  0.326016  0.178547  0.627426  1
  Sc  Sc12  1  0.672017  0.824030  0.374653  1
  Sc  Sc13  1  0.171896  0.674715  0.376627  1
  Sc  Sc14  1  0.672152  0.824069  0.125230  1
  Sc  Sc15  1  0.828768  0.330883  0.628266  1
  Sc  Sc16  1  0.325936  0.178550  0.872691  1
  Sc  Sc17  1  0.828839  0.330669  0.871799  1
  Sc  Sc18  1  0.171842  0.674909  0.123291  1
  Si  Si19  1  0.029867  0.121874  0.750132  1
  Si  Si20  1  0.971748  0.884311  0.249857  1
  Si  Si21  1  0.468252  0.617789  0.249971  1
  Si  Si22  1  0.520530  0.391918  0.750059  1
  Si  Si23  1  0.285250  0.866013  0.750230  1
  Si  Si24  1  0.716805  0.127650  0.249770  1
  Si  Si25  1  0.213981  0.372782  0.249792  1
  Si  Si26  1  0.794904  0.627471  0.750235  1
  Si  Si27  1  0.155141  0.465479  0.547248  1
  Si  Si28  1  0.843464  0.535888  0.462910  1
  Si  Si29  1  0.346491  0.964696  0.463011  1
  Si  Si30  1  0.843738  0.535892  0.037044  1
  Si  Si31  1  0.656679  0.034565  0.540140  1
  Si  Si32  1  0.154847  0.465650  0.952789  1
  Si  Si33  1  0.657422  0.034388  0.959808  1
  Si  Si34  1  0.345733  0.964894  0.037036  1
  Tc  Tc35  1  0.150050  0.492629  0.750107  1
