# generated using pymatgen
data_K2ZrIrO6
_symmetry_space_group_name_H-M   'P 1'
_cell_length_a   5.73916775
_cell_length_b   5.73916793
_cell_length_c   5.73916800
_cell_angle_alpha   59.99999961
_cell_angle_beta   59.99999858
_cell_angle_gamma   60.00000008
_symmetry_Int_Tables_number   1
_chemical_formula_structural   K2ZrIrO6
_chemical_formula_sum   'K2 Zr1 Ir1 O6'
_cell_volume   133.66933462
_cell_formula_units_Z   1
loop_
 _symmetry_equiv_pos_site_id
 _symmetry_equiv_pos_as_xyz
  1  'x, y, z'
loop_
 _atom_site_type_symbol
 _atom_site_label
 _atom_site_symmetry_multiplicity
 _atom_site_fract_x
 _atom_site_fract_y
 _atom_site_fract_z
 _atom_site_occupancy
  K  K0  1  0.750000  0.750000  0.750000  1
  K  K1  1  0.250000  0.250000  0.250000  1
  Zr  Zr2  1  0.500000  0.500000  0.500000  1
  Ir  Ir3  1  0.000000  0.000000  0.000000  1
  O  O4  1  0.759889  0.240111  0.240111  1
  O  O5  1  0.240111  0.240111  0.759889  1
  O  O6  1  0.240111  0.759889  0.759889  1
  O  O7  1  0.240111  0.759889  0.240111  1
  O  O8  1  0.759889  0.240111  0.759889  1
  O  O9  1  0.759889  0.759889  0.240111  1
