# generated using pymatgen
data_ErZr3(Rh5Pb)2
_symmetry_space_group_name_H-M   'P 1'
_cell_length_a   5.73564150
_cell_length_b   5.73564683
_cell_length_c   8.32795400
_cell_angle_alpha   89.99750102
_cell_angle_beta   89.99824277
_cell_angle_gamma   96.41691034
_symmetry_Int_Tables_number   1
_chemical_formula_structural   ErZr3(Rh5Pb)2
_chemical_formula_sum   'Er1 Zr3 Rh10 Pb2'
_cell_volume   272.25338811
_cell_formula_units_Z   1
loop_
 _symmetry_equiv_pos_site_id
 _symmetry_equiv_pos_as_xyz
  1  'x, y, z'
loop_
 _atom_site_type_symbol
 _atom_site_label
 _atom_site_symmetry_multiplicity
 _atom_site_fract_x
 _atom_site_fract_y
 _atom_site_fract_z
 _atom_site_occupancy
  Er  Er0  1  0.777824  0.222177  0.500017  1
  Zr  Zr1  1  0.216657  0.783342  0.000010  1
  Zr  Zr2  1  0.216331  0.783672  0.499984  1
  Zr  Zr3  1  0.782988  0.217014  0.000009  1
  Rh  Rh4  1  0.737683  0.737845  0.000631  1
  Rh  Rh5  1  0.738698  0.736113  0.499312  1
  Rh  Rh6  1  0.262158  0.262317  0.999401  1
  Rh  Rh7  1  0.263888  0.261302  0.500651  1
  Rh  Rh8  1  0.496976  0.997690  0.754210  1
  Rh  Rh9  1  0.497123  0.996525  0.245873  1
  Rh  Rh10  1  0.002921  0.997729  0.246056  1
  Rh  Rh11  1  0.002284  0.997061  0.753946  1
  Rh  Rh12  1  0.003476  0.502879  0.754119  1
  Rh  Rh13  1  0.002314  0.503023  0.245783  1
  Pb  Pb14  1  0.500575  0.501885  0.750859  1
  Pb  Pb15  1  0.498105  0.499426  0.249139  1
