# generated using pymatgen
data_Dy10Y2InCo5
_symmetry_space_group_name_H-M   'P 1'
_cell_length_a   8.28783542
_cell_length_b   8.28783622
_cell_length_c   8.28783560
_cell_angle_alpha   107.05140000
_cell_angle_beta   110.68485788
_cell_angle_gamma   110.70416684
_symmetry_Int_Tables_number   1
_chemical_formula_structural   Dy10Y2InCo5
_chemical_formula_sum   'Dy10 Y2 In1 Co5'
_cell_volume   437.64625290
_cell_formula_units_Z   1
loop_
 _symmetry_equiv_pos_site_id
 _symmetry_equiv_pos_as_xyz
  1  'x, y, z'
loop_
 _atom_site_type_symbol
 _atom_site_label
 _atom_site_symmetry_multiplicity
 _atom_site_fract_x
 _atom_site_fract_y
 _atom_site_fract_z
 _atom_site_occupancy
  Dy  Dy0  1  0.893310  0.706940  0.186370  1
  Dy  Dy1  1  0.520570  0.706940  0.813630  1
  Dy  Dy2  1  0.305533  0.620076  0.314543  1
  Dy  Dy3  1  0.305533  0.990991  0.685457  1
  Dy  Dy4  1  0.694454  0.380585  0.686131  1
  Dy  Dy5  1  0.694454  0.008322  0.313869  1
  Dy  Dy6  1  0.191331  0.207583  0.399134  1
  Dy  Dy7  1  0.808449  0.792197  0.600866  1
  Dy  Dy8  1  0.191331  0.792197  0.983747  1
  Dy  Dy9  1  0.808449  0.207583  0.016253  1
  Y  Y10  1  0.480436  0.293106  0.187330  1
  Y  Y11  1  0.105777  0.293106  0.812670  1
  In  In12  1  0.999719  0.499719  0.500000  1
  Co  Co13  1  0.501021  0.613489  0.112468  1
  Co  Co14  1  0.501021  0.388553  0.887532  1
  Co  Co15  1  0.379318  0.000035  0.379284  1
  Co  Co16  1  0.620752  0.000035  0.620716  1
  Co  Co17  1  0.998541  0.998541  0.000000  1
