# generated using pymatgen
data_Sc11Cd8InNi4
_symmetry_space_group_name_H-M   'P 1'
_cell_length_a   12.47485574
_cell_length_b   12.47485550
_cell_length_c   3.34877600
_cell_angle_alpha   90.00000000
_cell_angle_beta   90.00000000
_cell_angle_gamma   112.52023726
_symmetry_Int_Tables_number   1
_chemical_formula_structural   Sc11Cd8InNi4
_chemical_formula_sum   'Sc11 Cd8 In1 Ni4'
_cell_volume   481.40315237
_cell_formula_units_Z   1
loop_
 _symmetry_equiv_pos_site_id
 _symmetry_equiv_pos_as_xyz
  1  'x, y, z'
loop_
 _atom_site_type_symbol
 _atom_site_label
 _atom_site_symmetry_multiplicity
 _atom_site_fract_x
 _atom_site_fract_y
 _atom_site_fract_z
 _atom_site_occupancy
  Sc  Sc0  1  0.082142  0.417584  0.000000  1
  Sc  Sc1  1  0.917858  0.582416  0.000000  1
  Sc  Sc2  1  0.417584  0.082142  0.000000  1
  Sc  Sc3  1  0.582416  0.917858  0.000000  1
  Sc  Sc4  1  0.626882  0.373118  0.000000  1
  Sc  Sc5  1  0.373118  0.626882  0.000000  1
  Sc  Sc6  1  0.841477  0.158523  0.000000  1
  Sc  Sc7  1  0.158523  0.841477  0.000000  1
  Sc  Sc8  1  0.000000  0.000000  0.000000  1
  Sc  Sc9  1  0.311135  0.311135  0.000000  1
  Sc  Sc10  1  0.688865  0.688865  0.000000  1
  Cd  Cd11  1  0.845549  0.367245  0.500000  1
  Cd  Cd12  1  0.154451  0.632755  0.500000  1
  Cd  Cd13  1  0.367245  0.845549  0.500000  1
  Cd  Cd14  1  0.632755  0.154451  0.500000  1
  Cd  Cd15  1  0.074093  0.218274  0.500000  1
  Cd  Cd16  1  0.925907  0.781726  0.500000  1
  Cd  Cd17  1  0.218274  0.074093  0.500000  1
  Cd  Cd18  1  0.781726  0.925907  0.500000  1
  In  In19  1  0.500000  0.500000  0.500000  1
  Ni  Ni20  1  0.250612  0.451457  0.500000  1
  Ni  Ni21  1  0.749388  0.548543  0.500000  1
  Ni  Ni22  1  0.451457  0.250612  0.500000  1
  Ni  Ni23  1  0.548543  0.749388  0.500000  1
