# generated using pymatgen
data_Ca2TbTh(InRh)4
_symmetry_space_group_name_H-M   'P 1'
_cell_length_a   4.15719100
_cell_length_b   7.39839224
_cell_length_c   8.72254918
_cell_angle_alpha   89.17978701
_cell_angle_beta   90.00000000
_cell_angle_gamma   90.00000000
_symmetry_Int_Tables_number   1
_chemical_formula_structural   Ca2TbTh(InRh)4
_chemical_formula_sum   'Ca2 Tb1 Th1 In4 Rh4'
_cell_volume   268.24785377
_cell_formula_units_Z   1
loop_
 _symmetry_equiv_pos_site_id
 _symmetry_equiv_pos_as_xyz
  1  'x, y, z'
loop_
 _atom_site_type_symbol
 _atom_site_label
 _atom_site_symmetry_multiplicity
 _atom_site_fract_x
 _atom_site_fract_y
 _atom_site_fract_z
 _atom_site_occupancy
  Ca  Ca0  1  0.750000  0.465679  0.822596  1
  Ca  Ca1  1  0.250000  0.532268  0.174747  1
  Tb  Tb2  1  0.750000  0.962296  0.683716  1
  Th  Th3  1  0.250000  0.035671  0.324320  1
  In  In4  1  0.750000  0.846532  0.056427  1
  In  In5  1  0.250000  0.147069  0.935504  1
  In  In6  1  0.750000  0.373071  0.437295  1
  In  In7  1  0.250000  0.637786  0.566242  1
  Rh  Rh8  1  0.750000  0.768652  0.373950  1
  Rh  Rh9  1  0.250000  0.239219  0.618845  1
  Rh  Rh10  1  0.750000  0.220533  0.147139  1
  Rh  Rh11  1  0.250000  0.771222  0.859218  1
