# generated using pymatgen
data_Yb3Ho(MnB4)4
_symmetry_space_group_name_H-M   'P 1'
_cell_length_a   3.36685400
_cell_length_b   5.90018409
_cell_length_c   11.41065217
_cell_angle_alpha   89.98035039
_cell_angle_beta   90.00000000
_cell_angle_gamma   90.00000000
_symmetry_Int_Tables_number   1
_chemical_formula_structural   Yb3Ho(MnB4)4
_chemical_formula_sum   'Yb3 Ho1 Mn4 B16'
_cell_volume   226.67325829
_cell_formula_units_Z   1
loop_
 _symmetry_equiv_pos_site_id
 _symmetry_equiv_pos_as_xyz
  1  'x, y, z'
loop_
 _atom_site_type_symbol
 _atom_site_label
 _atom_site_symmetry_multiplicity
 _atom_site_fract_x
 _atom_site_fract_y
 _atom_site_fract_z
 _atom_site_occupancy
  Yb  Yb0  1  0.500000  0.625543  0.151228  1
  Yb  Yb1  1  0.500000  0.374766  0.849417  1
  Yb  Yb2  1  0.500000  0.125750  0.348560  1
  Ho  Ho3  1  0.500000  0.874148  0.650995  1
  Mn  Mn4  1  0.500000  0.623580  0.420675  1
  Mn  Mn5  1  0.500000  0.377294  0.580555  1
  Mn  Mn6  1  0.500000  0.123967  0.080163  1
  Mn  Mn7  1  0.500000  0.876805  0.919174  1
  B  B8  1  0.000000  0.975708  0.190885  1
  B  B9  1  0.000000  0.024296  0.809125  1
  B  B10  1  0.000000  0.476691  0.309304  1
  B  B11  1  0.000000  0.524342  0.691193  1
  B  B12  1  0.000000  0.778986  0.316951  1
  B  B13  1  0.000000  0.220233  0.683039  1
  B  B14  1  0.000000  0.280354  0.183220  1
  B  B15  1  0.000000  0.719603  0.817202  1
  B  B16  1  0.000000  0.861535  0.467386  1
  B  B17  1  0.000000  0.138312  0.532257  1
  B  B18  1  0.000000  0.362319  0.032429  1
  B  B19  1  0.000000  0.637753  0.967279  1
  B  B20  1  0.000000  0.886113  0.046175  1
  B  B21  1  0.000000  0.112973  0.952704  1
  B  B22  1  0.000000  0.386816  0.453206  1
  B  B23  1  0.000000  0.612111  0.546877  1
