# generated using pymatgen
data_Dy8Ho4Al(InFe)2
_symmetry_space_group_name_H-M   'P 1'
_cell_length_a   8.41105557
_cell_length_b   8.41105677
_cell_length_c   8.41105641
_cell_angle_alpha   110.03260644
_cell_angle_beta   110.03261306
_cell_angle_gamma   108.35418858
_symmetry_Int_Tables_number   1
_chemical_formula_structural   Dy8Ho4Al(InFe)2
_chemical_formula_sum   'Dy8 Ho4 Al1 In2 Fe2'
_cell_volume   457.93745762
_cell_formula_units_Z   1
loop_
 _symmetry_equiv_pos_site_id
 _symmetry_equiv_pos_as_xyz
  1  'x, y, z'
loop_
 _atom_site_type_symbol
 _atom_site_label
 _atom_site_symmetry_multiplicity
 _atom_site_fract_x
 _atom_site_fract_y
 _atom_site_fract_z
 _atom_site_occupancy
  Dy  Dy0  1  0.449390  0.204581  0.244809  1
  Dy  Dy1  1  0.550610  0.795419  0.755191  1
  Dy  Dy2  1  0.959771  0.204581  0.755191  1
  Dy  Dy3  1  0.204581  0.959771  0.755191  1
  Dy  Dy4  1  0.040229  0.795419  0.244809  1
  Dy  Dy5  1  0.795419  0.040229  0.244809  1
  Dy  Dy6  1  0.204581  0.449390  0.244809  1
  Dy  Dy7  1  0.795419  0.550610  0.755191  1
  Ho  Ho8  1  0.304315  0.304315  0.608631  1
  Ho  Ho9  1  0.695685  0.695685  0.391369  1
  Ho  Ho10  1  0.304315  0.695685  0.000000  1
  Ho  Ho11  1  0.695685  0.304315  0.000000  1
  Al  Al12  1  0.000000  0.000000  0.000000  1
  In  In13  1  0.500000  0.000000  0.500000  1
  In  In14  1  0.000000  0.500000  0.500000  1
  Fe  Fe15  1  0.388861  0.388861  0.000000  1
  Fe  Fe16  1  0.611139  0.611139  0.000000  1
