# generated using pymatgen
data_Tb11In9CoAu3
_symmetry_space_group_name_H-M   'P 1'
_cell_length_a   13.29514020
_cell_length_b   13.33710771
_cell_length_c   3.64506700
_cell_angle_alpha   90.00000000
_cell_angle_beta   90.00000000
_cell_angle_gamma   110.74360446
_symmetry_Int_Tables_number   1
_chemical_formula_structural   Tb11In9CoAu3
_chemical_formula_sum   'Tb11 In9 Co1 Au3'
_cell_volume   604.43954231
_cell_formula_units_Z   1
loop_
 _symmetry_equiv_pos_site_id
 _symmetry_equiv_pos_as_xyz
  1  'x, y, z'
loop_
 _atom_site_type_symbol
 _atom_site_label
 _atom_site_symmetry_multiplicity
 _atom_site_fract_x
 _atom_site_fract_y
 _atom_site_fract_z
 _atom_site_occupancy
  Tb  Tb0  1  0.067339  0.416982  0.000000  1
  Tb  Tb1  1  0.932837  0.584095  0.000000  1
  Tb  Tb2  1  0.414031  0.063217  0.000000  1
  Tb  Tb3  1  0.579084  0.919587  0.000000  1
  Tb  Tb4  1  0.632899  0.368738  0.000000  1
  Tb  Tb5  1  0.385489  0.641823  0.000000  1
  Tb  Tb6  1  0.841009  0.156883  0.000000  1
  Tb  Tb7  1  0.159246  0.841683  0.000000  1
  Tb  Tb8  1  0.997356  0.999552  0.000000  1
  Tb  Tb9  1  0.305571  0.305375  0.000000  1
  Tb  Tb10  1  0.681845  0.700367  0.000000  1
  In  In11  1  0.845703  0.364574  0.500000  1
  In  In12  1  0.159221  0.634887  0.500000  1
  In  In13  1  0.368023  0.839980  0.500000  1
  In  In14  1  0.633272  0.150689  0.500000  1
  In  In15  1  0.068428  0.214761  0.500000  1
  In  In16  1  0.928049  0.784038  0.500000  1
  In  In17  1  0.214218  0.069069  0.500000  1
  In  In18  1  0.778837  0.924583  0.500000  1
  In  In19  1  0.501548  0.505214  0.500000  1
  Co  Co20  1  0.550537  0.757449  0.500000  1
  Au  Au21  1  0.253127  0.456032  0.500000  1
  Au  Au22  1  0.749096  0.551434  0.500000  1
  Au  Au23  1  0.453231  0.248989  0.500000  1
