# generated using pymatgen
data_Lu2PaIn3Rh2
_symmetry_space_group_name_H-M   'P 1'
_cell_length_a   7.83740900
_cell_length_b   7.54844811
_cell_length_c   3.57317200
_cell_angle_alpha   90.00000000
_cell_angle_beta   90.00000000
_cell_angle_gamma   121.27461446
_symmetry_Int_Tables_number   1
_chemical_formula_structural   Lu2PaIn3Rh2
_chemical_formula_sum   'Lu2 Pa1 In3 Rh2'
_cell_volume   180.67255397
_cell_formula_units_Z   1
loop_
 _symmetry_equiv_pos_site_id
 _symmetry_equiv_pos_as_xyz
  1  'x, y, z'
loop_
 _atom_site_type_symbol
 _atom_site_label
 _atom_site_symmetry_multiplicity
 _atom_site_fract_x
 _atom_site_fract_y
 _atom_site_fract_z
 _atom_site_occupancy
  Lu  Lu0  1  0.420664  0.417854  0.499999  1
  Lu  Lu1  1  0.002810  0.582145  0.499999  1
  Pa  Pa2  1  0.567009  0.000000  0.499999  1
  In  In3  1  0.222002  0.000000  0.000000  1
  In  In4  1  0.003567  0.237418  0.000000  1
  In  In5  1  0.766148  0.762581  0.000000  1
  Rh  Rh6  1  0.662739  0.307680  0.000000  1
  Rh  Rh7  1  0.355060  0.692321  0.000000  1
