# generated using pymatgen
data_La3Dy5(Lu3Si4)4
_symmetry_space_group_name_H-M   'P 1'
_cell_length_a   7.62794124
_cell_length_b   7.63141464
_cell_length_c   14.02738239
_cell_angle_alpha   89.97674274
_cell_angle_beta   89.90249176
_cell_angle_gamma   90.04089491
_symmetry_Int_Tables_number   1
_chemical_formula_structural   La3Dy5(Lu3Si4)4
_chemical_formula_sum   'La3 Dy5 Lu12 Si16'
_cell_volume   816.56027933
_cell_formula_units_Z   1
loop_
 _symmetry_equiv_pos_site_id
 _symmetry_equiv_pos_as_xyz
  1  'x, y, z'
loop_
 _atom_site_type_symbol
 _atom_site_label
 _atom_site_symmetry_multiplicity
 _atom_site_fract_x
 _atom_site_fract_y
 _atom_site_fract_z
 _atom_site_occupancy
  La  La0  1  0.509017  0.145909  0.209512  1
  La  La1  1  0.491224  0.853654  0.711001  1
  La  La2  1  0.352722  0.008597  0.460274  1
  Dy  Dy3  1  0.993569  0.642299  0.039450  1
  Dy  Dy4  1  0.006079  0.358787  0.540941  1
  Dy  Dy5  1  0.643733  0.993849  0.959704  1
  Dy  Dy6  1  0.140641  0.506048  0.791776  1
  Dy  Dy7  1  0.858957  0.493336  0.290076  1
  Lu  Lu8  1  0.359053  0.492428  0.375365  1
  Lu  Lu9  1  0.859366  0.006133  0.374266  1
  Lu  Lu10  1  0.992238  0.139418  0.124298  1
  Lu  Lu11  1  0.006500  0.858817  0.626421  1
  Lu  Lu12  1  0.641565  0.509461  0.876208  1
  Lu  Lu13  1  0.494070  0.359182  0.625095  1
  Lu  Lu14  1  0.507591  0.640493  0.123252  1
  Lu  Lu15  1  0.139128  0.995074  0.875514  1
  Lu  Lu16  1  0.684507  0.677763  0.499871  1
  Lu  Lu17  1  0.819826  0.183450  0.750677  1
  Lu  Lu18  1  0.178718  0.815807  0.249307  1
  Lu  Lu19  1  0.317495  0.320021  0.000016  1
  Si  Si20  1  0.055585  0.703262  0.436750  1
  Si  Si21  1  0.942247  0.294777  0.936821  1
  Si  Si22  1  0.715861  0.066806  0.562334  1
  Si  Si23  1  0.203129  0.444803  0.186217  1
  Si  Si24  1  0.796190  0.556235  0.687507  1
  Si  Si25  1  0.437523  0.213034  0.814079  1
  Si  Si26  1  0.566569  0.783335  0.311990  1
  Si  Si27  1  0.289461  0.936416  0.061253  1
  Si  Si28  1  0.852946  0.795937  0.816816  1
  Si  Si29  1  0.143136  0.209068  0.312060  1
  Si  Si30  1  0.801332  0.842398  0.186295  1
  Si  Si31  1  0.290736  0.643213  0.562777  1
  Si  Si32  1  0.706417  0.351009  0.060536  1
  Si  Si33  1  0.657082  0.300729  0.437237  1
  Si  Si34  1  0.346640  0.701967  0.936547  1
  Si  Si35  1  0.199147  0.156485  0.687756  1
