# generated using pymatgen
data_NaReF7
_symmetry_space_group_name_H-M   'P 1'
_cell_length_a   5.46556285
_cell_length_b   5.32003635
_cell_length_c   6.47675646
_cell_angle_alpha   62.37820731
_cell_angle_beta   71.22491137
_cell_angle_gamma   98.27057999
_symmetry_Int_Tables_number   1
_chemical_formula_structural   NaReF7
_chemical_formula_sum   'Na1 Re1 F7'
_cell_volume   148.02737875
_cell_formula_units_Z   1
loop_
 _symmetry_equiv_pos_site_id
 _symmetry_equiv_pos_as_xyz
  1  'x, y, z'
loop_
 _atom_site_type_symbol
 _atom_site_label
 _atom_site_symmetry_multiplicity
 _atom_site_fract_x
 _atom_site_fract_y
 _atom_site_fract_z
 _atom_site_occupancy
  Na  Na0  1  0.870577  0.228525  0.754468  1
  Re  Re1  1  0.277138  0.617528  0.938391  1
  F  F2  1  0.572779  0.975943  0.637863  1
  F  F3  1  0.556839  0.696686  0.044706  1
  F  F4  1  0.477593  0.376683  0.874660  1
  F  F5  1  0.106243  0.910353  0.919906  1
  F  F6  1  0.954842  0.279598  0.078684  1
  F  F7  1  0.204423  0.687819  0.645998  1
  F  F8  1  0.090168  0.459979  0.298624  1
