# generated using pymatgen
data_Ba7InHg30
_symmetry_space_group_name_H-M   'P 1'
_cell_length_a   11.08992341
_cell_length_b   11.02841157
_cell_length_c   10.89333500
_cell_angle_alpha   90.00000000
_cell_angle_beta   90.00000000
_cell_angle_gamma   121.90005248
_symmetry_Int_Tables_number   1
_chemical_formula_structural   Ba7InHg30
_chemical_formula_sum   'Ba7 In1 Hg30'
_cell_volume   1131.08522995
_cell_formula_units_Z   1
loop_
 _symmetry_equiv_pos_site_id
 _symmetry_equiv_pos_as_xyz
  1  'x, y, z'
loop_
 _atom_site_type_symbol
 _atom_site_label
 _atom_site_symmetry_multiplicity
 _atom_site_fract_x
 _atom_site_fract_y
 _atom_site_fract_z
 _atom_site_occupancy
  Ba  Ba0  1  0.659261  0.325731  0.000000  1
  Ba  Ba1  1  0.998112  0.006205  0.000000  1
  Ba  Ba2  1  0.836717  0.667499  0.500000  1
  Ba  Ba3  1  0.336641  0.166154  0.500000  1
  Ba  Ba4  1  0.836486  0.169893  0.500000  1
  Ba  Ba5  1  0.336108  0.665824  0.788305  1
  Ba  Ba6  1  0.336108  0.665824  0.211695  1
  In  In7  1  0.047566  0.661929  0.000000  1
  Hg  Hg8  1  0.324940  0.387658  0.000000  1
  Hg  Hg9  1  0.600782  0.937301  0.000000  1
  Hg  Hg10  1  0.606586  0.671626  0.000000  1
  Hg  Hg11  1  0.327578  0.936742  0.000000  1
  Hg  Hg12  1  0.062652  0.397451  0.000000  1
  Hg  Hg13  1  0.831233  0.674821  0.830864  1
  Hg  Hg14  1  0.324977  0.161948  0.830693  1
  Hg  Hg15  1  0.835882  0.162034  0.828994  1
  Hg  Hg16  1  0.831233  0.674821  0.169136  1
  Hg  Hg17  1  0.324977  0.161948  0.169307  1
  Hg  Hg18  1  0.835882  0.162034  0.171006  1
  Hg  Hg19  1  0.669409  0.336070  0.642089  1
  Hg  Hg20  1  0.005830  0.996473  0.646657  1
  Hg  Hg21  1  0.005830  0.996473  0.353343  1
  Hg  Hg22  1  0.669409  0.336070  0.357911  1
  Hg  Hg23  1  0.961377  0.484649  0.739440  1
  Hg  Hg24  1  0.519445  0.479381  0.736954  1
  Hg  Hg25  1  0.518353  0.041904  0.737037  1
  Hg  Hg26  1  0.156031  0.842373  0.706840  1
  Hg  Hg27  1  0.694725  0.846960  0.694014  1
  Hg  Hg28  1  0.155604  0.307283  0.696042  1
  Hg  Hg29  1  0.694725  0.846960  0.305986  1
  Hg  Hg30  1  0.156031  0.842373  0.293160  1
  Hg  Hg31  1  0.155604  0.307283  0.303958  1
  Hg  Hg32  1  0.519445  0.479381  0.263046  1
  Hg  Hg33  1  0.961377  0.484649  0.260560  1
  Hg  Hg34  1  0.518353  0.041904  0.262963  1
  Hg  Hg35  1  0.136893  0.573882  0.500000  1
  Hg  Hg36  1  0.435298  0.564187  0.500000  1
  Hg  Hg37  1  0.439209  0.867632  0.500000  1
