# generated using pymatgen
data_Ce4TiNb(B2Ru5)2
_symmetry_space_group_name_H-M   'P 1'
_cell_length_a   9.75080900
_cell_length_b   9.75080900
_cell_length_c   3.13357300
_cell_angle_alpha   90.00000000
_cell_angle_beta   90.00000000
_cell_angle_gamma   90.00000000
_symmetry_Int_Tables_number   1
_chemical_formula_structural   Ce4TiNb(B2Ru5)2
_chemical_formula_sum   'Ce4 Ti1 Nb1 B4 Ru10'
_cell_volume   297.93471904
_cell_formula_units_Z   1
loop_
 _symmetry_equiv_pos_site_id
 _symmetry_equiv_pos_as_xyz
  1  'x, y, z'
loop_
 _atom_site_type_symbol
 _atom_site_label
 _atom_site_symmetry_multiplicity
 _atom_site_fract_x
 _atom_site_fract_y
 _atom_site_fract_z
 _atom_site_occupancy
  Ce  Ce0  1  0.822216  0.674067  0.000000  1
  Ce  Ce1  1  0.177784  0.325933  0.000000  1
  Ce  Ce2  1  0.325933  0.822216  0.000000  1
  Ce  Ce3  1  0.674067  0.177784  0.000000  1
  Ti  Ti4  1  0.500000  0.500000  0.000000  1
  Nb  Nb5  1  0.000000  0.000000  0.000000  1
  B  B6  1  0.619947  0.877003  0.000000  1
  B  B7  1  0.380053  0.122997  0.000000  1
  B  B8  1  0.122997  0.619947  0.000000  1
  B  B9  1  0.877003  0.380053  0.000000  1
  Ru  Ru10  1  0.570399  0.718301  0.500000  1
  Ru  Ru11  1  0.429601  0.281699  0.500000  1
  Ru  Ru12  1  0.070164  0.780109  0.500000  1
  Ru  Ru13  1  0.929836  0.219891  0.500000  1
  Ru  Ru14  1  0.281699  0.570399  0.500000  1
  Ru  Ru15  1  0.718301  0.429601  0.500000  1
  Ru  Ru16  1  0.219891  0.070164  0.500000  1
  Ru  Ru17  1  0.780109  0.929836  0.500000  1
  Ru  Ru18  1  0.500000  0.000000  0.500000  1
  Ru  Ru19  1  0.000000  0.500000  0.500000  1
