# generated using pymatgen
data_TiBe9NbCr
_symmetry_space_group_name_H-M   'P 1'
_cell_length_a   7.33420971
_cell_length_b   7.33420933
_cell_length_c   7.33421106
_cell_angle_alpha   34.99524151
_cell_angle_beta   34.99524471
_cell_angle_gamma   34.99523451
_symmetry_Int_Tables_number   1
_chemical_formula_structural   TiBe9NbCr
_chemical_formula_sum   'Ti1 Be9 Nb1 Cr1'
_cell_volume   115.85891747
_cell_formula_units_Z   1
loop_
 _symmetry_equiv_pos_site_id
 _symmetry_equiv_pos_as_xyz
  1  'x, y, z'
loop_
 _atom_site_type_symbol
 _atom_site_label
 _atom_site_symmetry_multiplicity
 _atom_site_fract_x
 _atom_site_fract_y
 _atom_site_fract_z
 _atom_site_occupancy
  Ti  Ti0  1  0.142851  0.142851  0.142851  1
  Be  Be1  1  0.415222  0.919511  0.415222  1
  Be  Be2  1  0.415222  0.415222  0.919511  1
  Be  Be3  1  0.919511  0.415222  0.415222  1
  Be  Be4  1  0.586307  0.076862  0.586307  1
  Be  Be5  1  0.586307  0.586307  0.076862  1
  Be  Be6  1  0.076862  0.586307  0.586307  1
  Be  Be7  1  0.666816  0.666816  0.666816  1
  Be  Be8  1  0.334743  0.334743  0.334743  1
  Be  Be9  1  0.500180  0.500180  0.500180  1
  Nb  Nb10  1  0.996768  0.996768  0.996768  1
  Cr  Cr11  1  0.859211  0.859211  0.859211  1
