# generated using pymatgen
data_Dy4YLu5(Si5Ir2)4
_symmetry_space_group_name_H-M   'P 1'
_cell_length_a   12.58357419
_cell_length_b   12.58385775
_cell_length_c   4.23330200
_cell_angle_alpha   90.00000000
_cell_angle_beta   90.00000000
_cell_angle_gamma   89.99009719
_symmetry_Int_Tables_number   1
_chemical_formula_structural   Dy4YLu5(Si5Ir2)4
_chemical_formula_sum   'Dy4 Y1 Lu5 Si20 Ir8'
_cell_volume   670.34297055
_cell_formula_units_Z   1
loop_
 _symmetry_equiv_pos_site_id
 _symmetry_equiv_pos_as_xyz
  1  'x, y, z'
loop_
 _atom_site_type_symbol
 _atom_site_label
 _atom_site_symmetry_multiplicity
 _atom_site_fract_x
 _atom_site_fract_y
 _atom_site_fract_z
 _atom_site_occupancy
  Dy  Dy0  1  0.823411  0.676555  0.500000  1
  Dy  Dy1  1  0.883767  0.383558  0.500000  1
  Dy  Dy2  1  0.383885  0.116106  0.500000  1
  Dy  Dy3  1  0.615665  0.884334  0.500000  1
  Y  Y4  1  0.116434  0.616250  0.500000  1
  Lu  Lu5  1  0.499935  0.500165  0.000000  1
  Lu  Lu6  1  0.999833  0.000136  0.000000  1
  Lu  Lu7  1  0.676354  0.175577  0.500000  1
  Lu  Lu8  1  0.324434  0.823689  0.500000  1
  Lu  Lu9  1  0.176166  0.323817  0.500000  1
  Si  Si10  1  0.566073  0.066522  0.000000  1
  Si  Si11  1  0.433474  0.933921  0.000000  1
  Si  Si12  1  0.066647  0.433260  0.000000  1
  Si  Si13  1  0.934310  0.565600  0.000000  1
  Si  Si14  1  0.662267  0.701294  0.000000  1
  Si  Si15  1  0.336575  0.298874  0.000000  1
  Si  Si16  1  0.163991  0.799352  0.000000  1
  Si  Si17  1  0.836637  0.201250  0.000000  1
  Si  Si18  1  0.298835  0.663332  0.000000  1
  Si  Si19  1  0.700725  0.335963  0.000000  1
  Si  Si20  1  0.201128  0.163418  0.000000  1
  Si  Si21  1  0.798709  0.837725  0.000000  1
  Si  Si22  1  0.654084  0.501981  0.500000  1
  Si  Si23  1  0.345223  0.496060  0.500000  1
  Si  Si24  1  0.154269  0.995990  0.500000  1
  Si  Si25  1  0.845131  0.003359  0.500000  1
  Si  Si26  1  0.496640  0.654853  0.500000  1
  Si  Si27  1  0.504007  0.345713  0.500000  1
  Si  Si28  1  0.003918  0.154799  0.500000  1
  Si  Si29  1  0.998000  0.845927  0.500000  1
  Ir  Ir30  1  0.743828  0.520953  0.000000  1
  Ir  Ir31  1  0.255465  0.477536  0.000000  1
  Ir  Ir32  1  0.244912  0.978145  0.000000  1
  Ir  Ir33  1  0.755041  0.022953  0.000000  1
  Ir  Ir34  1  0.477037  0.744965  0.000000  1
  Ir  Ir35  1  0.521848  0.255097  0.000000  1
  Ir  Ir36  1  0.022385  0.244664  0.000000  1
  Ir  Ir37  1  0.978954  0.756311  0.000000  1
