# generated using pymatgen
data_NaCa10MgBi9
_symmetry_space_group_name_H-M   'P 1'
_cell_length_a   12.24662500
_cell_length_b   12.24662500
_cell_length_c   17.63566700
_cell_angle_alpha   90.00000000
_cell_angle_beta   90.00000000
_cell_angle_gamma   90.00000000
_symmetry_Int_Tables_number   1
_chemical_formula_structural   NaCa10MgBi9
_chemical_formula_sum   'Na4 Ca40 Mg4 Bi36'
_cell_volume   2644.99423085
_cell_formula_units_Z   4
loop_
 _symmetry_equiv_pos_site_id
 _symmetry_equiv_pos_as_xyz
  1  'x, y, z'
loop_
 _atom_site_type_symbol
 _atom_site_label
 _atom_site_symmetry_multiplicity
 _atom_site_fract_x
 _atom_site_fract_y
 _atom_site_fract_z
 _atom_site_occupancy
  Na  Na0  1  0.794204  0.205796  0.500000  1
  Na  Na1  1  0.205796  0.794204  0.500000  1
  Na  Na2  1  0.705796  0.705796  0.000000  1
  Na  Na3  1  0.294204  0.294204  0.000000  1
  Ca  Ca4  1  0.486579  0.839691  0.103936  1
  Ca  Ca5  1  0.513421  0.160309  0.896064  1
  Ca  Ca6  1  0.248327  0.512515  0.689652  1
  Ca  Ca7  1  0.000000  0.000000  0.649962  1
  Ca  Ca8  1  0.751673  0.487485  0.310348  1
  Ca  Ca9  1  0.487485  0.751673  0.689652  1
  Ca  Ca10  1  0.013421  0.339691  0.396064  1
  Ca  Ca11  1  0.160309  0.513421  0.896064  1
  Ca  Ca12  1  0.012515  0.251673  0.189652  1
  Ca  Ca13  1  0.339691  0.013421  0.603936  1
  Ca  Ca14  1  0.512515  0.248327  0.689652  1
  Ca  Ca15  1  0.748327  0.987485  0.810348  1
  Ca  Ca16  1  0.839691  0.486579  0.103936  1
  Ca  Ca17  1  0.987485  0.748327  0.810348  1
  Ca  Ca18  1  0.660309  0.986579  0.396064  1
  Ca  Ca19  1  0.339691  0.013421  0.396064  1
  Ca  Ca20  1  0.500000  0.500000  0.850038  1
  Ca  Ca21  1  0.751673  0.487485  0.689652  1
  Ca  Ca22  1  0.986579  0.660309  0.396064  1
  Ca  Ca23  1  0.013421  0.339691  0.603936  1
  Ca  Ca24  1  0.248327  0.512515  0.310348  1
  Ca  Ca25  1  0.817139  0.182861  0.000000  1
  Ca  Ca26  1  0.512515  0.248327  0.310348  1
  Ca  Ca27  1  0.839691  0.486579  0.896064  1
  Ca  Ca28  1  0.500000  0.500000  0.149962  1
  Ca  Ca29  1  0.986579  0.660309  0.603936  1
  Ca  Ca30  1  0.748327  0.987485  0.189652  1
  Ca  Ca31  1  0.487485  0.751673  0.310348  1
  Ca  Ca32  1  0.987485  0.748327  0.189652  1
  Ca  Ca33  1  0.682861  0.682861  0.500000  1
  Ca  Ca34  1  0.251673  0.012515  0.189652  1
  Ca  Ca35  1  0.660309  0.986579  0.603936  1
  Ca  Ca36  1  0.012515  0.251673  0.810348  1
  Ca  Ca37  1  0.317139  0.317139  0.500000  1
  Ca  Ca38  1  0.513421  0.160309  0.103936  1
  Ca  Ca39  1  0.000000  0.000000  0.350038  1
  Ca  Ca40  1  0.251673  0.012515  0.810348  1
  Ca  Ca41  1  0.486579  0.839691  0.896064  1
  Ca  Ca42  1  0.160309  0.513421  0.103936  1
  Ca  Ca43  1  0.182861  0.817139  0.000000  1
  Mg  Mg44  1  0.101102  0.101102  0.000000  1
  Mg  Mg45  1  0.398898  0.601102  0.500000  1
  Mg  Mg46  1  0.601102  0.398898  0.500000  1
  Mg  Mg47  1  0.898898  0.898898  0.000000  1
  Bi  Bi48  1  0.220537  0.220537  0.325279  1
  Bi  Bi49  1  0.377090  0.622910  0.000000  1
  Bi  Bi50  1  0.184887  0.815113  0.674795  1
  Bi  Bi51  1  0.622910  0.377090  0.000000  1
  Bi  Bi52  1  0.315113  0.315113  0.825205  1
  Bi  Bi53  1  0.335215  0.027935  0.000000  1
  Bi  Bi54  1  0.500000  0.000000  0.750000  1
  Bi  Bi55  1  0.835215  0.472065  0.500000  1
  Bi  Bi56  1  0.315113  0.315113  0.174795  1
  Bi  Bi57  1  0.684887  0.684887  0.174795  1
  Bi  Bi58  1  0.500000  0.000000  0.250000  1
  Bi  Bi59  1  0.720537  0.279463  0.825279  1
  Bi  Bi60  1  0.815113  0.184887  0.325205  1
  Bi  Bi61  1  0.184887  0.815113  0.325205  1
  Bi  Bi62  1  0.877090  0.877090  0.500000  1
  Bi  Bi63  1  0.164785  0.527935  0.500000  1
  Bi  Bi64  1  0.779463  0.779463  0.674721  1
  Bi  Bi65  1  0.815113  0.184887  0.674795  1
  Bi  Bi66  1  0.000000  0.000000  0.863705  1
  Bi  Bi67  1  0.779463  0.779463  0.325279  1
  Bi  Bi68  1  0.500000  0.500000  0.363705  1
  Bi  Bi69  1  0.972065  0.664785  0.000000  1
  Bi  Bi70  1  0.684887  0.684887  0.825205  1
  Bi  Bi71  1  0.500000  0.500000  0.636295  1
  Bi  Bi72  1  0.279463  0.720537  0.174721  1
  Bi  Bi73  1  0.027935  0.335215  0.000000  1
  Bi  Bi74  1  0.527935  0.164785  0.500000  1
  Bi  Bi75  1  0.279463  0.720537  0.825279  1
  Bi  Bi76  1  0.664785  0.972065  0.000000  1
  Bi  Bi77  1  0.472065  0.835215  0.500000  1
  Bi  Bi78  1  0.220537  0.220537  0.674721  1
  Bi  Bi79  1  0.122910  0.122910  0.500000  1
  Bi  Bi80  1  0.720537  0.279463  0.174721  1
  Bi  Bi81  1  0.000000  0.000000  0.136295  1
  Bi  Bi82  1  0.000000  0.500000  0.750000  1
  Bi  Bi83  1  0.000000  0.500000  0.250000  1
