# generated using pymatgen
data_Lu4MgCuNiBi
_symmetry_space_group_name_H-M   'P 1'
_cell_length_a   8.46957007
_cell_length_b   8.46957077
_cell_length_c   8.63971000
_cell_angle_alpha   128.11440268
_cell_angle_beta   128.11441102
_cell_angle_gamma   74.97349641
_symmetry_Int_Tables_number   1
_chemical_formula_structural   Lu4MgCuNiBi
_chemical_formula_sum   'Lu8 Mg2 Cu2 Ni2 Bi2'
_cell_volume   376.15522738
_cell_formula_units_Z   2
loop_
 _symmetry_equiv_pos_site_id
 _symmetry_equiv_pos_as_xyz
  1  'x, y, z'
loop_
 _atom_site_type_symbol
 _atom_site_label
 _atom_site_symmetry_multiplicity
 _atom_site_fract_x
 _atom_site_fract_y
 _atom_site_fract_z
 _atom_site_occupancy
  Lu  Lu0  1  0.780813  0.280813  0.807404  1
  Lu  Lu1  1  0.219187  0.719187  0.192596  1
  Lu  Lu2  1  0.473411  0.973411  0.192596  1
  Lu  Lu3  1  0.303958  0.455440  0.500000  1
  Lu  Lu4  1  0.044560  0.196042  0.500000  1
  Lu  Lu5  1  0.526589  0.026589  0.807404  1
  Lu  Lu6  1  0.696042  0.544560  0.500000  1
  Lu  Lu7  1  0.955440  0.803958  0.500000  1
  Mg  Mg8  1  0.000000  0.000000  0.000000  1
  Mg  Mg9  1  0.500000  0.500000  0.000000  1
  Cu  Cu10  1  0.126223  0.626223  0.752448  1
  Cu  Cu11  1  0.873777  0.373777  0.247552  1
  Ni  Ni12  1  0.628057  0.871943  0.500000  1
  Ni  Ni13  1  0.371943  0.128057  0.500000  1
  Bi  Bi14  1  0.250000  0.250000  0.000000  1
  Bi  Bi15  1  0.750000  0.750000  0.000000  1
