# generated using pymatgen
data_Sr2Si7Ir11Pd
_symmetry_space_group_name_H-M   'P 1'
_cell_length_a   9.77429208
_cell_length_b   9.83484859
_cell_length_c   3.93974464
_cell_angle_alpha   90.07415988
_cell_angle_beta   90.10408406
_cell_angle_gamma   119.50496603
_symmetry_Int_Tables_number   1
_chemical_formula_structural   Sr2Si7Ir11Pd
_chemical_formula_sum   'Sr2 Si7 Ir11 Pd1'
_cell_volume   329.60550070
_cell_formula_units_Z   1
loop_
 _symmetry_equiv_pos_site_id
 _symmetry_equiv_pos_as_xyz
  1  'x, y, z'
loop_
 _atom_site_type_symbol
 _atom_site_label
 _atom_site_symmetry_multiplicity
 _atom_site_fract_x
 _atom_site_fract_y
 _atom_site_fract_z
 _atom_site_occupancy
  Sr  Sr0  1  0.668481  0.333888  0.256898  1
  Sr  Sr1  1  0.996891  0.996949  0.756218  1
  Si  Si2  1  0.334289  0.670724  0.324055  1
  Si  Si3  1  0.733748  0.778879  0.255604  1
  Si  Si4  1  0.038086  0.259536  0.256622  1
  Si  Si5  1  0.218315  0.956349  0.255778  1
  Si  Si6  1  0.936493  0.558334  0.756791  1
  Si  Si7  1  0.624256  0.066525  0.755819  1
  Si  Si8  1  0.447576  0.376913  0.757371  1
  Ir  Ir9  1  0.768908  0.044938  0.255741  1
  Ir  Ir10  1  0.272786  0.227661  0.256182  1
  Ir  Ir11  1  0.954859  0.727125  0.255681  1
  Ir  Ir12  1  0.895818  0.282359  0.757024  1
  Ir  Ir13  1  0.388173  0.105643  0.756692  1
  Ir  Ir14  1  0.718939  0.611886  0.756950  1
  Ir  Ir15  1  0.483187  0.548231  0.258456  1
  Ir  Ir16  1  0.064310  0.515443  0.258136  1
  Ir  Ir17  1  0.450809  0.936496  0.256557  1
  Ir  Ir18  1  0.200292  0.775326  0.752207  1
  Ir  Ir19  1  0.576399  0.802617  0.754558  1
  Pd  Pd20  1  0.227383  0.424179  0.758178  1
