# generated using pymatgen
data_TbCe4Lu11(InRu)4
_symmetry_space_group_name_H-M   'P 1'
_cell_length_a   9.55234732
_cell_length_b   9.52929630
_cell_length_c   9.52929813
_cell_angle_alpha   59.92008938
_cell_angle_beta   59.91996028
_cell_angle_gamma   59.91995473
_symmetry_Int_Tables_number   1
_chemical_formula_structural   TbCe4Lu11(InRu)4
_chemical_formula_sum   'Tb1 Ce4 Lu11 In4 Ru4'
_cell_volume   612.24892599
_cell_formula_units_Z   1
loop_
 _symmetry_equiv_pos_site_id
 _symmetry_equiv_pos_as_xyz
  1  'x, y, z'
loop_
 _atom_site_type_symbol
 _atom_site_label
 _atom_site_symmetry_multiplicity
 _atom_site_fract_x
 _atom_site_fract_y
 _atom_site_fract_z
 _atom_site_occupancy
  Tb  Tb0  1  0.812043  0.187957  0.187957  1
  Ce  Ce1  1  0.346556  0.348702  0.958187  1
  Ce  Ce2  1  0.346556  0.958187  0.348702  1
  Ce  Ce3  1  0.959429  0.347821  0.347821  1
  Ce  Ce4  1  0.344931  0.347821  0.347821  1
  Lu  Lu5  1  0.561059  0.564350  0.936642  1
  Lu  Lu6  1  0.937949  0.564350  0.936642  1
  Lu  Lu7  1  0.561546  0.938454  0.938454  1
  Lu  Lu8  1  0.937949  0.936642  0.564350  1
  Lu  Lu9  1  0.561059  0.936642  0.564350  1
  Lu  Lu10  1  0.937691  0.562309  0.562309  1
  Lu  Lu11  1  0.190438  0.187636  0.810294  1
  Lu  Lu12  1  0.811632  0.187636  0.810294  1
  Lu  Lu13  1  0.187648  0.812352  0.812351  1
  Lu  Lu14  1  0.811632  0.810295  0.187636  1
  Lu  Lu15  1  0.190437  0.810294  0.187635  1
  In  In16  1  0.584049  0.583144  0.248757  1
  In  In17  1  0.584049  0.248757  0.583144  1
  In  In18  1  0.249028  0.583398  0.583398  1
  In  In19  1  0.584176  0.583398  0.583398  1
  Ru  Ru20  1  0.142833  0.145240  0.569093  1
  Ru  Ru21  1  0.142833  0.569093  0.145240  1
  Ru  Ru22  1  0.567765  0.142762  0.142762  1
  Ru  Ru23  1  0.146710  0.142762  0.142762  1
