# generated using pymatgen
data_Cd6PtO8
_symmetry_space_group_name_H-M   'P 1'
_cell_length_a   6.69428709
_cell_length_b   6.69428714
_cell_length_c   6.69428900
_cell_angle_alpha   60.00000565
_cell_angle_beta   60.00000541
_cell_angle_gamma   60.00000670
_symmetry_Int_Tables_number   1
_chemical_formula_structural   Cd6PtO8
_chemical_formula_sum   'Cd6 Pt1 O8'
_cell_volume   212.12809343
_cell_formula_units_Z   1
loop_
 _symmetry_equiv_pos_site_id
 _symmetry_equiv_pos_as_xyz
  1  'x, y, z'
loop_
 _atom_site_type_symbol
 _atom_site_label
 _atom_site_symmetry_multiplicity
 _atom_site_fract_x
 _atom_site_fract_y
 _atom_site_fract_z
 _atom_site_occupancy
  Cd  Cd0  1  0.500000  0.000000  0.000000  1
  Cd  Cd1  1  0.500000  0.000000  0.500000  1
  Cd  Cd2  1  0.000000  0.000000  0.500000  1
  Cd  Cd3  1  0.500000  0.500000  0.000000  1
  Cd  Cd4  1  0.000000  0.500000  0.000000  1
  Cd  Cd5  1  0.000000  0.500000  0.500000  1
  Pt  Pt6  1  0.000000  0.000000  0.000000  1
  O  O7  1  0.783046  0.216954  0.216954  1
  O  O8  1  0.250000  0.250000  0.250000  1
  O  O9  1  0.216954  0.783046  0.216954  1
  O  O10  1  0.216954  0.216954  0.783046  1
  O  O11  1  0.783046  0.216954  0.783046  1
  O  O12  1  0.783046  0.783046  0.216954  1
  O  O13  1  0.750000  0.750000  0.750000  1
  O  O14  1  0.216954  0.783046  0.783046  1
