# generated using pymatgen
data_La3WO7
_symmetry_space_group_name_H-M   'P 1'
_cell_length_a   6.77517621
_cell_length_b   6.78130778
_cell_length_c   7.85751400
_cell_angle_alpha   89.99989344
_cell_angle_beta   90.00300230
_cell_angle_gamma   70.25894086
_symmetry_Int_Tables_number   1
_chemical_formula_structural   La3WO7
_chemical_formula_sum   'La6 W2 O14'
_cell_volume   339.79297117
_cell_formula_units_Z   2
loop_
 _symmetry_equiv_pos_site_id
 _symmetry_equiv_pos_as_xyz
  1  'x, y, z'
loop_
 _atom_site_type_symbol
 _atom_site_label
 _atom_site_symmetry_multiplicity
 _atom_site_fract_x
 _atom_site_fract_y
 _atom_site_fract_z
 _atom_site_occupancy
  La  La0  1  0.531118  0.000161  0.999708  1
  La  La1  1  0.500594  0.499362  0.250078  1
  La  La2  1  0.999793  0.469441  0.499761  1
  La  La3  1  0.468855  0.999678  0.500127  1
  La  La4  1  0.499147  0.500744  0.749937  1
  La  La5  1  0.000229  0.530561  0.000364  1
  W  W6  1  0.000028  0.000026  0.249963  1
  W  W7  1  0.999968  0.000021  0.749989  1
  O  O8  1  0.371253  0.370814  0.000056  1
  O  O9  1  0.633763  0.634311  0.000063  1
  O  O10  1  0.939564  0.939302  0.999985  1
  O  O11  1  0.928149  0.312147  0.223594  1
  O  O12  1  0.310620  0.929559  0.223264  1
  O  O13  1  0.071619  0.688052  0.276505  1
  O  O14  1  0.688950  0.070979  0.276701  1
  O  O15  1  0.060530  0.060701  0.499950  1
  O  O16  1  0.366321  0.365844  0.499998  1
  O  O17  1  0.628636  0.629186  0.499993  1
  O  O18  1  0.071672  0.688568  0.723420  1
  O  O19  1  0.688552  0.070805  0.723389  1
  O  O20  1  0.928847  0.311108  0.776629  1
  O  O21  1  0.311790  0.928628  0.776522  1
