# generated using pymatgen
data_CaLuSi7Ir12
_symmetry_space_group_name_H-M   'P 1'
_cell_length_a   9.76122100
_cell_length_b   9.76122181
_cell_length_c   3.88331700
_cell_angle_alpha   90.00000000
_cell_angle_beta   90.00000000
_cell_angle_gamma   120.00000066
_symmetry_Int_Tables_number   1
_chemical_formula_structural   CaLuSi7Ir12
_chemical_formula_sum   'Ca1 Lu1 Si7 Ir12'
_cell_volume   320.43636746
_cell_formula_units_Z   1
loop_
 _symmetry_equiv_pos_site_id
 _symmetry_equiv_pos_as_xyz
  1  'x, y, z'
loop_
 _atom_site_type_symbol
 _atom_site_label
 _atom_site_symmetry_multiplicity
 _atom_site_fract_x
 _atom_site_fract_y
 _atom_site_fract_z
 _atom_site_occupancy
  Ca  Ca0  1  0.666667  0.333333  0.251115  1
  Lu  Lu1  1  0.333333  0.666667  0.749392  1
  Si  Si2  1  0.000000  0.000000  0.499711  1
  Si  Si3  1  0.290294  0.884761  0.248777  1
  Si  Si4  1  0.594467  0.709706  0.248777  1
  Si  Si5  1  0.115239  0.405533  0.248777  1
  Si  Si6  1  0.711469  0.117891  0.750846  1
  Si  Si7  1  0.406422  0.288531  0.750846  1
  Si  Si8  1  0.882109  0.593578  0.750846  1
  Ir  Ir9  1  0.260956  0.116376  0.253702  1
  Ir  Ir10  1  0.855420  0.739044  0.253702  1
  Ir  Ir11  1  0.883624  0.144580  0.253702  1
  Ir  Ir12  1  0.739558  0.885450  0.746210  1
  Ir  Ir13  1  0.145892  0.260442  0.746210  1
  Ir  Ir14  1  0.114550  0.854108  0.746210  1
  Ir  Ir15  1  0.065885  0.620785  0.249059  1
  Ir  Ir16  1  0.554900  0.934115  0.249059  1
  Ir  Ir17  1  0.379215  0.445100  0.249059  1
  Ir  Ir18  1  0.942395  0.383983  0.751333  1
  Ir  Ir19  1  0.441588  0.057605  0.751333  1
  Ir  Ir20  1  0.616017  0.558412  0.751333  1
