# generated using pymatgen
data_La2Cu18Si7Au
_symmetry_space_group_name_H-M   'P 1'
_cell_length_a   8.25832257
_cell_length_b   8.25832242
_cell_length_c   8.24646200
_cell_angle_alpha   120.53957264
_cell_angle_beta   120.53957200
_cell_angle_gamma   88.84687066
_symmetry_Int_Tables_number   1
_chemical_formula_structural   La2Cu18Si7Au
_chemical_formula_sum   'La2 Cu18 Si7 Au1'
_cell_volume   395.12433069
_cell_formula_units_Z   1
loop_
 _symmetry_equiv_pos_site_id
 _symmetry_equiv_pos_as_xyz
  1  'x, y, z'
loop_
 _atom_site_type_symbol
 _atom_site_label
 _atom_site_symmetry_multiplicity
 _atom_site_fract_x
 _atom_site_fract_y
 _atom_site_fract_z
 _atom_site_occupancy
  La  La0  1  0.749894  0.746442  0.998023  1
  La  La1  1  0.246442  0.249894  0.998023  1
  Cu  Cu2  1  0.064038  0.204719  0.266349  1
  Cu  Cu3  1  0.935173  0.805047  0.729923  1
  Cu  Cu4  1  0.563574  0.292728  0.863376  1
  Cu  Cu5  1  0.448583  0.709885  0.144346  1
  Cu  Cu6  1  0.792728  0.063574  0.863376  1
  Cu  Cu7  1  0.209885  0.948583  0.144346  1
  Cu  Cu8  1  0.704719  0.564038  0.266349  1
  Cu  Cu9  1  0.305047  0.435173  0.729923  1
  Cu  Cu10  1  0.440640  0.940640  0.753075  1
  Cu  Cu11  1  0.208768  0.708768  0.285005  1
  Cu  Cu12  1  0.938167  0.182831  0.487240  1
  Cu  Cu13  1  0.682831  0.438167  0.487240  1
  Cu  Cu14  1  0.559196  0.059196  0.249696  1
  Cu  Cu15  1  0.787792  0.287792  0.732435  1
  Cu  Cu16  1  0.056926  0.812347  0.503829  1
  Cu  Cu17  1  0.312347  0.556926  0.503829  1
  Cu  Cu18  1  0.999295  0.499295  0.491229  1
  Cu  Cu19  1  0.496964  0.996964  0.498145  1
  Si  Si20  1  0.707903  0.207903  0.150384  1
  Si  Si21  1  0.560181  0.708375  0.501276  1
  Si  Si22  1  0.208375  0.060181  0.501276  1
  Si  Si23  1  0.945692  0.445692  0.145745  1
  Si  Si24  1  0.287476  0.787476  0.850480  1
  Si  Si25  1  0.442037  0.290108  0.497728  1
  Si  Si26  1  0.790108  0.942037  0.497728  1
  Au  Au27  1  0.055219  0.555219  0.859629  1
