# generated using pymatgen
data_Ca2Zn2PdPt
_symmetry_space_group_name_H-M   'P 1'
_cell_length_a   4.45393300
_cell_length_b   7.16493261
_cell_length_c   7.68016202
_cell_angle_alpha   89.85655017
_cell_angle_beta   90.00000000
_cell_angle_gamma   90.00000000
_symmetry_Int_Tables_number   1
_chemical_formula_structural   Ca2Zn2PdPt
_chemical_formula_sum   'Ca4 Zn4 Pd2 Pt2'
_cell_volume   245.08955913
_cell_formula_units_Z   2
loop_
 _symmetry_equiv_pos_site_id
 _symmetry_equiv_pos_as_xyz
  1  'x, y, z'
loop_
 _atom_site_type_symbol
 _atom_site_label
 _atom_site_symmetry_multiplicity
 _atom_site_fract_x
 _atom_site_fract_y
 _atom_site_fract_z
 _atom_site_occupancy
  Ca  Ca0  1  0.250000  0.509909  0.190966  1
  Ca  Ca1  1  0.750000  0.490091  0.809034  1
  Ca  Ca2  1  0.750000  0.988192  0.695054  1
  Ca  Ca3  1  0.250000  0.011808  0.304946  1
  Zn  Zn4  1  0.250000  0.666882  0.576914  1
  Zn  Zn5  1  0.750000  0.333118  0.423086  1
  Zn  Zn6  1  0.750000  0.835018  0.076027  1
  Zn  Zn7  1  0.250000  0.164982  0.923973  1
  Pd  Pd8  1  0.750000  0.707777  0.398913  1
  Pd  Pd9  1  0.250000  0.292223  0.601087  1
  Pt  Pt10  1  0.250000  0.789394  0.897906  1
  Pt  Pt11  1  0.750000  0.210606  0.102094  1
