# generated using pymatgen
data_La2Th(MgPt)3
_symmetry_space_group_name_H-M   'P 1'
_cell_length_a   7.68071889
_cell_length_b   7.72312366
_cell_length_c   4.13006900
_cell_angle_alpha   90.00000000
_cell_angle_beta   90.00000000
_cell_angle_gamma   120.18280718
_symmetry_Int_Tables_number   1
_chemical_formula_structural   La2Th(MgPt)3
_chemical_formula_sum   'La2 Th1 Mg3 Pt3'
_cell_volume   211.77751061
_cell_formula_units_Z   1
loop_
 _symmetry_equiv_pos_site_id
 _symmetry_equiv_pos_as_xyz
  1  'x, y, z'
loop_
 _atom_site_type_symbol
 _atom_site_label
 _atom_site_symmetry_multiplicity
 _atom_site_fract_x
 _atom_site_fract_y
 _atom_site_fract_z
 _atom_site_occupancy
  La  La0  1  0.414463  0.415286  0.500000  1
  La  La1  1  0.585537  0.000824  0.500000  1
  Th  Th2  1  0.000000  0.584668  0.500000  1
  Mg  Mg3  1  0.759469  0.760795  0.000000  1
  Mg  Mg4  1  0.240531  0.001326  0.000000  1
  Mg  Mg5  1  0.000000  0.235868  0.000000  1
  Pt  Pt6  1  0.683549  0.347814  0.000000  1
  Pt  Pt7  1  0.316451  0.664265  0.000000  1
  Pt  Pt8  1  0.000000  0.989156  0.500000  1
