# generated using pymatgen
data_NdTh2Mg2InAu3
_symmetry_space_group_name_H-M   'P 1'
_cell_length_a   7.68134668
_cell_length_b   7.60119654
_cell_length_c   4.41461700
_cell_angle_alpha   90.00000000
_cell_angle_beta   90.00000000
_cell_angle_gamma   121.14127907
_symmetry_Int_Tables_number   1
_chemical_formula_structural   NdTh2Mg2InAu3
_chemical_formula_sum   'Nd1 Th2 Mg2 In1 Au3'
_cell_volume   220.61381689
_cell_formula_units_Z   1
loop_
 _symmetry_equiv_pos_site_id
 _symmetry_equiv_pos_as_xyz
  1  'x, y, z'
loop_
 _atom_site_type_symbol
 _atom_site_label
 _atom_site_symmetry_multiplicity
 _atom_site_fract_x
 _atom_site_fract_y
 _atom_site_fract_z
 _atom_site_occupancy
  Nd  Nd0  1  0.413558  0.412697  0.000000  1
  Th  Th1  1  0.579775  0.002511  0.000000  1
  Th  Th2  1  0.002245  0.586687  0.000000  1
  Mg  Mg3  1  0.004754  0.241156  0.500000  1
  Mg  Mg4  1  0.755696  0.754274  0.500000  1
  In  In5  1  0.245692  0.004801  0.500000  1
  Au  Au6  1  0.336715  0.664946  0.500000  1
  Au  Au7  1  0.684768  0.339073  0.500000  1
  Au  Au8  1  0.976796  0.993854  0.000000  1
