# generated using pymatgen
data_Cs2Hg3(PtO2)7
_symmetry_space_group_name_H-M   'P 1'
_cell_length_a   6.58448969
_cell_length_b   6.57949025
_cell_length_c   10.99069885
_cell_angle_alpha   90.02401290
_cell_angle_beta   90.00216729
_cell_angle_gamma   60.25329772
_symmetry_Int_Tables_number   1
_chemical_formula_structural   Cs2Hg3(PtO2)7
_chemical_formula_sum   'Cs2 Hg3 Pt7 O14'
_cell_volume   413.40250611
_cell_formula_units_Z   1
loop_
 _symmetry_equiv_pos_site_id
 _symmetry_equiv_pos_as_xyz
  1  'x, y, z'
loop_
 _atom_site_type_symbol
 _atom_site_label
 _atom_site_symmetry_multiplicity
 _atom_site_fract_x
 _atom_site_fract_y
 _atom_site_fract_z
 _atom_site_occupancy
  Cs  Cs0  1  0.501501  0.501503  0.715577  1
  Cs  Cs1  1  0.498499  0.498497  0.284423  1
  Hg  Hg2  1  0.830372  0.830347  0.198058  1
  Hg  Hg3  1  0.169628  0.169653  0.801942  1
  Hg  Hg4  1  0.000000  0.000000  0.500000  1
  Pt  Pt5  1  0.000000  0.000000  0.000000  1
  Pt  Pt6  1  0.833421  0.833394  0.776544  1
  Pt  Pt7  1  0.166579  0.166606  0.223456  1
  Pt  Pt8  1  0.000000  0.500000  0.000000  1
  Pt  Pt9  1  0.500000  0.000000  0.500000  1
  Pt  Pt10  1  0.000000  0.500000  0.500000  1
  Pt  Pt11  1  0.500000  0.000000  0.000000  1
  O  O12  1  0.698263  0.103926  0.902278  1
  O  O13  1  0.697990  0.698033  0.902229  1
  O  O14  1  0.471857  0.009004  0.318924  1
  O  O15  1  0.341337  0.341155  0.504185  1
  O  O16  1  0.990976  0.528218  0.681114  1
  O  O17  1  0.010344  0.010372  0.312376  1
  O  O18  1  0.528143  0.990996  0.681076  1
  O  O19  1  0.104071  0.698213  0.902330  1
  O  O20  1  0.301737  0.896074  0.097722  1
  O  O21  1  0.658663  0.658845  0.495815  1
  O  O22  1  0.302010  0.301967  0.097771  1
  O  O23  1  0.009024  0.471782  0.318886  1
  O  O24  1  0.989656  0.989628  0.687624  1
  O  O25  1  0.895929  0.301787  0.097670  1
