# generated using pymatgen
data_Ca2TbSm(NiB4)4
_symmetry_space_group_name_H-M   'P 1'
_cell_length_a   6.86542571
_cell_length_b   6.86542566
_cell_length_c   6.86542507
_cell_angle_alpha   112.85084128
_cell_angle_beta   112.85083298
_cell_angle_gamma   102.90489472
_symmetry_Int_Tables_number   1
_chemical_formula_structural   Ca2TbSm(NiB4)4
_chemical_formula_sum   'Ca2 Tb1 Sm1 Ni4 B16'
_cell_volume   246.68882098
_cell_formula_units_Z   1
loop_
 _symmetry_equiv_pos_site_id
 _symmetry_equiv_pos_as_xyz
  1  'x, y, z'
loop_
 _atom_site_type_symbol
 _atom_site_label
 _atom_site_symmetry_multiplicity
 _atom_site_fract_x
 _atom_site_fract_y
 _atom_site_fract_z
 _atom_site_occupancy
  Ca  Ca0  1  0.202951  0.202951  0.000000  1
  Ca  Ca1  1  0.797049  0.797049  0.000000  1
  Tb  Tb2  1  0.250000  0.750000  0.500000  1
  Sm  Sm3  1  0.750000  0.250000  0.500000  1
  Ni  Ni4  1  0.499289  0.272117  0.772828  1
  Ni  Ni5  1  0.499289  0.726461  0.227172  1
  Ni  Ni6  1  0.727883  0.500711  0.227172  1
  Ni  Ni7  1  0.273539  0.500711  0.772828  1
  B  B8  1  0.112357  0.276687  0.389229  1
  B  B9  1  0.887458  0.723128  0.610771  1
  B  B10  1  0.887458  0.276687  0.164330  1
  B  B11  1  0.112357  0.723128  0.835670  1
  B  B12  1  0.723313  0.887643  0.610771  1
  B  B13  1  0.276872  0.112542  0.389229  1
  B  B14  1  0.723313  0.112542  0.835670  1
  B  B15  1  0.276872  0.887643  0.164330  1
  B  B16  1  0.415910  0.417168  0.529488  1
  B  B17  1  0.887681  0.886424  0.470512  1
  B  B18  1  0.582832  0.112319  0.998742  1
  B  B19  1  0.113576  0.584090  0.001258  1
  B  B20  1  0.582832  0.584090  0.470512  1
  B  B21  1  0.113576  0.112319  0.529488  1
  B  B22  1  0.887681  0.417168  0.001258  1
  B  B23  1  0.415910  0.886424  0.998742  1
