# generated using pymatgen
data_NdHo(CuSn)2
_symmetry_space_group_name_H-M   'P 1'
_cell_length_a   4.56667100
_cell_length_b   4.56667067
_cell_length_c   7.44377100
_cell_angle_alpha   90.00000000
_cell_angle_beta   90.00000000
_cell_angle_gamma   119.99999517
_symmetry_Int_Tables_number   1
_chemical_formula_structural   NdHo(CuSn)2
_chemical_formula_sum   'Nd1 Ho1 Cu2 Sn2'
_cell_volume   134.43831923
_cell_formula_units_Z   1
loop_
 _symmetry_equiv_pos_site_id
 _symmetry_equiv_pos_as_xyz
  1  'x, y, z'
loop_
 _atom_site_type_symbol
 _atom_site_label
 _atom_site_symmetry_multiplicity
 _atom_site_fract_x
 _atom_site_fract_y
 _atom_site_fract_z
 _atom_site_occupancy
  Nd  Nd0  1  0.000000  0.000000  0.996836  1
  Ho  Ho1  1  0.000000  0.000000  0.495845  1
  Cu  Cu2  1  0.666667  0.333333  0.324154  1
  Cu  Cu3  1  0.333333  0.666667  0.793635  1
  Sn  Sn4  1  0.666667  0.333333  0.719002  1
  Sn  Sn5  1  0.333333  0.666667  0.238528  1
