# generated using pymatgen
data_Yb3Os2O9
_symmetry_space_group_name_H-M   'P 1'
_cell_length_a   5.47943530
_cell_length_b   6.64086576
_cell_length_c   10.89637167
_cell_angle_alpha   74.95136260
_cell_angle_beta   76.78399599
_cell_angle_gamma   69.24649265
_symmetry_Int_Tables_number   1
_chemical_formula_structural   Yb3Os2O9
_chemical_formula_sum   'Yb6 Os4 O18'
_cell_volume   353.93515868
_cell_formula_units_Z   2
loop_
 _symmetry_equiv_pos_site_id
 _symmetry_equiv_pos_as_xyz
  1  'x, y, z'
loop_
 _atom_site_type_symbol
 _atom_site_label
 _atom_site_symmetry_multiplicity
 _atom_site_fract_x
 _atom_site_fract_y
 _atom_site_fract_z
 _atom_site_occupancy
  Yb  Yb0  1  0.999764  0.218492  0.262958  1
  Yb  Yb1  1  0.000236  0.781508  0.737042  1
  Yb  Yb2  1  0.208778  0.159367  0.895169  1
  Yb  Yb3  1  0.791222  0.840633  0.104831  1
  Yb  Yb4  1  0.316753  0.585154  0.360100  1
  Yb  Yb5  1  0.683247  0.414846  0.639900  1
  Os  Os6  1  0.514149  0.381508  0.097143  1
  Os  Os7  1  0.485851  0.618492  0.902857  1
  Os  Os8  1  0.333539  0.144101  0.575178  1
  Os  Os9  1  0.666461  0.855899  0.424822  1
  O  O10  1  0.282464  0.437257  0.579283  1
  O  O11  1  0.717536  0.562743  0.420717  1
  O  O12  1  0.604088  0.071679  0.669480  1
  O  O13  1  0.395912  0.928321  0.330520  1
  O  O14  1  0.863275  0.191969  0.066193  1
  O  O15  1  0.136725  0.808031  0.933807  1
  O  O16  1  0.395399  0.161640  0.077113  1
  O  O17  1  0.604601  0.838360  0.922887  1
  O  O18  1  0.063946  0.129712  0.714747  1
  O  O19  1  0.936054  0.870288  0.285253  1
  O  O20  1  0.182105  0.502680  0.187961  1
  O  O21  1  0.817895  0.497320  0.812039  1
  O  O22  1  0.115968  0.222502  0.457788  1
  O  O23  1  0.884032  0.777498  0.542212  1
  O  O24  1  0.646298  0.530399  0.180314  1
  O  O25  1  0.353702  0.469601  0.819686  1
  O  O26  1  0.611969  0.178052  0.407915  1
  O  O27  1  0.388031  0.821948  0.592085  1
