# generated using pymatgen
data_TbSm2In3Ag2Pt
_symmetry_space_group_name_H-M   'P 1'
_cell_length_a   7.83753419
_cell_length_b   7.84014228
_cell_length_c   4.02789500
_cell_angle_alpha   90.00000000
_cell_angle_beta   90.00000000
_cell_angle_gamma   119.84491107
_symmetry_Int_Tables_number   1
_chemical_formula_structural   TbSm2In3Ag2Pt
_chemical_formula_sum   'Tb1 Sm2 In3 Ag2 Pt1'
_cell_volume   214.67859882
_cell_formula_units_Z   1
loop_
 _symmetry_equiv_pos_site_id
 _symmetry_equiv_pos_as_xyz
  1  'x, y, z'
loop_
 _atom_site_type_symbol
 _atom_site_label
 _atom_site_symmetry_multiplicity
 _atom_site_fract_x
 _atom_site_fract_y
 _atom_site_fract_z
 _atom_site_occupancy
  Tb  Tb0  1  0.579506  0.600102  0.000000  1
  Sm  Sm1  1  0.401149  0.981687  0.000000  1
  Sm  Sm2  1  0.019012  0.419576  0.000000  1
  In  In3  1  0.263206  0.257086  0.500000  1
  In  In4  1  0.992824  0.737295  0.500000  1
  In  In5  1  0.743223  0.004755  0.500000  1
  Ag  Ag6  1  0.998652  0.998763  0.000000  1
  Ag  Ag7  1  0.665994  0.335175  0.500000  1
  Pt  Pt8  1  0.336433  0.665561  0.500000  1
