# generated using pymatgen
data_Y6BSe4
_symmetry_space_group_name_H-M   'P 1'
_cell_length_a   6.91769148
_cell_length_b   7.90937936
_cell_length_c   8.87822900
_cell_angle_alpha   48.08281037
_cell_angle_beta   129.68054318
_cell_angle_gamma   106.80478895
_symmetry_Int_Tables_number   1
_chemical_formula_structural   Y6BSe4
_chemical_formula_sum   'Y6 B1 Se4'
_cell_volume   270.05930877
_cell_formula_units_Z   1
loop_
 _symmetry_equiv_pos_site_id
 _symmetry_equiv_pos_as_xyz
  1  'x, y, z'
loop_
 _atom_site_type_symbol
 _atom_site_label
 _atom_site_symmetry_multiplicity
 _atom_site_fract_x
 _atom_site_fract_y
 _atom_site_fract_z
 _atom_site_occupancy
  Y  Y0  1  0.326917  0.386071  0.258537  1
  Y  Y1  1  0.628662  0.251936  0.861105  1
  Y  Y2  1  0.328802  0.863130  0.258716  1
  Y  Y3  1  0.028106  0.563210  0.559186  1
  Y  Y4  1  0.726340  0.697367  0.956582  1
  Y  Y5  1  0.026216  0.086166  0.559015  1
  B  B6  1  0.177495  0.474656  0.408846  1
  Se  Se7  1  0.847632  0.145297  0.740092  1
  Se  Se8  1  0.507386  0.803942  0.077681  1
  Se  Se9  1  0.852928  0.650016  0.733263  1
  Se  Se10  1  0.501959  0.299317  0.084354  1
