# generated using pymatgen
data_Tb10Y6Cd4Os3Pd
_symmetry_space_group_name_H-M   'P 1'
_cell_length_a   9.67526736
_cell_length_b   9.76138398
_cell_length_c   9.76151092
_cell_angle_alpha   59.71268581
_cell_angle_beta   59.36073920
_cell_angle_gamma   59.36062782
_symmetry_Int_Tables_number   1
_chemical_formula_structural   Tb10Y6Cd4Os3Pd
_chemical_formula_sum   'Tb10 Y6 Cd4 Os3 Pd1'
_cell_volume   644.13680662
_cell_formula_units_Z   1
loop_
 _symmetry_equiv_pos_site_id
 _symmetry_equiv_pos_as_xyz
  1  'x, y, z'
loop_
 _atom_site_type_symbol
 _atom_site_label
 _atom_site_symmetry_multiplicity
 _atom_site_fract_x
 _atom_site_fract_y
 _atom_site_fract_z
 _atom_site_occupancy
  Tb  Tb0  1  0.347409  0.351160  0.351144  1
  Tb  Tb1  1  0.345505  0.352039  0.953939  1
  Tb  Tb2  1  0.345514  0.953932  0.352028  1
  Tb  Tb3  1  0.967995  0.343974  0.343957  1
  Tb  Tb4  1  0.814303  0.190284  0.190286  1
  Tb  Tb5  1  0.183978  0.810501  0.810514  1
  Tb  Tb6  1  0.186775  0.810766  0.191142  1
  Tb  Tb7  1  0.814304  0.190136  0.802830  1
  Tb  Tb8  1  0.186773  0.191147  0.810769  1
  Tb  Tb9  1  0.814307  0.802818  0.190140  1
  Y  Y10  1  0.937682  0.560246  0.560253  1
  Y  Y11  1  0.555003  0.939306  0.939304  1
  Y  Y12  1  0.554268  0.938986  0.567570  1
  Y  Y13  1  0.935960  0.561240  0.939176  1
  Y  Y14  1  0.554279  0.567570  0.938982  1
  Y  Y15  1  0.935963  0.939173  0.561243  1
  Cd  Cd16  1  0.580474  0.579355  0.579358  1
  Cd  Cd17  1  0.580808  0.579520  0.259101  1
  Cd  Cd18  1  0.580806  0.259105  0.579520  1
  Cd  Cd19  1  0.255877  0.581337  0.581340  1
  Os  Os20  1  0.147887  0.137147  0.137142  1
  Os  Os21  1  0.148729  0.139004  0.579111  1
  Os  Os22  1  0.148728  0.579109  0.139008  1
  Pd  Pd23  1  0.576675  0.142144  0.142143  1
