# generated using pymatgen
data_Sr8Y3Tm(GaO5)4
_symmetry_space_group_name_H-M   'P 1'
_cell_length_a   5.96203944
_cell_length_b   7.63375636
_cell_length_c   12.47203422
_cell_angle_alpha   91.47893467
_cell_angle_beta   90.02880377
_cell_angle_gamma   90.03234780
_symmetry_Int_Tables_number   1
_chemical_formula_structural   Sr8Y3Tm(GaO5)4
_chemical_formula_sum   'Sr8 Y3 Tm1 Ga4 O20'
_cell_volume   567.44739918
_cell_formula_units_Z   1
loop_
 _symmetry_equiv_pos_site_id
 _symmetry_equiv_pos_as_xyz
  1  'x, y, z'
loop_
 _atom_site_type_symbol
 _atom_site_label
 _atom_site_symmetry_multiplicity
 _atom_site_fract_x
 _atom_site_fract_y
 _atom_site_fract_z
 _atom_site_occupancy
  Sr  Sr0  1  0.771782  0.485995  0.330894  1
  Sr  Sr1  1  0.727558  0.987031  0.829328  1
  Sr  Sr2  1  0.228526  0.512163  0.669140  1
  Sr  Sr3  1  0.272174  0.013790  0.170391  1
  Sr  Sr4  1  0.771480  0.986085  0.368592  1
  Sr  Sr5  1  0.728253  0.484821  0.866475  1
  Sr  Sr6  1  0.229310  0.015801  0.631941  1
  Sr  Sr7  1  0.271693  0.514825  0.132686  1
  Y  Y8  1  0.744623  0.771068  0.119855  1
  Y  Y9  1  0.244729  0.729140  0.380443  1
  Y  Y10  1  0.255547  0.229149  0.879465  1
  Tm  Tm11  1  0.757287  0.269450  0.620999  1
  Ga  Ga12  1  0.719776  0.742164  0.580299  1
  Ga  Ga13  1  0.780276  0.242197  0.079992  1
  Ga  Ga14  1  0.280264  0.258253  0.421505  1
  Ga  Ga15  1  0.219586  0.757945  0.919759  1
  O  O16  1  0.787936  0.972676  0.627566  1
  O  O17  1  0.710638  0.470401  0.128473  1
  O  O18  1  0.211605  0.029998  0.372094  1
  O  O19  1  0.289171  0.529322  0.871389  1
  O  O20  1  0.716207  0.068724  0.177573  1
  O  O21  1  0.782860  0.564436  0.675364  1
  O  O22  1  0.283679  0.932074  0.822473  1
  O  O23  1  0.217298  0.431079  0.323362  1
  O  O24  1  0.540871  0.746980  0.275698  1
  O  O25  1  0.959737  0.247186  0.773415  1
  O  O26  1  0.463431  0.253093  0.723271  1
  O  O27  1  0.041106  0.752870  0.224452  1
  O  O28  1  0.597756  0.212565  0.959506  1
  O  O29  1  0.902278  0.713440  0.460003  1
  O  O30  1  0.401967  0.787518  0.040040  1
  O  O31  1  0.091760  0.286669  0.540158  1
  O  O32  1  0.089676  0.236550  0.046145  1
  O  O33  1  0.410218  0.737256  0.547067  1
  O  O34  1  0.909915  0.763258  0.952673  1
  O  O35  1  0.589027  0.264028  0.457514  1
