# generated using pymatgen
data_Sc4TcOs3Ru4
_symmetry_space_group_name_H-M   'P 1'
_cell_length_a   5.10784476
_cell_length_b   5.16232791
_cell_length_c   8.74636300
_cell_angle_alpha   90.00000000
_cell_angle_beta   90.00000000
_cell_angle_gamma   119.68642719
_symmetry_Int_Tables_number   1
_chemical_formula_structural   Sc4TcOs3Ru4
_chemical_formula_sum   'Sc4 Tc1 Os3 Ru4'
_cell_volume   200.35723158
_cell_formula_units_Z   1
loop_
 _symmetry_equiv_pos_site_id
 _symmetry_equiv_pos_as_xyz
  1  'x, y, z'
loop_
 _atom_site_type_symbol
 _atom_site_label
 _atom_site_symmetry_multiplicity
 _atom_site_fract_x
 _atom_site_fract_y
 _atom_site_fract_z
 _atom_site_occupancy
  Sc  Sc0  1  0.331369  0.667134  0.432527  1
  Sc  Sc1  1  0.664184  0.331709  0.566626  1
  Sc  Sc2  1  0.664184  0.331709  0.933374  1
  Sc  Sc3  1  0.331369  0.667134  0.067473  1
  Tc  Tc4  1  0.664883  0.831923  0.750000  1
  Os  Os5  1  0.835985  0.169899  0.250000  1
  Os  Os6  1  0.176711  0.830832  0.750000  1
  Os  Os7  1  0.176354  0.344762  0.750000  1
  Ru  Ru8  1  0.984501  0.997740  0.498142  1
  Ru  Ru9  1  0.984501  0.997740  0.001858  1
  Ru  Ru10  1  0.835605  0.657687  0.250000  1
  Ru  Ru11  1  0.350352  0.171729  0.250000  1
