# generated using pymatgen
data_La4Al18Ir5Au
_symmetry_space_group_name_H-M   'P 1'
_cell_length_a   7.70913005
_cell_length_b   7.70913066
_cell_length_c   9.66613301
_cell_angle_alpha   89.99795337
_cell_angle_beta   89.99794994
_cell_angle_gamma   119.56762919
_symmetry_Int_Tables_number   1
_chemical_formula_structural   La4Al18Ir5Au
_chemical_formula_sum   'La4 Al18 Ir5 Au1'
_cell_volume   499.65460448
_cell_formula_units_Z   1
loop_
 _symmetry_equiv_pos_site_id
 _symmetry_equiv_pos_as_xyz
  1  'x, y, z'
loop_
 _atom_site_type_symbol
 _atom_site_label
 _atom_site_symmetry_multiplicity
 _atom_site_fract_x
 _atom_site_fract_y
 _atom_site_fract_z
 _atom_site_occupancy
  La  La0  1  0.994205  0.668023  0.250372  1
  La  La1  1  0.003163  0.329753  0.750188  1
  La  La2  1  0.670247  0.996837  0.249812  1
  La  La3  1  0.331977  0.005795  0.749628  1
  Al  Al4  1  0.131071  0.128997  0.251287  1
  Al  Al5  1  0.871003  0.868929  0.748713  1
  Al  Al6  1  0.014059  0.335216  0.077054  1
  Al  Al7  1  0.005585  0.675359  0.924316  1
  Al  Al8  1  0.998681  0.665588  0.571595  1
  Al  Al9  1  0.334412  0.001319  0.428405  1
  Al  Al10  1  0.003194  0.334665  0.427478  1
  Al  Al11  1  0.665335  0.996806  0.572522  1
  Al  Al12  1  0.664784  0.985941  0.922946  1
  Al  Al13  1  0.324641  0.994415  0.075684  1
  Al  Al14  1  0.333222  0.334032  0.544851  1
  Al  Al15  1  0.665968  0.666778  0.455149  1
  Al  Al16  1  0.663793  0.670882  0.051974  1
  Al  Al17  1  0.329118  0.336207  0.948026  1
  Al  Al18  1  0.341771  0.547170  0.251262  1
  Al  Al19  1  0.659258  0.460316  0.741111  1
  Al  Al20  1  0.539684  0.340742  0.258889  1
  Al  Al21  1  0.452830  0.658229  0.748738  1
  Ir  Ir22  1  0.329457  0.670543  0.000000  1
  Ir  Ir23  1  0.329393  0.670607  0.500000  1
  Ir  Ir24  1  0.671076  0.328924  0.500000  1
  Ir  Ir25  1  0.999700  0.000300  0.000000  1
  Ir  Ir26  1  0.000061  0.999939  0.500000  1
  Au  Au27  1  0.672310  0.327690  0.000000  1
