# generated using pymatgen
data_HoLu3(Pd2Pb)2
_symmetry_space_group_name_H-M   'P 1'
_cell_length_a   7.81647445
_cell_length_b   7.81647445
_cell_length_c   3.60619000
_cell_angle_alpha   90.00000000
_cell_angle_beta   90.00000000
_cell_angle_gamma   89.53465270
_symmetry_Int_Tables_number   1
_chemical_formula_structural   HoLu3(Pd2Pb)2
_chemical_formula_sum   'Ho1 Lu3 Pd4 Pb2'
_cell_volume   220.32110749
_cell_formula_units_Z   1
loop_
 _symmetry_equiv_pos_site_id
 _symmetry_equiv_pos_as_xyz
  1  'x, y, z'
loop_
 _atom_site_type_symbol
 _atom_site_label
 _atom_site_symmetry_multiplicity
 _atom_site_fract_x
 _atom_site_fract_y
 _atom_site_fract_z
 _atom_site_occupancy
  Ho  Ho0  1  0.329662  0.829662  0.500000  1
  Lu  Lu1  1  0.670053  0.170053  0.500000  1
  Lu  Lu2  1  0.169760  0.329849  0.500000  1
  Lu  Lu3  1  0.829849  0.669760  0.500000  1
  Pd  Pd4  1  0.374364  0.128022  0.000000  1
  Pd  Pd5  1  0.124542  0.624542  0.000000  1
  Pd  Pd6  1  0.628022  0.874364  0.000000  1
  Pd  Pd7  1  0.873609  0.373609  0.000000  1
  Pb  Pb8  1  0.999782  0.000357  0.000000  1
  Pb  Pb9  1  0.500357  0.499782  0.000000  1
