# generated using pymatgen
data_Lu2TaB2Ir5
_symmetry_space_group_name_H-M   'P 1'
_cell_length_a   9.44625600
_cell_length_b   9.44625600
_cell_length_c   3.31456500
_cell_angle_alpha   90.00000000
_cell_angle_beta   90.00000000
_cell_angle_gamma   90.00000000
_symmetry_Int_Tables_number   1
_chemical_formula_structural   Lu2TaB2Ir5
_chemical_formula_sum   'Lu4 Ta2 B4 Ir10'
_cell_volume   295.76444345
_cell_formula_units_Z   2
loop_
 _symmetry_equiv_pos_site_id
 _symmetry_equiv_pos_as_xyz
  1  'x, y, z'
loop_
 _atom_site_type_symbol
 _atom_site_label
 _atom_site_symmetry_multiplicity
 _atom_site_fract_x
 _atom_site_fract_y
 _atom_site_fract_z
 _atom_site_occupancy
  Lu  Lu0  1  0.675851  0.175851  0.000000  1
  Lu  Lu1  1  0.324149  0.824149  0.000000  1
  Lu  Lu2  1  0.175851  0.324149  0.000000  1
  Lu  Lu3  1  0.824149  0.675851  0.000000  1
  Ta  Ta4  1  0.000000  0.000000  0.000000  1
  Ta  Ta5  1  0.500000  0.500000  0.000000  1
  B  B6  1  0.119041  0.619041  0.000000  1
  B  B7  1  0.880959  0.380959  0.000000  1
  B  B8  1  0.619041  0.880959  0.000000  1
  B  B9  1  0.380959  0.119041  0.000000  1
  Ir  Ir10  1  0.219154  0.070302  0.500000  1
  Ir  Ir11  1  0.780846  0.929698  0.500000  1
  Ir  Ir12  1  0.070302  0.780846  0.500000  1
  Ir  Ir13  1  0.719154  0.429698  0.500000  1
  Ir  Ir14  1  0.929698  0.219154  0.500000  1
  Ir  Ir15  1  0.280846  0.570302  0.500000  1
  Ir  Ir16  1  0.570302  0.719154  0.500000  1
  Ir  Ir17  1  0.429698  0.280846  0.500000  1
  Ir  Ir18  1  0.500000  0.000000  0.500000  1
  Ir  Ir19  1  0.000000  0.500000  0.500000  1
