# generated using pymatgen
data_Pr4AgIr
_symmetry_space_group_name_H-M   'P 1'
_cell_length_a   9.96699486
_cell_length_b   9.96699429
_cell_length_c   9.96699500
_cell_angle_alpha   60.00000097
_cell_angle_beta   60.00000286
_cell_angle_gamma   60.00000385
_symmetry_Int_Tables_number   1
_chemical_formula_structural   Pr4AgIr
_chemical_formula_sum   'Pr16 Ag4 Ir4'
_cell_volume   700.12842752
_cell_formula_units_Z   4
loop_
 _symmetry_equiv_pos_site_id
 _symmetry_equiv_pos_as_xyz
  1  'x, y, z'
loop_
 _atom_site_type_symbol
 _atom_site_label
 _atom_site_symmetry_multiplicity
 _atom_site_fract_x
 _atom_site_fract_y
 _atom_site_fract_z
 _atom_site_occupancy
  Pr  Pr0  1  0.350509  0.350509  0.350509  1
  Pr  Pr1  1  0.350509  0.350509  0.948471  1
  Pr  Pr2  1  0.350509  0.948471  0.350509  1
  Pr  Pr3  1  0.948471  0.350509  0.350509  1
  Pr  Pr4  1  0.810234  0.189766  0.189766  1
  Pr  Pr5  1  0.189766  0.810234  0.810234  1
  Pr  Pr6  1  0.189766  0.810234  0.189766  1
  Pr  Pr7  1  0.810234  0.189766  0.810234  1
  Pr  Pr8  1  0.189766  0.189766  0.810234  1
  Pr  Pr9  1  0.810234  0.810234  0.189766  1
  Pr  Pr10  1  0.938227  0.561773  0.561773  1
  Pr  Pr11  1  0.561773  0.938227  0.938227  1
  Pr  Pr12  1  0.561773  0.938227  0.561773  1
  Pr  Pr13  1  0.938227  0.561773  0.938227  1
  Pr  Pr14  1  0.561773  0.561773  0.938227  1
  Pr  Pr15  1  0.938227  0.938227  0.561773  1
  Ag  Ag16  1  0.580926  0.580926  0.580926  1
  Ag  Ag17  1  0.580926  0.580926  0.257222  1
  Ag  Ag18  1  0.580926  0.257222  0.580926  1
  Ag  Ag19  1  0.257222  0.580926  0.580926  1
  Ir  Ir20  1  0.141896  0.141896  0.141896  1
  Ir  Ir21  1  0.141896  0.141896  0.574312  1
  Ir  Ir22  1  0.141896  0.574312  0.141896  1
  Ir  Ir23  1  0.574312  0.141896  0.141896  1
