# generated using pymatgen
data_SrLi12Ca7(VN4)4
_symmetry_space_group_name_H-M   'P 1'
_cell_length_a   8.26003855
_cell_length_b   8.55743765
_cell_length_c   6.69627000
_cell_angle_alpha   90.00000000
_cell_angle_beta   90.00000000
_cell_angle_gamma   89.96804903
_symmetry_Int_Tables_number   1
_chemical_formula_structural   SrLi12Ca7(VN4)4
_chemical_formula_sum   'Sr1 Li12 Ca7 V4 N16'
_cell_volume   473.32419733
_cell_formula_units_Z   1
loop_
 _symmetry_equiv_pos_site_id
 _symmetry_equiv_pos_as_xyz
  1  'x, y, z'
loop_
 _atom_site_type_symbol
 _atom_site_label
 _atom_site_symmetry_multiplicity
 _atom_site_fract_x
 _atom_site_fract_y
 _atom_site_fract_z
 _atom_site_occupancy
  Sr  Sr0  1  0.253440  0.259663  0.500001  1
  Li  Li1  1  0.006903  0.363923  0.242770  1
  Li  Li2  1  0.990701  0.641276  0.246517  1
  Li  Li3  1  0.511438  0.136775  0.250615  1
  Li  Li4  1  0.490874  0.859323  0.252765  1
  Li  Li5  1  0.990701  0.641276  0.753483  1
  Li  Li6  1  0.006903  0.363923  0.757230  1
  Li  Li7  1  0.490874  0.859323  0.747235  1
  Li  Li8  1  0.511438  0.136775  0.749385  1
  Li  Li9  1  0.215351  0.416466  0.000000  1
  Li  Li10  1  0.787116  0.583636  0.000000  1
  Li  Li11  1  0.714558  0.084737  0.500001  1
  Li  Li12  1  0.287394  0.914951  0.500001  1
  Ca  Ca13  1  0.998555  0.998162  0.256572  1
  Ca  Ca14  1  0.501013  0.501463  0.241890  1
  Ca  Ca15  1  0.998555  0.998162  0.743428  1
  Ca  Ca16  1  0.501013  0.501463  0.758110  1
  Ca  Ca17  1  0.245835  0.763145  0.000000  1
  Ca  Ca18  1  0.753984  0.235131  0.000000  1
  Ca  Ca19  1  0.745914  0.735480  0.500001  1
  V  V20  1  0.275842  0.131771  0.000000  1
  V  V21  1  0.723633  0.865336  0.000000  1
  V  V22  1  0.776379  0.366762  0.500001  1
  V  V23  1  0.224006  0.637220  0.500001  1
  N  N24  1  0.294873  0.011739  0.222578  1
  N  N25  1  0.704963  0.984211  0.224086  1
  N  N26  1  0.794832  0.485958  0.274615  1
  N  N27  1  0.204860  0.520805  0.273242  1
  N  N28  1  0.704963  0.984211  0.775914  1
  N  N29  1  0.294873  0.011739  0.777422  1
  N  N30  1  0.204860  0.520805  0.726758  1
  N  N31  1  0.794832  0.485958  0.725385  1
  N  N32  1  0.065249  0.212770  0.000000  1
  N  N33  1  0.935160  0.787984  0.000000  1
  N  N34  1  0.568543  0.286633  0.500001  1
  N  N35  1  0.436386  0.713350  0.500001  1
  N  N36  1  0.441632  0.279137  0.000000  1
  N  N37  1  0.558019  0.718517  0.000000  1
  N  N38  1  0.936244  0.216871  0.500001  1
  N  N39  1  0.057287  0.783168  0.500001  1
