# generated using pymatgen
data_SmP2IrRh
_symmetry_space_group_name_H-M   'P 1'
_cell_length_a   4.18032100
_cell_length_b   4.18032100
_cell_length_c   9.52916500
_cell_angle_alpha   90.00000000
_cell_angle_beta   90.00000000
_cell_angle_gamma   90.00000000
_symmetry_Int_Tables_number   1
_chemical_formula_structural   SmP2IrRh
_chemical_formula_sum   'Sm2 P4 Ir2 Rh2'
_cell_volume   166.52295561
_cell_formula_units_Z   2
loop_
 _symmetry_equiv_pos_site_id
 _symmetry_equiv_pos_as_xyz
  1  'x, y, z'
loop_
 _atom_site_type_symbol
 _atom_site_label
 _atom_site_symmetry_multiplicity
 _atom_site_fract_x
 _atom_site_fract_y
 _atom_site_fract_z
 _atom_site_occupancy
  Sm  Sm0  1  0.000000  0.500000  0.243056  1
  Sm  Sm1  1  0.500000  0.000000  0.756944  1
  P  P2  1  0.000000  0.000000  0.000000  1
  P  P3  1  0.500000  0.500000  0.000000  1
  P  P4  1  0.000000  0.500000  0.638541  1
  P  P5  1  0.500000  0.000000  0.361459  1
  Ir  Ir6  1  0.000000  0.500000  0.886936  1
  Ir  Ir7  1  0.500000  0.000000  0.113064  1
  Rh  Rh8  1  0.000000  0.000000  0.500000  1
  Rh  Rh9  1  0.500000  0.500000  0.500000  1
