# generated using pymatgen
data_Nd5HoV2(Co4P3)4
_symmetry_space_group_name_H-M   'P 1'
_cell_length_a   3.74728500
_cell_length_b   10.67910930
_cell_length_c   12.39258935
_cell_angle_alpha   89.97273813
_cell_angle_beta   90.00000000
_cell_angle_gamma   90.00000000
_symmetry_Int_Tables_number   1
_chemical_formula_structural   Nd5HoV2(Co4P3)4
_chemical_formula_sum   'Nd5 Ho1 V2 Co16 P12'
_cell_volume   495.92244663
_cell_formula_units_Z   1
loop_
 _symmetry_equiv_pos_site_id
 _symmetry_equiv_pos_as_xyz
  1  'x, y, z'
loop_
 _atom_site_type_symbol
 _atom_site_label
 _atom_site_symmetry_multiplicity
 _atom_site_fract_x
 _atom_site_fract_y
 _atom_site_fract_z
 _atom_site_occupancy
  Nd  Nd0  1  0.000000  0.500339  0.522144  1
  Nd  Nd1  1  0.500000  0.999586  0.477190  1
  Nd  Nd2  1  0.500000  0.180892  0.204721  1
  Nd  Nd3  1  0.000000  0.681700  0.795050  1
  Nd  Nd4  1  0.000000  0.318488  0.795662  1
  Ho  Ho5  1  0.500000  0.817588  0.203791  1
  V  V6  1  0.500000  0.501162  0.152169  1
  V  V7  1  0.000000  0.999624  0.848423  1
  Co  Co8  1  0.500000  0.500390  0.703355  1
  Co  Co9  1  0.000000  0.996139  0.295138  1
  Co  Co10  1  0.000000  0.501629  0.989255  1
  Co  Co11  1  0.500000  0.998294  0.013414  1
  Co  Co12  1  0.500000  0.332758  0.994650  1
  Co  Co13  1  0.500000  0.668743  0.995752  1
  Co  Co14  1  0.000000  0.166210  0.006670  1
  Co  Co15  1  0.000000  0.832032  0.007993  1
  Co  Co16  1  0.500000  0.295591  0.430599  1
  Co  Co17  1  0.500000  0.705143  0.428317  1
  Co  Co18  1  0.000000  0.204062  0.569129  1
  Co  Co19  1  0.000000  0.795785  0.567740  1
  Co  Co20  1  0.500000  0.880927  0.708578  1
  Co  Co21  1  0.500000  0.119095  0.709161  1
  Co  Co22  1  0.000000  0.621539  0.289314  1
  Co  Co23  1  0.000000  0.381583  0.291089  1
  P  P24  1  0.500000  0.500715  0.887109  1
  P  P25  1  0.000000  0.996897  0.115860  1
  P  P26  1  0.500000  0.500066  0.341969  1
  P  P27  1  0.000000  0.000027  0.657791  1
  P  P28  1  0.500000  0.306998  0.614321  1
  P  P29  1  0.500000  0.693639  0.613149  1
  P  P30  1  0.000000  0.192531  0.385585  1
  P  P31  1  0.000000  0.807597  0.381628  1
  P  P32  1  0.500000  0.847617  0.894408  1
  P  P33  1  0.500000  0.151718  0.895368  1
  P  P34  1  0.000000  0.655075  0.107820  1
  P  P35  1  0.000000  0.347820  0.105686  1
