# generated using pymatgen
data_Dy4ErP12Pd3Ru16
_symmetry_space_group_name_H-M   'P 1'
_cell_length_a   12.64911700
_cell_length_b   12.64911755
_cell_length_c   3.99331200
_cell_angle_alpha   90.00000000
_cell_angle_beta   90.00000000
_cell_angle_gamma   120.00000119
_symmetry_Int_Tables_number   1
_chemical_formula_structural   Dy4ErP12Pd3Ru16
_chemical_formula_sum   'Dy4 Er1 P12 Pd3 Ru16'
_cell_volume   553.33011563
_cell_formula_units_Z   1
loop_
 _symmetry_equiv_pos_site_id
 _symmetry_equiv_pos_as_xyz
  1  'x, y, z'
loop_
 _atom_site_type_symbol
 _atom_site_label
 _atom_site_symmetry_multiplicity
 _atom_site_fract_x
 _atom_site_fract_y
 _atom_site_fract_z
 _atom_site_occupancy
  Dy  Dy0  1  0.181370  0.181360  0.500000  1
  Dy  Dy1  1  0.818640  0.000010  0.500000  1
  Dy  Dy2  1  0.999990  0.818630  0.500000  1
  Dy  Dy3  1  0.333333  0.666667  0.000000  1
  Er  Er4  1  0.666667  0.333333  0.000000  1
  P  P5  1  0.814002  0.813184  0.000000  1
  P  P6  1  0.186816  0.000818  0.000000  1
  P  P7  1  0.999182  0.185998  0.000000  1
  P  P8  1  0.179041  0.479789  0.500000  1
  P  P9  1  0.520211  0.699251  0.500000  1
  P  P10  1  0.300749  0.820959  0.500000  1
  P  P11  1  0.699485  0.518858  0.500000  1
  P  P12  1  0.819372  0.300515  0.500000  1
  P  P13  1  0.481142  0.180628  0.500000  1
  P  P14  1  0.366823  0.367125  0.000000  1
  P  P15  1  0.632875  0.999697  0.000000  1
  P  P16  1  0.000303  0.633177  0.000000  1
  Pd  Pd17  1  0.553298  0.553446  0.000000  1
  Pd  Pd18  1  0.446554  0.999852  0.000000  1
  Pd  Pd19  1  0.000148  0.446702  0.000000  1
  Ru  Ru20  1  0.712583  0.711725  0.500000  1
  Ru  Ru21  1  0.288275  0.000858  0.500000  1
  Ru  Ru22  1  0.999142  0.287417  0.500000  1
  Ru  Ru23  1  0.185391  0.378460  0.000000  1
  Ru  Ru24  1  0.621540  0.806932  0.000000  1
  Ru  Ru25  1  0.193068  0.814609  0.000000  1
  Ru  Ru26  1  0.806859  0.620015  0.000000  1
  Ru  Ru27  1  0.813156  0.193141  0.000000  1
  Ru  Ru28  1  0.379985  0.186844  0.000000  1
  Ru  Ru29  1  0.368717  0.492738  0.500000  1
  Ru  Ru30  1  0.507262  0.875980  0.500000  1
  Ru  Ru31  1  0.124020  0.631283  0.500000  1
  Ru  Ru32  1  0.875260  0.505669  0.500000  1
  Ru  Ru33  1  0.630411  0.124740  0.500000  1
  Ru  Ru34  1  0.494331  0.369589  0.500000  1
  Ru  Ru35  1  0.000000  0.000000  0.000000  1
