# generated using pymatgen
data_Ho10Tl3Sn3O2
_symmetry_space_group_name_H-M   'P 1'
_cell_length_a   9.03445605
_cell_length_b   9.03445595
_cell_length_c   9.03059100
_cell_angle_alpha   125.90917450
_cell_angle_beta   125.90916620
_cell_angle_gamma   80.06666729
_symmetry_Int_Tables_number   1
_chemical_formula_structural   Ho10Tl3Sn3O2
_chemical_formula_sum   'Ho10 Tl3 Sn3 O2'
_cell_volume   466.72954311
_cell_formula_units_Z   1
loop_
 _symmetry_equiv_pos_site_id
 _symmetry_equiv_pos_as_xyz
  1  'x, y, z'
loop_
 _atom_site_type_symbol
 _atom_site_label
 _atom_site_symmetry_multiplicity
 _atom_site_fract_x
 _atom_site_fract_y
 _atom_site_fract_z
 _atom_site_occupancy
  Ho  Ho0  1  0.000289  0.200447  0.500000  1
  Ho  Ho1  1  0.799753  0.299584  0.800266  1
  Ho  Ho2  1  0.500681  0.000513  0.800266  1
  Ho  Ho3  1  0.499487  0.999319  0.199734  1
  Ho  Ho4  1  0.000486  0.798142  0.500000  1
  Ho  Ho5  1  0.498644  0.499624  0.998269  1
  Ho  Ho6  1  0.200416  0.700247  0.199734  1
  Ho  Ho7  1  0.701858  0.499514  0.500000  1
  Ho  Ho8  1  0.299553  0.499711  0.500000  1
  Ho  Ho9  1  0.000376  0.001356  0.001731  1
  Tl  Tl10  1  0.749972  0.750028  0.000000  1
  Tl  Tl11  1  0.648294  0.851706  0.500000  1
  Tl  Tl12  1  0.249972  0.250028  0.000000  1
  Sn  Sn13  1  0.851437  0.352556  0.203993  1
  Sn  Sn14  1  0.147444  0.648563  0.796007  1
  Sn  Sn15  1  0.352386  0.147614  0.500000  1
  O  O16  1  0.749543  0.250591  0.500000  1
  O  O17  1  0.249409  0.750457  0.500000  1
