# generated using pymatgen
data_Tm2Lu2MnTc7
_symmetry_space_group_name_H-M   'P 1'
_cell_length_a   5.30406100
_cell_length_b   5.30406112
_cell_length_c   8.83065000
_cell_angle_alpha   90.00000000
_cell_angle_beta   90.00000000
_cell_angle_gamma   119.99999300
_symmetry_Int_Tables_number   1
_chemical_formula_structural   Tm2Lu2MnTc7
_chemical_formula_sum   'Tm2 Lu2 Mn1 Tc7'
_cell_volume   215.14951161
_cell_formula_units_Z   1
loop_
 _symmetry_equiv_pos_site_id
 _symmetry_equiv_pos_as_xyz
  1  'x, y, z'
loop_
 _atom_site_type_symbol
 _atom_site_label
 _atom_site_symmetry_multiplicity
 _atom_site_fract_x
 _atom_site_fract_y
 _atom_site_fract_z
 _atom_site_occupancy
  Tm  Tm0  1  0.666667  0.333333  0.935393  1
  Tm  Tm1  1  0.333333  0.666667  0.064607  1
  Lu  Lu2  1  0.333333  0.666667  0.436342  1
  Lu  Lu3  1  0.666667  0.333333  0.563658  1
  Mn  Mn4  1  0.000000  0.000000  0.500000  1
  Tc  Tc5  1  0.000000  0.000000  0.000000  1
  Tc  Tc6  1  0.829230  0.170770  0.253371  1
  Tc  Tc7  1  0.829230  0.658459  0.253371  1
  Tc  Tc8  1  0.341541  0.170770  0.253371  1
  Tc  Tc9  1  0.170770  0.829230  0.746629  1
  Tc  Tc10  1  0.170770  0.341541  0.746629  1
  Tc  Tc11  1  0.658459  0.829230  0.746629  1
