# generated using pymatgen
data_Y3Er(ZnSi)4
_symmetry_space_group_name_H-M   'P 1'
_cell_length_a   4.15313400
_cell_length_b   4.15313439
_cell_length_c   15.73742100
_cell_angle_alpha   90.00000000
_cell_angle_beta   90.00000000
_cell_angle_gamma   119.99999689
_symmetry_Int_Tables_number   1
_chemical_formula_structural   Y3Er(ZnSi)4
_chemical_formula_sum   'Y3 Er1 Zn4 Si4'
_cell_volume   235.08024607
_cell_formula_units_Z   1
loop_
 _symmetry_equiv_pos_site_id
 _symmetry_equiv_pos_as_xyz
  1  'x, y, z'
loop_
 _atom_site_type_symbol
 _atom_site_label
 _atom_site_symmetry_multiplicity
 _atom_site_fract_x
 _atom_site_fract_y
 _atom_site_fract_z
 _atom_site_occupancy
  Y  Y0  1  0.000000  0.000000  0.250000  1
  Y  Y1  1  0.000000  0.000000  0.997500  1
  Y  Y2  1  0.000000  0.000000  0.502500  1
  Er  Er3  1  0.000000  0.000000  0.750000  1
  Zn  Zn4  1  0.333333  0.666667  0.135570  1
  Zn  Zn5  1  0.666667  0.333333  0.857508  1
  Zn  Zn6  1  0.666667  0.333333  0.642492  1
  Zn  Zn7  1  0.333333  0.666667  0.364430  1
  Si  Si8  1  0.333333  0.666667  0.620451  1
  Si  Si9  1  0.666667  0.333333  0.382825  1
  Si  Si10  1  0.666667  0.333333  0.117175  1
  Si  Si11  1  0.333333  0.666667  0.879549  1
