# generated using pymatgen
data_NdY3Er(In2Pt)2
_symmetry_space_group_name_H-M   'P 1'
_cell_length_a   3.63510500
_cell_length_b   8.19647353
_cell_length_c   18.43313512
_cell_angle_alpha   90.04057359
_cell_angle_beta   90.00000000
_cell_angle_gamma   90.00000000
_symmetry_Int_Tables_number   1
_chemical_formula_structural   NdY3Er(In2Pt)2
_chemical_formula_sum   'Nd2 Y6 Er2 In8 Pt4'
_cell_volume   549.21589574
_cell_formula_units_Z   2
loop_
 _symmetry_equiv_pos_site_id
 _symmetry_equiv_pos_as_xyz
  1  'x, y, z'
loop_
 _atom_site_type_symbol
 _atom_site_label
 _atom_site_symmetry_multiplicity
 _atom_site_fract_x
 _atom_site_fract_y
 _atom_site_fract_z
 _atom_site_occupancy
  Nd  Nd0  1  0.000000  0.000000  0.000000  1
  Nd  Nd1  1  0.000000  0.500000  0.500000  1
  Y  Y2  1  0.000000  0.120593  0.414331  1
  Y  Y3  1  0.000000  0.879407  0.585669  1
  Y  Y4  1  0.000000  0.378542  0.914380  1
  Y  Y5  1  0.000000  0.621458  0.085620  1
  Y  Y6  1  0.000000  0.241784  0.219067  1
  Y  Y7  1  0.000000  0.758216  0.780933  1
  Er  Er8  1  0.000000  0.257710  0.719499  1
  Er  Er9  1  0.000000  0.742290  0.280501  1
  In  In10  1  0.500000  0.423137  0.347802  1
  In  In11  1  0.500000  0.576863  0.652198  1
  In  In12  1  0.500000  0.078222  0.847756  1
  In  In13  1  0.500000  0.921778  0.152244  1
  In  In14  1  0.500000  0.300885  0.067467  1
  In  In15  1  0.500000  0.699115  0.932533  1
  In  In16  1  0.500000  0.200780  0.567903  1
  In  In17  1  0.500000  0.799220  0.432097  1
  Pt  Pt18  1  0.500000  0.021421  0.303339  1
  Pt  Pt19  1  0.500000  0.978579  0.696661  1
  Pt  Pt20  1  0.500000  0.472026  0.802632  1
  Pt  Pt21  1  0.500000  0.527974  0.197368  1
