# generated using pymatgen
data_TbU3O8
_symmetry_space_group_name_H-M   'P 1'
_cell_length_a   6.60673368
_cell_length_b   6.60673352
_cell_length_c   6.60673273
_cell_angle_alpha   131.69228986
_cell_angle_beta   131.69228356
_cell_angle_gamma   70.71545846
_symmetry_Int_Tables_number   1
_chemical_formula_structural   TbU3O8
_chemical_formula_sum   'Tb1 U3 O8'
_cell_volume   157.51430734
_cell_formula_units_Z   1
loop_
 _symmetry_equiv_pos_site_id
 _symmetry_equiv_pos_as_xyz
  1  'x, y, z'
loop_
 _atom_site_type_symbol
 _atom_site_label
 _atom_site_symmetry_multiplicity
 _atom_site_fract_x
 _atom_site_fract_y
 _atom_site_fract_z
 _atom_site_occupancy
  Tb  Tb0  1  0.000000  0.000000  0.000000  1
  U  U1  1  0.250000  0.750000  0.500000  1
  U  U2  1  0.500000  0.500000  0.000000  1
  U  U3  1  0.750000  0.250000  0.500000  1
  O  O4  1  0.619666  0.619666  0.493189  1
  O  O5  1  0.873523  0.380334  0.000000  1
  O  O6  1  0.126477  0.126477  0.506811  1
  O  O7  1  0.380334  0.873523  0.000000  1
  O  O8  1  0.380334  0.380334  0.506811  1
  O  O9  1  0.619666  0.126477  0.000000  1
  O  O10  1  0.873523  0.873523  0.493189  1
  O  O11  1  0.126477  0.619666  0.000000  1
