# generated using pymatgen
data_DyY9(ZnB4)4
_symmetry_space_group_name_H-M   'P 1'
_cell_length_a   7.21114700
_cell_length_b   7.21111300
_cell_length_c   8.41912400
_cell_angle_alpha   90.00184040
_cell_angle_beta   89.99809380
_cell_angle_gamma   89.99837914
_symmetry_Int_Tables_number   1
_chemical_formula_structural   DyY9(ZnB4)4
_chemical_formula_sum   'Dy1 Y9 Zn4 B16'
_cell_volume   437.79778061
_cell_formula_units_Z   1
loop_
 _symmetry_equiv_pos_site_id
 _symmetry_equiv_pos_as_xyz
  1  'x, y, z'
loop_
 _atom_site_type_symbol
 _atom_site_label
 _atom_site_symmetry_multiplicity
 _atom_site_fract_x
 _atom_site_fract_y
 _atom_site_fract_z
 _atom_site_occupancy
  Dy  Dy0  1  0.181999  0.318002  0.212160  1
  Y  Y1  1  0.681925  0.181959  0.212429  1
  Y  Y2  1  0.318044  0.818044  0.787567  1
  Y  Y3  1  0.318039  0.818076  0.212431  1
  Y  Y4  1  0.818072  0.681927  0.212422  1
  Y  Y5  1  0.818041  0.681960  0.787556  1
  Y  Y6  1  0.681956  0.181954  0.787569  1
  Y  Y7  1  0.181958  0.318042  0.787529  1
  Y  Y8  1  0.000035  0.000030  0.499956  1
  Y  Y9  1  0.499971  0.499966  0.499958  1
  Zn  Zn10  1  0.117673  0.617615  0.499940  1
  Zn  Zn11  1  0.882385  0.382327  0.499941  1
  Zn  Zn12  1  0.382309  0.117691  0.499930  1
  Zn  Zn13  1  0.617648  0.882351  0.499994  1
  B  B14  1  0.171779  0.040432  0.000057  1
  B  B15  1  0.828230  0.959684  0.999977  1
  B  B16  1  0.959804  0.171835  0.000075  1
  B  B17  1  0.328165  0.540196  0.000075  1
  B  B18  1  0.040325  0.828218  0.000001  1
  B  B19  1  0.671782  0.459675  0.000001  1
  B  B20  1  0.540317  0.671771  0.999977  1
  B  B21  1  0.459567  0.328220  0.000058  1
  B  B22  1  0.090679  0.590548  0.000130  1
  B  B23  1  0.909453  0.409321  0.000129  1
  B  B24  1  0.409255  0.090745  0.000123  1
  B  B25  1  0.590643  0.909355  0.000006  1
  B  B26  1  0.000075  0.000138  0.157093  1
  B  B27  1  0.999986  0.999977  0.842912  1
  B  B28  1  0.500022  0.500015  0.842911  1
  B  B29  1  0.499861  0.499924  0.157093  1
