# generated using pymatgen
data_Tb9YTlBi5
_symmetry_space_group_name_H-M   'P 1'
_cell_length_a   9.12290400
_cell_length_b   9.12290405
_cell_length_c   6.44108800
_cell_angle_alpha   90.00000000
_cell_angle_beta   90.00000000
_cell_angle_gamma   119.72622834
_symmetry_Int_Tables_number   1
_chemical_formula_structural   Tb9YTlBi5
_chemical_formula_sum   'Tb9 Y1 Tl1 Bi5'
_cell_volume   465.52988774
_cell_formula_units_Z   1
loop_
 _symmetry_equiv_pos_site_id
 _symmetry_equiv_pos_as_xyz
  1  'x, y, z'
loop_
 _atom_site_type_symbol
 _atom_site_label
 _atom_site_symmetry_multiplicity
 _atom_site_fract_x
 _atom_site_fract_y
 _atom_site_fract_z
 _atom_site_occupancy
  Tb  Tb0  1  0.663004  0.334425  0.998799  1
  Tb  Tb1  1  0.334425  0.663004  0.998799  1
  Tb  Tb2  1  0.334425  0.663004  0.501201  1
  Tb  Tb3  1  0.663004  0.334425  0.501201  1
  Tb  Tb4  1  0.756101  0.756101  0.750000  1
  Tb  Tb5  1  0.242108  0.005669  0.750000  1
  Tb  Tb6  1  0.005669  0.242108  0.750000  1
  Tb  Tb7  1  0.758345  0.999611  0.250000  1
  Tb  Tb8  1  0.999611  0.758345  0.250000  1
  Y  Y9  1  0.240455  0.240455  0.250000  1
  Tl  Tl10  1  0.393505  0.393505  0.750000  1
  Bi  Bi11  1  0.609946  0.001673  0.750000  1
  Bi  Bi12  1  0.001673  0.609946  0.750000  1
  Bi  Bi13  1  0.609143  0.609143  0.250000  1
  Bi  Bi14  1  0.390985  0.997605  0.250000  1
  Bi  Bi15  1  0.997605  0.390985  0.250000  1
