# generated using pymatgen
data_Pr8Ho11ScSn16
_symmetry_space_group_name_H-M   'P 1'
_cell_length_a   8.10161400
_cell_length_b   8.30050181
_cell_length_c   15.63154900
_cell_angle_alpha   90.00000000
_cell_angle_beta   90.00000000
_cell_angle_gamma   89.96212494
_symmetry_Int_Tables_number   1
_chemical_formula_structural   Pr8Ho11ScSn16
_chemical_formula_sum   'Pr8 Ho11 Sc1 Sn16'
_cell_volume   1051.18176301
_cell_formula_units_Z   1
loop_
 _symmetry_equiv_pos_site_id
 _symmetry_equiv_pos_as_xyz
  1  'x, y, z'
loop_
 _atom_site_type_symbol
 _atom_site_label
 _atom_site_symmetry_multiplicity
 _atom_site_fract_x
 _atom_site_fract_y
 _atom_site_fract_z
 _atom_site_occupancy
  Pr  Pr0  1  0.510519  0.322890  0.903693  1
  Pr  Pr1  1  0.010171  0.177826  0.596257  1
  Pr  Pr2  1  0.488998  0.678548  0.403303  1
  Pr  Pr3  1  0.990530  0.823100  0.096704  1
  Pr  Pr4  1  0.488998  0.678548  0.096697  1
  Pr  Pr5  1  0.990530  0.823100  0.403296  1
  Pr  Pr6  1  0.510519  0.322890  0.596307  1
  Pr  Pr7  1  0.010171  0.177826  0.903743  1
  Ho  Ho8  1  0.353964  0.834911  0.876186  1
  Ho  Ho9  1  0.853511  0.665022  0.623655  1
  Ho  Ho10  1  0.645199  0.163968  0.375448  1
  Ho  Ho11  1  0.146957  0.334282  0.124113  1
  Ho  Ho12  1  0.645199  0.163968  0.124552  1
  Ho  Ho13  1  0.146957  0.334282  0.375887  1
  Ho  Ho14  1  0.353964  0.834911  0.623814  1
  Ho  Ho15  1  0.853511  0.665022  0.876345  1
  Ho  Ho16  1  0.186914  0.502263  0.750000  1
  Ho  Ho17  1  0.686693  0.998296  0.750000  1
  Ho  Ho18  1  0.813431  0.497781  0.250000  1
  Sc  Sc19  1  0.312289  0.002202  0.250000  1
  Sn  Sn20  1  0.310084  0.040000  0.043383  1
  Sn  Sn21  1  0.809774  0.458819  0.457811  1
  Sn  Sn22  1  0.689866  0.959280  0.541657  1
  Sn  Sn23  1  0.190163  0.541089  0.958300  1
  Sn  Sn24  1  0.689866  0.959280  0.958343  1
  Sn  Sn25  1  0.190163  0.541089  0.541700  1
  Sn  Sn26  1  0.310084  0.040000  0.456617  1
  Sn  Sn27  1  0.809774  0.458819  0.042189  1
  Sn  Sn28  1  0.552540  0.624208  0.750000  1
  Sn  Sn29  1  0.051908  0.876102  0.750000  1
  Sn  Sn30  1  0.446112  0.373403  0.250000  1
  Sn  Sn31  1  0.952179  0.121206  0.250000  1
  Sn  Sn32  1  0.318095  0.142697  0.750000  1
  Sn  Sn33  1  0.818337  0.357667  0.750000  1
  Sn  Sn34  1  0.678726  0.858618  0.250000  1
  Sn  Sn35  1  0.183302  0.646087  0.250000  1
