# generated using pymatgen
data_Tb2YbDy5(B6Os)4
_symmetry_space_group_name_H-M   'P 1'
_cell_length_a   3.66237200
_cell_length_b   9.17275107
_cell_length_c   11.55978520
_cell_angle_alpha   90.09978009
_cell_angle_beta   90.00000000
_cell_angle_gamma   90.00000000
_symmetry_Int_Tables_number   1
_chemical_formula_structural   Tb2YbDy5(B6Os)4
_chemical_formula_sum   'Tb2 Yb1 Dy5 B24 Os4'
_cell_volume   388.33914333
_cell_formula_units_Z   1
loop_
 _symmetry_equiv_pos_site_id
 _symmetry_equiv_pos_as_xyz
  1  'x, y, z'
loop_
 _atom_site_type_symbol
 _atom_site_label
 _atom_site_symmetry_multiplicity
 _atom_site_fract_x
 _atom_site_fract_y
 _atom_site_fract_z
 _atom_site_occupancy
  Tb  Tb0  1  0.000000  0.322248  0.413493  1
  Tb  Tb1  1  0.000000  0.678228  0.585581  1
  Yb  Yb2  1  0.000000  0.823006  0.086267  1
  Dy  Dy3  1  0.000000  0.176308  0.915004  1
  Dy  Dy4  1  0.000000  0.942790  0.370721  1
  Dy  Dy5  1  0.000000  0.056306  0.627542  1
  Dy  Dy6  1  0.000000  0.443777  0.128183  1
  Dy  Dy7  1  0.000000  0.558251  0.872732  1
  B  B8  1  0.500000  0.553303  0.432985  1
  B  B9  1  0.500000  0.445947  0.567854  1
  B  B10  1  0.500000  0.053438  0.067298  1
  B  B11  1  0.500000  0.946154  0.932911  1
  B  B12  1  0.500000  0.747308  0.418744  1
  B  B13  1  0.500000  0.251995  0.581032  1
  B  B14  1  0.500000  0.247697  0.080910  1
  B  B15  1  0.500000  0.752883  0.919169  1
  B  B16  1  0.500000  0.789533  0.265948  1
  B  B17  1  0.500000  0.209784  0.733907  1
  B  B18  1  0.500000  0.290510  0.233426  1
  B  B19  1  0.500000  0.710526  0.766378  1
  B  B20  1  0.500000  0.631212  0.185969  1
  B  B21  1  0.500000  0.368779  0.814802  1
  B  B22  1  0.500000  0.131337  0.313484  1
  B  B23  1  0.500000  0.868954  0.685428  1
  B  B24  1  0.500000  0.983329  0.211818  1
  B  B25  1  0.500000  0.016569  0.787570  1
  B  B26  1  0.500000  0.483511  0.287897  1
  B  B27  1  0.500000  0.516522  0.713031  1
  B  B28  1  0.500000  0.604705  0.029225  1
  B  B29  1  0.500000  0.394491  0.970797  1
  B  B30  1  0.500000  0.107219  0.469949  1
  B  B31  1  0.500000  0.892860  0.529280  1
  Os  Os32  1  0.000000  0.636370  0.322305  1
  Os  Os33  1  0.000000  0.362692  0.678994  1
  Os  Os34  1  0.000000  0.138557  0.178759  1
  Os  Os35  1  0.000000  0.862897  0.820608  1
