# generated using pymatgen
data_Pr7Y9(MgSn4)4
_symmetry_space_group_name_H-M   'P 1'
_cell_length_a   7.79800749
_cell_length_b   8.34828230
_cell_length_c   15.39446200
_cell_angle_alpha   90.06275695
_cell_angle_beta   90.02035255
_cell_angle_gamma   90.01523456
_symmetry_Int_Tables_number   1
_chemical_formula_structural   Pr7Y9(MgSn4)4
_chemical_formula_sum   'Pr7 Y9 Mg4 Sn16'
_cell_volume   1002.17828288
_cell_formula_units_Z   1
loop_
 _symmetry_equiv_pos_site_id
 _symmetry_equiv_pos_as_xyz
  1  'x, y, z'
loop_
 _atom_site_type_symbol
 _atom_site_label
 _atom_site_symmetry_multiplicity
 _atom_site_fract_x
 _atom_site_fract_y
 _atom_site_fract_z
 _atom_site_occupancy
  Pr  Pr0  1  0.001144  0.180419  0.095059  1
  Pr  Pr1  1  0.999017  0.818573  0.902969  1
  Pr  Pr2  1  0.497643  0.680373  0.905673  1
  Pr  Pr3  1  0.999788  0.818426  0.595227  1
  Pr  Pr4  1  0.501206  0.319497  0.094921  1
  Pr  Pr5  1  0.002483  0.181553  0.406506  1
  Pr  Pr6  1  0.501158  0.319237  0.406604  1
  Y  Y7  1  0.500835  0.682701  0.594253  1
  Y  Y8  1  0.335670  0.170860  0.627556  1
  Y  Y9  1  0.664202  0.828376  0.373486  1
  Y  Y10  1  0.164133  0.670310  0.373634  1
  Y  Y11  1  0.664710  0.828952  0.127238  1
  Y  Y12  1  0.834975  0.329189  0.627196  1
  Y  Y13  1  0.336397  0.171171  0.871127  1
  Y  Y14  1  0.833678  0.329159  0.871250  1
  Y  Y15  1  0.164384  0.671331  0.127065  1
  Mg  Mg16  1  0.159214  0.504563  0.749369  1
  Mg  Mg17  1  0.836885  0.496859  0.250172  1
  Mg  Mg18  1  0.337906  0.003900  0.250669  1
  Mg  Mg19  1  0.662938  0.994217  0.749310  1
  Sn  Sn20  1  0.026162  0.102562  0.749550  1
  Sn  Sn21  1  0.974451  0.896053  0.250621  1
  Sn  Sn22  1  0.473744  0.604231  0.250546  1
  Sn  Sn23  1  0.522924  0.400604  0.747980  1
  Sn  Sn24  1  0.181334  0.464666  0.541231  1
  Sn  Sn25  1  0.822610  0.539912  0.462895  1
  Sn  Sn26  1  0.325059  0.958875  0.462705  1
  Sn  Sn27  1  0.824292  0.539032  0.037806  1
  Sn  Sn28  1  0.675760  0.035921  0.540153  1
  Sn  Sn29  1  0.174914  0.460048  0.961181  1
  Sn  Sn30  1  0.676351  0.039010  0.961125  1
  Sn  Sn31  1  0.323951  0.961246  0.037750  1
  Sn  Sn32  1  0.305446  0.856542  0.747672  1
  Sn  Sn33  1  0.699316  0.139786  0.250840  1
  Sn  Sn34  1  0.198738  0.360473  0.250465  1
  Sn  Sn35  1  0.796583  0.641370  0.748196  1
