# generated using pymatgen
data_Nd2Cd3HgPd2
_symmetry_space_group_name_H-M   'P 1'
_cell_length_a   5.52293177
_cell_length_b   5.52293198
_cell_length_c   8.38651424
_cell_angle_alpha   89.94422311
_cell_angle_beta   90.05577584
_cell_angle_gamma   133.55619409
_symmetry_Int_Tables_number   1
_chemical_formula_structural   Nd2Cd3HgPd2
_chemical_formula_sum   'Nd2 Cd3 Hg1 Pd2'
_cell_volume   185.38654970
_cell_formula_units_Z   1
loop_
 _symmetry_equiv_pos_site_id
 _symmetry_equiv_pos_as_xyz
  1  'x, y, z'
loop_
 _atom_site_type_symbol
 _atom_site_label
 _atom_site_symmetry_multiplicity
 _atom_site_fract_x
 _atom_site_fract_y
 _atom_site_fract_z
 _atom_site_occupancy
  Nd  Nd0  1  0.933851  0.066149  0.253651  1
  Nd  Nd1  1  0.067569  0.932431  0.747130  1
  Cd  Cd2  1  0.354933  0.645067  0.552438  1
  Cd  Cd3  1  0.643497  0.356503  0.049132  1
  Cd  Cd4  1  0.358590  0.641410  0.950012  1
  Hg  Hg5  1  0.637264  0.362736  0.449220  1
  Pd  Pd6  1  0.225688  0.774312  0.247284  1
  Pd  Pd7  1  0.778607  0.221393  0.751132  1
