# generated using pymatgen
data_Tm16Sc4GaBi11
_symmetry_space_group_name_H-M   'P 1'
_cell_length_a   8.01135507
_cell_length_b   9.32114900
_cell_length_c   11.78492300
_cell_angle_alpha   90.00000000
_cell_angle_beta   89.67239480
_cell_angle_gamma   90.00000000
_symmetry_Int_Tables_number   1
_chemical_formula_structural   Tm16Sc4GaBi11
_chemical_formula_sum   'Tm16 Sc4 Ga1 Bi11'
_cell_volume   880.02514416
_cell_formula_units_Z   1
loop_
 _symmetry_equiv_pos_site_id
 _symmetry_equiv_pos_as_xyz
  1  'x, y, z'
loop_
 _atom_site_type_symbol
 _atom_site_label
 _atom_site_symmetry_multiplicity
 _atom_site_fract_x
 _atom_site_fract_y
 _atom_site_fract_z
 _atom_site_occupancy
  Tm  Tm0  1  0.354761  0.250000  0.294587  1
  Tm  Tm1  1  0.648124  0.750000  0.716243  1
  Tm  Tm2  1  0.148268  0.750000  0.782426  1
  Tm  Tm3  1  0.852999  0.250000  0.215679  1
  Tm  Tm4  1  0.192283  0.250000  0.775639  1
  Tm  Tm5  1  0.811078  0.750000  0.218881  1
  Tm  Tm6  1  0.313658  0.750000  0.280436  1
  Tm  Tm7  1  0.673624  0.250000  0.711686  1
  Tm  Tm8  1  0.196616  0.066348  0.060098  1
  Tm  Tm9  1  0.803679  0.934369  0.941353  1
  Tm  Tm10  1  0.305835  0.949181  0.558407  1
  Tm  Tm11  1  0.803679  0.565631  0.941353  1
  Tm  Tm12  1  0.687724  0.071874  0.445391  1
  Tm  Tm13  1  0.196616  0.433652  0.060098  1
  Tm  Tm14  1  0.687724  0.428126  0.445391  1
  Tm  Tm15  1  0.305835  0.550819  0.558407  1
  Sc  Sc16  1  0.037337  0.250000  0.510631  1
  Sc  Sc17  1  0.979321  0.750000  0.489411  1
  Sc  Sc18  1  0.475665  0.750000  0.011730  1
  Sc  Sc19  1  0.525581  0.250000  0.988140  1
  Ga  Ga20  1  0.404641  0.250000  0.539910  1
  Bi  Bi21  1  0.597386  0.750000  0.457645  1
  Bi  Bi22  1  0.098098  0.750000  0.042256  1
  Bi  Bi23  1  0.903922  0.250000  0.954500  1
  Bi  Bi24  1  0.062354  0.002688  0.328394  1
  Bi  Bi25  1  0.935524  0.997833  0.671373  1
  Bi  Bi26  1  0.436097  0.996225  0.828820  1
  Bi  Bi27  1  0.935524  0.502167  0.671373  1
  Bi  Bi28  1  0.563798  0.004476  0.171261  1
  Bi  Bi29  1  0.062354  0.497312  0.328394  1
  Bi  Bi30  1  0.563798  0.495524  0.171261  1
  Bi  Bi31  1  0.436097  0.503775  0.828820  1
