# generated using pymatgen
data_NdErPa2(Al3Ir)6
_symmetry_space_group_name_H-M   'P 1'
_cell_length_a   7.61153760
_cell_length_b   7.61326383
_cell_length_c   9.39932800
_cell_angle_alpha   90.00000000
_cell_angle_beta   90.00000000
_cell_angle_gamma   119.65324129
_symmetry_Int_Tables_number   1
_chemical_formula_structural   NdErPa2(Al3Ir)6
_chemical_formula_sum   'Nd1 Er1 Pa2 Al18 Ir6'
_cell_volume   473.34482413
_cell_formula_units_Z   1
loop_
 _symmetry_equiv_pos_site_id
 _symmetry_equiv_pos_as_xyz
  1  'x, y, z'
loop_
 _atom_site_type_symbol
 _atom_site_label
 _atom_site_symmetry_multiplicity
 _atom_site_fract_x
 _atom_site_fract_y
 _atom_site_fract_z
 _atom_site_occupancy
  Nd  Nd0  1  0.330830  0.006466  0.750000  1
  Er  Er1  1  0.670283  0.993637  0.250000  1
  Pa  Pa2  1  0.997851  0.671531  0.250000  1
  Pa  Pa3  1  0.002144  0.328613  0.750000  1
  Al  Al4  1  0.129768  0.127515  0.250000  1
  Al  Al5  1  0.867618  0.872131  0.750000  1
  Al  Al6  1  0.999810  0.331379  0.077996  1
  Al  Al7  1  0.997978  0.666674  0.924381  1
  Al  Al8  1  0.997978  0.666674  0.575619  1
  Al  Al9  1  0.338897  0.003380  0.422943  1
  Al  Al10  1  0.999810  0.331379  0.422004  1
  Al  Al11  1  0.663390  0.996754  0.572452  1
  Al  Al12  1  0.663390  0.996754  0.927548  1
  Al  Al13  1  0.338897  0.003380  0.077057  1
  Al  Al14  1  0.335041  0.334477  0.550702  1
  Al  Al15  1  0.664852  0.667053  0.445978  1
  Al  Al16  1  0.664852  0.667053  0.054022  1
  Al  Al17  1  0.335041  0.334477  0.949298  1
  Al  Al18  1  0.340948  0.548556  0.250000  1
  Al  Al19  1  0.661296  0.454055  0.750000  1
  Al  Al20  1  0.549596  0.342145  0.250000  1
  Al  Al21  1  0.451258  0.656974  0.750000  1
  Ir  Ir22  1  0.676408  0.330372  0.000528  1
  Ir  Ir23  1  0.324068  0.669683  0.001286  1
  Ir  Ir24  1  0.324068  0.669683  0.498714  1
  Ir  Ir25  1  0.676408  0.330372  0.499472  1
  Ir  Ir26  1  0.998762  0.999416  0.001234  1
  Ir  Ir27  1  0.998762  0.999416  0.498766  1
