# generated using pymatgen
data_Na2Lu(P3Pd10)2
_symmetry_space_group_name_H-M   'P 1'
_cell_length_a   8.59122157
_cell_length_b   8.59122245
_cell_length_c   8.59122100
_cell_angle_alpha   60.00000174
_cell_angle_beta   59.99999833
_cell_angle_gamma   60.00000229
_symmetry_Int_Tables_number   1
_chemical_formula_structural   Na2Lu(P3Pd10)2
_chemical_formula_sum   'Na2 Lu1 P6 Pd20'
_cell_volume   448.38366723
_cell_formula_units_Z   1
loop_
 _symmetry_equiv_pos_site_id
 _symmetry_equiv_pos_as_xyz
  1  'x, y, z'
loop_
 _atom_site_type_symbol
 _atom_site_label
 _atom_site_symmetry_multiplicity
 _atom_site_fract_x
 _atom_site_fract_y
 _atom_site_fract_z
 _atom_site_occupancy
  Na  Na0  1  0.250000  0.250000  0.250000  1
  Na  Na1  1  0.000000  0.000000  0.000000  1
  Lu  Lu2  1  0.750000  0.750000  0.750000  1
  P  P3  1  0.737532  0.262468  0.262468  1
  P  P4  1  0.262468  0.737532  0.737532  1
  P  P5  1  0.262468  0.737532  0.262468  1
  P  P6  1  0.737532  0.262468  0.737532  1
  P  P7  1  0.262468  0.262468  0.737532  1
  P  P8  1  0.737532  0.737532  0.262468  1
  Pd  Pd9  1  0.384331  0.384331  0.384331  1
  Pd  Pd10  1  0.615561  0.615561  0.615561  1
  Pd  Pd11  1  0.384331  0.384331  0.847010  1
  Pd  Pd12  1  0.384331  0.847010  0.384331  1
  Pd  Pd13  1  0.615561  0.615561  0.153318  1
  Pd  Pd14  1  0.615561  0.153318  0.615561  1
  Pd  Pd15  1  0.847010  0.384331  0.384331  1
  Pd  Pd16  1  0.153318  0.615561  0.615561  1
  Pd  Pd17  1  0.347650  0.997899  0.997899  1
  Pd  Pd18  1  0.656552  0.997899  0.997899  1
  Pd  Pd19  1  0.997899  0.347650  0.656552  1
  Pd  Pd20  1  0.997899  0.656552  0.347650  1
  Pd  Pd21  1  0.997899  0.347650  0.997899  1
  Pd  Pd22  1  0.656552  0.997899  0.347650  1
  Pd  Pd23  1  0.997899  0.656552  0.997899  1
  Pd  Pd24  1  0.347650  0.997899  0.656552  1
  Pd  Pd25  1  0.997899  0.997899  0.347650  1
  Pd  Pd26  1  0.997899  0.997899  0.656552  1
  Pd  Pd27  1  0.656552  0.347650  0.997899  1
  Pd  Pd28  1  0.347650  0.656552  0.997899  1
