# generated using pymatgen
data_Nd4Ga4Ir2PdRh
_symmetry_space_group_name_H-M   'P 1'
_cell_length_a   4.46667500
_cell_length_b   7.07996961
_cell_length_c   7.84437591
_cell_angle_alpha   90.02685302
_cell_angle_beta   90.00000000
_cell_angle_gamma   90.00000000
_symmetry_Int_Tables_number   1
_chemical_formula_structural   Nd4Ga4Ir2PdRh
_chemical_formula_sum   'Nd4 Ga4 Ir2 Pd1 Rh1'
_cell_volume   248.06991468
_cell_formula_units_Z   1
loop_
 _symmetry_equiv_pos_site_id
 _symmetry_equiv_pos_as_xyz
  1  'x, y, z'
loop_
 _atom_site_type_symbol
 _atom_site_label
 _atom_site_symmetry_multiplicity
 _atom_site_fract_x
 _atom_site_fract_y
 _atom_site_fract_z
 _atom_site_occupancy
  Nd  Nd0  1  0.250000  0.020730  0.688461  1
  Nd  Nd1  1  0.250000  0.528475  0.807661  1
  Nd  Nd2  1  0.750000  0.978362  0.307491  1
  Nd  Nd3  1  0.750000  0.480337  0.197368  1
  Ga  Ga4  1  0.250000  0.158123  0.076768  1
  Ga  Ga5  1  0.250000  0.659735  0.426418  1
  Ga  Ga6  1  0.750000  0.833914  0.925435  1
  Ga  Ga7  1  0.750000  0.343541  0.571031  1
  Ir  Ir8  1  0.250000  0.278118  0.394863  1
  Ir  Ir9  1  0.750000  0.722262  0.604921  1
  Pd  Pd10  1  0.750000  0.215610  0.897518  1
  Rh  Rh11  1  0.250000  0.780793  0.102067  1
