# generated using pymatgen
data_Th10Sn3Bi4Au
_symmetry_space_group_name_H-M   'P 1'
_cell_length_a   9.69173309
_cell_length_b   9.70113538
_cell_length_c   6.64073806
_cell_angle_alpha   89.99200641
_cell_angle_beta   90.01599678
_cell_angle_gamma   119.96793427
_symmetry_Int_Tables_number   1
_chemical_formula_structural   Th10Sn3Bi4Au
_chemical_formula_sum   'Th10 Sn3 Bi4 Au1'
_cell_volume   540.89281481
_cell_formula_units_Z   1
loop_
 _symmetry_equiv_pos_site_id
 _symmetry_equiv_pos_as_xyz
  1  'x, y, z'
loop_
 _atom_site_type_symbol
 _atom_site_label
 _atom_site_symmetry_multiplicity
 _atom_site_fract_x
 _atom_site_fract_y
 _atom_site_fract_z
 _atom_site_occupancy
  Th  Th0  1  0.999852  0.725972  0.756531  1
  Th  Th1  1  0.273880  0.274028  0.756531  1
  Th  Th2  1  0.330174  0.663138  0.496982  1
  Th  Th3  1  0.667037  0.336862  0.496982  1
  Th  Th4  1  0.727766  0.723280  0.243928  1
  Th  Th5  1  0.727234  0.000000  0.756972  1
  Th  Th6  1  0.004486  0.276720  0.243928  1
  Th  Th7  1  0.271936  0.000000  0.243090  1
  Th  Th8  1  0.330546  0.663127  0.002593  1
  Th  Th9  1  0.667420  0.336873  0.002593  1
  Sn  Sn10  1  0.381460  0.381062  0.251354  1
  Sn  Sn11  1  0.000398  0.618938  0.251354  1
  Sn  Sn12  1  0.999440  0.000000  0.500082  1
  Bi  Bi13  1  0.617920  0.618251  0.748137  1
  Bi  Bi14  1  0.999669  0.381749  0.748137  1
  Bi  Bi15  1  0.382112  0.000000  0.747880  1
  Bi  Bi16  1  0.619048  0.000000  0.251895  1
  Au  Au17  1  0.999621  0.000000  0.001030  1
