# generated using pymatgen
data_Sr9(RhO3)8
_symmetry_space_group_name_H-M   'P 1'
_cell_length_a   15.02019461
_cell_length_b   15.02019459
_cell_length_c   15.02019500
_cell_angle_alpha   38.75622004
_cell_angle_beta   38.75622012
_cell_angle_gamma   38.75621917
_symmetry_Int_Tables_number   1
_chemical_formula_structural   Sr9(RhO3)8
_chemical_formula_sum   'Sr18 Rh16 O48'
_cell_volume   1193.71391171
_cell_formula_units_Z   2
loop_
 _symmetry_equiv_pos_site_id
 _symmetry_equiv_pos_as_xyz
  1  'x, y, z'
loop_
 _atom_site_type_symbol
 _atom_site_label
 _atom_site_symmetry_multiplicity
 _atom_site_fract_x
 _atom_site_fract_y
 _atom_site_fract_z
 _atom_site_occupancy
  Sr  Sr0  1  0.703381  0.035814  0.344773  1
  Sr  Sr1  1  0.464186  0.796619  0.155227  1
  Sr  Sr2  1  0.655227  0.296619  0.964186  1
  Sr  Sr3  1  0.844773  0.535814  0.203381  1
  Sr  Sr4  1  0.964186  0.655227  0.296619  1
  Sr  Sr5  1  0.535814  0.203381  0.844773  1
  Sr  Sr6  1  0.296619  0.964186  0.655227  1
  Sr  Sr7  1  0.203381  0.844773  0.535814  1
  Sr  Sr8  1  0.399773  0.100227  0.750000  1
  Sr  Sr9  1  0.155227  0.464186  0.796619  1
  Sr  Sr10  1  0.750000  0.399773  0.100227  1
  Sr  Sr11  1  0.250000  0.600227  0.899773  1
  Sr  Sr12  1  0.344773  0.703381  0.035814  1
  Sr  Sr13  1  0.600227  0.899773  0.250000  1
  Sr  Sr14  1  0.035814  0.344773  0.703381  1
  Sr  Sr15  1  0.796619  0.155227  0.464186  1
  Sr  Sr16  1  0.899773  0.250000  0.600227  1
  Sr  Sr17  1  0.100227  0.750000  0.399773  1
  Rh  Rh18  1  0.123026  0.123026  0.123026  1
  Rh  Rh19  1  0.562053  0.562053  0.562053  1
  Rh  Rh20  1  0.750000  0.750000  0.750000  1
  Rh  Rh21  1  0.437947  0.437947  0.437947  1
  Rh  Rh22  1  0.876974  0.876974  0.876974  1
  Rh  Rh23  1  0.314699  0.314699  0.314699  1
  Rh  Rh24  1  0.685301  0.685301  0.685301  1
  Rh  Rh25  1  0.062053  0.062053  0.062053  1
  Rh  Rh26  1  0.000000  0.000000  0.000000  1
  Rh  Rh27  1  0.185301  0.185301  0.185301  1
  Rh  Rh28  1  0.814699  0.814699  0.814699  1
  Rh  Rh29  1  0.937947  0.937947  0.937947  1
  Rh  Rh30  1  0.376974  0.376974  0.376974  1
  Rh  Rh31  1  0.623026  0.623026  0.623026  1
  Rh  Rh32  1  0.500000  0.500000  0.500000  1
  Rh  Rh33  1  0.250000  0.250000  0.250000  1
  O  O34  1  0.606805  0.890975  0.849921  1
  O  O35  1  0.066197  0.917742  0.740035  1
  O  O36  1  0.566197  0.240035  0.417742  1
  O  O37  1  0.082258  0.259965  0.933803  1
  O  O38  1  0.893195  0.650079  0.609025  1
  O  O39  1  0.109025  0.150079  0.393195  1
  O  O40  1  0.972473  0.129402  0.804486  1
  O  O41  1  0.849921  0.606805  0.890975  1
  O  O42  1  0.020343  0.706047  0.811607  1
  O  O43  1  0.706047  0.811607  0.020343  1
  O  O44  1  0.259965  0.933803  0.082258  1
  O  O45  1  0.629402  0.472473  0.304486  1
  O  O46  1  0.433803  0.759965  0.582258  1
  O  O47  1  0.027527  0.870598  0.195514  1
  O  O48  1  0.311607  0.206047  0.520343  1
  O  O49  1  0.188393  0.979657  0.293953  1
  O  O50  1  0.106805  0.349921  0.390975  1
  O  O51  1  0.417742  0.566197  0.240035  1
  O  O52  1  0.370598  0.527527  0.695514  1
  O  O53  1  0.520343  0.311607  0.206047  1
  O  O54  1  0.740035  0.066197  0.917742  1
  O  O55  1  0.293953  0.188393  0.979657  1
  O  O56  1  0.695514  0.370598  0.527527  1
  O  O57  1  0.933803  0.082258  0.259965  1
  O  O58  1  0.979657  0.293953  0.188393  1
  O  O59  1  0.650079  0.609025  0.893195  1
  O  O60  1  0.129402  0.804486  0.972473  1
  O  O61  1  0.688393  0.793953  0.479657  1
  O  O62  1  0.917742  0.740035  0.066197  1
  O  O63  1  0.890975  0.849921  0.606805  1
  O  O64  1  0.206047  0.520343  0.311607  1
  O  O65  1  0.804486  0.972473  0.129402  1
  O  O66  1  0.527527  0.695514  0.370598  1
  O  O67  1  0.582258  0.433803  0.759965  1
  O  O68  1  0.811607  0.020343  0.706047  1
  O  O69  1  0.759965  0.582258  0.433803  1
  O  O70  1  0.349921  0.390975  0.106805  1
  O  O71  1  0.870598  0.195514  0.027527  1
  O  O72  1  0.393195  0.109025  0.150079  1
  O  O73  1  0.304486  0.629402  0.472473  1
  O  O74  1  0.479657  0.688393  0.793953  1
  O  O75  1  0.609025  0.893195  0.650079  1
  O  O76  1  0.240035  0.417742  0.566197  1
  O  O77  1  0.150079  0.393195  0.109025  1
  O  O78  1  0.390975  0.106805  0.349921  1
  O  O79  1  0.472473  0.304486  0.629402  1
  O  O80  1  0.793953  0.479657  0.688393  1
  O  O81  1  0.195514  0.027527  0.870598  1
