# generated using pymatgen
data_PrNdTm4(RuO7)2
_symmetry_space_group_name_H-M   'P 1'
_cell_length_a   6.39194320
_cell_length_b   6.39194262
_cell_length_c   7.46649435
_cell_angle_alpha   90.02017061
_cell_angle_beta   90.02017009
_cell_angle_gamma   109.75888395
_symmetry_Int_Tables_number   1
_chemical_formula_structural   PrNdTm4(RuO7)2
_chemical_formula_sum   'Pr1 Nd1 Tm4 Ru2 O14'
_cell_volume   287.09729617
_cell_formula_units_Z   1
loop_
 _symmetry_equiv_pos_site_id
 _symmetry_equiv_pos_as_xyz
  1  'x, y, z'
loop_
 _atom_site_type_symbol
 _atom_site_label
 _atom_site_symmetry_multiplicity
 _atom_site_fract_x
 _atom_site_fract_y
 _atom_site_fract_z
 _atom_site_occupancy
  Pr  Pr0  1  0.000000  0.000000  0.500000  1
  Nd  Nd1  1  0.000000  0.000000  0.000000  1
  Tm  Tm2  1  0.484529  0.935556  0.750433  1
  Tm  Tm3  1  0.515471  0.064444  0.249567  1
  Tm  Tm4  1  0.935556  0.484529  0.750433  1
  Tm  Tm5  1  0.064444  0.515471  0.249567  1
  Ru  Ru6  1  0.500000  0.500000  0.500000  1
  Ru  Ru7  1  0.500000  0.500000  0.000000  1
  O  O8  1  0.592139  0.592139  0.749931  1
  O  O9  1  0.407861  0.407861  0.250069  1
  O  O10  1  0.835675  0.122146  0.751895  1
  O  O11  1  0.164325  0.877854  0.248105  1
  O  O12  1  0.122146  0.835675  0.751895  1
  O  O13  1  0.877854  0.164325  0.248105  1
  O  O14  1  0.440193  0.179323  0.963689  1
  O  O15  1  0.558733  0.820527  0.463584  1
  O  O16  1  0.179323  0.440193  0.963689  1
  O  O17  1  0.820527  0.558733  0.463584  1
  O  O18  1  0.441267  0.179473  0.536416  1
  O  O19  1  0.559807  0.820677  0.036311  1
  O  O20  1  0.820677  0.559807  0.036311  1
  O  O21  1  0.179473  0.441267  0.536416  1
