# generated using pymatgen
data_Hf8Ti9V3Ge16
_symmetry_space_group_name_H-M   'P 1'
_cell_length_a   6.73014844
_cell_length_b   6.86386582
_cell_length_c   13.00601900
_cell_angle_alpha   90.00000000
_cell_angle_beta   90.00000000
_cell_angle_gamma   89.96777874
_symmetry_Int_Tables_number   1
_chemical_formula_structural   Hf8Ti9V3Ge16
_chemical_formula_sum   'Hf8 Ti9 V3 Ge16'
_cell_volume   600.81081746
_cell_formula_units_Z   1
loop_
 _symmetry_equiv_pos_site_id
 _symmetry_equiv_pos_as_xyz
  1  'x, y, z'
loop_
 _atom_site_type_symbol
 _atom_site_label
 _atom_site_symmetry_multiplicity
 _atom_site_fract_x
 _atom_site_fract_y
 _atom_site_fract_z
 _atom_site_occupancy
  Hf  Hf0  1  0.489220  0.675729  0.592688  1
  Hf  Hf1  1  0.990353  0.825654  0.906959  1
  Hf  Hf2  1  0.510270  0.325171  0.094017  1
  Hf  Hf3  1  0.011244  0.174978  0.405906  1
  Hf  Hf4  1  0.510270  0.325171  0.405983  1
  Hf  Hf5  1  0.011244  0.174978  0.094094  1
  Hf  Hf6  1  0.489220  0.675729  0.907312  1
  Hf  Hf7  1  0.990353  0.825654  0.593041  1
  Ti  Ti8  1  0.656198  0.166189  0.625681  1
  Ti  Ti9  1  0.159615  0.332488  0.874660  1
  Ti  Ti10  1  0.341918  0.833348  0.125991  1
  Ti  Ti11  1  0.842864  0.666228  0.373859  1
  Ti  Ti12  1  0.341918  0.833348  0.374009  1
  Ti  Ti13  1  0.842864  0.666228  0.126141  1
  Ti  Ti14  1  0.656198  0.166189  0.874319  1
  Ti  Ti15  1  0.159615  0.332488  0.625340  1
  Ti  Ti16  1  0.830269  0.493969  0.750000  1
  V  V17  1  0.331087  0.006222  0.750000  1
  V  V18  1  0.168605  0.507331  0.250000  1
  V  V19  1  0.668830  0.993188  0.250000  1
  Ge  Ge20  1  0.683002  0.959814  0.458105  1
  Ge  Ge21  1  0.183284  0.540350  0.041778  1
  Ge  Ge22  1  0.316923  0.040259  0.958941  1
  Ge  Ge23  1  0.816724  0.459370  0.540566  1
  Ge  Ge24  1  0.316923  0.040259  0.541059  1
  Ge  Ge25  1  0.816724  0.459370  0.959434  1
  Ge  Ge26  1  0.683002  0.959814  0.041895  1
  Ge  Ge27  1  0.183284  0.540350  0.458222  1
  Ge  Ge28  1  0.459513  0.379569  0.750000  1
  Ge  Ge29  1  0.963098  0.118348  0.750000  1
  Ge  Ge30  1  0.537370  0.619390  0.250000  1
  Ge  Ge31  1  0.037430  0.880642  0.250000  1
  Ge  Ge32  1  0.687428  0.855133  0.750000  1
  Ge  Ge33  1  0.190289  0.647244  0.750000  1
  Ge  Ge34  1  0.311203  0.146204  0.250000  1
  Ge  Ge35  1  0.811644  0.353598  0.250000  1
