# generated using pymatgen
data_Dy2Er5Cd(Co3Sn11)2
_symmetry_space_group_name_H-M   'P 1'
_cell_length_a   9.66371605
_cell_length_b   9.66371619
_cell_length_c   10.00621706
_cell_angle_alpha   90.01080640
_cell_angle_beta   89.98919351
_cell_angle_gamma   119.99436979
_symmetry_Int_Tables_number   1
_chemical_formula_structural   Dy2Er5Cd(Co3Sn11)2
_chemical_formula_sum   'Dy2 Er5 Cd1 Co6 Sn22'
_cell_volume   809.30738791
_cell_formula_units_Z   1
loop_
 _symmetry_equiv_pos_site_id
 _symmetry_equiv_pos_as_xyz
  1  'x, y, z'
loop_
 _atom_site_type_symbol
 _atom_site_label
 _atom_site_symmetry_multiplicity
 _atom_site_fract_x
 _atom_site_fract_y
 _atom_site_fract_z
 _atom_site_occupancy
  Dy  Dy0  1  0.479373  0.520627  0.306077  1
  Dy  Dy1  1  0.000014  0.999986  0.999962  1
  Er  Er2  1  0.520422  0.479578  0.694059  1
  Er  Er3  1  0.479536  0.959076  0.306080  1
  Er  Er4  1  0.520459  0.040859  0.693953  1
  Er  Er5  1  0.040924  0.520464  0.306080  1
  Er  Er6  1  0.959141  0.479541  0.693953  1
  Cd  Cd7  1  0.000004  0.999996  0.500039  1
  Co  Co8  1  0.831743  0.168257  0.197193  1
  Co  Co9  1  0.168230  0.831770  0.802765  1
  Co  Co10  1  0.832025  0.663615  0.197111  1
  Co  Co11  1  0.168265  0.336511  0.802793  1
  Co  Co12  1  0.336385  0.167975  0.197111  1
  Co  Co13  1  0.663489  0.831735  0.802793  1
  Sn  Sn14  1  0.116873  0.883127  0.271410  1
  Sn  Sn15  1  0.883155  0.116845  0.728569  1
  Sn  Sn16  1  0.116502  0.233459  0.271379  1
  Sn  Sn17  1  0.883160  0.766293  0.728536  1
  Sn  Sn18  1  0.766541  0.883498  0.271379  1
  Sn  Sn19  1  0.233707  0.116840  0.728536  1
  Sn  Sn20  1  0.782013  0.217987  0.453740  1
  Sn  Sn21  1  0.218003  0.781997  0.546263  1
  Sn  Sn22  1  0.782384  0.564038  0.453963  1
  Sn  Sn23  1  0.217818  0.435967  0.546441  1
  Sn  Sn24  1  0.435962  0.217616  0.453963  1
  Sn  Sn25  1  0.564033  0.782182  0.546441  1
  Sn  Sn26  1  0.346285  0.999927  0.999978  1
  Sn  Sn27  1  0.653686  0.000015  0.999989  1
  Sn  Sn28  1  0.999985  0.346314  0.999989  1
  Sn  Sn29  1  0.000073  0.653715  0.999978  1
  Sn  Sn30  1  0.653736  0.653741  0.999907  1
  Sn  Sn31  1  0.346259  0.346264  0.999907  1
  Sn  Sn32  1  0.333061  0.666939  0.120799  1
  Sn  Sn33  1  0.666677  0.333323  0.878851  1
  Sn  Sn34  1  0.333307  0.666693  0.818726  1
  Sn  Sn35  1  0.666769  0.333231  0.181283  1
