# generated using pymatgen
data_Pr4Nd2ScCo17P12
_symmetry_space_group_name_H-M   'P 1'
_cell_length_a   3.78841900
_cell_length_b   10.74762100
_cell_length_c   12.53097800
_cell_angle_alpha   90.00000000
_cell_angle_beta   90.00000000
_cell_angle_gamma   90.00000000
_symmetry_Int_Tables_number   1
_chemical_formula_structural   Pr4Nd2ScCo17P12
_chemical_formula_sum   'Pr4 Nd2 Sc1 Co17 P12'
_cell_volume   510.21746049
_cell_formula_units_Z   1
loop_
 _symmetry_equiv_pos_site_id
 _symmetry_equiv_pos_as_xyz
  1  'x, y, z'
loop_
 _atom_site_type_symbol
 _atom_site_label
 _atom_site_symmetry_multiplicity
 _atom_site_fract_x
 _atom_site_fract_y
 _atom_site_fract_z
 _atom_site_occupancy
  Pr  Pr0  1  0.000000  0.500000  0.528478  1
  Pr  Pr1  1  0.500000  0.000000  0.478989  1
  Pr  Pr2  1  0.500000  0.820130  0.207615  1
  Pr  Pr3  1  0.500000  0.179870  0.207615  1
  Nd  Nd4  1  0.000000  0.682933  0.795417  1
  Nd  Nd5  1  0.000000  0.317067  0.795417  1
  Sc  Sc6  1  0.500000  0.500000  0.150032  1
  Co  Co7  1  0.000000  0.000000  0.839119  1
  Co  Co8  1  0.500000  0.500000  0.705772  1
  Co  Co9  1  0.000000  0.000000  0.293787  1
  Co  Co10  1  0.000000  0.500000  0.984098  1
  Co  Co11  1  0.500000  0.000000  0.010476  1
  Co  Co12  1  0.500000  0.326904  0.989940  1
  Co  Co13  1  0.500000  0.673096  0.989940  1
  Co  Co14  1  0.000000  0.161767  0.999706  1
  Co  Co15  1  0.000000  0.838233  0.999706  1
  Co  Co16  1  0.500000  0.295517  0.434306  1
  Co  Co17  1  0.500000  0.704483  0.434306  1
  Co  Co18  1  0.000000  0.202154  0.571776  1
  Co  Co19  1  0.000000  0.797846  0.571776  1
  Co  Co20  1  0.500000  0.882642  0.710140  1
  Co  Co21  1  0.500000  0.117358  0.710140  1
  Co  Co22  1  0.000000  0.619554  0.298519  1
  Co  Co23  1  0.000000  0.380446  0.298519  1
  P  P24  1  0.500000  0.500000  0.885681  1
  P  P25  1  0.000000  0.000000  0.111001  1
  P  P26  1  0.500000  0.500000  0.353087  1
  P  P27  1  0.000000  0.000000  0.660514  1
  P  P28  1  0.500000  0.303445  0.616714  1
  P  P29  1  0.500000  0.696555  0.616714  1
  P  P30  1  0.000000  0.194750  0.389318  1
  P  P31  1  0.000000  0.805250  0.389318  1
  P  P32  1  0.500000  0.852878  0.890737  1
  P  P33  1  0.500000  0.147122  0.890737  1
  P  P34  1  0.000000  0.661582  0.095294  1
  P  P35  1  0.000000  0.338418  0.095294  1
