# generated using pymatgen
data_Ta12Co8Os3WN4
_symmetry_space_group_name_H-M   'P 1'
_cell_length_a   8.06952274
_cell_length_b   8.10220898
_cell_length_c   8.10220800
_cell_angle_alpha   60.00000400
_cell_angle_beta   59.86592123
_cell_angle_gamma   59.86591959
_symmetry_Int_Tables_number   1
_chemical_formula_structural   Ta12Co8Os3WN4
_chemical_formula_sum   'Ta12 Co8 Os3 W1 N4'
_cell_volume   373.81486545
_cell_formula_units_Z   1
loop_
 _symmetry_equiv_pos_site_id
 _symmetry_equiv_pos_as_xyz
  1  'x, y, z'
loop_
 _atom_site_type_symbol
 _atom_site_label
 _atom_site_symmetry_multiplicity
 _atom_site_fract_x
 _atom_site_fract_y
 _atom_site_fract_z
 _atom_site_occupancy
  Ta  Ta0  1  0.804698  0.805659  0.194822  1
  Ta  Ta1  1  0.194578  0.188103  0.808660  1
  Ta  Ta2  1  0.804698  0.194822  0.805659  1
  Ta  Ta3  1  0.194578  0.808660  0.188103  1
  Ta  Ta4  1  0.194578  0.808660  0.808660  1
  Ta  Ta5  1  0.804698  0.194822  0.194822  1
  Ta  Ta6  1  0.445302  0.444341  0.055178  1
  Ta  Ta7  1  0.055422  0.061897  0.441340  1
  Ta  Ta8  1  0.445302  0.055178  0.444341  1
  Ta  Ta9  1  0.055422  0.441340  0.061897  1
  Ta  Ta10  1  0.055422  0.441340  0.441340  1
  Ta  Ta11  1  0.445302  0.055178  0.055178  1
  Co  Co12  1  0.735596  0.421468  0.421468  1
  Co  Co13  1  0.416983  0.743348  0.419835  1
  Co  Co14  1  0.416983  0.419835  0.743348  1
  Co  Co15  1  0.416983  0.419835  0.419835  1
  Co  Co16  1  0.514404  0.828532  0.828532  1
  Co  Co17  1  0.833017  0.506652  0.830165  1
  Co  Co18  1  0.833017  0.830165  0.506652  1
  Co  Co19  1  0.833017  0.830165  0.830165  1
  Os  Os20  1  0.625000  0.125000  0.625000  1
  Os  Os21  1  0.625000  0.625000  0.125000  1
  Os  Os22  1  0.625000  0.625000  0.625000  1
  W  W23  1  0.125000  0.625000  0.625000  1
  N  N24  1  0.625000  0.125000  0.125000  1
  N  N25  1  0.125000  0.625000  0.125000  1
  N  N26  1  0.125000  0.125000  0.625000  1
  N  N27  1  0.125000  0.125000  0.125000  1
