# generated using pymatgen
data_Hf5InPdRh9
_symmetry_space_group_name_H-M   'P 1'
_cell_length_a   4.21663100
_cell_length_b   5.63670746
_cell_length_c   11.06231275
_cell_angle_alpha   88.31775959
_cell_angle_beta   90.00000000
_cell_angle_gamma   90.00000000
_symmetry_Int_Tables_number   1
_chemical_formula_structural   Hf5InPdRh9
_chemical_formula_sum   'Hf5 In1 Pd1 Rh9'
_cell_volume   262.81479337
_cell_formula_units_Z   1
loop_
 _symmetry_equiv_pos_site_id
 _symmetry_equiv_pos_as_xyz
  1  'x, y, z'
loop_
 _atom_site_type_symbol
 _atom_site_label
 _atom_site_symmetry_multiplicity
 _atom_site_fract_x
 _atom_site_fract_y
 _atom_site_fract_z
 _atom_site_occupancy
  Hf  Hf0  1  0.500000  0.185101  0.646843  1
  Hf  Hf1  1  0.500000  0.814899  0.353157  1
  Hf  Hf2  1  0.500000  0.667093  0.853959  1
  Hf  Hf3  1  0.500000  0.332907  0.146041  1
  Hf  Hf4  1  0.000000  0.000000  0.000000  1
  In  In5  1  0.000000  0.500000  0.500000  1
  Pd  Pd6  1  0.000000  0.000000  0.500000  1
  Rh  Rh7  1  0.500000  0.190532  0.892018  1
  Rh  Rh8  1  0.500000  0.809468  0.107982  1
  Rh  Rh9  1  0.500000  0.708399  0.613999  1
  Rh  Rh10  1  0.500000  0.291601  0.386001  1
  Rh  Rh11  1  0.000000  0.429087  0.747481  1
  Rh  Rh12  1  0.000000  0.570913  0.252519  1
  Rh  Rh13  1  0.000000  0.500000  0.000000  1
  Rh  Rh14  1  0.000000  0.074467  0.243870  1
  Rh  Rh15  1  0.000000  0.925533  0.756130  1
