# generated using pymatgen
data_Hf5TaTi4Al12Ir7
_symmetry_space_group_name_H-M   'P 1'
_cell_length_a   8.72094225
_cell_length_b   8.73678612
_cell_length_c   8.73678589
_cell_angle_alpha   59.91705104
_cell_angle_beta   60.06003783
_cell_angle_gamma   60.06004502
_symmetry_Int_Tables_number   1
_chemical_formula_structural   Hf5TaTi4Al12Ir7
_chemical_formula_sum   'Hf5 Ta1 Ti4 Al12 Ir7'
_cell_volume   470.83838554
_cell_formula_units_Z   1
loop_
 _symmetry_equiv_pos_site_id
 _symmetry_equiv_pos_as_xyz
  1  'x, y, z'
loop_
 _atom_site_type_symbol
 _atom_site_label
 _atom_site_symmetry_multiplicity
 _atom_site_fract_x
 _atom_site_fract_y
 _atom_site_fract_z
 _atom_site_occupancy
  Hf  Hf0  1  0.684314  0.687490  0.314135  1
  Hf  Hf1  1  0.314057  0.687478  0.314156  1
  Hf  Hf2  1  0.689699  0.310298  0.310298  1
  Hf  Hf3  1  0.314057  0.314156  0.687478  1
  Hf  Hf4  1  0.684314  0.314135  0.687490  1
  Ta  Ta5  1  0.318699  0.681285  0.681285  1
  Ti  Ti6  1  0.880066  0.879017  0.360849  1
  Ti  Ti7  1  0.880066  0.360849  0.879017  1
  Ti  Ti8  1  0.359956  0.878839  0.878839  1
  Ti  Ti9  1  0.882334  0.878832  0.878832  1
  Al  Al10  1  0.120572  0.118546  0.640282  1
  Al  Al11  1  0.120572  0.640282  0.118546  1
  Al  Al12  1  0.639040  0.119766  0.119766  1
  Al  Al13  1  0.121417  0.119780  0.119780  1
  Al  Al14  1  0.661667  0.662124  0.014583  1
  Al  Al15  1  0.661667  0.014583  0.662124  1
  Al  Al16  1  0.015428  0.662729  0.662729  1
  Al  Al17  1  0.659137  0.662712  0.662712  1
  Al  Al18  1  0.335860  0.339869  0.988397  1
  Al  Al19  1  0.335860  0.988397  0.339869  1
  Al  Al20  1  0.988773  0.337706  0.337706  1
  Al  Al21  1  0.335813  0.337707  0.337707  1
  Ir  Ir22  1  0.999423  0.000491  0.000491  1
  Ir  Ir23  1  0.998820  0.998018  0.502246  1
  Ir  Ir24  1  0.500985  0.998024  0.502169  1
  Ir  Ir25  1  0.996652  0.503347  0.503347  1
  Ir  Ir26  1  0.500985  0.502169  0.998024  1
  Ir  Ir27  1  0.998820  0.502246  0.998018  1
  Ir  Ir28  1  0.500946  0.999130  0.999130  1
