# generated using pymatgen
data_DySc4Co16(MoP4)3
_symmetry_space_group_name_H-M   'P 1'
_cell_length_a   11.95942600
_cell_length_b   11.95942660
_cell_length_c   3.65195200
_cell_angle_alpha   90.00000000
_cell_angle_beta   90.00000000
_cell_angle_gamma   119.99999281
_symmetry_Int_Tables_number   1
_chemical_formula_structural   DySc4Co16(MoP4)3
_chemical_formula_sum   'Dy1 Sc4 Co16 Mo3 P12'
_cell_volume   452.35189858
_cell_formula_units_Z   1
loop_
 _symmetry_equiv_pos_site_id
 _symmetry_equiv_pos_as_xyz
  1  'x, y, z'
loop_
 _atom_site_type_symbol
 _atom_site_label
 _atom_site_symmetry_multiplicity
 _atom_site_fract_x
 _atom_site_fract_y
 _atom_site_fract_z
 _atom_site_occupancy
  Dy  Dy0  1  0.333333  0.666667  0.000000  1
  Sc  Sc1  1  0.666667  0.333333  0.000000  1
  Sc  Sc2  1  0.183515  0.183665  0.500000  1
  Sc  Sc3  1  0.816335  0.999850  0.500000  1
  Sc  Sc4  1  0.000150  0.816485  0.500000  1
  Co  Co5  1  0.822267  0.195706  0.000000  1
  Co  Co6  1  0.804294  0.626562  0.000000  1
  Co  Co7  1  0.373438  0.177733  0.000000  1
  Co  Co8  1  0.195054  0.824690  0.000000  1
  Co  Co9  1  0.629637  0.804946  0.000000  1
  Co  Co10  1  0.175310  0.370363  0.000000  1
  Co  Co11  1  0.646398  0.129533  0.500000  1
  Co  Co12  1  0.870467  0.516867  0.500000  1
  Co  Co13  1  0.483133  0.353602  0.500000  1
  Co  Co14  1  0.125953  0.646766  0.500000  1
  Co  Co15  1  0.520814  0.874047  0.500000  1
  Co  Co16  1  0.353234  0.479186  0.500000  1
  Co  Co17  1  0.722868  0.720885  0.500000  1
  Co  Co18  1  0.279115  0.001983  0.500000  1
  Co  Co19  1  0.998017  0.277132  0.500000  1
  Co  Co20  1  0.000000  0.000000  0.000000  1
  Mo  Mo21  1  0.552817  0.551539  0.000000  1
  Mo  Mo22  1  0.448461  0.001278  0.000000  1
  Mo  Mo23  1  0.998722  0.447183  0.000000  1
  P  P24  1  0.355915  0.355824  0.000000  1
  P  P25  1  0.644176  0.000091  0.000000  1
  P  P26  1  0.999909  0.644085  0.000000  1
  P  P27  1  0.831569  0.314477  0.500000  1
  P  P28  1  0.685523  0.517091  0.500000  1
  P  P29  1  0.482909  0.168431  0.500000  1
  P  P30  1  0.314246  0.836169  0.500000  1
  P  P31  1  0.521923  0.685754  0.500000  1
  P  P32  1  0.163831  0.478077  0.500000  1
  P  P33  1  0.825866  0.824547  0.000000  1
  P  P34  1  0.175453  0.001319  0.000000  1
  P  P35  1  0.998681  0.174134  0.000000  1
