# generated using pymatgen
data_Ac16Er4In11Pb5
_symmetry_space_group_name_H-M   'P 1'
_cell_length_a   8.47831551
_cell_length_b   16.90053743
_cell_length_c   9.10138400
_cell_angle_alpha   90.07013596
_cell_angle_beta   90.07097845
_cell_angle_gamma   90.11444000
_symmetry_Int_Tables_number   1
_chemical_formula_structural   Ac16Er4In11Pb5
_chemical_formula_sum   'Ac16 Er4 In11 Pb5'
_cell_volume   1304.11533306
_cell_formula_units_Z   1
loop_
 _symmetry_equiv_pos_site_id
 _symmetry_equiv_pos_as_xyz
  1  'x, y, z'
loop_
 _atom_site_type_symbol
 _atom_site_label
 _atom_site_symmetry_multiplicity
 _atom_site_fract_x
 _atom_site_fract_y
 _atom_site_fract_z
 _atom_site_occupancy
  Ac  Ac0  1  0.665791  0.627895  0.164609  1
  Ac  Ac1  1  0.166834  0.873448  0.331647  1
  Ac  Ac2  1  0.330952  0.126389  0.831284  1
  Ac  Ac3  1  0.837209  0.372726  0.671325  1
  Ac  Ac4  1  0.342154  0.371942  0.832880  1
  Ac  Ac5  1  0.840450  0.126835  0.670776  1
  Ac  Ac6  1  0.659655  0.872667  0.168366  1
  Ac  Ac7  1  0.161003  0.627097  0.329070  1
  Ac  Ac8  1  0.501474  0.595543  0.687950  1
  Ac  Ac9  1  0.005957  0.906135  0.810408  1
  Ac  Ac10  1  0.492614  0.092411  0.312370  1
  Ac  Ac11  1  0.995443  0.405352  0.189263  1
  Ac  Ac12  1  0.500992  0.405395  0.309660  1
  Ac  Ac13  1  0.998617  0.094105  0.188043  1
  Ac  Ac14  1  0.498948  0.905237  0.686652  1
  Ac  Ac15  1  0.000320  0.595346  0.814071  1
  Er  Er16  1  0.822296  0.751806  0.522279  1
  Er  Er17  1  0.321679  0.751269  0.977153  1
  Er  Er18  1  0.179370  0.249827  0.475830  1
  Er  Er19  1  0.677127  0.249038  0.026124  1
  In  In20  1  0.677526  0.456418  0.969148  1
  In  In21  1  0.174768  0.043676  0.530315  1
  In  In22  1  0.324023  0.955574  0.029641  1
  In  In23  1  0.468674  0.747976  0.412423  1
  In  In24  1  0.969305  0.753291  0.085649  1
  In  In25  1  0.532547  0.246840  0.587907  1
  In  In26  1  0.030799  0.253069  0.916650  1
  In  In27  1  0.704639  0.750607  0.855325  1
  In  In28  1  0.203157  0.748938  0.641368  1
  In  In29  1  0.295572  0.249816  0.142587  1
  In  In30  1  0.796821  0.250007  0.360555  1
  Pb  Pb31  1  0.819324  0.544028  0.468521  1
  Pb  Pb32  1  0.325761  0.542605  0.030715  1
  Pb  Pb33  1  0.826001  0.957441  0.468465  1
  Pb  Pb34  1  0.671105  0.043264  0.969704  1
  Pb  Pb35  1  0.181090  0.455988  0.531267  1
