# generated using pymatgen
data_DyU2Ga3IrRu2
_symmetry_space_group_name_H-M   'P 1'
_cell_length_a   6.86675700
_cell_length_b   7.14911929
_cell_length_c   3.91761100
_cell_angle_alpha   90.00000000
_cell_angle_beta   90.00000000
_cell_angle_gamma   118.70184504
_symmetry_Int_Tables_number   1
_chemical_formula_structural   DyU2Ga3IrRu2
_chemical_formula_sum   'Dy1 U2 Ga3 Ir1 Ru2'
_cell_volume   168.69019660
_cell_formula_units_Z   1
loop_
 _symmetry_equiv_pos_site_id
 _symmetry_equiv_pos_as_xyz
  1  'x, y, z'
loop_
 _atom_site_type_symbol
 _atom_site_label
 _atom_site_symmetry_multiplicity
 _atom_site_fract_x
 _atom_site_fract_y
 _atom_site_fract_z
 _atom_site_occupancy
  Dy  Dy0  1  0.412081  0.000000  0.500000  1
  U  U1  1  0.998509  0.417004  0.500000  1
  U  U2  1  0.581506  0.582996  0.500000  1
  Ga  Ga3  1  0.736896  0.000000  0.000000  1
  Ga  Ga4  1  0.015505  0.769912  0.000000  1
  Ga  Ga5  1  0.245593  0.230088  0.000000  1
  Ir  Ir6  1  0.978005  0.000000  0.500000  1
  Ru  Ru7  1  0.329058  0.626211  0.000000  1
  Ru  Ru8  1  0.702848  0.373789  0.000000  1
