# generated using pymatgen
data_Ca2NdHo(Ru2O7)2
_symmetry_space_group_name_H-M   'P 1'
_cell_length_a   7.25719951
_cell_length_b   7.30215918
_cell_length_c   7.28657571
_cell_angle_alpha   60.32842814
_cell_angle_beta   60.13327275
_cell_angle_gamma   60.20346804
_symmetry_Int_Tables_number   1
_chemical_formula_structural   Ca2NdHo(Ru2O7)2
_chemical_formula_sum   'Ca2 Nd1 Ho1 Ru4 O14'
_cell_volume   274.41064307
_cell_formula_units_Z   1
loop_
 _symmetry_equiv_pos_site_id
 _symmetry_equiv_pos_as_xyz
  1  'x, y, z'
loop_
 _atom_site_type_symbol
 _atom_site_label
 _atom_site_symmetry_multiplicity
 _atom_site_fract_x
 _atom_site_fract_y
 _atom_site_fract_z
 _atom_site_occupancy
  Ca  Ca0  1  0.125000  0.625000  0.625000  1
  Ca  Ca1  1  0.625000  0.625000  0.625000  1
  Nd  Nd2  1  0.625000  0.625000  0.125000  1
  Ho  Ho3  1  0.625000  0.125000  0.625000  1
  Ru  Ru4  1  0.625000  0.125000  0.125000  1
  Ru  Ru5  1  0.125000  0.625000  0.125000  1
  Ru  Ru6  1  0.125000  0.125000  0.625000  1
  Ru  Ru7  1  0.125000  0.125000  0.125000  1
  O  O8  1  0.204423  0.194571  0.801377  1
  O  O9  1  0.199983  0.800657  0.200675  1
  O  O10  1  0.454604  0.050510  0.040282  1
  O  O11  1  0.193651  0.805430  0.807268  1
  O  O12  1  0.056349  0.444570  0.442732  1
  O  O13  1  0.798685  0.800657  0.200675  1
  O  O14  1  0.451315  0.449343  0.049325  1
  O  O15  1  0.502223  0.487399  0.508156  1
  O  O16  1  0.045577  0.055429  0.448623  1
  O  O17  1  0.450372  0.055429  0.448623  1
  O  O18  1  0.050017  0.449343  0.049325  1
  O  O19  1  0.747777  0.762601  0.741844  1
  O  O20  1  0.799628  0.194571  0.801377  1
  O  O21  1  0.795396  0.199490  0.209718  1
