# generated using pymatgen
data_SmTmB6Ru
_symmetry_space_group_name_H-M   'P 1'
_cell_length_a   3.67181500
_cell_length_b   9.14305400
_cell_length_c   11.55481100
_cell_angle_alpha   90.00000000
_cell_angle_beta   90.00000000
_cell_angle_gamma   90.00000000
_symmetry_Int_Tables_number   1
_chemical_formula_structural   SmTmB6Ru
_chemical_formula_sum   'Sm4 Tm4 B24 Ru4'
_cell_volume   387.91352559
_cell_formula_units_Z   4
loop_
 _symmetry_equiv_pos_site_id
 _symmetry_equiv_pos_as_xyz
  1  'x, y, z'
loop_
 _atom_site_type_symbol
 _atom_site_label
 _atom_site_symmetry_multiplicity
 _atom_site_fract_x
 _atom_site_fract_y
 _atom_site_fract_z
 _atom_site_occupancy
  Sm  Sm0  1  0.000000  0.322469  0.414243  1
  Sm  Sm1  1  0.000000  0.677531  0.585757  1
  Sm  Sm2  1  0.000000  0.822469  0.085757  1
  Sm  Sm3  1  0.000000  0.177531  0.914243  1
  Tm  Tm4  1  0.000000  0.944045  0.372162  1
  Tm  Tm5  1  0.000000  0.055955  0.627838  1
  Tm  Tm6  1  0.000000  0.444045  0.127838  1
  Tm  Tm7  1  0.000000  0.555955  0.872162  1
  B  B8  1  0.500000  0.555613  0.431348  1
  B  B9  1  0.500000  0.444387  0.568652  1
  B  B10  1  0.500000  0.055613  0.068652  1
  B  B11  1  0.500000  0.944387  0.931348  1
  B  B12  1  0.500000  0.749966  0.418131  1
  B  B13  1  0.500000  0.250034  0.581869  1
  B  B14  1  0.500000  0.249966  0.081869  1
  B  B15  1  0.500000  0.750034  0.918131  1
  B  B16  1  0.500000  0.791269  0.266416  1
  B  B17  1  0.500000  0.208731  0.733584  1
  B  B18  1  0.500000  0.291269  0.233584  1
  B  B19  1  0.500000  0.708731  0.766416  1
  B  B20  1  0.500000  0.630791  0.184694  1
  B  B21  1  0.500000  0.369209  0.815306  1
  B  B22  1  0.500000  0.130791  0.315306  1
  B  B23  1  0.500000  0.869209  0.684694  1
  B  B24  1  0.500000  0.984675  0.214019  1
  B  B25  1  0.500000  0.015325  0.785981  1
  B  B26  1  0.500000  0.484675  0.285981  1
  B  B27  1  0.500000  0.515325  0.714019  1
  B  B28  1  0.500000  0.602688  0.028100  1
  B  B29  1  0.500000  0.397312  0.971900  1
  B  B30  1  0.500000  0.102688  0.471900  1
  B  B31  1  0.500000  0.897312  0.528100  1
  Ru  Ru32  1  0.000000  0.639203  0.319602  1
  Ru  Ru33  1  0.000000  0.360797  0.680398  1
  Ru  Ru34  1  0.000000  0.139203  0.180398  1
  Ru  Ru35  1  0.000000  0.860797  0.819602  1
