# generated using pymatgen
data_Nb4Fe3Si4Rh
_symmetry_space_group_name_H-M   'P 1'
_cell_length_a   3.74058300
_cell_length_b   6.29417136
_cell_length_c   7.13321895
_cell_angle_alpha   90.66380352
_cell_angle_beta   90.00000000
_cell_angle_gamma   90.00000000
_symmetry_Int_Tables_number   1
_chemical_formula_structural   Nb4Fe3Si4Rh
_chemical_formula_sum   'Nb4 Fe3 Si4 Rh1'
_cell_volume   167.93231162
_cell_formula_units_Z   1
loop_
 _symmetry_equiv_pos_site_id
 _symmetry_equiv_pos_as_xyz
  1  'x, y, z'
loop_
 _atom_site_type_symbol
 _atom_site_label
 _atom_site_symmetry_multiplicity
 _atom_site_fract_x
 _atom_site_fract_y
 _atom_site_fract_z
 _atom_site_occupancy
  Nb  Nb0  1  0.250000  0.512950  0.179241  1
  Nb  Nb1  1  0.750000  0.475506  0.825432  1
  Nb  Nb2  1  0.750000  0.985947  0.688967  1
  Nb  Nb3  1  0.250000  0.024359  0.312155  1
  Fe  Fe4  1  0.750000  0.352502  0.434067  1
  Fe  Fe5  1  0.750000  0.856516  0.062374  1
  Fe  Fe6  1  0.250000  0.145575  0.936235  1
  Si  Si7  1  0.250000  0.779378  0.891763  1
  Si  Si8  1  0.750000  0.219064  0.116396  1
  Si  Si9  1  0.750000  0.727323  0.370221  1
  Si  Si10  1  0.250000  0.272267  0.619016  1
  Rh  Rh11  1  0.250000  0.648613  0.564133  1
