# generated using pymatgen
data_Tb2YIn3Ga2Rh
_symmetry_space_group_name_H-M   'P 1'
_cell_length_a   7.29208400
_cell_length_b   7.27922039
_cell_length_c   4.42050100
_cell_angle_alpha   90.00000000
_cell_angle_beta   90.00000000
_cell_angle_gamma   120.05847469
_symmetry_Int_Tables_number   1
_chemical_formula_structural   Tb2YIn3Ga2Rh
_chemical_formula_sum   'Tb2 Y1 In3 Ga2 Rh1'
_cell_volume   203.08715490
_cell_formula_units_Z   1
loop_
 _symmetry_equiv_pos_site_id
 _symmetry_equiv_pos_as_xyz
  1  'x, y, z'
loop_
 _atom_site_type_symbol
 _atom_site_label
 _atom_site_symmetry_multiplicity
 _atom_site_fract_x
 _atom_site_fract_y
 _atom_site_fract_z
 _atom_site_occupancy
  Tb  Tb0  1  0.000113  0.594059  0.500000  1
  Tb  Tb1  1  0.406054  0.405941  0.500000  1
  Y  Y2  1  0.593635  0.000000  0.500000  1
  In  In3  1  0.999803  0.245815  0.000000  1
  In  In4  1  0.246112  0.000000  0.000000  1
  In  In5  1  0.753988  0.754185  0.000000  1
  Ga  Ga6  1  0.333183  0.666660  0.000000  1
  Ga  Ga7  1  0.666525  0.333340  0.000000  1
  Rh  Rh8  1  0.000587  0.000000  0.500000  1
