# generated using pymatgen
data_PrNd2Dy3(RuBr3)2
_symmetry_space_group_name_H-M   'P 1'
_cell_length_a   4.20037800
_cell_length_b   8.71413763
_cell_length_c   12.07028276
_cell_angle_alpha   86.56461977
_cell_angle_beta   90.00000000
_cell_angle_gamma   90.00000000
_symmetry_Int_Tables_number   1
_chemical_formula_structural   PrNd2Dy3(RuBr3)2
_chemical_formula_sum   'Pr1 Nd2 Dy3 Ru2 Br6'
_cell_volume   441.01068488
_cell_formula_units_Z   1
loop_
 _symmetry_equiv_pos_site_id
 _symmetry_equiv_pos_as_xyz
  1  'x, y, z'
loop_
 _atom_site_type_symbol
 _atom_site_label
 _atom_site_symmetry_multiplicity
 _atom_site_fract_x
 _atom_site_fract_y
 _atom_site_fract_z
 _atom_site_occupancy
  Pr  Pr0  1  0.750000  0.110138  0.168461  1
  Nd  Nd1  1  0.250000  0.284893  0.400130  1
  Nd  Nd2  1  0.750000  0.713508  0.603915  1
  Dy  Dy3  1  0.250000  0.872979  0.369546  1
  Dy  Dy4  1  0.750000  0.124069  0.630291  1
  Dy  Dy5  1  0.250000  0.891210  0.823448  1
  Ru  Ru6  1  0.250000  0.936676  0.597026  1
  Ru  Ru7  1  0.750000  0.060993  0.403207  1
  Br  Br8  1  0.250000  0.417853  0.637959  1
  Br  Br9  1  0.750000  0.580787  0.368436  1
  Br  Br10  1  0.250000  0.869843  0.105156  1
  Br  Br11  1  0.750000  0.116633  0.887129  1
  Br  Br12  1  0.250000  0.357128  0.144178  1
  Br  Br13  1  0.750000  0.663289  0.861121  1
