# generated using pymatgen
data_La6YOsPd2
_symmetry_space_group_name_H-M   'P 1'
_cell_length_a   10.37660400
_cell_length_b   10.24432681
_cell_length_c   6.52006935
_cell_angle_alpha   89.96670481
_cell_angle_beta   90.00128447
_cell_angle_gamma   120.42897181
_symmetry_Int_Tables_number   1
_chemical_formula_structural   La6YOsPd2
_chemical_formula_sum   'La12 Y2 Os2 Pd4'
_cell_volume   597.62376657
_cell_formula_units_Z   2
loop_
 _symmetry_equiv_pos_site_id
 _symmetry_equiv_pos_as_xyz
  1  'x, y, z'
loop_
 _atom_site_type_symbol
 _atom_site_label
 _atom_site_symmetry_multiplicity
 _atom_site_fract_x
 _atom_site_fract_y
 _atom_site_fract_z
 _atom_site_occupancy
  La  La0  1  0.136081  0.884348  0.243221  1
  La  La1  1  0.748264  0.884349  0.243223  1
  La  La2  1  0.123524  0.247053  0.244368  1
  La  La3  1  0.870783  0.128973  0.760732  1
  La  La4  1  0.258195  0.128973  0.760728  1
  La  La5  1  0.871058  0.742127  0.744071  1
  La  La6  1  0.533720  0.451695  0.436266  1
  La  La7  1  0.917985  0.451702  0.436246  1
  La  La8  1  0.543134  0.086268  0.430719  1
  La  La9  1  0.460862  0.533576  0.948407  1
  La  La10  1  0.072715  0.533575  0.948410  1
  La  La11  1  0.464135  0.928266  0.944284  1
  Y  Y12  1  0.333895  0.667790  0.455797  1
  Y  Y13  1  0.664562  0.329118  0.971322  1
  Os  Os14  1  0.814492  0.189376  0.183270  1
  Os  Os15  1  0.374887  0.189376  0.183276  1
  Pd  Pd16  1  0.813006  0.626020  0.186593  1
  Pd  Pd17  1  0.188485  0.806937  0.688637  1
  Pd  Pd18  1  0.618449  0.806947  0.688631  1
  Pd  Pd19  1  0.191768  0.383533  0.687586  1
