# generated using pymatgen
data_Tm3U(Al3Ir)6
_symmetry_space_group_name_H-M   'P 1'
_cell_length_a   7.55974025
_cell_length_b   7.55194529
_cell_length_c   9.41378100
_cell_angle_alpha   90.00000000
_cell_angle_beta   90.00000000
_cell_angle_gamma   119.55060632
_symmetry_Int_Tables_number   1
_chemical_formula_structural   Tm3U(Al3Ir)6
_chemical_formula_sum   'Tm3 U1 Al18 Ir6'
_cell_volume   467.52983191
_cell_formula_units_Z   1
loop_
 _symmetry_equiv_pos_site_id
 _symmetry_equiv_pos_as_xyz
  1  'x, y, z'
loop_
 _atom_site_type_symbol
 _atom_site_label
 _atom_site_symmetry_multiplicity
 _atom_site_fract_x
 _atom_site_fract_y
 _atom_site_fract_z
 _atom_site_occupancy
  Tm  Tm0  1  0.005456  0.329892  0.750000  1
  Tm  Tm1  1  0.671764  0.995122  0.250000  1
  Tm  Tm2  1  0.328517  0.004125  0.750000  1
  U  U3  1  0.995910  0.671113  0.250000  1
  Al  Al4  1  0.129948  0.129681  0.250000  1
  Al  Al5  1  0.873406  0.873886  0.750000  1
  Al  Al6  1  0.000211  0.333236  0.075049  1
  Al  Al7  1  0.999211  0.664653  0.924337  1
  Al  Al8  1  0.999211  0.664653  0.575663  1
  Al  Al9  1  0.337749  0.002726  0.424858  1
  Al  Al10  1  0.000211  0.333236  0.424951  1
  Al  Al11  1  0.664938  0.999815  0.575958  1
  Al  Al12  1  0.664938  0.999815  0.924042  1
  Al  Al13  1  0.337749  0.002726  0.075142  1
  Al  Al14  1  0.332559  0.332644  0.555177  1
  Al  Al15  1  0.664624  0.666621  0.447096  1
  Al  Al16  1  0.664624  0.666621  0.052904  1
  Al  Al17  1  0.332559  0.332644  0.944823  1
  Al  Al18  1  0.339693  0.547700  0.250000  1
  Al  Al19  1  0.660446  0.449908  0.750000  1
  Al  Al20  1  0.547419  0.340063  0.250000  1
  Al  Al21  1  0.450986  0.660812  0.750000  1
  Ir  Ir22  1  0.672164  0.328076  0.000924  1
  Ir  Ir23  1  0.327127  0.672007  0.001131  1
  Ir  Ir24  1  0.327127  0.672007  0.498869  1
  Ir  Ir25  1  0.672164  0.328076  0.499076  1
  Ir  Ir26  1  0.999645  0.999072  0.001537  1
  Ir  Ir27  1  0.999645  0.999072  0.498463  1
