# generated using pymatgen
data_Y2Mn3Co8NiAs7
_symmetry_space_group_name_H-M   'P 1'
_cell_length_a   3.76518300
_cell_length_b   9.47238933
_cell_length_c   9.48447672
_cell_angle_alpha   119.97313002
_cell_angle_beta   90.00000000
_cell_angle_gamma   90.00000000
_symmetry_Int_Tables_number   1
_chemical_formula_structural   Y2Mn3Co8NiAs7
_chemical_formula_sum   'Y2 Mn3 Co8 Ni1 As7'
_cell_volume   293.02667818
_cell_formula_units_Z   1
loop_
 _symmetry_equiv_pos_site_id
 _symmetry_equiv_pos_as_xyz
  1  'x, y, z'
loop_
 _atom_site_type_symbol
 _atom_site_label
 _atom_site_symmetry_multiplicity
 _atom_site_fract_x
 _atom_site_fract_y
 _atom_site_fract_z
 _atom_site_occupancy
  Y  Y0  1  0.000000  0.666766  0.335235  1
  Y  Y1  1  0.500000  0.332417  0.665417  1
  Mn  Mn2  1  0.500000  0.781392  0.896688  1
  Mn  Mn3  1  0.500000  0.115955  0.220294  1
  Mn  Mn4  1  0.500000  0.103446  0.883786  1
  Co  Co5  1  0.000000  0.367786  0.427566  1
  Co  Co6  1  0.000000  0.059785  0.630630  1
  Co  Co7  1  0.000000  0.879933  0.158104  1
  Co  Co8  1  0.000000  0.277586  0.119040  1
  Co  Co9  1  0.000000  0.841683  0.722861  1
  Co  Co10  1  0.500000  0.950699  0.385379  1
  Co  Co11  1  0.500000  0.435646  0.050064  1
  Co  Co12  1  0.500000  0.616247  0.564934  1
  Ni  Ni13  1  0.000000  0.570093  0.939198  1
  As  As14  1  0.000000  0.000490  0.000301  1
  As  As15  1  0.500000  0.712491  0.122836  1
  As  As16  1  0.500000  0.408710  0.290116  1
  As  As17  1  0.500000  0.882777  0.591578  1
  As  As18  1  0.000000  0.584286  0.695137  1
  As  As19  1  0.000000  0.113460  0.414712  1
  As  As20  1  0.000000  0.298353  0.886124  1
