# generated using pymatgen
data_Sc2ZnCo2B2Ir3
_symmetry_space_group_name_H-M   'P 1'
_cell_length_a   9.16020947
_cell_length_b   9.15400847
_cell_length_c   3.02774800
_cell_angle_alpha   90.00000000
_cell_angle_beta   90.00000000
_cell_angle_gamma   90.12520205
_symmetry_Int_Tables_number   1
_chemical_formula_structural   Sc2ZnCo2B2Ir3
_chemical_formula_sum   'Sc4 Zn2 Co4 B4 Ir6'
_cell_volume   253.88404175
_cell_formula_units_Z   2
loop_
 _symmetry_equiv_pos_site_id
 _symmetry_equiv_pos_as_xyz
  1  'x, y, z'
loop_
 _atom_site_type_symbol
 _atom_site_label
 _atom_site_symmetry_multiplicity
 _atom_site_fract_x
 _atom_site_fract_y
 _atom_site_fract_z
 _atom_site_occupancy
  Sc  Sc0  1  0.675881  0.174760  0.000000  1
  Sc  Sc1  1  0.169916  0.318026  0.000000  1
  Sc  Sc2  1  0.825331  0.673174  0.000000  1
  Sc  Sc3  1  0.322325  0.829555  0.000000  1
  Zn  Zn4  1  0.009868  0.017845  0.000000  1
  Zn  Zn5  1  0.501855  0.496701  0.000000  1
  Co  Co6  1  0.496283  0.999739  0.500001  1
  Co  Co7  1  0.226178  0.065354  0.500001  1
  Co  Co8  1  0.934643  0.226348  0.500001  1
  Co  Co9  1  0.000231  0.496530  0.500001  1
  B  B10  1  0.374661  0.111687  0.000000  1
  B  B11  1  0.888700  0.374309  0.000000  1
  B  B12  1  0.114321  0.616256  0.000000  1
  B  B13  1  0.616953  0.887228  0.000000  1
  Ir  Ir14  1  0.429537  0.273831  0.500001  1
  Ir  Ir15  1  0.725805  0.429806  0.500001  1
  Ir  Ir16  1  0.277762  0.563056  0.500001  1
  Ir  Ir17  1  0.564415  0.722067  0.500001  1
  Ir  Ir18  1  0.063195  0.782958  0.500001  1
  Ir  Ir19  1  0.782138  0.940767  0.500001  1
