# generated using pymatgen
data_Ca2Mn4Co2Ni6As7
_symmetry_space_group_name_H-M   'P 1'
_cell_length_a   9.61383690
_cell_length_b   9.50613467
_cell_length_c   3.83345500
_cell_angle_alpha   90.00000000
_cell_angle_beta   90.00000000
_cell_angle_gamma   120.16522012
_symmetry_Int_Tables_number   1
_chemical_formula_structural   Ca2Mn4Co2Ni6As7
_chemical_formula_sum   'Ca2 Mn4 Co2 Ni6 As7'
_cell_volume   302.89789878
_cell_formula_units_Z   1
loop_
 _symmetry_equiv_pos_site_id
 _symmetry_equiv_pos_as_xyz
  1  'x, y, z'
loop_
 _atom_site_type_symbol
 _atom_site_label
 _atom_site_symmetry_multiplicity
 _atom_site_fract_x
 _atom_site_fract_y
 _atom_site_fract_z
 _atom_site_occupancy
  Ca  Ca0  1  0.993444  0.998431  0.000000  1
  Ca  Ca1  1  0.671627  0.335757  0.500000  1
  Mn  Mn2  1  0.285081  0.044157  0.500000  1
  Mn  Mn3  1  0.431282  0.547810  0.500000  1
  Mn  Mn4  1  0.119510  0.573053  0.500000  1
  Mn  Mn5  1  0.458684  0.887772  0.500000  1
  Co  Co6  1  0.757186  0.711973  0.500000  1
  Co  Co7  1  0.954762  0.241503  0.500000  1
  Ni  Ni8  1  0.387905  0.288423  0.000000  1
  Ni  Ni9  1  0.899574  0.606932  0.000000  1
  Ni  Ni10  1  0.711189  0.097039  0.000000  1
  Ni  Ni11  1  0.610850  0.789117  0.000000  1
  Ni  Ni12  1  0.178397  0.389085  0.000000  1
  Ni  Ni13  1  0.208563  0.824321  0.000000  1
  As  As14  1  0.628845  0.550640  0.000000  1
  As  As15  1  0.923747  0.369489  0.000000  1
  As  As16  1  0.456591  0.078207  0.000000  1
  As  As17  1  0.745654  0.961297  0.500000  1
  As  As18  1  0.212740  0.254985  0.500000  1
  As  As19  1  0.030209  0.780210  0.500000  1
  As  As20  1  0.334158  0.669798  0.000000  1
