# generated using pymatgen
data_Lu4ScGa2Bi
_symmetry_space_group_name_H-M   'P 1'
_cell_length_a   8.52417083
_cell_length_b   8.51571051
_cell_length_c   6.30719124
_cell_angle_alpha   89.79270533
_cell_angle_beta   90.10354434
_cell_angle_gamma   119.96717113
_symmetry_Int_Tables_number   1
_chemical_formula_structural   Lu4ScGa2Bi
_chemical_formula_sum   'Lu8 Sc2 Ga4 Bi2'
_cell_volume   396.62528283
_cell_formula_units_Z   2
loop_
 _symmetry_equiv_pos_site_id
 _symmetry_equiv_pos_as_xyz
  1  'x, y, z'
loop_
 _atom_site_type_symbol
 _atom_site_label
 _atom_site_symmetry_multiplicity
 _atom_site_fract_x
 _atom_site_fract_y
 _atom_site_fract_z
 _atom_site_occupancy
  Lu  Lu0  1  0.304933  0.652467  0.000000  1
  Lu  Lu1  1  0.668087  0.334043  0.500000  1
  Lu  Lu2  1  0.231839  0.000428  0.249241  1
  Lu  Lu3  1  0.231839  0.231411  0.750759  1
  Lu  Lu4  1  0.017191  0.767524  0.746546  1
  Lu  Lu5  1  0.017191  0.249665  0.253454  1
  Lu  Lu6  1  0.768049  0.748861  0.247590  1
  Lu  Lu7  1  0.768049  0.019187  0.752410  1
  Sc  Sc8  1  0.678251  0.339125  0.000000  1
  Sc  Sc9  1  0.307261  0.653631  0.500000  1
  Ga  Ga10  1  0.997759  0.401507  0.744811  1
  Ga  Ga11  1  0.997759  0.596252  0.255189  1
  Ga  Ga12  1  0.403663  0.399227  0.246791  1
  Ga  Ga13  1  0.403663  0.004436  0.753209  1
  Bi  Bi14  1  0.602234  0.992652  0.249406  1
  Bi  Bi15  1  0.602234  0.609582  0.750594  1
