# generated using pymatgen
data_SrPr2(SiSe4)2
_symmetry_space_group_name_H-M   'P 1'
_cell_length_a   10.79513426
_cell_length_b   10.87042749
_cell_length_c   10.87042800
_cell_angle_alpha   51.64530888
_cell_angle_beta   51.58086303
_cell_angle_gamma   51.58086306
_symmetry_Int_Tables_number   1
_chemical_formula_structural   SrPr2(SiSe4)2
_chemical_formula_sum   'Sr2 Pr4 Si4 Se16'
_cell_volume   723.71512939
_cell_formula_units_Z   2
loop_
 _symmetry_equiv_pos_site_id
 _symmetry_equiv_pos_as_xyz
  1  'x, y, z'
loop_
 _atom_site_type_symbol
 _atom_site_label
 _atom_site_symmetry_multiplicity
 _atom_site_fract_x
 _atom_site_fract_y
 _atom_site_fract_z
 _atom_site_occupancy
  Sr  Sr0  1  0.590600  0.912538  0.251782  1
  Sr  Sr1  1  0.090600  0.751782  0.412538  1
  Pr  Pr2  1  0.245576  0.558738  0.939721  1
  Pr  Pr3  1  0.437936  0.061272  0.751604  1
  Pr  Pr4  1  0.745576  0.439721  0.058738  1
  Pr  Pr5  1  0.937936  0.251604  0.561272  1
  Si  Si6  1  0.844263  0.847716  0.828610  1
  Si  Si7  1  0.653827  0.652710  0.673072  1
  Si  Si8  1  0.344263  0.328610  0.347716  1
  Si  Si9  1  0.153827  0.173072  0.152710  1
  Se  Se10  1  0.214868  0.971423  0.388638  1
  Se  Se11  1  0.714868  0.888638  0.471423  1
  Se  Se12  1  0.440950  0.408137  0.416834  1
  Se  Se13  1  0.271951  0.103147  0.578013  1
  Se  Se14  1  0.940949  0.916835  0.908137  1
  Se  Se15  1  0.052528  0.606617  0.777167  1
  Se  Se16  1  0.573892  0.566349  0.593827  1
  Se  Se17  1  0.101193  0.537857  0.290692  1
  Se  Se18  1  0.430642  0.714842  0.909785  1
  Se  Se19  1  0.771951  0.078013  0.603147  1
  Se  Se20  1  0.601193  0.790692  0.037857  1
  Se  Se21  1  0.073892  0.093828  0.066349  1
  Se  Se22  1  0.891772  0.429727  0.729181  1
  Se  Se23  1  0.391772  0.229181  0.929727  1
  Se  Se24  1  0.552528  0.277167  0.106617  1
  Se  Se25  1  0.930642  0.409785  0.214842  1
