# generated using pymatgen
data_Y19Lu(Bi2Sb)4
_symmetry_space_group_name_H-M   'P 1'
_cell_length_a   8.19789924
_cell_length_b   9.47544800
_cell_length_c   12.04224381
_cell_angle_alpha   90.00000000
_cell_angle_beta   90.06290757
_cell_angle_gamma   90.00000000
_symmetry_Int_Tables_number   1
_chemical_formula_structural   Y19Lu(Bi2Sb)4
_chemical_formula_sum   'Y19 Lu1 Bi8 Sb4'
_cell_volume   935.42609861
_cell_formula_units_Z   1
loop_
 _symmetry_equiv_pos_site_id
 _symmetry_equiv_pos_as_xyz
  1  'x, y, z'
loop_
 _atom_site_type_symbol
 _atom_site_label
 _atom_site_symmetry_multiplicity
 _atom_site_fract_x
 _atom_site_fract_y
 _atom_site_fract_z
 _atom_site_occupancy
  Y  Y0  1  0.529710  0.750000  0.511533  1
  Y  Y1  1  0.970584  0.250000  0.011672  1
  Y  Y2  1  0.470547  0.250000  0.488335  1
  Y  Y3  1  0.182881  0.750000  0.718703  1
  Y  Y4  1  0.683342  0.750000  0.782397  1
  Y  Y5  1  0.816716  0.250000  0.281694  1
  Y  Y6  1  0.316846  0.250000  0.218109  1
  Y  Y7  1  0.309605  0.439123  0.941409  1
  Y  Y8  1  0.810033  0.061015  0.558721  1
  Y  Y9  1  0.690822  0.938528  0.058491  1
  Y  Y10  1  0.189864  0.560945  0.441130  1
  Y  Y11  1  0.690822  0.561472  0.058491  1
  Y  Y12  1  0.189864  0.939055  0.441130  1
  Y  Y13  1  0.309605  0.060877  0.941409  1
  Y  Y14  1  0.810033  0.438985  0.558721  1
  Y  Y15  1  0.353839  0.750000  0.212557  1
  Y  Y16  1  0.854179  0.750000  0.286825  1
  Y  Y17  1  0.645918  0.250000  0.787546  1
  Y  Y18  1  0.146047  0.250000  0.712752  1
  Lu  Lu19  1  0.028597  0.750000  0.988810  1
  Bi  Bi20  1  0.433501  0.003804  0.673883  1
  Bi  Bi21  1  0.934364  0.497240  0.826906  1
  Bi  Bi22  1  0.566478  0.503975  0.326066  1
  Bi  Bi23  1  0.066617  0.995403  0.173036  1
  Bi  Bi24  1  0.566478  0.996025  0.326066  1
  Bi  Bi25  1  0.066617  0.504597  0.173036  1
  Bi  Bi26  1  0.433501  0.496196  0.673883  1
  Bi  Bi27  1  0.934364  0.002760  0.826906  1
  Sb  Sb28  1  0.408420  0.750000  0.959271  1
  Sb  Sb29  1  0.910238  0.750000  0.540681  1
  Sb  Sb30  1  0.589747  0.250000  0.040673  1
  Sb  Sb31  1  0.089821  0.250000  0.459159  1
