# generated using pymatgen
data_Gd6TcIr
_symmetry_space_group_name_H-M   'P 1'
_cell_length_a   6.33283000
_cell_length_b   7.39717681
_cell_length_c   9.24787900
_cell_angle_alpha   90.00000000
_cell_angle_beta   90.00000000
_cell_angle_gamma   89.92815928
_symmetry_Int_Tables_number   1
_chemical_formula_structural   Gd6TcIr
_chemical_formula_sum   'Gd12 Tc2 Ir2'
_cell_volume   433.21713612
_cell_formula_units_Z   2
loop_
 _symmetry_equiv_pos_site_id
 _symmetry_equiv_pos_as_xyz
  1  'x, y, z'
loop_
 _atom_site_type_symbol
 _atom_site_label
 _atom_site_symmetry_multiplicity
 _atom_site_fract_x
 _atom_site_fract_y
 _atom_site_fract_z
 _atom_site_occupancy
  Gd  Gd0  1  0.330468  0.676190  0.066027  1
  Gd  Gd1  1  0.168125  0.176949  0.433875  1
  Gd  Gd2  1  0.666328  0.323838  0.560417  1
  Gd  Gd3  1  0.835572  0.821871  0.939068  1
  Gd  Gd4  1  0.666328  0.323838  0.939583  1
  Gd  Gd5  1  0.835572  0.821871  0.560932  1
  Gd  Gd6  1  0.330468  0.676190  0.433973  1
  Gd  Gd7  1  0.168125  0.176949  0.066125  1
  Gd  Gd8  1  0.872227  0.539218  0.250000  1
  Gd  Gd9  1  0.628353  0.038277  0.250000  1
  Gd  Gd10  1  0.135102  0.459852  0.750000  1
  Gd  Gd11  1  0.362204  0.959700  0.750000  1
  Tc  Tc12  1  0.040812  0.886891  0.250000  1
  Tc  Tc13  1  0.460701  0.386966  0.250000  1
  Ir  Ir14  1  0.951298  0.115114  0.750000  1
  Ir  Ir15  1  0.548315  0.616283  0.750000  1
