# generated using pymatgen
data_LiSc(CoH3)2
_symmetry_space_group_name_H-M   'P 1'
_cell_length_a   4.64457001
_cell_length_b   4.64457019
_cell_length_c   4.64456984
_cell_angle_alpha   59.74527262
_cell_angle_beta   59.74526946
_cell_angle_gamma   59.74527101
_symmetry_Int_Tables_number   1
_chemical_formula_structural   LiSc(CoH3)2
_chemical_formula_sum   'Li1 Sc1 Co2 H6'
_cell_volume   70.43719643
_cell_formula_units_Z   1
loop_
 _symmetry_equiv_pos_site_id
 _symmetry_equiv_pos_as_xyz
  1  'x, y, z'
loop_
 _atom_site_type_symbol
 _atom_site_label
 _atom_site_symmetry_multiplicity
 _atom_site_fract_x
 _atom_site_fract_y
 _atom_site_fract_z
 _atom_site_occupancy
  Li  Li0  1  0.750000  0.750000  0.750000  1
  Sc  Sc1  1  0.250000  0.250000  0.250000  1
  Co  Co2  1  0.999898  0.999898  0.999898  1
  Co  Co3  1  0.500102  0.500102  0.500102  1
  H  H4  1  0.749999  0.262781  0.237220  1
  H  H5  1  0.751408  0.748590  0.250001  1
  H  H6  1  0.237218  0.750001  0.262781  1
  H  H7  1  0.748592  0.249999  0.751408  1
  H  H8  1  0.262780  0.237221  0.749999  1
  H  H9  1  0.250001  0.751408  0.748591  1
