# generated using pymatgen
data_Ba7Dy2Mn3Cr2O20
_symmetry_space_group_name_H-M   'P 1'
_cell_length_a   5.91116514
_cell_length_b   5.91116526
_cell_length_c   17.65733839
_cell_angle_alpha   80.36415957
_cell_angle_beta   99.63583348
_cell_angle_gamma   119.99999622
_symmetry_Int_Tables_number   1
_chemical_formula_structural   Ba7Dy2Mn3Cr2O20
_chemical_formula_sum   'Ba7 Dy2 Mn3 Cr2 O20'
_cell_volume   524.24545111
_cell_formula_units_Z   1
loop_
 _symmetry_equiv_pos_site_id
 _symmetry_equiv_pos_as_xyz
  1  'x, y, z'
loop_
 _atom_site_type_symbol
 _atom_site_label
 _atom_site_symmetry_multiplicity
 _atom_site_fract_x
 _atom_site_fract_y
 _atom_site_fract_z
 _atom_site_occupancy
  Ba  Ba0  1  0.000000  0.000000  0.000000  1
  Ba  Ba1  1  0.385105  0.614897  0.155315  1
  Ba  Ba2  1  0.771546  0.228453  0.314642  1
  Ba  Ba3  1  0.145672  0.854328  0.437018  1
  Ba  Ba4  1  0.854327  0.145672  0.562982  1
  Ba  Ba5  1  0.228453  0.771547  0.685358  1
  Ba  Ba6  1  0.614896  0.385106  0.844685  1
  Dy  Dy7  1  0.073317  0.926683  0.219951  1
  Dy  Dy8  1  0.926682  0.073317  0.780049  1
  Mn  Mn9  1  0.450450  0.549552  0.351349  1
  Mn  Mn10  1  0.500000  0.500001  0.500000  1
  Mn  Mn11  1  0.549551  0.450451  0.648651  1
  Cr  Cr12  1  0.697934  0.302064  0.093806  1
  Cr  Cr13  1  0.302065  0.697936  0.906194  1
  O  O14  1  0.335386  0.664616  0.006155  1
  O  O15  1  0.875128  0.124422  0.134802  1
  O  O16  1  0.384096  0.124872  0.134802  1
  O  O17  1  0.875578  0.615904  0.134802  1
  O  O18  1  0.274491  0.256918  0.292425  1
  O  O19  1  0.743083  0.725150  0.292425  1
  O  O20  1  0.274851  0.725510  0.292425  1
  O  O21  1  0.622250  0.377459  0.429016  1
  O  O22  1  0.184224  0.377749  0.429016  1
  O  O23  1  0.622540  0.815773  0.429016  1
  O  O24  1  0.377459  0.184225  0.570983  1
  O  O25  1  0.815775  0.622250  0.570983  1
  O  O26  1  0.377748  0.622541  0.570983  1
  O  O27  1  0.725150  0.274491  0.707575  1
  O  O28  1  0.256916  0.274850  0.707575  1
  O  O29  1  0.725510  0.743083  0.707575  1
  O  O30  1  0.124422  0.384096  0.865199  1
  O  O31  1  0.615905  0.875128  0.865199  1
  O  O32  1  0.124871  0.875578  0.865199  1
  O  O33  1  0.664615  0.335386  0.993845  1
