# generated using pymatgen
data_Yb3Sm2(SnBi)2
_symmetry_space_group_name_H-M   'P 1'
_cell_length_a   8.34654700
_cell_length_b   8.37471500
_cell_length_c   16.29006300
_cell_angle_alpha   90.00000000
_cell_angle_beta   90.00000000
_cell_angle_gamma   90.00000000
_symmetry_Int_Tables_number   1
_chemical_formula_structural   Yb3Sm2(SnBi)2
_chemical_formula_sum   'Yb12 Sm8 Sn8 Bi8'
_cell_volume   1138.67462763
_cell_formula_units_Z   4
loop_
 _symmetry_equiv_pos_site_id
 _symmetry_equiv_pos_as_xyz
  1  'x, y, z'
loop_
 _atom_site_type_symbol
 _atom_site_label
 _atom_site_symmetry_multiplicity
 _atom_site_fract_x
 _atom_site_fract_y
 _atom_site_fract_z
 _atom_site_occupancy
  Yb  Yb0  1  0.419583  0.831975  0.886208  1
  Yb  Yb1  1  0.919583  0.668025  0.613792  1
  Yb  Yb2  1  0.580417  0.168025  0.386208  1
  Yb  Yb3  1  0.080417  0.331975  0.113792  1
  Yb  Yb4  1  0.580417  0.168025  0.113792  1
  Yb  Yb5  1  0.080417  0.331975  0.386208  1
  Yb  Yb6  1  0.419583  0.831975  0.613792  1
  Yb  Yb7  1  0.919583  0.668025  0.886208  1
  Yb  Yb8  1  0.244636  0.507834  0.750000  1
  Yb  Yb9  1  0.744636  0.992166  0.750000  1
  Yb  Yb10  1  0.755364  0.492166  0.250000  1
  Yb  Yb11  1  0.255364  0.007834  0.250000  1
  Sm  Sm12  1  0.580709  0.333905  0.887622  1
  Sm  Sm13  1  0.080709  0.166095  0.612378  1
  Sm  Sm14  1  0.419291  0.666095  0.387622  1
  Sm  Sm15  1  0.919291  0.833905  0.112378  1
  Sm  Sm16  1  0.419291  0.666095  0.112378  1
  Sm  Sm17  1  0.919291  0.833905  0.387622  1
  Sm  Sm18  1  0.580709  0.333905  0.612378  1
  Sm  Sm19  1  0.080709  0.166095  0.887622  1
  Sn  Sn20  1  0.620908  0.615941  0.750000  1
  Sn  Sn21  1  0.120908  0.884059  0.750000  1
  Sn  Sn22  1  0.379092  0.384059  0.250000  1
  Sn  Sn23  1  0.879092  0.115941  0.250000  1
  Sn  Sn24  1  0.372762  0.134619  0.750000  1
  Sn  Sn25  1  0.872762  0.365381  0.750000  1
  Sn  Sn26  1  0.627238  0.865381  0.250000  1
  Sn  Sn27  1  0.127238  0.634619  0.250000  1
  Bi  Bi28  1  0.248836  0.999336  0.046057  1
  Bi  Bi29  1  0.748836  0.500664  0.453943  1
  Bi  Bi30  1  0.751164  0.000664  0.546057  1
  Bi  Bi31  1  0.251164  0.499336  0.953943  1
  Bi  Bi32  1  0.751164  0.000664  0.953943  1
  Bi  Bi33  1  0.251164  0.499336  0.546057  1
  Bi  Bi34  1  0.248836  0.999336  0.453943  1
  Bi  Bi35  1  0.748836  0.500664  0.046057  1
