# generated using pymatgen
data_LuTl(NO3)4
_symmetry_space_group_name_H-M   'P 1'
_cell_length_a   8.16885506
_cell_length_b   8.11603200
_cell_length_c   8.19349200
_cell_angle_alpha   90.00000000
_cell_angle_beta   87.81946700
_cell_angle_gamma   90.00000000
_symmetry_Int_Tables_number   1
_chemical_formula_structural   LuTl(NO3)4
_chemical_formula_sum   'Lu2 Tl2 N8 O24'
_cell_volume   542.82443504
_cell_formula_units_Z   2
loop_
 _symmetry_equiv_pos_site_id
 _symmetry_equiv_pos_as_xyz
  1  'x, y, z'
loop_
 _atom_site_type_symbol
 _atom_site_label
 _atom_site_symmetry_multiplicity
 _atom_site_fract_x
 _atom_site_fract_y
 _atom_site_fract_z
 _atom_site_occupancy
  Lu  Lu0  1  0.000000  0.500000  0.000000  1
  Lu  Lu1  1  0.000000  0.000000  0.500000  1
  Tl  Tl2  1  0.500000  0.500000  0.500000  1
  Tl  Tl3  1  0.500000  0.000000  0.000000  1
  N  N4  1  0.704021  0.126573  0.367133  1
  N  N5  1  0.704021  0.373427  0.867133  1
  N  N6  1  0.892019  0.800250  0.829181  1
  N  N7  1  0.892019  0.699750  0.329181  1
  N  N8  1  0.107981  0.199750  0.170819  1
  N  N9  1  0.107981  0.300250  0.670819  1
  N  N10  1  0.295979  0.626573  0.132867  1
  N  N11  1  0.295979  0.873427  0.632867  1
  O  O12  1  0.573530  0.315576  0.819915  1
  O  O13  1  0.573530  0.184424  0.319915  1
  O  O14  1  0.785559  0.482148  0.786858  1
  O  O15  1  0.785559  0.017852  0.286858  1
  O  O16  1  0.819929  0.734960  0.464215  1
  O  O17  1  0.819929  0.765040  0.964215  1
  O  O18  1  0.766417  0.326481  0.001597  1
  O  O19  1  0.766417  0.173519  0.501597  1
  O  O20  1  0.846453  0.920835  0.743937  1
  O  O21  1  0.846453  0.579165  0.243937  1
  O  O22  1  0.010632  0.710567  0.780775  1
  O  O23  1  0.010632  0.789433  0.280775  1
  O  O24  1  0.989368  0.210567  0.719225  1
  O  O25  1  0.989368  0.289433  0.219225  1
  O  O26  1  0.153547  0.420835  0.756063  1
  O  O27  1  0.153547  0.079165  0.256063  1
  O  O28  1  0.233583  0.673519  0.998403  1
  O  O29  1  0.233583  0.826481  0.498403  1
  O  O30  1  0.180071  0.234960  0.035785  1
  O  O31  1  0.180071  0.265040  0.535785  1
  O  O32  1  0.214441  0.517852  0.213142  1
  O  O33  1  0.214441  0.982148  0.713142  1
  O  O34  1  0.426470  0.815576  0.680085  1
  O  O35  1  0.426470  0.684424  0.180085  1
