# generated using pymatgen
data_Er4Co3Ru5
_symmetry_space_group_name_H-M   'P 1'
_cell_length_a   5.13476058
_cell_length_b   5.12425611
_cell_length_c   8.78871200
_cell_angle_alpha   90.00000000
_cell_angle_beta   90.00000000
_cell_angle_gamma   119.93234581
_symmetry_Int_Tables_number   1
_chemical_formula_structural   Er4Co3Ru5
_chemical_formula_sum   'Er4 Co3 Ru5'
_cell_volume   200.40223394
_cell_formula_units_Z   1
loop_
 _symmetry_equiv_pos_site_id
 _symmetry_equiv_pos_as_xyz
  1  'x, y, z'
loop_
 _atom_site_type_symbol
 _atom_site_label
 _atom_site_symmetry_multiplicity
 _atom_site_fract_x
 _atom_site_fract_y
 _atom_site_fract_z
 _atom_site_occupancy
  Er  Er0  1  0.330174  0.665088  0.435416  1
  Er  Er1  1  0.664429  0.332214  0.568487  1
  Er  Er2  1  0.664429  0.332214  0.931513  1
  Er  Er3  1  0.330174  0.665088  0.064584  1
  Co  Co4  1  0.174137  0.342545  0.750000  1
  Co  Co5  1  0.174137  0.831592  0.750000  1
  Co  Co6  1  0.339591  0.169796  0.250000  1
  Ru  Ru7  1  0.830685  0.659618  0.250000  1
  Ru  Ru8  1  0.660181  0.830091  0.750000  1
  Ru  Ru9  1  0.000688  0.000344  0.996469  1
  Ru  Ru10  1  0.830685  0.171068  0.250000  1
  Ru  Ru11  1  0.000688  0.000344  0.503531  1
