# generated using pymatgen
data_KSb12(PdRu)2
_symmetry_space_group_name_H-M   'P 1'
_cell_length_a   8.21212404
_cell_length_b   8.24668570
_cell_length_c   8.24668494
_cell_angle_alpha   109.67163889
_cell_angle_beta   109.48379074
_cell_angle_gamma   109.42801821
_symmetry_Int_Tables_number   1
_chemical_formula_structural   KSb12(PdRu)2
_chemical_formula_sum   'K1 Sb12 Pd2 Ru2'
_cell_volume   429.01993859
_cell_formula_units_Z   1
loop_
 _symmetry_equiv_pos_site_id
 _symmetry_equiv_pos_as_xyz
  1  'x, y, z'
loop_
 _atom_site_type_symbol
 _atom_site_label
 _atom_site_symmetry_multiplicity
 _atom_site_fract_x
 _atom_site_fract_y
 _atom_site_fract_z
 _atom_site_occupancy
  K  K0  1  0.000000  0.000000  0.000000  1
  Sb  Sb1  1  0.661237  0.848583  0.499708  1
  Sb  Sb2  1  0.338763  0.151417  0.500292  1
  Sb  Sb3  1  0.848988  0.187382  0.348746  1
  Sb  Sb4  1  0.818911  0.660690  0.158221  1
  Sb  Sb5  1  0.848988  0.500241  0.661605  1
  Sb  Sb6  1  0.181089  0.339310  0.841779  1
  Sb  Sb7  1  0.151012  0.812618  0.651254  1
  Sb  Sb8  1  0.497632  0.651976  0.845656  1
  Sb  Sb9  1  0.502368  0.348024  0.154344  1
  Sb  Sb10  1  0.151012  0.499759  0.338395  1
  Sb  Sb11  1  0.338763  0.838471  0.187346  1
  Sb  Sb12  1  0.661237  0.161529  0.812654  1
  Pd  Pd13  1  0.500000  0.500000  0.500000  1
  Pd  Pd14  1  0.500000  0.000000  0.000000  1
  Ru  Ru15  1  0.000000  0.000000  0.500000  1
  Ru  Ru16  1  0.000000  0.500000  0.000000  1
