# generated using pymatgen
data_ErTm3Hg2
_symmetry_space_group_name_H-M   'P 1'
_cell_length_a   6.95012904
_cell_length_b   5.04419500
_cell_length_c   9.14029005
_cell_angle_alpha   90.00000000
_cell_angle_beta   90.01195856
_cell_angle_gamma   90.00000000
_symmetry_Int_Tables_number   1
_chemical_formula_structural   ErTm3Hg2
_chemical_formula_sum   'Er2 Tm6 Hg4'
_cell_volume   320.43850967
_cell_formula_units_Z   2
loop_
 _symmetry_equiv_pos_site_id
 _symmetry_equiv_pos_as_xyz
  1  'x, y, z'
loop_
 _atom_site_type_symbol
 _atom_site_label
 _atom_site_symmetry_multiplicity
 _atom_site_fract_x
 _atom_site_fract_y
 _atom_site_fract_z
 _atom_site_occupancy
  Er  Er0  1  0.983977  0.250000  0.805615  1
  Er  Er1  1  0.668823  0.750000  0.925818  1
  Tm  Tm2  1  0.330844  0.250000  0.074733  1
  Tm  Tm3  1  0.016713  0.750000  0.194338  1
  Tm  Tm4  1  0.516440  0.750000  0.305859  1
  Tm  Tm5  1  0.831083  0.250000  0.425574  1
  Tm  Tm6  1  0.169129  0.750000  0.573903  1
  Tm  Tm7  1  0.483327  0.250000  0.694005  1
  Hg  Hg8  1  0.763340  0.250000  0.102632  1
  Hg  Hg9  1  0.263286  0.250000  0.398126  1
  Hg  Hg10  1  0.736778  0.750000  0.601351  1
  Hg  Hg11  1  0.236258  0.750000  0.898045  1
