# generated using pymatgen
data_Yb3TmAl2(B2Rh5)2
_symmetry_space_group_name_H-M   'P 1'
_cell_length_a   9.42398200
_cell_length_b   9.42398172
_cell_length_c   3.17740400
_cell_angle_alpha   90.00000000
_cell_angle_beta   90.00000000
_cell_angle_gamma   89.94906356
_symmetry_Int_Tables_number   1
_chemical_formula_structural   Yb3TmAl2(B2Rh5)2
_chemical_formula_sum   'Yb3 Tm1 Al2 B4 Rh10'
_cell_volume   282.18969456
_cell_formula_units_Z   1
loop_
 _symmetry_equiv_pos_site_id
 _symmetry_equiv_pos_as_xyz
  1  'x, y, z'
loop_
 _atom_site_type_symbol
 _atom_site_label
 _atom_site_symmetry_multiplicity
 _atom_site_fract_x
 _atom_site_fract_y
 _atom_site_fract_z
 _atom_site_occupancy
  Yb  Yb0  1  0.324506  0.174318  0.000000  1
  Yb  Yb1  1  0.674318  0.824506  0.000000  1
  Yb  Yb2  1  0.175878  0.675878  0.000000  1
  Tm  Tm3  1  0.824663  0.324663  0.000000  1
  Al  Al4  1  0.000758  0.998896  0.000000  1
  Al  Al5  1  0.498896  0.500758  0.000000  1
  B  B6  1  0.622900  0.122900  0.000000  1
  B  B7  1  0.124876  0.376398  0.000000  1
  B  B8  1  0.876398  0.624876  0.000000  1
  B  B9  1  0.375652  0.875652  0.000000  1
  Rh  Rh10  1  0.067231  0.218242  0.500000  1
  Rh  Rh11  1  0.218427  0.931097  0.500000  1
  Rh  Rh12  1  0.782828  0.071167  0.500000  1
  Rh  Rh13  1  0.929321  0.781589  0.500000  1
  Rh  Rh14  1  0.431097  0.718427  0.500000  1
  Rh  Rh15  1  0.571167  0.282828  0.500000  1
  Rh  Rh16  1  0.718242  0.567231  0.500000  1
  Rh  Rh17  1  0.281589  0.429321  0.500000  1
  Rh  Rh18  1  0.501008  0.001008  0.500000  1
  Rh  Rh19  1  0.000245  0.500245  0.500000  1
