# generated using pymatgen
data_Er4Lu8In2Fe3
_symmetry_space_group_name_H-M   'P 1'
_cell_length_a   8.21209037
_cell_length_b   8.21209112
_cell_length_c   8.21209066
_cell_angle_alpha   108.43771868
_cell_angle_beta   108.43772204
_cell_angle_gamma   111.55859937
_symmetry_Int_Tables_number   1
_chemical_formula_structural   Er4Lu8In2Fe3
_chemical_formula_sum   'Er4 Lu8 In2 Fe3'
_cell_volume   425.89746648
_cell_formula_units_Z   1
loop_
 _symmetry_equiv_pos_site_id
 _symmetry_equiv_pos_as_xyz
  1  'x, y, z'
loop_
 _atom_site_type_symbol
 _atom_site_label
 _atom_site_symmetry_multiplicity
 _atom_site_fract_x
 _atom_site_fract_y
 _atom_site_fract_z
 _atom_site_occupancy
  Er  Er0  1  0.307191  0.307191  0.614382  1
  Er  Er1  1  0.692809  0.692809  0.385618  1
  Er  Er2  1  0.692809  0.307191  0.000000  1
  Er  Er3  1  0.307191  0.692809  0.000000  1
  Lu  Lu4  1  0.189788  0.425239  0.235451  1
  Lu  Lu5  1  0.810212  0.574761  0.764549  1
  Lu  Lu6  1  0.189788  0.954336  0.764549  1
  Lu  Lu7  1  0.954336  0.189788  0.764549  1
  Lu  Lu8  1  0.810212  0.045664  0.235451  1
  Lu  Lu9  1  0.045664  0.810212  0.235451  1
  Lu  Lu10  1  0.425239  0.189788  0.235451  1
  Lu  Lu11  1  0.574761  0.810212  0.764549  1
  In  In12  1  0.000000  0.500000  0.500000  1
  In  In13  1  0.500000  0.000000  0.500000  1
  Fe  Fe14  1  0.383310  0.383310  0.000000  1
  Fe  Fe15  1  0.616690  0.616690  0.000000  1
  Fe  Fe16  1  0.000000  0.000000  0.000000  1
