# generated using pymatgen
data_PrSmHo4(RuO7)2
_symmetry_space_group_name_H-M   'P 1'
_cell_length_a   6.42503525
_cell_length_b   6.42503563
_cell_length_c   7.47892883
_cell_angle_alpha   89.94286444
_cell_angle_beta   89.94287123
_cell_angle_gamma   109.97545382
_symmetry_Int_Tables_number   1
_chemical_formula_structural   PrSmHo4(RuO7)2
_chemical_formula_sum   'Pr1 Sm1 Ho4 Ru2 O14'
_cell_volume   290.16384033
_cell_formula_units_Z   1
loop_
 _symmetry_equiv_pos_site_id
 _symmetry_equiv_pos_as_xyz
  1  'x, y, z'
loop_
 _atom_site_type_symbol
 _atom_site_label
 _atom_site_symmetry_multiplicity
 _atom_site_fract_x
 _atom_site_fract_y
 _atom_site_fract_z
 _atom_site_occupancy
  Pr  Pr0  1  0.000000  0.000000  0.000000  1
  Sm  Sm1  1  0.000000  0.000000  0.500000  1
  Ho  Ho2  1  0.482010  0.930399  0.748963  1
  Ho  Ho3  1  0.517990  0.069601  0.251037  1
  Ho  Ho4  1  0.930399  0.482010  0.748963  1
  Ho  Ho5  1  0.069601  0.517990  0.251037  1
  Ru  Ru6  1  0.500000  0.500000  0.500000  1
  Ru  Ru7  1  0.500000  0.500000  0.000000  1
  O  O8  1  0.590340  0.590340  0.750106  1
  O  O9  1  0.409660  0.409660  0.249894  1
  O  O10  1  0.838101  0.116862  0.745396  1
  O  O11  1  0.161899  0.883138  0.254604  1
  O  O12  1  0.116862  0.838101  0.745396  1
  O  O13  1  0.883138  0.161899  0.254604  1
  O  O14  1  0.441014  0.180638  0.962750  1
  O  O15  1  0.561450  0.819572  0.462977  1
  O  O16  1  0.180638  0.441014  0.962750  1
  O  O17  1  0.819572  0.561450  0.462977  1
  O  O18  1  0.438550  0.180428  0.537023  1
  O  O19  1  0.558986  0.819362  0.037250  1
  O  O20  1  0.819362  0.558986  0.037250  1
  O  O21  1  0.180428  0.438550  0.537023  1
