# generated using pymatgen
data_Tm10Hg3Pd
_symmetry_space_group_name_H-M   'P 1'
_cell_length_a   9.59319700
_cell_length_b   9.59319649
_cell_length_c   9.43735500
_cell_angle_alpha   90.00000000
_cell_angle_beta   90.00000000
_cell_angle_gamma   119.99999833
_symmetry_Int_Tables_number   1
_chemical_formula_structural   Tm10Hg3Pd
_chemical_formula_sum   'Tm20 Hg6 Pd2'
_cell_volume   752.15549669
_cell_formula_units_Z   2
loop_
 _symmetry_equiv_pos_site_id
 _symmetry_equiv_pos_as_xyz
  1  'x, y, z'
loop_
 _atom_site_type_symbol
 _atom_site_label
 _atom_site_symmetry_multiplicity
 _atom_site_fract_x
 _atom_site_fract_y
 _atom_site_fract_z
 _atom_site_occupancy
  Tm  Tm0  1  0.206518  0.793482  0.940607  1
  Tm  Tm1  1  0.206518  0.413036  0.940607  1
  Tm  Tm2  1  0.586964  0.793482  0.940607  1
  Tm  Tm3  1  0.793482  0.206518  0.059393  1
  Tm  Tm4  1  0.793482  0.586964  0.059393  1
  Tm  Tm5  1  0.413036  0.206518  0.059393  1
  Tm  Tm6  1  0.793482  0.206518  0.440607  1
  Tm  Tm7  1  0.793482  0.586964  0.440607  1
  Tm  Tm8  1  0.413036  0.206518  0.440607  1
  Tm  Tm9  1  0.206518  0.793482  0.559393  1
  Tm  Tm10  1  0.206518  0.413036  0.559393  1
  Tm  Tm11  1  0.586964  0.793482  0.559393  1
  Tm  Tm12  1  0.542812  0.457188  0.750000  1
  Tm  Tm13  1  0.542812  0.085624  0.750000  1
  Tm  Tm14  1  0.914376  0.457188  0.750000  1
  Tm  Tm15  1  0.457188  0.542812  0.250000  1
  Tm  Tm16  1  0.457188  0.914376  0.250000  1
  Tm  Tm17  1  0.085624  0.542812  0.250000  1
  Tm  Tm18  1  0.000000  0.000000  0.000000  1
  Tm  Tm19  1  0.000000  0.000000  0.500000  1
  Hg  Hg20  1  0.879802  0.120198  0.750000  1
  Hg  Hg21  1  0.879802  0.759604  0.750000  1
  Hg  Hg22  1  0.240396  0.120198  0.750000  1
  Hg  Hg23  1  0.120198  0.879802  0.250000  1
  Hg  Hg24  1  0.120198  0.240396  0.250000  1
  Hg  Hg25  1  0.759604  0.879802  0.250000  1
  Pd  Pd26  1  0.333333  0.666667  0.750000  1
  Pd  Pd27  1  0.666667  0.333333  0.250000  1
