# generated using pymatgen
data_Tb3YAl18(Ir2Pd)2
_symmetry_space_group_name_H-M   'P 1'
_cell_length_a   7.59301039
_cell_length_b   7.59389571
_cell_length_c   9.48144853
_cell_angle_alpha   89.93201595
_cell_angle_beta   89.92285859
_cell_angle_gamma   119.59239056
_symmetry_Int_Tables_number   1
_chemical_formula_structural   Tb3YAl18(Ir2Pd)2
_chemical_formula_sum   'Tb3 Y1 Al18 Ir4 Pd2'
_cell_volume   475.39187074
_cell_formula_units_Z   1
loop_
 _symmetry_equiv_pos_site_id
 _symmetry_equiv_pos_as_xyz
  1  'x, y, z'
loop_
 _atom_site_type_symbol
 _atom_site_label
 _atom_site_symmetry_multiplicity
 _atom_site_fract_x
 _atom_site_fract_y
 _atom_site_fract_z
 _atom_site_occupancy
  Tb  Tb0  1  0.995362  0.670636  0.251288  1
  Tb  Tb1  1  0.004735  0.329370  0.748702  1
  Tb  Tb2  1  0.670612  0.995317  0.251292  1
  Y  Y3  1  0.329362  0.004701  0.748674  1
  Al  Al4  1  0.128089  0.128068  0.250612  1
  Al  Al5  1  0.872081  0.872060  0.749393  1
  Al  Al6  1  0.001253  0.331492  0.077342  1
  Al  Al7  1  0.998852  0.668617  0.922639  1
  Al  Al8  1  0.000017  0.664958  0.573986  1
  Al  Al9  1  0.335156  0.000077  0.426122  1
  Al  Al10  1  0.000096  0.335160  0.426041  1
  Al  Al11  1  0.664737  0.999922  0.573996  1
  Al  Al12  1  0.668421  0.998763  0.922651  1
  Al  Al13  1  0.331486  0.001230  0.077297  1
  Al  Al14  1  0.332808  0.332721  0.549683  1
  Al  Al15  1  0.667186  0.667179  0.450352  1
  Al  Al16  1  0.668770  0.668766  0.057159  1
  Al  Al17  1  0.331209  0.331135  0.942802  1
  Al  Al18  1  0.340236  0.547069  0.253101  1
  Al  Al19  1  0.659777  0.452817  0.746901  1
  Al  Al20  1  0.547045  0.340215  0.253093  1
  Al  Al21  1  0.452833  0.659780  0.746907  1
  Ir  Ir22  1  0.328204  0.671810  0.500049  1
  Ir  Ir23  1  0.671754  0.328171  0.500062  1
  Ir  Ir24  1  0.000029  0.999986  0.999955  1
  Ir  Ir25  1  0.999994  0.999989  0.500033  1
  Pd  Pd26  1  0.671957  0.327840  0.999928  1
  Pd  Pd27  1  0.327940  0.672151  0.999938  1
