# generated using pymatgen
data_Cs8U3BiTe12
_symmetry_space_group_name_H-M   'P 1'
_cell_length_a   15.37544161
_cell_length_b   7.69219273
_cell_length_c   10.32659500
_cell_angle_alpha   71.46392518
_cell_angle_beta   89.98390547
_cell_angle_gamma   89.98548344
_symmetry_Int_Tables_number   1
_chemical_formula_structural   Cs8U3BiTe12
_chemical_formula_sum   'Cs8 U3 Bi1 Te12'
_cell_volume   1157.97683545
_cell_formula_units_Z   1
loop_
 _symmetry_equiv_pos_site_id
 _symmetry_equiv_pos_as_xyz
  1  'x, y, z'
loop_
 _atom_site_type_symbol
 _atom_site_label
 _atom_site_symmetry_multiplicity
 _atom_site_fract_x
 _atom_site_fract_y
 _atom_site_fract_z
 _atom_site_occupancy
  Cs  Cs0  1  0.953118  0.672704  0.658005  1
  Cs  Cs1  1  0.458916  0.826484  0.340227  1
  Cs  Cs2  1  0.045426  0.330746  0.340398  1
  Cs  Cs3  1  0.544764  0.173620  0.663321  1
  Cs  Cs4  1  0.869985  0.077990  0.900481  1
  Cs  Cs5  1  0.369984  0.414871  0.101280  1
  Cs  Cs6  1  0.129516  0.915699  0.101938  1
  Cs  Cs7  1  0.629756  0.586929  0.900253  1
  U  U8  1  0.250436  0.842874  0.703667  1
  U  U9  1  0.249388  0.342774  0.703489  1
  U  U10  1  0.749614  0.156409  0.293488  1
  Bi  Bi11  1  0.749969  0.652689  0.297286  1
  Te  Te12  1  0.907863  0.926836  0.283662  1
  Te  Te13  1  0.406566  0.587007  0.717074  1
  Te  Te14  1  0.093316  0.086231  0.717110  1
  Te  Te15  1  0.591985  0.398420  0.284737  1
  Te  Te16  1  0.818040  0.299953  0.515869  1
  Te  Te17  1  0.317870  0.185934  0.483661  1
  Te  Te18  1  0.182110  0.686829  0.483924  1
  Te  Te19  1  0.683077  0.828251  0.517848  1
  Te  Te20  1  0.841233  0.478812  0.086630  1
  Te  Te21  1  0.339171  0.004644  0.910588  1
  Te  Te22  1  0.160184  0.505707  0.909961  1
  Te  Te23  1  0.657712  0.017589  0.085105  1
