# generated using pymatgen
data_Tb5Lu(SnIr)6
_symmetry_space_group_name_H-M   'P 1'
_cell_length_a   7.47347981
_cell_length_b   7.47553617
_cell_length_c   7.95186400
_cell_angle_alpha   90.00000000
_cell_angle_beta   90.00000000
_cell_angle_gamma   119.53356403
_symmetry_Int_Tables_number   1
_chemical_formula_structural   Tb5Lu(SnIr)6
_chemical_formula_sum   'Tb5 Lu1 Sn6 Ir6'
_cell_volume   386.53328273
_cell_formula_units_Z   1
loop_
 _symmetry_equiv_pos_site_id
 _symmetry_equiv_pos_as_xyz
  1  'x, y, z'
loop_
 _atom_site_type_symbol
 _atom_site_label
 _atom_site_symmetry_multiplicity
 _atom_site_fract_x
 _atom_site_fract_y
 _atom_site_fract_z
 _atom_site_occupancy
  Tb  Tb0  1  0.406392  0.000385  0.250000  1
  Tb  Tb1  1  0.593888  0.592746  0.250000  1
  Tb  Tb2  1  0.998155  0.405145  0.250000  1
  Tb  Tb3  1  0.000287  0.406159  0.750000  1
  Tb  Tb4  1  0.404604  0.997418  0.750000  1
  Lu  Lu5  1  0.597450  0.598711  0.750000  1
  Sn  Sn6  1  0.258291  0.258119  0.502964  1
  Sn  Sn7  1  0.258291  0.258119  0.997036  1
  Sn  Sn8  1  0.740881  0.999639  0.999651  1
  Sn  Sn9  1  0.999569  0.740942  0.500056  1
  Sn  Sn10  1  0.740881  0.999639  0.500349  1
  Sn  Sn11  1  0.999569  0.740942  0.999944  1
  Ir  Ir12  1  0.665420  0.336946  0.505951  1
  Ir  Ir13  1  0.665420  0.336946  0.994049  1
  Ir  Ir14  1  0.336814  0.665379  0.998464  1
  Ir  Ir15  1  0.336814  0.665379  0.501536  1
  Ir  Ir16  1  0.996906  0.996902  0.750000  1
  Ir  Ir17  1  0.000369  0.000483  0.250000  1
