# generated using pymatgen
data_Ac15Yb4PrSn16
_symmetry_space_group_name_H-M   'P 1'
_cell_length_a   8.50812396
_cell_length_b   8.84637807
_cell_length_c   16.94896487
_cell_angle_alpha   90.14314881
_cell_angle_beta   89.84438670
_cell_angle_gamma   89.94135148
_symmetry_Int_Tables_number   1
_chemical_formula_structural   Ac15Yb4PrSn16
_chemical_formula_sum   'Ac15 Yb4 Pr1 Sn16'
_cell_volume   1275.67280342
_cell_formula_units_Z   1
loop_
 _symmetry_equiv_pos_site_id
 _symmetry_equiv_pos_as_xyz
  1  'x, y, z'
loop_
 _atom_site_type_symbol
 _atom_site_label
 _atom_site_symmetry_multiplicity
 _atom_site_fract_x
 _atom_site_fract_y
 _atom_site_fract_z
 _atom_site_occupancy
  Ac  Ac0  1  0.150107  0.330516  0.875259  1
  Ac  Ac1  1  0.350912  0.831040  0.124134  1
  Ac  Ac2  1  0.848497  0.668736  0.378286  1
  Ac  Ac3  1  0.349226  0.830001  0.376107  1
  Ac  Ac4  1  0.850499  0.669249  0.124005  1
  Ac  Ac5  1  0.648878  0.169494  0.875304  1
  Ac  Ac6  1  0.149808  0.330856  0.623224  1
  Ac  Ac7  1  0.498181  0.683627  0.596508  1
  Ac  Ac8  1  0.997701  0.814845  0.902718  1
  Ac  Ac9  1  0.502777  0.314713  0.096482  1
  Ac  Ac10  1  0.000857  0.187492  0.404279  1
  Ac  Ac11  1  0.503496  0.315380  0.404946  1
  Ac  Ac12  1  0.001947  0.185867  0.096131  1
  Ac  Ac13  1  0.497466  0.684742  0.902604  1
  Ac  Ac14  1  0.998184  0.813815  0.596284  1
  Yb  Yb15  1  0.816456  0.507535  0.748880  1
  Yb  Yb16  1  0.318270  0.993526  0.748939  1
  Yb  Yb17  1  0.182855  0.491447  0.250323  1
  Yb  Yb18  1  0.682639  0.008800  0.250014  1
  Pr  Pr19  1  0.651083  0.170462  0.625700  1
  Sn  Sn20  1  0.684398  0.968653  0.465384  1
  Sn  Sn21  1  0.188882  0.534013  0.039637  1
  Sn  Sn22  1  0.311142  0.034576  0.960239  1
  Sn  Sn23  1  0.804443  0.457545  0.541268  1
  Sn  Sn24  1  0.324401  0.036358  0.541109  1
  Sn  Sn25  1  0.811542  0.466069  0.959677  1
  Sn  Sn26  1  0.688423  0.965226  0.039182  1
  Sn  Sn27  1  0.189129  0.534672  0.460382  1
  Sn  Sn28  1  0.457410  0.398043  0.748078  1
  Sn  Sn29  1  0.950908  0.098313  0.746543  1
  Sn  Sn30  1  0.545572  0.596571  0.250083  1
  Sn  Sn31  1  0.044267  0.904197  0.250567  1
  Sn  Sn32  1  0.693771  0.860996  0.747970  1
  Sn  Sn33  1  0.195508  0.642286  0.749060  1
  Sn  Sn34  1  0.304884  0.142705  0.250294  1
  Sn  Sn35  1  0.805485  0.357639  0.250400  1
