# generated using pymatgen
data_Tb2Sm2Zn10SiPb
_symmetry_space_group_name_H-M   'P 1'
_cell_length_a   8.37460803
_cell_length_b   8.37460826
_cell_length_c   8.92753900
_cell_angle_alpha   90.00000000
_cell_angle_beta   90.00000000
_cell_angle_gamma   149.68269615
_symmetry_Int_Tables_number   1
_chemical_formula_structural   Tb2Sm2Zn10SiPb
_chemical_formula_sum   'Tb2 Sm2 Zn10 Si1 Pb1'
_cell_volume   316.06039141
_cell_formula_units_Z   1
loop_
 _symmetry_equiv_pos_site_id
 _symmetry_equiv_pos_as_xyz
  1  'x, y, z'
loop_
 _atom_site_type_symbol
 _atom_site_label
 _atom_site_symmetry_multiplicity
 _atom_site_fract_x
 _atom_site_fract_y
 _atom_site_fract_z
 _atom_site_occupancy
  Tb  Tb0  1  0.200600  0.799400  0.250000  1
  Tb  Tb1  1  0.795288  0.204712  0.750000  1
  Sm  Sm2  1  0.001015  0.998985  0.481187  1
  Sm  Sm3  1  0.001015  0.998985  0.018813  1
  Zn  Zn4  1  0.812250  0.187750  0.390314  1
  Zn  Zn5  1  0.186417  0.813583  0.606495  1
  Zn  Zn6  1  0.812250  0.187750  0.109686  1
  Zn  Zn7  1  0.186417  0.813583  0.893505  1
  Zn  Zn8  1  0.650697  0.349303  0.472951  1
  Zn  Zn9  1  0.341857  0.658143  0.512983  1
  Zn  Zn10  1  0.650697  0.349303  0.027049  1
  Zn  Zn11  1  0.341857  0.658143  0.987017  1
  Zn  Zn12  1  0.404525  0.595475  0.250000  1
  Zn  Zn13  1  0.610243  0.389757  0.750000  1
  Si  Si14  1  0.558039  0.441961  0.250000  1
  Pb  Pb15  1  0.446832  0.553168  0.750000  1
