# generated using pymatgen
data_LaPr2GeBr3
_symmetry_space_group_name_H-M   'P 1'
_cell_length_a   10.66156646
_cell_length_b   10.56479453
_cell_length_c   10.60835750
_cell_angle_alpha   109.35797922
_cell_angle_beta   109.58881273
_cell_angle_gamma   109.45320313
_symmetry_Int_Tables_number   1
_chemical_formula_structural   LaPr2GeBr3
_chemical_formula_sum   'La4 Pr8 Ge4 Br12'
_cell_volume   919.98389264
_cell_formula_units_Z   4
loop_
 _symmetry_equiv_pos_site_id
 _symmetry_equiv_pos_as_xyz
  1  'x, y, z'
loop_
 _atom_site_type_symbol
 _atom_site_label
 _atom_site_symmetry_multiplicity
 _atom_site_fract_x
 _atom_site_fract_y
 _atom_site_fract_z
 _atom_site_occupancy
  La  La0  1  0.481578  0.490569  0.239414  1
  La  La1  1  0.748163  0.239543  0.257733  1
  La  La2  1  0.748527  0.008092  0.491322  1
  La  La3  1  0.242977  0.483622  0.492060  1
  Pr  Pr4  1  0.258522  0.748098  0.235778  1
  Pr  Pr5  1  0.024474  0.262005  0.010630  1
  Pr  Pr6  1  0.013194  0.022916  0.261653  1
  Pr  Pr7  1  0.485315  0.747871  0.010000  1
  Pr  Pr8  1  0.486129  0.236124  0.475353  1
  Pr  Pr9  1  0.013102  0.490395  0.753090  1
  Pr  Pr10  1  0.258878  0.008771  0.020679  1
  Pr  Pr11  1  0.239779  0.262516  0.752759  1
  Ge  Ge12  1  0.250285  0.250265  0.250576  1
  Ge  Ge13  1  0.500482  0.000485  0.250383  1
  Ge  Ge14  1  0.999630  0.249892  0.499633  1
  Ge  Ge15  1  0.250137  0.499749  0.000036  1
  Br  Br16  1  0.249384  0.754142  0.747917  1
  Br  Br17  1  0.506836  0.501937  0.754152  1
  Br  Br18  1  0.993272  0.746739  0.996628  1
  Br  Br19  1  0.747327  0.252342  0.754510  1
  Br  Br20  1  0.998046  0.993467  0.747536  1
  Br  Br21  1  0.249877  0.996958  0.502756  1
  Br  Br22  1  0.753497  0.506614  0.506192  1
  Br  Br23  1  0.500699  0.246942  0.993190  1
  Br  Br24  1  0.753761  0.746881  0.247330  1
  Br  Br25  1  0.747524  0.995110  0.993139  1
  Br  Br26  1  0.996329  0.503378  0.248316  1
  Br  Br27  1  0.502274  0.754577  0.507236  1
