# generated using pymatgen
data_Y3HoCo5Si5Ir4
_symmetry_space_group_name_H-M   'P 1'
_cell_length_a   5.43258617
_cell_length_b   5.35711830
_cell_length_c   22.30215782
_cell_angle_alpha   90.03157838
_cell_angle_beta   89.79750172
_cell_angle_gamma   121.89220857
_symmetry_Int_Tables_number   1
_chemical_formula_structural   Y3HoCo5Si5Ir4
_chemical_formula_sum   'Y6 Ho2 Co10 Si10 Ir8'
_cell_volume   551.07596900
_cell_formula_units_Z   2
loop_
 _symmetry_equiv_pos_site_id
 _symmetry_equiv_pos_as_xyz
  1  'x, y, z'
loop_
 _atom_site_type_symbol
 _atom_site_label
 _atom_site_symmetry_multiplicity
 _atom_site_fract_x
 _atom_site_fract_y
 _atom_site_fract_z
 _atom_site_occupancy
  Y  Y0  1  0.666256  0.334542  0.026804  1
  Y  Y1  1  0.333744  0.665458  0.973196  1
  Y  Y2  1  0.334354  0.669868  0.674727  1
  Y  Y3  1  0.665646  0.330132  0.325273  1
  Y  Y4  1  0.668116  0.330696  0.173149  1
  Y  Y5  1  0.331884  0.669304  0.826851  1
  Ho  Ho6  1  0.332658  0.665560  0.527168  1
  Ho  Ho7  1  0.667342  0.334440  0.472832  1
  Co  Co8  1  0.167120  0.329290  0.085606  1
  Co  Co9  1  0.832880  0.670710  0.914394  1
  Co  Co10  1  0.671239  0.832544  0.086391  1
  Co  Co11  1  0.833969  0.671546  0.586176  1
  Co  Co12  1  0.328761  0.167456  0.913609  1
  Co  Co13  1  0.166031  0.328454  0.413824  1
  Co  Co14  1  0.167415  0.332084  0.247028  1
  Co  Co15  1  0.832585  0.667916  0.752972  1
  Co  Co16  1  0.666142  0.830175  0.249493  1
  Co  Co17  1  0.333858  0.169825  0.750507  1
  Si  Si18  1  0.000000  0.000000  0.000000  1
  Si  Si19  1  0.000000  0.000000  0.500000  1
  Si  Si20  1  0.352755  0.649574  0.166655  1
  Si  Si21  1  0.647245  0.350426  0.833345  1
  Si  Si22  1  0.672479  0.364829  0.671416  1
  Si  Si23  1  0.327521  0.635171  0.328584  1
  Si  Si24  1  0.984601  0.012195  0.167282  1
  Si  Si25  1  0.015399  0.987805  0.832718  1
  Si  Si26  1  0.996460  0.975556  0.671437  1
  Si  Si27  1  0.003540  0.024444  0.328563  1
  Ir  Ir28  1  0.170302  0.829731  0.090620  1
  Ir  Ir29  1  0.336877  0.171144  0.588453  1
  Ir  Ir30  1  0.829698  0.170269  0.909380  1
  Ir  Ir31  1  0.663123  0.828856  0.411547  1
  Ir  Ir32  1  0.834064  0.171072  0.591675  1
  Ir  Ir33  1  0.165936  0.828928  0.408325  1
  Ir  Ir34  1  0.167504  0.830861  0.247660  1
  Ir  Ir35  1  0.832496  0.169139  0.752340  1
