# generated using pymatgen
data_Y(BrO3)3
_symmetry_space_group_name_H-M   'P 1'
_cell_length_a   9.42051793
_cell_length_b   9.42051780
_cell_length_c   10.22321188
_cell_angle_alpha   57.26451908
_cell_angle_beta   57.26451677
_cell_angle_gamma   49.32895984
_symmetry_Int_Tables_number   1
_chemical_formula_structural   Y(BrO3)3
_chemical_formula_sum   'Y2 Br6 O18'
_cell_volume   553.04422865
_cell_formula_units_Z   2
loop_
 _symmetry_equiv_pos_site_id
 _symmetry_equiv_pos_as_xyz
  1  'x, y, z'
loop_
 _atom_site_type_symbol
 _atom_site_label
 _atom_site_symmetry_multiplicity
 _atom_site_fract_x
 _atom_site_fract_y
 _atom_site_fract_z
 _atom_site_occupancy
  Y  Y0  1  0.700517  0.206485  0.233793  1
  Y  Y1  1  0.206485  0.700517  0.733793  1
  Br  Br2  1  0.413886  0.260820  0.055497  1
  Br  Br3  1  0.260820  0.413886  0.555497  1
  Br  Br4  1  0.730988  0.682285  0.998228  1
  Br  Br5  1  0.682285  0.730988  0.498228  1
  Br  Br6  1  0.193391  0.901117  0.966489  1
  Br  Br7  1  0.901117  0.193391  0.466489  1
  O  O8  1  0.540861  0.026923  0.073040  1
  O  O9  1  0.026923  0.540861  0.573040  1
  O  O10  1  0.616304  0.790227  0.865647  1
  O  O11  1  0.790227  0.616304  0.365647  1
  O  O12  1  0.159019  0.093737  0.804865  1
  O  O13  1  0.093737  0.159019  0.304865  1
  O  O14  1  0.564360  0.308595  0.050648  1
  O  O15  1  0.308595  0.564360  0.550648  1
  O  O16  1  0.404152  0.377916  0.859895  1
  O  O17  1  0.377916  0.404152  0.359895  1
  O  O18  1  0.755031  0.455421  0.096849  1
  O  O19  1  0.455421  0.755031  0.596849  1
  O  O20  1  0.968740  0.621717  0.892606  1
  O  O21  1  0.621717  0.968740  0.392606  1
  O  O22  1  0.003823  0.981150  0.128376  1
  O  O23  1  0.981150  0.003823  0.628376  1
  O  O24  1  0.148469  0.761865  0.951566  1
  O  O25  1  0.761865  0.148469  0.451566  1
