# generated using pymatgen
data_LiEr9Cd3Re
_symmetry_space_group_name_H-M   'P 1'
_cell_length_a   9.35441400
_cell_length_b   9.35441523
_cell_length_c   9.63187600
_cell_angle_alpha   90.00000000
_cell_angle_beta   90.00000000
_cell_angle_gamma   120.00000274
_symmetry_Int_Tables_number   1
_chemical_formula_structural   LiEr9Cd3Re
_chemical_formula_sum   'Li2 Er18 Cd6 Re2'
_cell_volume   729.91910792
_cell_formula_units_Z   2
loop_
 _symmetry_equiv_pos_site_id
 _symmetry_equiv_pos_as_xyz
  1  'x, y, z'
loop_
 _atom_site_type_symbol
 _atom_site_label
 _atom_site_symmetry_multiplicity
 _atom_site_fract_x
 _atom_site_fract_y
 _atom_site_fract_z
 _atom_site_occupancy
  Li  Li0  1  0.000000  0.000000  0.500000  1
  Li  Li1  1  0.000000  0.000000  0.000000  1
  Er  Er2  1  0.207877  0.792123  0.443366  1
  Er  Er3  1  0.207877  0.415753  0.443366  1
  Er  Er4  1  0.584247  0.792123  0.443366  1
  Er  Er5  1  0.792123  0.207877  0.556634  1
  Er  Er6  1  0.792123  0.584247  0.556634  1
  Er  Er7  1  0.415753  0.207877  0.556634  1
  Er  Er8  1  0.792123  0.207877  0.943366  1
  Er  Er9  1  0.792123  0.584247  0.943366  1
  Er  Er10  1  0.415753  0.207877  0.943366  1
  Er  Er11  1  0.207877  0.792123  0.056634  1
  Er  Er12  1  0.207877  0.415753  0.056634  1
  Er  Er13  1  0.584247  0.792123  0.056634  1
  Er  Er14  1  0.539639  0.460361  0.250000  1
  Er  Er15  1  0.539639  0.079279  0.250000  1
  Er  Er16  1  0.920721  0.460361  0.250000  1
  Er  Er17  1  0.460361  0.539639  0.750000  1
  Er  Er18  1  0.460361  0.920721  0.750000  1
  Er  Er19  1  0.079279  0.539639  0.750000  1
  Cd  Cd20  1  0.891570  0.108430  0.250000  1
  Cd  Cd21  1  0.891570  0.783140  0.250000  1
  Cd  Cd22  1  0.216860  0.108430  0.250000  1
  Cd  Cd23  1  0.108430  0.891570  0.750000  1
  Cd  Cd24  1  0.108430  0.216860  0.750000  1
  Cd  Cd25  1  0.783140  0.891570  0.750000  1
  Re  Re26  1  0.333333  0.666667  0.250000  1
  Re  Re27  1  0.666667  0.333333  0.750000  1
