# generated using pymatgen
data_Tb16MgCd3FePd3
_symmetry_space_group_name_H-M   'P 1'
_cell_length_a   9.73033826
_cell_length_b   9.73033791
_cell_length_c   9.73033762
_cell_angle_alpha   59.63013737
_cell_angle_beta   59.63013710
_cell_angle_gamma   59.63013752
_symmetry_Int_Tables_number   1
_chemical_formula_structural   Tb16MgCd3FePd3
_chemical_formula_sum   'Tb16 Mg1 Cd3 Fe1 Pd3'
_cell_volume   645.95624493
_cell_formula_units_Z   1
loop_
 _symmetry_equiv_pos_site_id
 _symmetry_equiv_pos_as_xyz
  1  'x, y, z'
loop_
 _atom_site_type_symbol
 _atom_site_label
 _atom_site_symmetry_multiplicity
 _atom_site_fract_x
 _atom_site_fract_y
 _atom_site_fract_z
 _atom_site_occupancy
  Tb  Tb0  1  0.353838  0.353838  0.353838  1
  Tb  Tb1  1  0.344569  0.344569  0.952760  1
  Tb  Tb2  1  0.344569  0.952760  0.344569  1
  Tb  Tb3  1  0.952760  0.344569  0.344569  1
  Tb  Tb4  1  0.821028  0.189008  0.189008  1
  Tb  Tb5  1  0.187444  0.811127  0.811127  1
  Tb  Tb6  1  0.189008  0.821028  0.189008  1
  Tb  Tb7  1  0.811127  0.187444  0.811127  1
  Tb  Tb8  1  0.189008  0.189008  0.821028  1
  Tb  Tb9  1  0.811127  0.811127  0.187444  1
  Tb  Tb10  1  0.934983  0.565510  0.565510  1
  Tb  Tb11  1  0.561357  0.935932  0.935932  1
  Tb  Tb12  1  0.565510  0.934983  0.565510  1
  Tb  Tb13  1  0.935932  0.561357  0.935932  1
  Tb  Tb14  1  0.565510  0.565510  0.934983  1
  Tb  Tb15  1  0.935932  0.935932  0.561357  1
  Mg  Mg16  1  0.575207  0.575207  0.575207  1
  Cd  Cd17  1  0.582030  0.582030  0.253197  1
  Cd  Cd18  1  0.582030  0.253197  0.582030  1
  Cd  Cd19  1  0.253197  0.582030  0.582030  1
  Fe  Fe20  1  0.143340  0.143340  0.143340  1
  Pd  Pd21  1  0.145142  0.145142  0.570213  1
  Pd  Pd22  1  0.145142  0.570213  0.145142  1
  Pd  Pd23  1  0.570213  0.145142  0.145142  1
