# generated using pymatgen
data_Pu2CoH6
_symmetry_space_group_name_H-M   'P 1'
_cell_length_a   7.10278669
_cell_length_b   7.10278643
_cell_length_c   4.97669100
_cell_angle_alpha   90.00000000
_cell_angle_beta   90.00000000
_cell_angle_gamma   138.99138771
_symmetry_Int_Tables_number   1
_chemical_formula_structural   Pu2CoH6
_chemical_formula_sum   'Pu4 Co2 H12'
_cell_volume   164.74650352
_cell_formula_units_Z   2
loop_
 _symmetry_equiv_pos_site_id
 _symmetry_equiv_pos_as_xyz
  1  'x, y, z'
loop_
 _atom_site_type_symbol
 _atom_site_label
 _atom_site_symmetry_multiplicity
 _atom_site_fract_x
 _atom_site_fract_y
 _atom_site_fract_z
 _atom_site_occupancy
  Pu  Pu0  1  0.138803  0.861197  0.500000  1
  Pu  Pu1  1  0.638803  0.361197  0.000000  1
  Pu  Pu2  1  0.861197  0.138803  0.500000  1
  Pu  Pu3  1  0.361197  0.638803  0.000000  1
  Co  Co4  1  0.500000  0.500000  0.500000  1
  Co  Co5  1  0.000000  0.000000  0.000000  1
  H  H6  1  0.000013  0.500013  0.750000  1
  H  H7  1  0.499987  0.999987  0.250000  1
  H  H8  1  0.999987  0.499987  0.250000  1
  H  H9  1  0.500013  0.000013  0.750000  1
  H  H10  1  0.377365  0.622635  0.500000  1
  H  H11  1  0.877365  0.122635  0.000000  1
  H  H12  1  0.622635  0.377365  0.500000  1
  H  H13  1  0.122635  0.877365  0.000000  1
  H  H14  1  0.251531  0.251531  0.748692  1
  H  H15  1  0.748469  0.748469  0.251308  1
  H  H16  1  0.248469  0.248469  0.248692  1
  H  H17  1  0.751531  0.751531  0.751308  1
