# generated using pymatgen
data_Si6Tc7Ni3
_symmetry_space_group_name_H-M   'P 1'
_cell_length_a   6.94652800
_cell_length_b   6.94652825
_cell_length_c   4.90277200
_cell_angle_alpha   90.00000000
_cell_angle_beta   90.00000000
_cell_angle_gamma   119.99999883
_symmetry_Int_Tables_number   1
_chemical_formula_structural   Si6Tc7Ni3
_chemical_formula_sum   'Si6 Tc7 Ni3'
_cell_volume   204.88394630
_cell_formula_units_Z   1
loop_
 _symmetry_equiv_pos_site_id
 _symmetry_equiv_pos_as_xyz
  1  'x, y, z'
loop_
 _atom_site_type_symbol
 _atom_site_label
 _atom_site_symmetry_multiplicity
 _atom_site_fract_x
 _atom_site_fract_y
 _atom_site_fract_z
 _atom_site_occupancy
  Si  Si0  1  0.599180  0.004843  0.249400  1
  Si  Si1  1  0.405662  0.400820  0.249400  1
  Si  Si2  1  0.995157  0.594338  0.249400  1
  Si  Si3  1  0.405661  0.004843  0.750599  1
  Si  Si4  1  0.995157  0.400820  0.750599  1
  Si  Si5  1  0.599180  0.594338  0.750599  1
  Tc  Tc6  1  0.238156  0.999267  0.241776  1
  Tc  Tc7  1  0.000733  0.238887  0.241776  1
  Tc  Tc8  1  0.761113  0.761844  0.241776  1
  Tc  Tc9  1  0.333333  0.666666  0.500001  1
  Tc  Tc10  1  0.761113  0.999267  0.758223  1
  Tc  Tc11  1  0.238155  0.238887  0.758223  1
  Tc  Tc12  1  0.000733  0.761844  0.758223  1
  Ni  Ni13  1  0.666667  0.333333  0.000000  1
  Ni  Ni14  1  0.333333  0.666666  0.000000  1
  Ni  Ni15  1  0.666667  0.333333  0.500001  1
