# generated using pymatgen
data_Nd3Bi(SeO3)6
_symmetry_space_group_name_H-M   'P 1'
_cell_length_a   7.34601746
_cell_length_b   8.39111732
_cell_length_c   9.35621329
_cell_angle_alpha   70.79419253
_cell_angle_beta   70.02374929
_cell_angle_gamma   66.10244849
_symmetry_Int_Tables_number   1
_chemical_formula_structural   Nd3Bi(SeO3)6
_chemical_formula_sum   'Nd3 Bi1 Se6 O18'
_cell_volume   483.22121118
_cell_formula_units_Z   1
loop_
 _symmetry_equiv_pos_site_id
 _symmetry_equiv_pos_as_xyz
  1  'x, y, z'
loop_
 _atom_site_type_symbol
 _atom_site_label
 _atom_site_symmetry_multiplicity
 _atom_site_fract_x
 _atom_site_fract_y
 _atom_site_fract_z
 _atom_site_occupancy
  Nd  Nd0  1  0.259076  0.265625  0.197999  1
  Nd  Nd1  1  0.334523  0.729840  0.589068  1
  Nd  Nd2  1  0.666218  0.267185  0.413227  1
  Bi  Bi3  1  0.739275  0.735741  0.807627  1
  Se  Se4  1  0.112196  0.240839  0.581460  1
  Se  Se5  1  0.428592  0.772895  0.200303  1
  Se  Se6  1  0.149003  0.753429  0.962332  1
  Se  Se7  1  0.847573  0.252132  0.036419  1
  Se  Se8  1  0.573033  0.225099  0.800319  1
  Se  Se9  1  0.888189  0.757928  0.419855  1
  O  O10  1  0.154776  0.019655  0.653367  1
  O  O11  1  0.166603  0.575829  0.116271  1
  O  O12  1  0.030842  0.706891  0.554957  1
  O  O13  1  0.339213  0.249757  0.439672  1
  O  O14  1  0.065917  0.696746  0.836653  1
  O  O15  1  0.596716  0.288992  0.148848  1
  O  O16  1  0.358106  0.207202  0.941872  1
  O  O17  1  0.360825  0.937050  0.302407  1
  O  O18  1  0.513808  0.594025  0.348835  1
  O  O19  1  0.486659  0.404306  0.652105  1
  O  O20  1  0.637704  0.064077  0.694570  1
  O  O21  1  0.647249  0.791506  0.061489  1
  O  O22  1  0.400310  0.711011  0.847764  1
  O  O23  1  0.932204  0.304731  0.161940  1
  O  O24  1  0.661657  0.748448  0.560358  1
  O  O25  1  0.971732  0.290377  0.444581  1
  O  O26  1  0.832047  0.429030  0.879001  1
  O  O27  1  0.845956  0.979652  0.346702  1
