# generated using pymatgen
data_Nd17Tm3(GaSn3)4
_symmetry_space_group_name_H-M   'P 1'
_cell_length_a   7.97221200
_cell_length_b   8.55503100
_cell_length_c   15.97083400
_cell_angle_alpha   90.00000000
_cell_angle_beta   90.00000000
_cell_angle_gamma   90.00180158
_symmetry_Int_Tables_number   1
_chemical_formula_structural   Nd17Tm3(GaSn3)4
_chemical_formula_sum   'Nd17 Tm3 Ga4 Sn12'
_cell_volume   1089.25113806
_cell_formula_units_Z   1
loop_
 _symmetry_equiv_pos_site_id
 _symmetry_equiv_pos_as_xyz
  1  'x, y, z'
loop_
 _atom_site_type_symbol
 _atom_site_label
 _atom_site_symmetry_multiplicity
 _atom_site_fract_x
 _atom_site_fract_y
 _atom_site_fract_z
 _atom_site_occupancy
  Nd  Nd0  1  0.339582  0.825852  0.870158  1
  Nd  Nd1  1  0.838575  0.672433  0.629557  1
  Nd  Nd2  1  0.658047  0.174199  0.372650  1
  Nd  Nd3  1  0.162649  0.328496  0.126662  1
  Nd  Nd4  1  0.658047  0.174199  0.127350  1
  Nd  Nd5  1  0.162649  0.328496  0.373338  1
  Nd  Nd6  1  0.339582  0.825852  0.629842  1
  Nd  Nd7  1  0.838575  0.672433  0.870443  1
  Nd  Nd8  1  0.500548  0.315105  0.902998  1
  Nd  Nd9  1  0.000780  0.182290  0.596076  1
  Nd  Nd10  1  0.502053  0.684065  0.404262  1
  Nd  Nd11  1  0.000418  0.814543  0.093086  1
  Nd  Nd12  1  0.502053  0.684065  0.095738  1
  Nd  Nd13  1  0.000418  0.814543  0.406914  1
  Nd  Nd14  1  0.500548  0.315105  0.597002  1
  Nd  Nd15  1  0.000780  0.182290  0.903924  1
  Nd  Nd16  1  0.305783  0.994632  0.250000  1
  Tm  Tm17  1  0.188346  0.493118  0.750000  1
  Tm  Tm18  1  0.689365  0.006157  0.750000  1
  Tm  Tm19  1  0.813670  0.503805  0.250000  1
  Ga  Ga20  1  0.536770  0.601718  0.750000  1
  Ga  Ga21  1  0.036357  0.893755  0.750000  1
  Ga  Ga22  1  0.462904  0.399421  0.250000  1
  Ga  Ga23  1  0.953968  0.122218  0.250000  1
  Sn  Sn24  1  0.318987  0.034483  0.036283  1
  Sn  Sn25  1  0.819499  0.465843  0.461166  1
  Sn  Sn26  1  0.681348  0.965851  0.540298  1
  Sn  Sn27  1  0.180905  0.534044  0.959174  1
  Sn  Sn28  1  0.681348  0.965851  0.959702  1
  Sn  Sn29  1  0.180905  0.534044  0.540826  1
  Sn  Sn30  1  0.318987  0.034483  0.463717  1
  Sn  Sn31  1  0.819499  0.465843  0.038834  1
  Sn  Sn32  1  0.297208  0.138306  0.750000  1
  Sn  Sn33  1  0.801026  0.359773  0.750000  1
  Sn  Sn34  1  0.709509  0.861030  0.250000  1
  Sn  Sn35  1  0.198309  0.631658  0.250000  1
