# generated using pymatgen
data_Sm2HoEr(B6Ru)2
_symmetry_space_group_name_H-M   'P 1'
_cell_length_a   3.68654700
_cell_length_b   9.17579933
_cell_length_c   11.58065000
_cell_angle_alpha   90.01680255
_cell_angle_beta   90.00000000
_cell_angle_gamma   90.00000000
_symmetry_Int_Tables_number   1
_chemical_formula_structural   Sm2HoEr(B6Ru)2
_chemical_formula_sum   'Sm4 Ho2 Er2 B24 Ru4'
_cell_volume   391.73881037
_cell_formula_units_Z   2
loop_
 _symmetry_equiv_pos_site_id
 _symmetry_equiv_pos_as_xyz
  1  'x, y, z'
loop_
 _atom_site_type_symbol
 _atom_site_label
 _atom_site_symmetry_multiplicity
 _atom_site_fract_x
 _atom_site_fract_y
 _atom_site_fract_z
 _atom_site_occupancy
  Sm  Sm0  1  0.000000  0.322743  0.414333  1
  Sm  Sm1  1  0.000000  0.677257  0.585667  1
  Sm  Sm2  1  0.000000  0.822433  0.085574  1
  Sm  Sm3  1  0.000000  0.177567  0.914426  1
  Ho  Ho4  1  0.000000  0.943845  0.371764  1
  Ho  Ho5  1  0.000000  0.056155  0.628236  1
  Er  Er6  1  0.000000  0.443852  0.128051  1
  Er  Er7  1  0.000000  0.556148  0.871949  1
  B  B8  1  0.500000  0.555355  0.431348  1
  B  B9  1  0.500000  0.444645  0.568652  1
  B  B10  1  0.500000  0.055624  0.068425  1
  B  B11  1  0.500000  0.944376  0.931575  1
  B  B12  1  0.500000  0.749025  0.417965  1
  B  B13  1  0.500000  0.250975  0.582035  1
  B  B14  1  0.500000  0.249670  0.081834  1
  B  B15  1  0.500000  0.750330  0.918166  1
  B  B16  1  0.500000  0.790451  0.266107  1
  B  B17  1  0.500000  0.209549  0.733893  1
  B  B18  1  0.500000  0.291050  0.233545  1
  B  B19  1  0.500000  0.708950  0.766455  1
  B  B20  1  0.500000  0.630648  0.184651  1
  B  B21  1  0.500000  0.369352  0.815349  1
  B  B22  1  0.500000  0.131241  0.314958  1
  B  B23  1  0.500000  0.868759  0.685042  1
  B  B24  1  0.500000  0.985119  0.213350  1
  B  B25  1  0.500000  0.014881  0.786650  1
  B  B26  1  0.500000  0.484668  0.286199  1
  B  B27  1  0.500000  0.515332  0.713801  1
  B  B28  1  0.500000  0.603404  0.028323  1
  B  B29  1  0.500000  0.396596  0.971677  1
  B  B30  1  0.500000  0.104500  0.471429  1
  B  B31  1  0.500000  0.895500  0.528571  1
  Ru  Ru32  1  0.000000  0.638524  0.319625  1
  Ru  Ru33  1  0.000000  0.361476  0.680375  1
  Ru  Ru34  1  0.000000  0.139227  0.179889  1
  Ru  Ru35  1  0.000000  0.860773  0.820111  1
