# generated using pymatgen
data_Er8Re2TcB24Ru
_symmetry_space_group_name_H-M   'P 1'
_cell_length_a   3.65251500
_cell_length_b   9.12087177
_cell_length_c   11.49872002
_cell_angle_alpha   89.91963176
_cell_angle_beta   90.00000000
_cell_angle_gamma   90.00000000
_symmetry_Int_Tables_number   1
_chemical_formula_structural   Er8Re2TcB24Ru
_chemical_formula_sum   'Er8 Re2 Tc1 B24 Ru1'
_cell_volume   383.06937268
_cell_formula_units_Z   1
loop_
 _symmetry_equiv_pos_site_id
 _symmetry_equiv_pos_as_xyz
  1  'x, y, z'
loop_
 _atom_site_type_symbol
 _atom_site_label
 _atom_site_symmetry_multiplicity
 _atom_site_fract_x
 _atom_site_fract_y
 _atom_site_fract_z
 _atom_site_occupancy
  Er  Er0  1  0.000000  0.323491  0.413557  1
  Er  Er1  1  0.000000  0.675679  0.584147  1
  Er  Er2  1  0.000000  0.822279  0.087779  1
  Er  Er3  1  0.000000  0.178283  0.914061  1
  Er  Er4  1  0.000000  0.941999  0.371117  1
  Er  Er5  1  0.000000  0.057051  0.630040  1
  Er  Er6  1  0.000000  0.443841  0.129603  1
  Er  Er7  1  0.000000  0.558344  0.870109  1
  Re  Re8  1  0.000000  0.362032  0.679664  1
  Re  Re9  1  0.000000  0.137505  0.178210  1
  Tc  Tc10  1  0.000000  0.638278  0.320602  1
  B  B11  1  0.500000  0.552699  0.432878  1
  B  B12  1  0.500000  0.447480  0.566415  1
  B  B13  1  0.500000  0.052223  0.066467  1
  B  B14  1  0.500000  0.946409  0.932932  1
  B  B15  1  0.500000  0.748360  0.419179  1
  B  B16  1  0.500000  0.250691  0.580748  1
  B  B17  1  0.500000  0.249439  0.080589  1
  B  B18  1  0.500000  0.751551  0.918954  1
  B  B19  1  0.500000  0.791833  0.265768  1
  B  B20  1  0.500000  0.207963  0.734985  1
  B  B21  1  0.500000  0.292189  0.234458  1
  B  B22  1  0.500000  0.709166  0.765402  1
  B  B23  1  0.500000  0.631046  0.185350  1
  B  B24  1  0.500000  0.369373  0.815282  1
  B  B25  1  0.500000  0.130255  0.314486  1
  B  B26  1  0.500000  0.868826  0.685480  1
  B  B27  1  0.500000  0.980656  0.212156  1
  B  B28  1  0.500000  0.017281  0.788113  1
  B  B29  1  0.500000  0.481685  0.287718  1
  B  B30  1  0.500000  0.518845  0.711943  1
  B  B31  1  0.500000  0.602583  0.028279  1
  B  B32  1  0.500000  0.399454  0.971566  1
  B  B33  1  0.500000  0.101487  0.471936  1
  B  B34  1  0.500000  0.897773  0.528988  1
  Ru  Ru35  1  0.000000  0.861950  0.821039  1
