# generated using pymatgen
data_Nd(AlB14)2
_symmetry_space_group_name_H-M   'P 1'
_cell_length_a   7.26804516
_cell_length_b   7.26804500
_cell_length_c   5.82928902
_cell_angle_alpha   66.58675551
_cell_angle_beta   66.58675651
_cell_angle_gamma   92.47736478
_symmetry_Int_Tables_number   1
_chemical_formula_structural   Nd(AlB14)2
_chemical_formula_sum   'Nd1 Al2 B28'
_cell_volume   251.80467443
_cell_formula_units_Z   1
loop_
 _symmetry_equiv_pos_site_id
 _symmetry_equiv_pos_as_xyz
  1  'x, y, z'
loop_
 _atom_site_type_symbol
 _atom_site_label
 _atom_site_symmetry_multiplicity
 _atom_site_fract_x
 _atom_site_fract_y
 _atom_site_fract_z
 _atom_site_occupancy
  Nd  Nd0  1  0.892514  0.892514  0.356352  1
  Al  Al1  1  0.499712  0.499712  0.503050  1
  Al  Al2  1  0.163002  0.163002  0.489323  1
  B  B3  1  0.417581  0.737400  0.171278  1
  B  B4  1  0.581843  0.256427  0.835864  1
  B  B5  1  0.256427  0.581843  0.835864  1
  B  B6  1  0.737400  0.417581  0.171278  1
  B  B7  1  0.694540  0.861591  0.972914  1
  B  B8  1  0.306465  0.134802  0.034655  1
  B  B9  1  0.134802  0.306465  0.034655  1
  B  B10  1  0.861591  0.694540  0.972914  1
  B  B11  1  0.532424  0.872432  0.300225  1
  B  B12  1  0.470299  0.123632  0.205759  1
  B  B13  1  0.123632  0.470299  0.205759  1
  B  B14  1  0.872432  0.532424  0.300225  1
  B  B15  1  0.462431  0.120892  0.711638  1
  B  B16  1  0.530667  0.870122  0.802087  1
  B  B17  1  0.870122  0.530667  0.802087  1
  B  B18  1  0.120892  0.462431  0.711638  1
  B  B19  1  0.721536  0.101420  0.999215  1
  B  B20  1  0.281787  0.892827  0.326314  1
  B  B21  1  0.892827  0.281787  0.326314  1
  B  B22  1  0.101420  0.721536  0.999215  1
  B  B23  1  0.279299  0.894976  0.006524  1
  B  B24  1  0.718248  0.101741  0.685822  1
  B  B25  1  0.101741  0.718248  0.685822  1
  B  B26  1  0.894976  0.279299  0.006524  1
  B  B27  1  0.271763  0.475130  0.379507  1
  B  B28  1  0.715395  0.517105  0.643834  1
  B  B29  1  0.517105  0.715395  0.643834  1
  B  B30  1  0.475130  0.271763  0.379507  1
