# generated using pymatgen
data_LiTb4Ho12Ni4Hg3
_symmetry_space_group_name_H-M   'P 1'
_cell_length_a   9.45947344
_cell_length_b   9.47464010
_cell_length_c   9.49267500
_cell_angle_alpha   59.97998563
_cell_angle_beta   59.96346870
_cell_angle_gamma   59.90538990
_symmetry_Int_Tables_number   1
_chemical_formula_structural   LiTb4Ho12Ni4Hg3
_chemical_formula_sum   'Li1 Tb4 Ho12 Ni4 Hg3'
_cell_volume   600.90570955
_cell_formula_units_Z   1
loop_
 _symmetry_equiv_pos_site_id
 _symmetry_equiv_pos_as_xyz
  1  'x, y, z'
loop_
 _atom_site_type_symbol
 _atom_site_label
 _atom_site_symmetry_multiplicity
 _atom_site_fract_x
 _atom_site_fract_y
 _atom_site_fract_z
 _atom_site_occupancy
  Li  Li0  1  0.567123  0.567549  0.295702  1
  Tb  Tb1  1  0.936581  0.937253  0.560749  1
  Tb  Tb2  1  0.814591  0.187784  0.185964  1
  Tb  Tb3  1  0.936513  0.564075  0.563206  1
  Tb  Tb4  1  0.935695  0.562564  0.937888  1
  Ho  Ho5  1  0.813522  0.813791  0.185591  1
  Ho  Ho6  1  0.346211  0.346613  0.346365  1
  Ho  Ho7  1  0.560997  0.937139  0.937099  1
  Ho  Ho8  1  0.562199  0.938024  0.563490  1
  Ho  Ho9  1  0.189872  0.810783  0.809056  1
  Ho  Ho10  1  0.192359  0.190626  0.807724  1
  Ho  Ho11  1  0.353699  0.353197  0.942884  1
  Ho  Ho12  1  0.349296  0.952080  0.351043  1
  Ho  Ho13  1  0.810074  0.189424  0.809045  1
  Ho  Ho14  1  0.561921  0.564574  0.936853  1
  Ho  Ho15  1  0.189287  0.813930  0.185699  1
  Ho  Ho16  1  0.953178  0.348451  0.351654  1
  Ni  Ni17  1  0.571658  0.144023  0.139420  1
  Ni  Ni18  1  0.146629  0.144442  0.140856  1
  Ni  Ni19  1  0.144766  0.572543  0.138870  1
  Ni  Ni20  1  0.143860  0.142117  0.572957  1
  Hg  Hg21  1  0.247833  0.585737  0.579355  1
  Hg  Hg22  1  0.586657  0.587281  0.577529  1
  Hg  Hg23  1  0.585483  0.246006  0.581008  1
