# generated using pymatgen
data_Sr2(OsO3)3
_symmetry_space_group_name_H-M   'P 1'
_cell_length_a   8.00918203
_cell_length_b   8.00918264
_cell_length_c   8.00918200
_cell_angle_alpha   109.47122408
_cell_angle_beta   109.47122562
_cell_angle_gamma   109.47121768
_symmetry_Int_Tables_number   1
_chemical_formula_structural   Sr2(OsO3)3
_chemical_formula_sum   'Sr4 Os6 O18'
_cell_volume   395.49646316
_cell_formula_units_Z   2
loop_
 _symmetry_equiv_pos_site_id
 _symmetry_equiv_pos_as_xyz
  1  'x, y, z'
loop_
 _atom_site_type_symbol
 _atom_site_label
 _atom_site_symmetry_multiplicity
 _atom_site_fract_x
 _atom_site_fract_y
 _atom_site_fract_z
 _atom_site_occupancy
  Sr  Sr0  1  0.000000  0.000000  0.389770  1
  Sr  Sr1  1  0.000000  0.389770  0.000000  1
  Sr  Sr2  1  0.610230  0.610230  0.610230  1
  Sr  Sr3  1  0.389770  0.000000  0.000000  1
  Os  Os4  1  0.366078  0.500000  0.866078  1
  Os  Os5  1  0.866078  0.366078  0.500000  1
  Os  Os6  1  0.500000  0.133922  0.633922  1
  Os  Os7  1  0.133922  0.633922  0.500000  1
  Os  Os8  1  0.500000  0.866078  0.366078  1
  Os  Os9  1  0.633922  0.500000  0.133922  1
  O  O10  1  0.328988  0.000000  0.328988  1
  O  O11  1  0.328988  0.328988  0.000000  1
  O  O12  1  0.000000  0.671012  0.671012  1
  O  O13  1  0.671012  0.671012  0.000000  1
  O  O14  1  0.000000  0.328988  0.328988  1
  O  O15  1  0.671012  0.000000  0.671012  1
  O  O16  1  0.365385  0.300986  0.637139  1
  O  O17  1  0.064397  0.336153  0.699014  1
  O  O18  1  0.728244  0.362861  0.663847  1
  O  O19  1  0.362861  0.663847  0.728244  1
  O  O20  1  0.271756  0.935603  0.634615  1
  O  O21  1  0.637139  0.365385  0.300986  1
  O  O22  1  0.300986  0.637139  0.365385  1
  O  O23  1  0.699014  0.064397  0.336153  1
  O  O24  1  0.935603  0.634615  0.271756  1
  O  O25  1  0.663847  0.728244  0.362861  1
  O  O26  1  0.634615  0.271756  0.935603  1
  O  O27  1  0.336153  0.699014  0.064397  1
