# generated using pymatgen
data_Tm5(GeB4)2
_symmetry_space_group_name_H-M   'P 1'
_cell_length_a   7.17789600
_cell_length_b   7.17789600
_cell_length_c   7.99711100
_cell_angle_alpha   90.00000000
_cell_angle_beta   90.00000000
_cell_angle_gamma   90.00000000
_symmetry_Int_Tables_number   1
_chemical_formula_structural   Tm5(GeB4)2
_chemical_formula_sum   'Tm10 Ge4 B16'
_cell_volume   412.02868028
_cell_formula_units_Z   2
loop_
 _symmetry_equiv_pos_site_id
 _symmetry_equiv_pos_as_xyz
  1  'x, y, z'
loop_
 _atom_site_type_symbol
 _atom_site_label
 _atom_site_symmetry_multiplicity
 _atom_site_fract_x
 _atom_site_fract_y
 _atom_site_fract_z
 _atom_site_occupancy
  Tm  Tm0  1  0.680379  0.180379  0.220739  1
  Tm  Tm1  1  0.319621  0.819621  0.779261  1
  Tm  Tm2  1  0.319621  0.819621  0.220739  1
  Tm  Tm3  1  0.819621  0.680379  0.220739  1
  Tm  Tm4  1  0.819621  0.680379  0.779261  1
  Tm  Tm5  1  0.680379  0.180379  0.779261  1
  Tm  Tm6  1  0.180379  0.319621  0.779261  1
  Tm  Tm7  1  0.180379  0.319621  0.220739  1
  Tm  Tm8  1  0.000000  0.000000  0.500000  1
  Tm  Tm9  1  0.500000  0.500000  0.500000  1
  Ge  Ge10  1  0.121513  0.621513  0.500000  1
  Ge  Ge11  1  0.878487  0.378487  0.500000  1
  Ge  Ge12  1  0.378487  0.121513  0.500000  1
  Ge  Ge13  1  0.621513  0.878487  0.500000  1
  B  B14  1  0.172501  0.039335  0.000000  1
  B  B15  1  0.827499  0.960665  0.000000  1
  B  B16  1  0.960665  0.172501  0.000000  1
  B  B17  1  0.327499  0.539335  0.000000  1
  B  B18  1  0.039335  0.827499  0.000000  1
  B  B19  1  0.672501  0.460665  0.000000  1
  B  B20  1  0.539335  0.672501  0.000000  1
  B  B21  1  0.460665  0.327499  0.000000  1
  B  B22  1  0.089943  0.589943  0.000000  1
  B  B23  1  0.910057  0.410057  0.000000  1
  B  B24  1  0.410057  0.089943  0.000000  1
  B  B25  1  0.589943  0.910057  0.000000  1
  B  B26  1  0.000000  0.000000  0.165513  1
  B  B27  1  0.000000  0.000000  0.834487  1
  B  B28  1  0.500000  0.500000  0.834487  1
  B  B29  1  0.500000  0.500000  0.165513  1
