# generated using pymatgen
data_Yb3MnNb2O9
_symmetry_space_group_name_H-M   'P 1'
_cell_length_a   5.64913648
_cell_length_b   5.64913840
_cell_length_c   13.66052900
_cell_angle_alpha   89.09065576
_cell_angle_beta   89.09064531
_cell_angle_gamma   58.52623949
_symmetry_Int_Tables_number   1
_chemical_formula_structural   Yb3MnNb2O9
_chemical_formula_sum   'Yb6 Mn2 Nb4 O18'
_cell_volume   371.74704721
_cell_formula_units_Z   2
loop_
 _symmetry_equiv_pos_site_id
 _symmetry_equiv_pos_as_xyz
  1  'x, y, z'
loop_
 _atom_site_type_symbol
 _atom_site_label
 _atom_site_symmetry_multiplicity
 _atom_site_fract_x
 _atom_site_fract_y
 _atom_site_fract_z
 _atom_site_occupancy
  Yb  Yb0  1  0.961282  0.978126  0.740068  1
  Yb  Yb1  1  0.645220  0.620166  0.408822  1
  Yb  Yb2  1  0.297432  0.298403  0.075465  1
  Yb  Yb3  1  0.978126  0.961282  0.240068  1
  Yb  Yb4  1  0.620166  0.645220  0.908822  1
  Yb  Yb5  1  0.298403  0.297432  0.575465  1
  Mn  Mn6  1  0.997697  0.990395  0.498688  1
  Mn  Mn7  1  0.990395  0.997697  0.998688  1
  Nb  Nb8  1  0.672937  0.662269  0.162539  1
  Nb  Nb9  1  0.321078  0.345788  0.839631  1
  Nb  Nb10  1  0.662269  0.672937  0.662539  1
  Nb  Nb11  1  0.345788  0.321078  0.339631  1
  O  O12  1  0.741794  0.944531  0.600158  1
  O  O13  1  0.432242  0.615554  0.258942  1
  O  O14  1  0.079178  0.292527  0.922509  1
  O  O15  1  0.738239  0.170148  0.377796  1
  O  O16  1  0.413779  0.827811  0.057897  1
  O  O17  1  0.075522  0.496853  0.720839  1
  O  O18  1  0.248915  0.585636  0.448187  1
  O  O19  1  0.887683  0.286821  0.121013  1
  O  O20  1  0.555787  0.959798  0.785400  1
  O  O21  1  0.286821  0.887683  0.621013  1
  O  O22  1  0.959798  0.555787  0.285400  1
  O  O23  1  0.585636  0.248915  0.948187  1
  O  O24  1  0.827811  0.413779  0.557897  1
  O  O25  1  0.496853  0.075522  0.220839  1
  O  O26  1  0.170148  0.738239  0.877796  1
  O  O27  1  0.292527  0.079178  0.422509  1
  O  O28  1  0.944531  0.741794  0.100158  1
  O  O29  1  0.615554  0.432242  0.758942  1
