# generated using pymatgen
data_Nd8Si13Sn
_symmetry_space_group_name_H-M   'P 1'
_cell_length_a   8.12488296
_cell_length_b   8.00137587
_cell_length_c   8.61826600
_cell_angle_alpha   90.00000000
_cell_angle_beta   90.00000000
_cell_angle_gamma   120.52627139
_symmetry_Int_Tables_number   1
_chemical_formula_structural   Nd8Si13Sn
_chemical_formula_sum   'Nd8 Si13 Sn1'
_cell_volume   482.61932511
_cell_formula_units_Z   1
loop_
 _symmetry_equiv_pos_site_id
 _symmetry_equiv_pos_as_xyz
  1  'x, y, z'
loop_
 _atom_site_type_symbol
 _atom_site_label
 _atom_site_symmetry_multiplicity
 _atom_site_fract_x
 _atom_site_fract_y
 _atom_site_fract_z
 _atom_site_occupancy
  Nd  Nd0  1  0.263071  0.254077  0.990906  1
  Nd  Nd1  1  0.749517  0.753398  0.002204  1
  Nd  Nd2  1  0.749517  0.753398  0.497796  1
  Nd  Nd3  1  0.263071  0.254077  0.509094  1
  Nd  Nd4  1  0.251899  0.748159  0.494884  1
  Nd  Nd5  1  0.740102  0.254227  0.513780  1
  Nd  Nd6  1  0.740102  0.254227  0.986220  1
  Nd  Nd7  1  0.251899  0.748159  0.005116  1
  Si  Si8  1  0.941358  0.630381  0.750000  1
  Si  Si9  1  0.587240  0.421548  0.250000  1
  Si  Si10  1  0.414553  0.584921  0.750000  1
  Si  Si11  1  0.415219  0.588668  0.250000  1
  Si  Si12  1  0.593600  0.422291  0.750000  1
  Si  Si13  1  0.072138  0.938341  0.250000  1
  Si  Si14  1  0.933308  0.071061  0.750000  1
  Si  Si15  1  0.619522  0.940997  0.250000  1
  Si  Si16  1  0.384808  0.061863  0.750000  1
  Si  Si17  1  0.925580  0.589164  0.250000  1
  Si  Si18  1  0.072448  0.417397  0.750000  1
  Si  Si19  1  0.414786  0.076115  0.250000  1
  Si  Si20  1  0.589256  0.927187  0.750000  1
  Sn  Sn21  1  0.027006  0.310342  0.250000  1
