# generated using pymatgen
data_CaNp3(TcB6)2
_symmetry_space_group_name_H-M   'P 1'
_cell_length_a   3.62657400
_cell_length_b   9.27297509
_cell_length_c   11.35142311
_cell_angle_alpha   89.98366425
_cell_angle_beta   90.00000000
_cell_angle_gamma   90.00000000
_symmetry_Int_Tables_number   1
_chemical_formula_structural   CaNp3(TcB6)2
_chemical_formula_sum   'Ca2 Np6 Tc4 B24'
_cell_volume   381.73847242
_cell_formula_units_Z   2
loop_
 _symmetry_equiv_pos_site_id
 _symmetry_equiv_pos_as_xyz
  1  'x, y, z'
loop_
 _atom_site_type_symbol
 _atom_site_label
 _atom_site_symmetry_multiplicity
 _atom_site_fract_x
 _atom_site_fract_y
 _atom_site_fract_z
 _atom_site_occupancy
  Ca  Ca0  1  0.000000  0.339440  0.408050  1
  Ca  Ca1  1  0.000000  0.660560  0.591950  1
  Np  Np2  1  0.000000  0.837535  0.093795  1
  Np  Np3  1  0.000000  0.162465  0.906205  1
  Np  Np4  1  0.000000  0.958438  0.400639  1
  Np  Np5  1  0.000000  0.041562  0.599361  1
  Np  Np6  1  0.000000  0.459157  0.099605  1
  Np  Np7  1  0.000000  0.540843  0.900395  1
  Tc  Tc8  1  0.000000  0.649885  0.315187  1
  Tc  Tc9  1  0.000000  0.350115  0.684813  1
  Tc  Tc10  1  0.000000  0.143834  0.178962  1
  Tc  Tc11  1  0.000000  0.856166  0.821038  1
  B  B12  1  0.500000  0.553330  0.430255  1
  B  B13  1  0.500000  0.446670  0.569745  1
  B  B14  1  0.500000  0.051944  0.068162  1
  B  B15  1  0.500000  0.948056  0.931838  1
  B  B16  1  0.500000  0.744652  0.422151  1
  B  B17  1  0.500000  0.255348  0.577849  1
  B  B18  1  0.500000  0.243142  0.076503  1
  B  B19  1  0.500000  0.756858  0.923497  1
  B  B20  1  0.500000  0.805554  0.274009  1
  B  B21  1  0.500000  0.194446  0.725991  1
  B  B22  1  0.500000  0.304013  0.224381  1
  B  B23  1  0.500000  0.695987  0.775619  1
  B  B24  1  0.500000  0.645826  0.188024  1
  B  B25  1  0.500000  0.354174  0.811976  1
  B  B26  1  0.500000  0.143977  0.311183  1
  B  B27  1  0.500000  0.856023  0.688817  1
  B  B28  1  0.500000  0.988589  0.220194  1
  B  B29  1  0.500000  0.011411  0.779806  1
  B  B30  1  0.500000  0.490096  0.279264  1
  B  B31  1  0.500000  0.509904  0.720736  1
  B  B32  1  0.500000  0.642667  0.039185  1
  B  B33  1  0.500000  0.357333  0.960815  1
  B  B34  1  0.500000  0.138016  0.461397  1
  B  B35  1  0.500000  0.861984  0.538603  1
