# generated using pymatgen
data_TbY9(GaSb2)2
_symmetry_space_group_name_H-M   'P 1'
_cell_length_a   8.86776816
_cell_length_b   8.86027503
_cell_length_c   6.44089101
_cell_angle_alpha   89.99530257
_cell_angle_beta   90.00234977
_cell_angle_gamma   119.97204647
_symmetry_Int_Tables_number   1
_chemical_formula_structural   TbY9(GaSb2)2
_chemical_formula_sum   'Tb1 Y9 Ga2 Sb4'
_cell_volume   438.38973459
_cell_formula_units_Z   1
loop_
 _symmetry_equiv_pos_site_id
 _symmetry_equiv_pos_as_xyz
  1  'x, y, z'
loop_
 _atom_site_type_symbol
 _atom_site_label
 _atom_site_symmetry_multiplicity
 _atom_site_fract_x
 _atom_site_fract_y
 _atom_site_fract_z
 _atom_site_occupancy
  Tb  Tb0  1  0.336668  0.668335  0.000000  1
  Y  Y1  1  0.010173  0.765441  0.750009  1
  Y  Y2  1  0.010173  0.244730  0.249991  1
  Y  Y3  1  0.752263  0.752846  0.249993  1
  Y  Y4  1  0.752263  0.999417  0.750007  1
  Y  Y5  1  0.244125  0.233239  0.749999  1
  Y  Y6  1  0.244125  0.010887  0.250001  1
  Y  Y7  1  0.336656  0.668329  0.500000  1
  Y  Y8  1  0.653893  0.326945  0.000000  1
  Y  Y9  1  0.653915  0.326956  0.500000  1
  Ga  Ga10  1  0.394758  0.997821  0.749991  1
  Ga  Ga11  1  0.394758  0.396937  0.250009  1
  Sb  Sb12  1  0.999150  0.607606  0.250019  1
  Sb  Sb13  1  0.999150  0.391543  0.749981  1
  Sb  Sb14  1  0.608966  0.607657  0.749969  1
  Sb  Sb15  1  0.608966  0.001309  0.250031  1
