# generated using pymatgen
data_V17Cu2Si12Os
_symmetry_space_group_name_H-M   'P 1'
_cell_length_a   7.03710812
_cell_length_b   7.03749673
_cell_length_c   13.24778800
_cell_angle_alpha   90.00000000
_cell_angle_beta   90.00000000
_cell_angle_gamma   140.63769887
_symmetry_Int_Tables_number   1
_chemical_formula_structural   V17Cu2Si12Os
_chemical_formula_sum   'V17 Cu2 Si12 Os1'
_cell_volume   416.09937363
_cell_formula_units_Z   1
loop_
 _symmetry_equiv_pos_site_id
 _symmetry_equiv_pos_as_xyz
  1  'x, y, z'
loop_
 _atom_site_type_symbol
 _atom_site_label
 _atom_site_symmetry_multiplicity
 _atom_site_fract_x
 _atom_site_fract_y
 _atom_site_fract_z
 _atom_site_occupancy
  V  V0  1  0.070474  0.420922  0.399751  1
  V  V1  1  0.571150  0.932008  0.900672  1
  V  V2  1  0.420873  0.070517  0.600282  1
  V  V3  1  0.932030  0.571271  0.099344  1
  V  V4  1  0.852108  0.652139  0.676875  1
  V  V5  1  0.352063  0.150213  0.178995  1
  V  V6  1  0.652177  0.852082  0.323252  1
  V  V7  1  0.150407  0.351946  0.821025  1
  V  V8  1  0.652177  0.852082  0.676748  1
  V  V9  1  0.150407  0.351946  0.178975  1
  V  V10  1  0.852108  0.652139  0.323125  1
  V  V11  1  0.352063  0.150213  0.821005  1
  V  V12  1  0.420873  0.070517  0.399718  1
  V  V13  1  0.932030  0.571271  0.900656  1
  V  V14  1  0.070474  0.420922  0.600249  1
  V  V15  1  0.571150  0.932008  0.099328  1
  V  V16  1  0.997066  0.996973  0.500000  1
  Cu  Cu17  1  0.501265  0.501221  0.000000  1
  Cu  Cu18  1  0.001379  0.001362  0.000000  1
  Si  Si19  1  0.250604  0.749705  0.749940  1
  Si  Si20  1  0.749564  0.250630  0.250039  1
  Si  Si21  1  0.749564  0.250630  0.749961  1
  Si  Si22  1  0.250604  0.749705  0.250060  1
  Si  Si23  1  0.243733  0.243665  0.666407  1
  Si  Si24  1  0.752524  0.752498  0.162566  1
  Si  Si25  1  0.243733  0.243665  0.333593  1
  Si  Si26  1  0.752524  0.752498  0.837434  1
  Si  Si27  1  0.584221  0.919671  0.500000  1
  Si  Si28  1  0.090881  0.411941  0.000000  1
  Si  Si29  1  0.919534  0.584319  0.500000  1
  Si  Si30  1  0.411848  0.091005  0.000000  1
  Os  Os31  1  0.498395  0.498315  0.500000  1
