# generated using pymatgen
data_Re4TcOsRh2
_symmetry_space_group_name_H-M   'P 1'
_cell_length_a   5.55140147
_cell_length_b   5.55995423
_cell_length_c   4.38488200
_cell_angle_alpha   90.00000000
_cell_angle_beta   90.00000000
_cell_angle_gamma   119.99613173
_symmetry_Int_Tables_number   1
_chemical_formula_structural   Re4TcOsRh2
_chemical_formula_sum   'Re4 Tc1 Os1 Rh2'
_cell_volume   117.21395551
_cell_formula_units_Z   1
loop_
 _symmetry_equiv_pos_site_id
 _symmetry_equiv_pos_as_xyz
  1  'x, y, z'
loop_
 _atom_site_type_symbol
 _atom_site_label
 _atom_site_symmetry_multiplicity
 _atom_site_fract_x
 _atom_site_fract_y
 _atom_site_fract_z
 _atom_site_occupancy
  Re  Re0  1  0.676324  0.836966  0.250000  1
  Re  Re1  1  0.838785  0.676191  0.750000  1
  Re  Re2  1  0.323960  0.163005  0.750000  1
  Re  Re3  1  0.839855  0.163969  0.750000  1
  Tc  Tc4  1  0.161447  0.838708  0.250000  1
  Os  Os5  1  0.163083  0.324138  0.250000  1
  Rh  Rh6  1  0.331648  0.665204  0.750000  1
  Rh  Rh7  1  0.664896  0.331820  0.250000  1
