# generated using pymatgen
data_K2Li3PaSe5
_symmetry_space_group_name_H-M   'P 1'
_cell_length_a   4.32075600
_cell_length_b   7.56706312
_cell_length_c   19.26704300
_cell_angle_alpha   90.00000000
_cell_angle_beta   90.00000000
_cell_angle_gamma   73.41141593
_symmetry_Int_Tables_number   1
_chemical_formula_structural   K2Li3PaSe5
_chemical_formula_sum   'K4 Li6 Pa2 Se10'
_cell_volume   603.72570909
_cell_formula_units_Z   2
loop_
 _symmetry_equiv_pos_site_id
 _symmetry_equiv_pos_as_xyz
  1  'x, y, z'
loop_
 _atom_site_type_symbol
 _atom_site_label
 _atom_site_symmetry_multiplicity
 _atom_site_fract_x
 _atom_site_fract_y
 _atom_site_fract_z
 _atom_site_occupancy
  K  K0  1  0.763711  0.472579  0.136734  1
  K  K1  1  0.763711  0.472579  0.363266  1
  K  K2  1  0.236289  0.527422  0.636734  1
  K  K3  1  0.236289  0.527422  0.863266  1
  Li  Li4  1  0.042959  0.914081  0.147669  1
  Li  Li5  1  0.557026  0.885949  0.250000  1
  Li  Li6  1  0.042959  0.914081  0.352331  1
  Li  Li7  1  0.957041  0.085919  0.647669  1
  Li  Li8  1  0.442974  0.114051  0.750000  1
  Li  Li9  1  0.957041  0.085919  0.852331  1
  Pa  Pa10  1  0.500000  0.000000  0.000000  1
  Pa  Pa11  1  0.500000  0.000000  0.500000  1
  Se  Se12  1  0.122123  0.755755  0.027006  1
  Se  Se13  1  0.448688  0.102624  0.136599  1
  Se  Se14  1  0.149878  0.700245  0.250000  1
  Se  Se15  1  0.448688  0.102624  0.363401  1
  Se  Se16  1  0.122123  0.755755  0.472994  1
  Se  Se17  1  0.877878  0.244244  0.527006  1
  Se  Se18  1  0.551313  0.897376  0.636599  1
  Se  Se19  1  0.850123  0.299755  0.750000  1
  Se  Se20  1  0.551313  0.897376  0.863401  1
  Se  Se21  1  0.877878  0.244244  0.972994  1
