# generated using pymatgen
data_La2Th6Zn8RuRh7
_symmetry_space_group_name_H-M   'P 1'
_cell_length_a   3.97450500
_cell_length_b   7.51373985
_cell_length_c   16.61271252
_cell_angle_alpha   89.88393951
_cell_angle_beta   90.00000000
_cell_angle_gamma   90.00000000
_symmetry_Int_Tables_number   1
_chemical_formula_structural   La2Th6Zn8RuRh7
_chemical_formula_sum   'La2 Th6 Zn8 Ru1 Rh7'
_cell_volume   496.11100507
_cell_formula_units_Z   1
loop_
 _symmetry_equiv_pos_site_id
 _symmetry_equiv_pos_as_xyz
  1  'x, y, z'
loop_
 _atom_site_type_symbol
 _atom_site_label
 _atom_site_symmetry_multiplicity
 _atom_site_fract_x
 _atom_site_fract_y
 _atom_site_fract_z
 _atom_site_occupancy
  La  La0  1  0.750000  0.447681  0.214845  1
  La  La1  1  0.750000  0.947643  0.285171  1
  Th  Th2  1  0.750000  0.325581  0.440431  1
  Th  Th3  1  0.250000  0.058300  0.716786  1
  Th  Th4  1  0.250000  0.550868  0.784796  1
  Th  Th5  1  0.250000  0.671896  0.561124  1
  Th  Th6  1  0.750000  0.826699  0.059199  1
  Th  Th7  1  0.250000  0.173608  0.937121  1
  Zn  Zn8  1  0.250000  0.119539  0.150856  1
  Zn  Zn9  1  0.250000  0.993959  0.440885  1
  Zn  Zn10  1  0.750000  0.881879  0.847408  1
  Zn  Zn11  1  0.750000  0.003423  0.560691  1
  Zn  Zn12  1  0.250000  0.493591  0.059012  1
  Zn  Zn13  1  0.750000  0.381331  0.652968  1
  Zn  Zn14  1  0.750000  0.503448  0.939367  1
  Zn  Zn15  1  0.250000  0.619181  0.349105  1
  Ru  Ru16  1  0.750000  0.253876  0.814308  1
  Rh  Rh17  1  0.250000  0.252994  0.321922  1
  Rh  Rh18  1  0.250000  0.753347  0.937542  1
  Rh  Rh19  1  0.250000  0.254112  0.562250  1
  Rh  Rh20  1  0.250000  0.752514  0.177788  1
  Rh  Rh21  1  0.750000  0.740063  0.441914  1
  Rh  Rh22  1  0.750000  0.240364  0.058215  1
  Rh  Rh23  1  0.750000  0.754100  0.686297  1
