# generated using pymatgen
data_Nd16Mg2Cd2Os3Pt
_symmetry_space_group_name_H-M   'P 1'
_cell_length_a   9.98452373
_cell_length_b   10.05228667
_cell_length_c   10.05649298
_cell_angle_alpha   59.79862512
_cell_angle_beta   59.61080038
_cell_angle_gamma   59.58047127
_symmetry_Int_Tables_number   1
_chemical_formula_structural   Nd16Mg2Cd2Os3Pt
_chemical_formula_sum   'Nd16 Mg2 Cd2 Os3 Pt1'
_cell_volume   708.24737767
_cell_formula_units_Z   1
loop_
 _symmetry_equiv_pos_site_id
 _symmetry_equiv_pos_as_xyz
  1  'x, y, z'
loop_
 _atom_site_type_symbol
 _atom_site_label
 _atom_site_symmetry_multiplicity
 _atom_site_fract_x
 _atom_site_fract_y
 _atom_site_fract_z
 _atom_site_occupancy
  Nd  Nd0  1  0.342935  0.348366  0.349947  1
  Nd  Nd1  1  0.343910  0.349563  0.957662  1
  Nd  Nd2  1  0.343962  0.959824  0.349180  1
  Nd  Nd3  1  0.967899  0.343755  0.343880  1
  Nd  Nd4  1  0.814127  0.190669  0.190791  1
  Nd  Nd5  1  0.188119  0.810513  0.809902  1
  Nd  Nd6  1  0.189719  0.810043  0.190450  1
  Nd  Nd7  1  0.815053  0.190412  0.804154  1
  Nd  Nd8  1  0.191619  0.192936  0.807931  1
  Nd  Nd9  1  0.815685  0.806461  0.188084  1
  Nd  Nd10  1  0.938216  0.561734  0.560338  1
  Nd  Nd11  1  0.556052  0.941457  0.938889  1
  Nd  Nd12  1  0.557317  0.938723  0.565602  1
  Nd  Nd13  1  0.939448  0.560994  0.940678  1
  Nd  Nd14  1  0.557404  0.566263  0.937064  1
  Nd  Nd15  1  0.939506  0.941810  0.559501  1
  Mg  Mg16  1  0.575506  0.573875  0.578002  1
  Mg  Mg17  1  0.574135  0.573949  0.270829  1
  Cd  Cd18  1  0.581354  0.258167  0.579520  1
  Cd  Cd19  1  0.256857  0.580666  0.580053  1
  Os  Os20  1  0.144957  0.137557  0.137130  1
  Os  Os21  1  0.144462  0.137944  0.581473  1
  Os  Os22  1  0.144067  0.582141  0.137699  1
  Pt  Pt23  1  0.577694  0.142176  0.141244  1
