# generated using pymatgen
data_Er4Cu3Sb8
_symmetry_space_group_name_H-M   'P 1'
_cell_length_a   10.55349736
_cell_length_b   10.55349715
_cell_length_c   10.55349688
_cell_angle_alpha   146.52578053
_cell_angle_beta   146.52578047
_cell_angle_gamma   48.06646151
_symmetry_Int_Tables_number   1
_chemical_formula_structural   Er4Cu3Sb8
_chemical_formula_sum   'Er4 Cu3 Sb8'
_cell_volume   356.11827742
_cell_formula_units_Z   1
loop_
 _symmetry_equiv_pos_site_id
 _symmetry_equiv_pos_as_xyz
  1  'x, y, z'
loop_
 _atom_site_type_symbol
 _atom_site_label
 _atom_site_symmetry_multiplicity
 _atom_site_fract_x
 _atom_site_fract_y
 _atom_site_fract_z
 _atom_site_occupancy
  Er  Er0  1  0.632874  0.632874  0.506355  1
  Er  Er1  1  0.126518  0.126518  0.493645  1
  Er  Er2  1  0.367126  0.873482  0.000000  1
  Er  Er3  1  0.873482  0.367126  0.000000  1
  Cu  Cu4  1  0.000000  0.000000  0.000000  1
  Cu  Cu5  1  0.000000  0.500000  0.500000  1
  Cu  Cu6  1  0.500000  0.000000  0.500000  1
  Sb  Sb7  1  0.334917  0.334917  0.516344  1
  Sb  Sb8  1  0.818573  0.818573  0.483656  1
  Sb  Sb9  1  0.665083  0.181427  0.000000  1
  Sb  Sb10  1  0.181427  0.665083  0.000000  1
  Sb  Sb11  1  0.249848  0.249848  0.000000  1
  Sb  Sb12  1  0.750152  0.750152  0.000000  1
  Sb  Sb13  1  0.750000  0.250000  0.500000  1
  Sb  Sb14  1  0.250000  0.750000  0.500000  1
