# generated using pymatgen
data_Ce4In2IrPd2Rh
_symmetry_space_group_name_H-M   'P 1'
_cell_length_a   7.78526925
_cell_length_b   7.78526957
_cell_length_c   3.76109500
_cell_angle_alpha   90.00000000
_cell_angle_beta   90.00000000
_cell_angle_gamma   89.48001201
_symmetry_Int_Tables_number   1
_chemical_formula_structural   Ce4In2IrPd2Rh
_chemical_formula_sum   'Ce4 In2 Ir1 Pd2 Rh1'
_cell_volume   227.95215888
_cell_formula_units_Z   1
loop_
 _symmetry_equiv_pos_site_id
 _symmetry_equiv_pos_as_xyz
  1  'x, y, z'
loop_
 _atom_site_type_symbol
 _atom_site_label
 _atom_site_symmetry_multiplicity
 _atom_site_fract_x
 _atom_site_fract_y
 _atom_site_fract_z
 _atom_site_occupancy
  Ce  Ce0  1  0.665575  0.162811  0.500000  1
  Ce  Ce1  1  0.337189  0.834425  0.500000  1
  Ce  Ce2  1  0.178167  0.321833  0.500000  1
  Ce  Ce3  1  0.821749  0.678251  0.500000  1
  In  In4  1  0.000427  0.000000  0.000000  1
  In  In5  1  0.500000  0.499573  0.000000  1
  Ir  Ir6  1  0.633264  0.866736  0.000000  1
  Pd  Pd7  1  0.131050  0.630123  0.000000  1
  Pd  Pd8  1  0.869877  0.368950  0.000000  1
  Rh  Rh9  1  0.362702  0.137298  0.000000  1
