# generated using pymatgen
data_La8Pr4Si3AsBr12
_symmetry_space_group_name_H-M   'P 1'
_cell_length_a   10.60299252
_cell_length_b   10.61808166
_cell_length_c   10.62404975
_cell_angle_alpha   109.56786219
_cell_angle_beta   109.51043558
_cell_angle_gamma   109.28373752
_symmetry_Int_Tables_number   1
_chemical_formula_structural   La8Pr4Si3AsBr12
_chemical_formula_sum   'La8 Pr4 Si3 As1 Br12'
_cell_volume   921.33354039
_cell_formula_units_Z   1
loop_
 _symmetry_equiv_pos_site_id
 _symmetry_equiv_pos_as_xyz
  1  'x, y, z'
loop_
 _atom_site_type_symbol
 _atom_site_label
 _atom_site_symmetry_multiplicity
 _atom_site_fract_x
 _atom_site_fract_y
 _atom_site_fract_z
 _atom_site_occupancy
  La  La0  1  0.478915  0.486314  0.240156  1
  La  La1  1  0.749898  0.240208  0.261891  1
  La  La2  1  0.750163  0.012095  0.490177  1
  La  La3  1  0.240014  0.478082  0.490177  1
  La  La4  1  0.261239  0.753841  0.240156  1
  La  La5  1  0.021343  0.258194  0.011508  1
  La  La6  1  0.011994  0.021685  0.261891  1
  La  La7  1  0.490165  0.753313  0.011508  1
  Pr  Pr8  1  0.487760  0.237760  0.475518  1
  Pr  Pr9  1  0.010035  0.485654  0.746073  1
  Pr  Pr10  1  0.262370  0.012370  0.024741  1
  Pr  Pr11  1  0.236037  0.260418  0.746073  1
  Si  Si12  1  0.250233  0.249894  0.249959  1
  Si  Si13  1  0.499726  0.000064  0.249959  1
  Si  Si14  1  0.000153  0.250153  0.500306  1
  As  As15  1  0.249751  0.499751  0.999502  1
  Br  Br16  1  0.248300  0.753423  0.746717  1
  Br  Br17  1  0.507380  0.502162  0.754498  1
  Br  Br18  1  0.992658  0.745526  0.994507  1
  Br  Br19  1  0.747118  0.252336  0.754498  1
  Br  Br20  1  0.998417  0.993296  0.746717  1
  Br  Br21  1  0.251670  0.997377  0.506082  1
  Br  Br22  1  0.754412  0.508704  0.506082  1
  Br  Br23  1  0.501850  0.248981  0.994507  1
  Br  Br24  1  0.753303  0.744969  0.249368  1
  Br  Br25  1  0.745245  0.995245  0.990490  1
  Br  Br26  1  0.996065  0.504399  0.249368  1
  Br  Br27  1  0.503787  0.753787  0.507572  1
