# generated using pymatgen
data_Er2Tm6Re3OsC8
_symmetry_space_group_name_H-M   'P 1'
_cell_length_a   5.03134000
_cell_length_b   6.50505450
_cell_length_c   9.73852705
_cell_angle_alpha   89.83918199
_cell_angle_beta   90.00000000
_cell_angle_gamma   90.00000000
_symmetry_Int_Tables_number   1
_chemical_formula_structural   Er2Tm6Re3OsC8
_chemical_formula_sum   'Er2 Tm6 Re3 Os1 C8'
_cell_volume   318.73236853
_cell_formula_units_Z   1
loop_
 _symmetry_equiv_pos_site_id
 _symmetry_equiv_pos_as_xyz
  1  'x, y, z'
loop_
 _atom_site_type_symbol
 _atom_site_label
 _atom_site_symmetry_multiplicity
 _atom_site_fract_x
 _atom_site_fract_y
 _atom_site_fract_z
 _atom_site_occupancy
  Er  Er0  1  0.250000  0.466930  0.216517  1
  Er  Er1  1  0.750000  0.034691  0.716231  1
  Tm  Tm2  1  0.750000  0.532537  0.785798  1
  Tm  Tm3  1  0.250000  0.966744  0.283100  1
  Tm  Tm4  1  0.750000  0.677231  0.443008  1
  Tm  Tm5  1  0.250000  0.824756  0.943740  1
  Tm  Tm6  1  0.750000  0.178024  0.057228  1
  Tm  Tm7  1  0.250000  0.322843  0.557199  1
  Re  Re8  1  0.250000  0.781223  0.632593  1
  Re  Re9  1  0.750000  0.218570  0.368693  1
  Re  Re10  1  0.750000  0.719701  0.131640  1
  Os  Os11  1  0.250000  0.280747  0.867194  1
  C  C12  1  0.250000  0.674443  0.446802  1
  C  C13  1  0.250000  0.547725  0.758170  1
  C  C14  1  0.750000  0.451700  0.240435  1
  C  C15  1  0.750000  0.824799  0.945315  1
  C  C16  1  0.250000  0.047616  0.740737  1
  C  C17  1  0.250000  0.172558  0.051917  1
  C  C18  1  0.750000  0.325725  0.554158  1
  C  C19  1  0.750000  0.951438  0.259524  1
