# generated using pymatgen
data_Ba2Ni3MoAs4
_symmetry_space_group_name_H-M   'P 1'
_cell_length_a   5.78231502
_cell_length_b   6.94879586
_cell_length_c   5.78859236
_cell_angle_alpha   65.23906821
_cell_angle_beta   90.02376397
_cell_angle_gamma   90.00778706
_symmetry_Int_Tables_number   1
_chemical_formula_structural   Ba2Ni3MoAs4
_chemical_formula_sum   'Ba2 Ni3 Mo1 As4'
_cell_volume   211.20312705
_cell_formula_units_Z   1
loop_
 _symmetry_equiv_pos_site_id
 _symmetry_equiv_pos_as_xyz
  1  'x, y, z'
loop_
 _atom_site_type_symbol
 _atom_site_label
 _atom_site_symmetry_multiplicity
 _atom_site_fract_x
 _atom_site_fract_y
 _atom_site_fract_z
 _atom_site_occupancy
  Ba  Ba0  1  0.993972  0.999970  0.000013  1
  Ba  Ba1  1  0.505841  0.999916  0.500038  1
  Ni  Ni2  1  0.249317  0.498856  0.000648  1
  Ni  Ni3  1  0.750713  0.500901  0.999316  1
  Ni  Ni4  1  0.749805  0.500742  0.499799  1
  Mo  Mo5  1  0.250166  0.499606  0.500167  1
  As  As6  1  0.503714  0.702568  0.142850  1
  As  As7  1  0.996556  0.702651  0.652721  1
  As  As8  1  0.995301  0.297511  0.347348  1
  As  As9  1  0.504615  0.297277  0.857103  1
