# generated using pymatgen
data_V4GaTe4
_symmetry_space_group_name_H-M   'P 1'
_cell_length_a   4.64948200
_cell_length_b   10.62593900
_cell_length_c   18.46355200
_cell_angle_alpha   90.00000000
_cell_angle_beta   90.00000000
_cell_angle_gamma   90.00000000
_symmetry_Int_Tables_number   1
_chemical_formula_structural   V4GaTe4
_chemical_formula_sum   'V16 Ga4 Te16'
_cell_volume   912.19385658
_cell_formula_units_Z   4
loop_
 _symmetry_equiv_pos_site_id
 _symmetry_equiv_pos_as_xyz
  1  'x, y, z'
loop_
 _atom_site_type_symbol
 _atom_site_label
 _atom_site_symmetry_multiplicity
 _atom_site_fract_x
 _atom_site_fract_y
 _atom_site_fract_z
 _atom_site_occupancy
  V  V0  1  0.500000  0.565023  0.382389  1
  V  V1  1  0.500000  0.434977  0.617611  1
  V  V2  1  0.500000  0.065023  0.117611  1
  V  V3  1  0.500000  0.934977  0.882389  1
  V  V4  1  0.500000  0.705572  0.535921  1
  V  V5  1  0.500000  0.294428  0.464079  1
  V  V6  1  0.500000  0.205572  0.964079  1
  V  V7  1  0.500000  0.794428  0.035921  1
  V  V8  1  0.000000  0.690078  0.441849  1
  V  V9  1  0.000000  0.309922  0.558151  1
  V  V10  1  0.000000  0.190078  0.058151  1
  V  V11  1  0.000000  0.809922  0.941849  1
  V  V12  1  0.000000  0.400621  0.390810  1
  V  V13  1  0.000000  0.599379  0.609190  1
  V  V14  1  0.000000  0.900621  0.109190  1
  V  V15  1  0.000000  0.099379  0.890810  1
  Ga  Ga16  1  0.249603  0.500000  0.500000  1
  Ga  Ga17  1  0.750397  0.000000  0.000000  1
  Ga  Ga18  1  0.750397  0.500000  0.500000  1
  Ga  Ga19  1  0.249603  0.000000  0.000000  1
  Te  Te20  1  0.000000  0.840544  0.560735  1
  Te  Te21  1  0.000000  0.159456  0.439265  1
  Te  Te22  1  0.000000  0.340544  0.939265  1
  Te  Te23  1  0.000000  0.659456  0.060735  1
  Te  Te24  1  0.500000  0.335377  0.319014  1
  Te  Te25  1  0.500000  0.664623  0.680986  1
  Te  Te26  1  0.500000  0.835377  0.180986  1
  Te  Te27  1  0.500000  0.164623  0.819014  1
  Te  Te28  1  0.500000  0.817007  0.403668  1
  Te  Te29  1  0.500000  0.182993  0.596332  1
  Te  Te30  1  0.500000  0.317007  0.096332  1
  Te  Te31  1  0.500000  0.682993  0.903668  1
  Te  Te32  1  0.000000  0.605324  0.303682  1
  Te  Te33  1  0.000000  0.394676  0.696318  1
  Te  Te34  1  0.000000  0.105324  0.196318  1
  Te  Te35  1  0.000000  0.894676  0.803682  1
