# generated using pymatgen
data_NdHo2Si6(Pd9Pt)2
_symmetry_space_group_name_H-M   'P 1'
_cell_length_a   8.74559842
_cell_length_b   8.74560008
_cell_length_c   8.74559998
_cell_angle_alpha   59.86517634
_cell_angle_beta   59.86516800
_cell_angle_gamma   59.86517028
_symmetry_Int_Tables_number   1
_chemical_formula_structural   NdHo2Si6(Pd9Pt)2
_chemical_formula_sum   'Nd1 Ho2 Si6 Pd18 Pt2'
_cell_volume   471.54484795
_cell_formula_units_Z   1
loop_
 _symmetry_equiv_pos_site_id
 _symmetry_equiv_pos_as_xyz
  1  'x, y, z'
loop_
 _atom_site_type_symbol
 _atom_site_label
 _atom_site_symmetry_multiplicity
 _atom_site_fract_x
 _atom_site_fract_y
 _atom_site_fract_z
 _atom_site_occupancy
  Nd  Nd0  1  0.250929  0.250929  0.250929  1
  Ho  Ho1  1  0.748692  0.748692  0.748692  1
  Ho  Ho2  1  0.000010  0.000010  0.000010  1
  Si  Si3  1  0.731599  0.267243  0.267243  1
  Si  Si4  1  0.268512  0.732721  0.732721  1
  Si  Si5  1  0.267243  0.731599  0.267243  1
  Si  Si6  1  0.732721  0.268512  0.732721  1
  Si  Si7  1  0.267243  0.267243  0.731599  1
  Si  Si8  1  0.732721  0.732721  0.268512  1
  Pd  Pd9  1  0.384135  0.384135  0.843797  1
  Pd  Pd10  1  0.384135  0.843797  0.384135  1
  Pd  Pd11  1  0.619038  0.619038  0.146658  1
  Pd  Pd12  1  0.619038  0.146658  0.619038  1
  Pd  Pd13  1  0.843797  0.384135  0.384135  1
  Pd  Pd14  1  0.146658  0.619038  0.619038  1
  Pd  Pd15  1  0.345710  0.999326  0.999326  1
  Pd  Pd16  1  0.656310  0.998793  0.998793  1
  Pd  Pd17  1  0.999131  0.345879  0.655935  1
  Pd  Pd18  1  0.999131  0.655935  0.345879  1
  Pd  Pd19  1  0.999326  0.345710  0.999326  1
  Pd  Pd20  1  0.655935  0.999131  0.345879  1
  Pd  Pd21  1  0.998793  0.656310  0.998793  1
  Pd  Pd22  1  0.345879  0.999131  0.655935  1
  Pd  Pd23  1  0.999326  0.999326  0.345710  1
  Pd  Pd24  1  0.998793  0.998793  0.656310  1
  Pd  Pd25  1  0.655935  0.345879  0.999131  1
  Pd  Pd26  1  0.345879  0.655935  0.999131  1
  Pt  Pt27  1  0.387718  0.387718  0.387718  1
  Pt  Pt28  1  0.615661  0.615661  0.615661  1
