# generated using pymatgen
data_TbSc(SnPt)2
_symmetry_space_group_name_H-M   'P 1'
_cell_length_a   7.57410600
_cell_length_b   7.57410632
_cell_length_c   7.61891800
_cell_angle_alpha   90.00000000
_cell_angle_beta   90.00000000
_cell_angle_gamma   120.00000733
_symmetry_Int_Tables_number   1
_chemical_formula_structural   TbSc(SnPt)2
_chemical_formula_sum   'Tb3 Sc3 Sn6 Pt6'
_cell_volume   378.51812054
_cell_formula_units_Z   3
loop_
 _symmetry_equiv_pos_site_id
 _symmetry_equiv_pos_as_xyz
  1  'x, y, z'
loop_
 _atom_site_type_symbol
 _atom_site_label
 _atom_site_symmetry_multiplicity
 _atom_site_fract_x
 _atom_site_fract_y
 _atom_site_fract_z
 _atom_site_occupancy
  Tb  Tb0  1  0.399683  0.998377  0.750000  1
  Tb  Tb1  1  0.598695  0.600317  0.750000  1
  Tb  Tb2  1  0.001623  0.401305  0.750000  1
  Sc  Sc3  1  0.390540  0.002425  0.250000  1
  Sc  Sc4  1  0.611886  0.609460  0.250000  1
  Sc  Sc5  1  0.997575  0.388114  0.250000  1
  Sn  Sn6  1  0.269484  0.270974  0.009809  1
  Sn  Sn7  1  0.001491  0.730516  0.009809  1
  Sn  Sn8  1  0.001491  0.730516  0.490191  1
  Sn  Sn9  1  0.729026  0.998509  0.490191  1
  Sn  Sn10  1  0.269484  0.270974  0.490191  1
  Sn  Sn11  1  0.729026  0.998509  0.009809  1
  Pt  Pt12  1  0.000000  0.000000  0.750000  1
  Pt  Pt13  1  0.000000  0.000000  0.250000  1
  Pt  Pt14  1  0.666667  0.333333  0.031153  1
  Pt  Pt15  1  0.333333  0.666667  0.460051  1
  Pt  Pt16  1  0.333333  0.666667  0.039949  1
  Pt  Pt17  1  0.666667  0.333333  0.468847  1
