# generated using pymatgen
data_YbEu2InRh2
_symmetry_space_group_name_H-M   'P 1'
_cell_length_a   4.49305000
_cell_length_b   7.50968127
_cell_length_c   8.75814596
_cell_angle_alpha   90.12206048
_cell_angle_beta   90.00000000
_cell_angle_gamma   90.00000000
_symmetry_Int_Tables_number   1
_chemical_formula_structural   YbEu2InRh2
_chemical_formula_sum   'Yb2 Eu4 In2 Rh4'
_cell_volume   295.51120272
_cell_formula_units_Z   2
loop_
 _symmetry_equiv_pos_site_id
 _symmetry_equiv_pos_as_xyz
  1  'x, y, z'
loop_
 _atom_site_type_symbol
 _atom_site_label
 _atom_site_symmetry_multiplicity
 _atom_site_fract_x
 _atom_site_fract_y
 _atom_site_fract_z
 _atom_site_occupancy
  Yb  Yb0  1  0.250000  0.140214  0.940218  1
  Yb  Yb1  1  0.250000  0.640054  0.559702  1
  Eu  Eu2  1  0.250000  0.033458  0.323106  1
  Eu  Eu3  1  0.250000  0.533343  0.177015  1
  Eu  Eu4  1  0.750000  0.977609  0.674241  1
  Eu  Eu5  1  0.750000  0.477655  0.825884  1
  In  In6  1  0.750000  0.855454  0.062089  1
  In  In7  1  0.750000  0.355485  0.437879  1
  Rh  Rh8  1  0.250000  0.267083  0.619678  1
  Rh  Rh9  1  0.250000  0.767082  0.880204  1
  Rh  Rh10  1  0.750000  0.726376  0.370215  1
  Rh  Rh11  1  0.750000  0.226186  0.129767  1
