# generated using pymatgen
data_NaCa2Zn2Sb3
_symmetry_space_group_name_H-M   'P 1'
_cell_length_a   4.56693900
_cell_length_b   12.15366400
_cell_length_c   15.41069500
_cell_angle_alpha   90.00000000
_cell_angle_beta   90.00000000
_cell_angle_gamma   90.00000000
_symmetry_Int_Tables_number   1
_chemical_formula_structural   NaCa2Zn2Sb3
_chemical_formula_sum   'Na4 Ca8 Zn8 Sb12'
_cell_volume   855.37127499
_cell_formula_units_Z   4
loop_
 _symmetry_equiv_pos_site_id
 _symmetry_equiv_pos_as_xyz
  1  'x, y, z'
loop_
 _atom_site_type_symbol
 _atom_site_label
 _atom_site_symmetry_multiplicity
 _atom_site_fract_x
 _atom_site_fract_y
 _atom_site_fract_z
 _atom_site_occupancy
  Na  Na0  1  0.750000  0.101626  0.045133  1
  Na  Na1  1  0.750000  0.601626  0.454867  1
  Na  Na2  1  0.250000  0.898374  0.954867  1
  Na  Na3  1  0.250000  0.398374  0.545133  1
  Ca  Ca4  1  0.750000  0.397971  0.924467  1
  Ca  Ca5  1  0.750000  0.897971  0.575533  1
  Ca  Ca6  1  0.250000  0.602029  0.075533  1
  Ca  Ca7  1  0.250000  0.102029  0.424467  1
  Ca  Ca8  1  0.750000  0.136595  0.784226  1
  Ca  Ca9  1  0.750000  0.636595  0.715774  1
  Ca  Ca10  1  0.250000  0.863405  0.215774  1
  Ca  Ca11  1  0.250000  0.363405  0.284226  1
  Zn  Zn12  1  0.750000  0.197143  0.580196  1
  Zn  Zn13  1  0.750000  0.697143  0.919804  1
  Zn  Zn14  1  0.250000  0.802857  0.419804  1
  Zn  Zn15  1  0.250000  0.302857  0.080196  1
  Zn  Zn16  1  0.750000  0.127735  0.284942  1
  Zn  Zn17  1  0.750000  0.627735  0.215058  1
  Zn  Zn18  1  0.250000  0.872265  0.715058  1
  Zn  Zn19  1  0.250000  0.372265  0.784942  1
  Sb  Sb20  1  0.750000  0.419836  0.131634  1
  Sb  Sb21  1  0.750000  0.919836  0.368366  1
  Sb  Sb22  1  0.250000  0.580164  0.868366  1
  Sb  Sb23  1  0.250000  0.080164  0.631634  1
  Sb  Sb24  1  0.750000  0.376700  0.692058  1
  Sb  Sb25  1  0.750000  0.876700  0.807942  1
  Sb  Sb26  1  0.250000  0.623300  0.307942  1
  Sb  Sb27  1  0.250000  0.123300  0.192058  1
  Sb  Sb28  1  0.750000  0.790919  0.079892  1
  Sb  Sb29  1  0.750000  0.290919  0.420108  1
  Sb  Sb30  1  0.250000  0.209081  0.920108  1
  Sb  Sb31  1  0.250000  0.709081  0.579892  1
