# generated using pymatgen
data_Ho2Pa2Ge6Ir5Rh2
_symmetry_space_group_name_H-M   'P 1'
_cell_length_a   7.28692567
_cell_length_b   7.28686810
_cell_length_c   7.31691864
_cell_angle_alpha   109.46473370
_cell_angle_beta   109.46497553
_cell_angle_gamma   109.31589828
_symmetry_Int_Tables_number   1
_chemical_formula_structural   Ho2Pa2Ge6Ir5Rh2
_chemical_formula_sum   'Ho2 Pa2 Ge6 Ir5 Rh2'
_cell_volume   299.70109162
_cell_formula_units_Z   1
loop_
 _symmetry_equiv_pos_site_id
 _symmetry_equiv_pos_as_xyz
  1  'x, y, z'
loop_
 _atom_site_type_symbol
 _atom_site_label
 _atom_site_symmetry_multiplicity
 _atom_site_fract_x
 _atom_site_fract_y
 _atom_site_fract_z
 _atom_site_occupancy
  Ho  Ho0  1  0.000055  0.500053  0.000107  1
  Ho  Ho1  1  0.499947  0.999947  0.999894  1
  Pa  Pa2  1  0.999967  0.000025  0.499998  1
  Pa  Pa3  1  0.500033  0.499972  0.499997  1
  Ge  Ge4  1  0.683663  0.683661  0.999999  1
  Ge  Ge5  1  0.317902  0.995450  0.312812  1
  Ge  Ge6  1  0.994904  0.317361  0.312812  1
  Ge  Ge7  1  0.316341  0.316339  0.000005  1
  Ge  Ge8  1  0.682643  0.005094  0.687189  1
  Ge  Ge9  1  0.004548  0.682096  0.687186  1
  Ir  Ir10  1  0.750015  0.504375  0.254479  1
  Ir  Ir11  1  0.495628  0.249986  0.745525  1
  Ir  Ir12  1  0.249898  0.495537  0.745522  1
  Ir  Ir13  1  0.249997  0.749999  0.499997  1
  Ir  Ir14  1  0.504466  0.750103  0.254482  1
  Rh  Rh15  1  0.749992  0.250001  0.499994  1
  Rh  Rh16  1  0.000001  0.000001  0.000002  1
