# generated using pymatgen
data_AcPb3F15
_symmetry_space_group_name_H-M   'P 1'
_cell_length_a   7.79429861
_cell_length_b   7.79429829
_cell_length_c   7.79429800
_cell_angle_alpha   112.73539298
_cell_angle_beta   112.73539199
_cell_angle_gamma   112.73540125
_symmetry_Int_Tables_number   1
_chemical_formula_structural   AcPb3F15
_chemical_formula_sum   'Ac1 Pb3 F15'
_cell_volume   312.82572152
_cell_formula_units_Z   1
loop_
 _symmetry_equiv_pos_site_id
 _symmetry_equiv_pos_as_xyz
  1  'x, y, z'
loop_
 _atom_site_type_symbol
 _atom_site_label
 _atom_site_symmetry_multiplicity
 _atom_site_fract_x
 _atom_site_fract_y
 _atom_site_fract_z
 _atom_site_occupancy
  Ac  Ac0  1  0.497743  0.497743  0.497743  1
  Pb  Pb1  1  0.857580  0.293050  0.857580  1
  Pb  Pb2  1  0.293050  0.857580  0.857580  1
  Pb  Pb3  1  0.857580  0.857580  0.293050  1
  F  F4  1  0.596572  0.934357  0.146275  1
  F  F5  1  0.934357  0.146275  0.596572  1
  F  F6  1  0.146275  0.596572  0.934357  1
  F  F7  1  0.934357  0.596572  0.146275  1
  F  F8  1  0.591095  0.591095  0.246573  1
  F  F9  1  0.246573  0.591095  0.591095  1
  F  F10  1  0.591095  0.246573  0.591095  1
  F  F11  1  0.131750  0.131750  0.353703  1
  F  F12  1  0.353703  0.131750  0.131750  1
  F  F13  1  0.131750  0.353703  0.131750  1
  F  F14  1  0.679787  0.679787  0.921264  1
  F  F15  1  0.921264  0.679787  0.679787  1
  F  F16  1  0.679787  0.921264  0.679787  1
  F  F17  1  0.146275  0.934357  0.596572  1
  F  F18  1  0.596572  0.146275  0.934357  1
