# generated using pymatgen
data_SrHoTmGa8Ag3
_symmetry_space_group_name_H-M   'P 1'
_cell_length_a   4.36060315
_cell_length_b   8.49998313
_cell_length_c   8.49998322
_cell_angle_alpha   68.75743915
_cell_angle_beta   75.13713000
_cell_angle_gamma   75.13713046
_symmetry_Int_Tables_number   1
_chemical_formula_structural   SrHoTmGa8Ag3
_chemical_formula_sum   'Sr1 Ho1 Tm1 Ga8 Ag3'
_cell_volume   279.10381502
_cell_formula_units_Z   1
loop_
 _symmetry_equiv_pos_site_id
 _symmetry_equiv_pos_as_xyz
  1  'x, y, z'
loop_
 _atom_site_type_symbol
 _atom_site_label
 _atom_site_symmetry_multiplicity
 _atom_site_fract_x
 _atom_site_fract_y
 _atom_site_fract_z
 _atom_site_occupancy
  Sr  Sr0  1  0.500259  0.499741  0.499741  1
  Ho  Ho1  1  0.199432  0.800568  0.800568  1
  Tm  Tm2  1  0.800922  0.199078  0.199078  1
  Ga  Ga3  1  0.353828  0.362782  0.929562  1
  Ga  Ga4  1  0.646039  0.636750  0.071174  1
  Ga  Ga5  1  0.353828  0.929562  0.362782  1
  Ga  Ga6  1  0.646039  0.071174  0.636750  1
  Ga  Ga7  1  0.163632  0.469576  0.203160  1
  Ga  Ga8  1  0.836784  0.529785  0.796646  1
  Ga  Ga9  1  0.163632  0.203160  0.469576  1
  Ga  Ga10  1  0.836784  0.796646  0.529785  1
  Ag  Ag11  1  0.499513  0.000487  0.000487  1
  Ag  Ag12  1  0.999654  0.807209  0.193484  1
  Ag  Ag13  1  0.999654  0.193484  0.807209  1
