# generated using pymatgen
data_Ac3Dy(ZnSn)4
_symmetry_space_group_name_H-M   'P 1'
_cell_length_a   4.65243700
_cell_length_b   4.65243757
_cell_length_c   17.58190400
_cell_angle_alpha   90.00000000
_cell_angle_beta   90.00000000
_cell_angle_gamma   120.00000306
_symmetry_Int_Tables_number   1
_chemical_formula_structural   Ac3Dy(ZnSn)4
_chemical_formula_sum   'Ac3 Dy1 Zn4 Sn4'
_cell_volume   329.57751715
_cell_formula_units_Z   1
loop_
 _symmetry_equiv_pos_site_id
 _symmetry_equiv_pos_as_xyz
  1  'x, y, z'
loop_
 _atom_site_type_symbol
 _atom_site_label
 _atom_site_symmetry_multiplicity
 _atom_site_fract_x
 _atom_site_fract_y
 _atom_site_fract_z
 _atom_site_occupancy
  Ac  Ac0  1  0.000000  0.000000  0.250000  1
  Ac  Ac1  1  0.000000  0.000000  0.990080  1
  Ac  Ac2  1  0.000000  0.000000  0.509920  1
  Dy  Dy3  1  0.000000  0.000000  0.750000  1
  Zn  Zn4  1  0.333333  0.666667  0.148139  1
  Zn  Zn5  1  0.666667  0.333333  0.827928  1
  Zn  Zn6  1  0.666667  0.333333  0.672072  1
  Zn  Zn7  1  0.333333  0.666667  0.351861  1
  Sn  Sn8  1  0.333333  0.666667  0.629343  1
  Sn  Sn9  1  0.666667  0.333333  0.387418  1
  Sn  Sn10  1  0.666667  0.333333  0.112582  1
  Sn  Sn11  1  0.333333  0.666667  0.870657  1
