# generated using pymatgen
data_Ca13Tm7Si15Au
_symmetry_space_group_name_H-M   'P 1'
_cell_length_a   7.60573736
_cell_length_b   7.85547515
_cell_length_c   14.93057800
_cell_angle_alpha   90.16229319
_cell_angle_beta   90.45645839
_cell_angle_gamma   90.21042346
_symmetry_Int_Tables_number   1
_chemical_formula_structural   Ca13Tm7Si15Au
_chemical_formula_sum   'Ca13 Tm7 Si15 Au1'
_cell_volume   892.01450086
_cell_formula_units_Z   1
loop_
 _symmetry_equiv_pos_site_id
 _symmetry_equiv_pos_as_xyz
  1  'x, y, z'
loop_
 _atom_site_type_symbol
 _atom_site_label
 _atom_site_symmetry_multiplicity
 _atom_site_fract_x
 _atom_site_fract_y
 _atom_site_fract_z
 _atom_site_occupancy
  Ca  Ca0  1  0.179056  0.320096  0.621404  1
  Ca  Ca1  1  0.517650  0.676737  0.600152  1
  Ca  Ca2  1  0.029269  0.816449  0.903919  1
  Ca  Ca3  1  0.472954  0.315723  0.095210  1
  Ca  Ca4  1  0.986799  0.178556  0.402205  1
  Ca  Ca5  1  0.473489  0.325142  0.404043  1
  Ca  Ca6  1  0.972002  0.182616  0.094650  1
  Ca  Ca7  1  0.528262  0.682937  0.903311  1
  Ca  Ca8  1  0.028601  0.817439  0.595480  1
  Ca  Ca9  1  0.853759  0.517036  0.749931  1
  Ca  Ca10  1  0.346006  0.983310  0.749401  1
  Ca  Ca11  1  0.152434  0.481935  0.247240  1
  Ca  Ca12  1  0.652518  0.016377  0.249253  1
  Tm  Tm13  1  0.674127  0.178893  0.626471  1
  Tm  Tm14  1  0.182579  0.322646  0.879718  1
  Tm  Tm15  1  0.318379  0.823829  0.119546  1
  Tm  Tm16  1  0.830265  0.677353  0.375163  1
  Tm  Tm17  1  0.308326  0.823510  0.379192  1
  Tm  Tm18  1  0.818809  0.677309  0.119910  1
  Tm  Tm19  1  0.681652  0.178722  0.879685  1
  Si  Si20  1  0.139703  0.535072  0.039266  1
  Si  Si21  1  0.360883  0.034235  0.961361  1
  Si  Si22  1  0.847106  0.463592  0.533605  1
  Si  Si23  1  0.353462  0.029671  0.537790  1
  Si  Si24  1  0.860811  0.466631  0.961463  1
  Si  Si25  1  0.639751  0.965064  0.038651  1
  Si  Si26  1  0.133478  0.536152  0.458802  1
  Si  Si27  1  0.476163  0.386041  0.755320  1
  Si  Si28  1  0.967387  0.114717  0.756845  1
  Si  Si29  1  0.530158  0.623731  0.254055  1
  Si  Si30  1  0.030458  0.881260  0.245326  1
  Si  Si31  1  0.741256  0.895477  0.748473  1
  Si  Si32  1  0.247703  0.605594  0.755072  1
  Si  Si33  1  0.258904  0.101703  0.248582  1
  Si  Si34  1  0.753215  0.398604  0.247995  1
  Au  Au35  1  0.652626  0.965840  0.461509  1
