# generated using pymatgen
data_Yb(OsO3)3
_symmetry_space_group_name_H-M   'P 1'
_cell_length_a   7.37783900
_cell_length_b   5.24460384
_cell_length_c   8.14213630
_cell_angle_alpha   85.83956346
_cell_angle_beta   90.00000000
_cell_angle_gamma   90.00000000
_symmetry_Int_Tables_number   1
_chemical_formula_structural   Yb(OsO3)3
_chemical_formula_sum   'Yb2 Os6 O18'
_cell_volume   314.22032446
_cell_formula_units_Z   2
loop_
 _symmetry_equiv_pos_site_id
 _symmetry_equiv_pos_as_xyz
  1  'x, y, z'
loop_
 _atom_site_type_symbol
 _atom_site_label
 _atom_site_symmetry_multiplicity
 _atom_site_fract_x
 _atom_site_fract_y
 _atom_site_fract_z
 _atom_site_occupancy
  Yb  Yb0  1  0.750000  0.035711  0.568186  1
  Yb  Yb1  1  0.250000  0.964289  0.431814  1
  Os  Os2  1  0.498144  0.540519  0.690875  1
  Os  Os3  1  0.998144  0.459481  0.309125  1
  Os  Os4  1  0.500000  0.000000  0.000000  1
  Os  Os5  1  0.000000  0.000000  0.000000  1
  Os  Os6  1  0.001856  0.540519  0.690875  1
  Os  Os7  1  0.501856  0.459481  0.309125  1
  O  O8  1  0.750000  0.428172  0.691055  1
  O  O9  1  0.250000  0.571828  0.308945  1
  O  O10  1  0.750000  0.078157  0.017124  1
  O  O11  1  0.250000  0.921843  0.982876  1
  O  O12  1  0.250000  0.639573  0.674021  1
  O  O13  1  0.750000  0.360427  0.325979  1
  O  O14  1  0.038413  0.268634  0.527240  1
  O  O15  1  0.538413  0.731366  0.472760  1
  O  O16  1  0.562692  0.850732  0.787773  1
  O  O17  1  0.062692  0.149268  0.212227  1
  O  O18  1  0.437308  0.149268  0.212227  1
  O  O19  1  0.937308  0.850732  0.787773  1
  O  O20  1  0.038334  0.313332  0.876521  1
  O  O21  1  0.538334  0.686668  0.123479  1
  O  O22  1  0.961666  0.686668  0.123479  1
  O  O23  1  0.461666  0.313332  0.876521  1
  O  O24  1  0.461587  0.268634  0.527240  1
  O  O25  1  0.961587  0.731366  0.472760  1
