# generated using pymatgen
data_Er4Mg3ZnRh4
_symmetry_space_group_name_H-M   'P 1'
_cell_length_a   4.03077100
_cell_length_b   7.05381047
_cell_length_c   8.42126590
_cell_angle_alpha   89.92458184
_cell_angle_beta   90.00000000
_cell_angle_gamma   90.00000000
_symmetry_Int_Tables_number   1
_chemical_formula_structural   Er4Mg3ZnRh4
_chemical_formula_sum   'Er4 Mg3 Zn1 Rh4'
_cell_volume   239.43570607
_cell_formula_units_Z   1
loop_
 _symmetry_equiv_pos_site_id
 _symmetry_equiv_pos_as_xyz
  1  'x, y, z'
loop_
 _atom_site_type_symbol
 _atom_site_label
 _atom_site_symmetry_multiplicity
 _atom_site_fract_x
 _atom_site_fract_y
 _atom_site_fract_z
 _atom_site_occupancy
  Er  Er0  1  0.250000  0.536681  0.173514  1
  Er  Er1  1  0.750000  0.452025  0.830024  1
  Er  Er2  1  0.750000  0.966389  0.681811  1
  Er  Er3  1  0.250000  0.039239  0.321300  1
  Mg  Mg4  1  0.250000  0.637024  0.560130  1
  Mg  Mg5  1  0.750000  0.364488  0.440274  1
  Mg  Mg6  1  0.750000  0.869610  0.055560  1
  Zn  Zn7  1  0.250000  0.133060  0.939189  1
  Rh  Rh8  1  0.250000  0.750213  0.870610  1
  Rh  Rh9  1  0.750000  0.247099  0.125639  1
  Rh  Rh10  1  0.750000  0.752675  0.368581  1
  Rh  Rh11  1  0.250000  0.251499  0.633368  1
