# generated using pymatgen
data_Pr2ThFe2Co7P6
_symmetry_space_group_name_H-M   'P 1'
_cell_length_a   3.78458600
_cell_length_b   10.71824800
_cell_length_c   12.33820700
_cell_angle_alpha   90.00000000
_cell_angle_beta   90.00000000
_cell_angle_gamma   90.00000000
_symmetry_Int_Tables_number   1
_chemical_formula_structural   Pr2ThFe2Co7P6
_chemical_formula_sum   'Pr4 Th2 Fe4 Co14 P12'
_cell_volume   500.48864907
_cell_formula_units_Z   2
loop_
 _symmetry_equiv_pos_site_id
 _symmetry_equiv_pos_as_xyz
  1  'x, y, z'
loop_
 _atom_site_type_symbol
 _atom_site_label
 _atom_site_symmetry_multiplicity
 _atom_site_fract_x
 _atom_site_fract_y
 _atom_site_fract_z
 _atom_site_occupancy
  Pr  Pr0  1  0.500000  0.817508  0.204606  1
  Pr  Pr1  1  0.500000  0.182492  0.204606  1
  Pr  Pr2  1  0.000000  0.682492  0.795394  1
  Pr  Pr3  1  0.000000  0.317508  0.795394  1
  Th  Th4  1  0.000000  0.500000  0.523234  1
  Th  Th5  1  0.500000  0.000000  0.476766  1
  Fe  Fe6  1  0.500000  0.500000  0.153417  1
  Fe  Fe7  1  0.000000  0.000000  0.846583  1
  Fe  Fe8  1  0.000000  0.500000  0.988928  1
  Fe  Fe9  1  0.500000  0.000000  0.011072  1
  Co  Co10  1  0.500000  0.500000  0.698355  1
  Co  Co11  1  0.000000  0.000000  0.301645  1
  Co  Co12  1  0.500000  0.332559  0.996088  1
  Co  Co13  1  0.500000  0.667441  0.996088  1
  Co  Co14  1  0.000000  0.167441  0.003912  1
  Co  Co15  1  0.000000  0.832559  0.003912  1
  Co  Co16  1  0.500000  0.299275  0.430782  1
  Co  Co17  1  0.500000  0.700725  0.430782  1
  Co  Co18  1  0.000000  0.200725  0.569218  1
  Co  Co19  1  0.000000  0.799275  0.569218  1
  Co  Co20  1  0.500000  0.881883  0.710599  1
  Co  Co21  1  0.500000  0.118117  0.710599  1
  Co  Co22  1  0.000000  0.618117  0.289401  1
  Co  Co23  1  0.000000  0.381883  0.289401  1
  P  P24  1  0.500000  0.500000  0.888157  1
  P  P25  1  0.000000  0.000000  0.111843  1
  P  P26  1  0.500000  0.500000  0.336293  1
  P  P27  1  0.000000  0.000000  0.663707  1
  P  P28  1  0.500000  0.303685  0.614428  1
  P  P29  1  0.500000  0.696315  0.614428  1
  P  P30  1  0.000000  0.196315  0.385572  1
  P  P31  1  0.000000  0.803685  0.385572  1
  P  P32  1  0.500000  0.848871  0.896744  1
  P  P33  1  0.500000  0.151129  0.896744  1
  P  P34  1  0.000000  0.651129  0.103256  1
  P  P35  1  0.000000  0.348871  0.103256  1
