# generated using pymatgen
data_Dy3Zn3IrAu2
_symmetry_space_group_name_H-M   'P 1'
_cell_length_a   7.47079600
_cell_length_b   7.47079813
_cell_length_c   3.81277700
_cell_angle_alpha   90.00000000
_cell_angle_beta   90.00000000
_cell_angle_gamma   120.00000711
_symmetry_Int_Tables_number   1
_chemical_formula_structural   Dy3Zn3IrAu2
_chemical_formula_sum   'Dy3 Zn3 Ir1 Au2'
_cell_volume   184.29174596
_cell_formula_units_Z   1
loop_
 _symmetry_equiv_pos_site_id
 _symmetry_equiv_pos_as_xyz
  1  'x, y, z'
loop_
 _atom_site_type_symbol
 _atom_site_label
 _atom_site_symmetry_multiplicity
 _atom_site_fract_x
 _atom_site_fract_y
 _atom_site_fract_z
 _atom_site_occupancy
  Dy  Dy0  1  0.586141  0.982678  0.000000  1
  Dy  Dy1  1  0.017322  0.603462  0.000000  1
  Dy  Dy2  1  0.396538  0.413859  0.000000  1
  Zn  Zn3  1  0.259484  0.992344  0.500000  1
  Zn  Zn4  1  0.007656  0.267140  0.500000  1
  Zn  Zn5  1  0.732860  0.740516  0.500000  1
  Ir  Ir6  1  0.333333  0.666667  0.500000  1
  Au  Au7  1  0.666667  0.333333  0.500000  1
  Au  Au8  1  0.000000  0.000000  0.000000  1
