# generated using pymatgen
data_Ac7Os(RuC3)3
_symmetry_space_group_name_H-M   'P 1'
_cell_length_a   6.76778960
_cell_length_b   6.76778997
_cell_length_c   12.26910303
_cell_angle_alpha   71.29260494
_cell_angle_beta   71.29259582
_cell_angle_gamma   49.03485475
_symmetry_Int_Tables_number   1
_chemical_formula_structural   Ac7Os(RuC3)3
_chemical_formula_sum   'Ac7 Os1 Ru3 C9'
_cell_volume   397.10092305
_cell_formula_units_Z   1
loop_
 _symmetry_equiv_pos_site_id
 _symmetry_equiv_pos_as_xyz
  1  'x, y, z'
loop_
 _atom_site_type_symbol
 _atom_site_label
 _atom_site_symmetry_multiplicity
 _atom_site_fract_x
 _atom_site_fract_y
 _atom_site_fract_z
 _atom_site_occupancy
  Ac  Ac0  1  0.365959  0.365959  0.847107  1
  Ac  Ac1  1  0.139028  0.139028  0.684283  1
  Ac  Ac2  1  0.860900  0.860900  0.316365  1
  Ac  Ac3  1  0.145183  0.145183  0.382884  1
  Ac  Ac4  1  0.856818  0.856818  0.616075  1
  Ac  Ac5  1  0.998998  0.998998  0.000342  1
  Ac  Ac6  1  0.632216  0.632216  0.153889  1
  Os  Os7  1  0.636347  0.636347  0.857705  1
  Ru  Ru8  1  0.363465  0.363465  0.142398  1
  Ru  Ru9  1  0.561477  0.561477  0.572564  1
  Ru  Ru10  1  0.438386  0.438386  0.427356  1
  C  C11  1  0.391580  0.391580  0.289387  1
  C  C12  1  0.909489  0.909489  0.824372  1
  C  C13  1  0.393454  0.393454  0.608755  1
  C  C14  1  0.205664  0.205664  0.142440  1
  C  C15  1  0.794217  0.794217  0.856054  1
  C  C16  1  0.501055  0.501055  0.999454  1
  C  C17  1  0.090639  0.090639  0.175227  1
  C  C18  1  0.608326  0.608326  0.711451  1
  C  C19  1  0.606800  0.606800  0.391893  1
