# generated using pymatgen
data_Th2RuN3
_symmetry_space_group_name_H-M   'P 1'
_cell_length_a   3.56604072
_cell_length_b   3.88099925
_cell_length_c   6.98315551
_cell_angle_alpha   106.13388647
_cell_angle_beta   104.79323723
_cell_angle_gamma   90.00000105
_symmetry_Int_Tables_number   1
_chemical_formula_structural   Th2RuN3
_chemical_formula_sum   'Th2 Ru1 N3'
_cell_volume   89.49950525
_cell_formula_units_Z   1
loop_
 _symmetry_equiv_pos_site_id
 _symmetry_equiv_pos_as_xyz
  1  'x, y, z'
loop_
 _atom_site_type_symbol
 _atom_site_label
 _atom_site_symmetry_multiplicity
 _atom_site_fract_x
 _atom_site_fract_y
 _atom_site_fract_z
 _atom_site_occupancy
  Th  Th0  1  0.645666  0.645666  0.291331  1
  Th  Th1  1  0.354335  0.354335  0.708669  1
  Ru  Ru2  1  0.000000  0.000000  0.000000  1
  N  N3  1  0.000000  0.500001  0.000000  1
  N  N4  1  0.170043  0.170043  0.340086  1
  N  N5  1  0.829958  0.829958  0.659914  1
