# generated using pymatgen
data_La7Nd(MoO6)4
_symmetry_space_group_name_H-M   'P 1'
_cell_length_a   10.35295312
_cell_length_b   10.35295215
_cell_length_c   5.65612657
_cell_angle_alpha   75.34744290
_cell_angle_beta   75.34744775
_cell_angle_gamma   68.69871559
_symmetry_Int_Tables_number   1
_chemical_formula_structural   La7Nd(MoO6)4
_chemical_formula_sum   'La7 Nd1 Mo4 O24'
_cell_volume   537.66322424
_cell_formula_units_Z   1
loop_
 _symmetry_equiv_pos_site_id
 _symmetry_equiv_pos_as_xyz
  1  'x, y, z'
loop_
 _atom_site_type_symbol
 _atom_site_label
 _atom_site_symmetry_multiplicity
 _atom_site_fract_x
 _atom_site_fract_y
 _atom_site_fract_z
 _atom_site_occupancy
  La  La0  1  0.288813  0.056313  0.615847  1
  La  La1  1  0.943687  0.711187  0.884153  1
  La  La2  1  0.711125  0.944886  0.383628  1
  La  La3  1  0.055114  0.288875  0.116372  1
  La  La4  1  0.887436  0.112564  0.750000  1
  La  La5  1  0.111463  0.888537  0.250000  1
  La  La6  1  0.367615  0.632385  0.750000  1
  Nd  Nd7  1  0.632129  0.367871  0.250000  1
  Mo  Mo8  1  0.796252  0.507936  0.559460  1
  Mo  Mo9  1  0.492064  0.203748  0.940540  1
  Mo  Mo10  1  0.203633  0.491559  0.440292  1
  Mo  Mo11  1  0.508441  0.796367  0.059708  1
  O  O12  1  0.824530  0.386811  0.858507  1
  O  O13  1  0.613189  0.175470  0.641493  1
  O  O14  1  0.173244  0.613057  0.142991  1
  O  O15  1  0.386943  0.826756  0.357009  1
  O  O16  1  0.927551  0.525272  0.271230  1
  O  O17  1  0.474728  0.072449  0.228770  1
  O  O18  1  0.072942  0.473690  0.729826  1
  O  O19  1  0.526310  0.927058  0.770174  1
  O  O20  1  0.786264  0.673338  0.635368  1
  O  O21  1  0.326662  0.213736  0.864632  1
  O  O22  1  0.213139  0.326241  0.364446  1
  O  O23  1  0.673759  0.786861  0.135554  1
  O  O24  1  0.077493  0.107823  0.921959  1
  O  O25  1  0.892177  0.922507  0.578041  1
  O  O26  1  0.922481  0.892318  0.077432  1
  O  O27  1  0.107682  0.077519  0.422568  1
  O  O28  1  0.316247  0.835144  0.916599  1
  O  O29  1  0.164856  0.683753  0.583401  1
  O  O30  1  0.684762  0.165801  0.085949  1
  O  O31  1  0.834199  0.315238  0.414051  1
  O  O32  1  0.546303  0.615835  0.020996  1
  O  O33  1  0.384165  0.453697  0.479004  1
  O  O34  1  0.455303  0.382698  0.983797  1
  O  O35  1  0.617302  0.544697  0.516203  1
