# generated using pymatgen
data_Er12Co4HgOs
_symmetry_space_group_name_H-M   'P 1'
_cell_length_a   8.18479664
_cell_length_b   8.18479644
_cell_length_c   8.18479761
_cell_angle_alpha   111.69887192
_cell_angle_beta   110.30340354
_cell_angle_gamma   106.45607405
_symmetry_Int_Tables_number   1
_chemical_formula_structural   Er12Co4HgOs
_chemical_formula_sum   'Er12 Co4 Hg1 Os1'
_cell_volume   421.14993304
_cell_formula_units_Z   1
loop_
 _symmetry_equiv_pos_site_id
 _symmetry_equiv_pos_as_xyz
  1  'x, y, z'
loop_
 _atom_site_type_symbol
 _atom_site_label
 _atom_site_symmetry_multiplicity
 _atom_site_fract_x
 _atom_site_fract_y
 _atom_site_fract_z
 _atom_site_occupancy
  Er  Er0  1  0.181011  0.278894  0.459906  1
  Er  Er1  1  0.818989  0.721106  0.540094  1
  Er  Er2  1  0.181011  0.721106  0.902116  1
  Er  Er3  1  0.818989  0.278894  0.097884  1
  Er  Er4  1  0.314808  0.619087  0.304279  1
  Er  Er5  1  0.685192  0.380913  0.695721  1
  Er  Er6  1  0.314808  0.010530  0.695721  1
  Er  Er7  1  0.685192  0.989470  0.304279  1
  Er  Er8  1  0.417840  0.223205  0.194634  1
  Er  Er9  1  0.582160  0.776795  0.805366  1
  Er  Er10  1  0.028571  0.223205  0.805366  1
  Er  Er11  1  0.971429  0.776795  0.194634  1
  Co  Co12  1  0.112814  0.612814  0.500000  1
  Co  Co13  1  0.887186  0.387186  0.500000  1
  Co  Co14  1  0.374979  0.000000  0.374979  1
  Co  Co15  1  0.625021  0.000000  0.625021  1
  Hg  Hg16  1  0.500000  0.500000  0.000000  1
  Os  Os17  1  0.000000  0.000000  0.000000  1
