# generated using pymatgen
data_Ca2HoPaO6
_symmetry_space_group_name_H-M   'P 1'
_cell_length_a   6.78595562
_cell_length_b   6.77193391
_cell_length_c   6.75766700
_cell_angle_alpha   91.52663056
_cell_angle_beta   91.29477025
_cell_angle_gamma   91.26239145
_symmetry_Int_Tables_number   1
_chemical_formula_structural   Ca2HoPaO6
_chemical_formula_sum   'Ca4 Ho2 Pa2 O12'
_cell_volume   310.27303442
_cell_formula_units_Z   2
loop_
 _symmetry_equiv_pos_site_id
 _symmetry_equiv_pos_as_xyz
  1  'x, y, z'
loop_
 _atom_site_type_symbol
 _atom_site_label
 _atom_site_symmetry_multiplicity
 _atom_site_fract_x
 _atom_site_fract_y
 _atom_site_fract_z
 _atom_site_occupancy
  Ca  Ca0  1  0.552204  0.249563  0.058258  1
  Ca  Ca1  1  0.252111  0.057990  0.556213  1
  Ca  Ca2  1  0.061131  0.554769  0.249462  1
  Ca  Ca3  1  0.447084  0.750031  0.941830  1
  Ho  Ho4  1  0.937268  0.442710  0.748571  1
  Ho  Ho5  1  0.749270  0.938806  0.442173  1
  Pa  Pa6  1  0.998334  0.997644  0.998367  1
  Pa  Pa7  1  0.497478  0.498738  0.499924  1
  O  O8  1  0.295824  0.062393  0.919822  1
  O  O9  1  0.057142  0.920264  0.305397  1
  O  O10  1  0.922872  0.304518  0.053977  1
  O  O11  1  0.699790  0.933132  0.097460  1
  O  O12  1  0.920962  0.089968  0.689069  1
  O  O13  1  0.072904  0.690577  0.922590  1
  O  O14  1  0.190866  0.407166  0.547179  1
  O  O15  1  0.408192  0.538684  0.199261  1
  O  O16  1  0.475726  0.809251  0.588507  1
  O  O17  1  0.604526  0.459921  0.800262  1
  O  O18  1  0.809270  0.600773  0.472395  1
  O  O19  1  0.547045  0.193100  0.409284  1
