# generated using pymatgen
data_La2CuSiNi8
_symmetry_space_group_name_H-M   'P 1'
_cell_length_a   4.94360962
_cell_length_b   4.94360853
_cell_length_c   7.99141900
_cell_angle_alpha   90.00000000
_cell_angle_beta   90.00000000
_cell_angle_gamma   117.61151869
_symmetry_Int_Tables_number   1
_chemical_formula_structural   La2CuSiNi8
_chemical_formula_sum   'La2 Cu1 Si1 Ni8'
_cell_volume   173.06131023
_cell_formula_units_Z   1
loop_
 _symmetry_equiv_pos_site_id
 _symmetry_equiv_pos_as_xyz
  1  'x, y, z'
loop_
 _atom_site_type_symbol
 _atom_site_label
 _atom_site_symmetry_multiplicity
 _atom_site_fract_x
 _atom_site_fract_y
 _atom_site_fract_z
 _atom_site_occupancy
  La  La0  1  0.000000  0.000000  0.754797  1
  La  La1  1  0.000000  0.000000  0.245203  1
  Cu  Cu2  1  0.500000  0.500000  0.000000  1
  Si  Si3  1  0.500000  0.500000  0.500000  1
  Ni  Ni4  1  0.663607  0.336393  0.747341  1
  Ni  Ni5  1  0.663607  0.336393  0.252659  1
  Ni  Ni6  1  0.336393  0.663607  0.747341  1
  Ni  Ni7  1  0.500000  0.000000  0.500000  1
  Ni  Ni8  1  0.000000  0.500000  0.000000  1
  Ni  Ni9  1  0.500000  0.000000  0.000000  1
  Ni  Ni10  1  0.336393  0.663607  0.252659  1
  Ni  Ni11  1  0.000000  0.500000  0.500000  1
