# generated using pymatgen
data_Tb2SmEr2(In2Pd)2
_symmetry_space_group_name_H-M   'P 1'
_cell_length_a   3.62816300
_cell_length_b   8.19996600
_cell_length_c   18.33824900
_cell_angle_alpha   90.00000000
_cell_angle_beta   90.00000000
_cell_angle_gamma   90.00000000
_symmetry_Int_Tables_number   1
_chemical_formula_structural   Tb2SmEr2(In2Pd)2
_chemical_formula_sum   'Tb4 Sm2 Er4 In8 Pd4'
_cell_volume   545.57782119
_cell_formula_units_Z   2
loop_
 _symmetry_equiv_pos_site_id
 _symmetry_equiv_pos_as_xyz
  1  'x, y, z'
loop_
 _atom_site_type_symbol
 _atom_site_label
 _atom_site_symmetry_multiplicity
 _atom_site_fract_x
 _atom_site_fract_y
 _atom_site_fract_z
 _atom_site_occupancy
  Tb  Tb0  1  0.000000  0.738902  0.281836  1
  Tb  Tb1  1  0.000000  0.261098  0.718164  1
  Tb  Tb2  1  0.000000  0.761098  0.781836  1
  Tb  Tb3  1  0.000000  0.238902  0.218164  1
  Sm  Sm4  1  0.000000  0.500000  0.500000  1
  Sm  Sm5  1  0.000000  0.000000  0.000000  1
  Er  Er6  1  0.000000  0.619846  0.084249  1
  Er  Er7  1  0.000000  0.380154  0.915751  1
  Er  Er8  1  0.000000  0.880154  0.584249  1
  Er  Er9  1  0.000000  0.119846  0.415751  1
  In  In10  1  0.500000  0.701576  0.932962  1
  In  In11  1  0.500000  0.298424  0.067038  1
  In  In12  1  0.500000  0.798424  0.432962  1
  In  In13  1  0.500000  0.201576  0.567038  1
  In  In14  1  0.500000  0.582541  0.652057  1
  In  In15  1  0.500000  0.417459  0.347943  1
  In  In16  1  0.500000  0.917459  0.152057  1
  In  In17  1  0.500000  0.082541  0.847943  1
  Pd  Pd18  1  0.500000  0.524257  0.195114  1
  Pd  Pd19  1  0.500000  0.475743  0.804886  1
  Pd  Pd20  1  0.500000  0.975743  0.695114  1
  Pd  Pd21  1  0.500000  0.024257  0.304886  1
