# generated using pymatgen
data_K3RbHfTeI12
_symmetry_space_group_name_H-M   'P 1'
_cell_length_a   8.57345952
_cell_length_b   8.23879068
_cell_length_c   14.28579151
_cell_angle_alpha   55.02437520
_cell_angle_beta   90.15613012
_cell_angle_gamma   89.76106289
_symmetry_Int_Tables_number   1
_chemical_formula_structural   K3RbHfTeI12
_chemical_formula_sum   'K3 Rb1 Hf1 Te1 I12'
_cell_volume   826.80952301
_cell_formula_units_Z   1
loop_
 _symmetry_equiv_pos_site_id
 _symmetry_equiv_pos_as_xyz
  1  'x, y, z'
loop_
 _atom_site_type_symbol
 _atom_site_label
 _atom_site_symmetry_multiplicity
 _atom_site_fract_x
 _atom_site_fract_y
 _atom_site_fract_z
 _atom_site_occupancy
  K  K0  1  0.078023  0.273255  0.247475  1
  K  K1  1  0.420579  0.274921  0.748445  1
  K  K2  1  0.921952  0.726917  0.752510  1
  Rb  Rb3  1  0.576957  0.724611  0.250950  1
  Hf  Hf4  1  0.000122  0.000739  0.999492  1
  Te  Te5  1  0.499669  0.999540  0.500684  1
  I  I6  1  0.998364  0.843047  0.237398  1
  I  I7  1  0.491317  0.168066  0.251971  1
  I  I8  1  0.006799  0.159265  0.761584  1
  I  I9  1  0.507837  0.838639  0.747964  1
  I  I10  1  0.695329  0.657547  0.548827  1
  I  I11  1  0.183930  0.327097  0.956415  1
  I  I12  1  0.300518  0.335857  0.455546  1
  I  I13  1  0.817951  0.673408  0.042045  1
  I  I14  1  0.719179  0.219853  0.963344  1
  I  I15  1  0.209447  0.770612  0.537867  1
  I  I16  1  0.279930  0.781166  0.033752  1
  I  I17  1  0.792099  0.225459  0.463732  1
