# generated using pymatgen
data_SmLu4Bi3O14
_symmetry_space_group_name_H-M   'P 1'
_cell_length_a   6.52174207
_cell_length_b   6.54373845
_cell_length_c   7.64317454
_cell_angle_alpha   106.88225929
_cell_angle_beta   89.65681423
_cell_angle_gamma   99.19679743
_symmetry_Int_Tables_number   1
_chemical_formula_structural   SmLu4Bi3O14
_chemical_formula_sum   'Sm1 Lu4 Bi3 O14'
_cell_volume   307.83250216
_cell_formula_units_Z   1
loop_
 _symmetry_equiv_pos_site_id
 _symmetry_equiv_pos_as_xyz
  1  'x, y, z'
loop_
 _atom_site_type_symbol
 _atom_site_label
 _atom_site_symmetry_multiplicity
 _atom_site_fract_x
 _atom_site_fract_y
 _atom_site_fract_z
 _atom_site_occupancy
  Sm  Sm0  1  0.746322  0.482685  0.621027  1
  Lu  Lu1  1  0.463359  0.007361  0.251762  1
  Lu  Lu2  1  0.534349  0.998987  0.752557  1
  Lu  Lu3  1  0.276322  0.535372  0.885121  1
  Lu  Lu4  1  0.732568  0.458756  0.110563  1
  Bi  Bi5  1  0.995099  0.999489  0.499984  1
  Bi  Bi6  1  0.999942  0.997499  0.998319  1
  Bi  Bi7  1  0.279827  0.531187  0.384501  1
  O  O8  1  0.456566  0.658651  0.162706  1
  O  O9  1  0.547777  0.346698  0.842261  1
  O  O10  1  0.304567  0.918553  0.950561  1
  O  O11  1  0.696377  0.078746  0.051354  1
  O  O12  1  0.302384  0.933961  0.517827  1
  O  O13  1  0.694024  0.079396  0.489622  1
  O  O14  1  0.547952  0.357760  0.334417  1
  O  O15  1  0.455808  0.644540  0.663936  1
  O  O16  1  0.926439  0.656916  0.952813  1
  O  O17  1  0.069081  0.331704  0.028173  1
  O  O18  1  0.076035  0.341937  0.634256  1
  O  O19  1  0.902604  0.660009  0.373013  1
  O  O20  1  0.863879  0.899959  0.725085  1
  O  O21  1  0.128717  0.079836  0.270143  1
