# generated using pymatgen
data_Yb14Nb2V3FeN18
_symmetry_space_group_name_H-M   'P 1'
_cell_length_a   6.03836277
_cell_length_b   9.85820600
_cell_length_c   8.98198891
_cell_angle_alpha   90.00000000
_cell_angle_beta   92.67689594
_cell_angle_gamma   90.00000000
_symmetry_Int_Tables_number   1
_chemical_formula_structural   Yb14Nb2V3FeN18
_chemical_formula_sum   'Yb14 Nb2 V3 Fe1 N18'
_cell_volume   534.09122059
_cell_formula_units_Z   1
loop_
 _symmetry_equiv_pos_site_id
 _symmetry_equiv_pos_as_xyz
  1  'x, y, z'
loop_
 _atom_site_type_symbol
 _atom_site_label
 _atom_site_symmetry_multiplicity
 _atom_site_fract_x
 _atom_site_fract_y
 _atom_site_fract_z
 _atom_site_occupancy
  Yb  Yb0  1  0.076017  0.415920  0.172319  1
  Yb  Yb1  1  0.933955  0.919357  0.827443  1
  Yb  Yb2  1  0.933955  0.580643  0.827443  1
  Yb  Yb3  1  0.076017  0.084081  0.172319  1
  Yb  Yb4  1  0.241388  0.918992  0.508139  1
  Yb  Yb5  1  0.753634  0.415189  0.489402  1
  Yb  Yb6  1  0.753634  0.084811  0.489402  1
  Yb  Yb7  1  0.241388  0.581008  0.508139  1
  Yb  Yb8  1  0.578274  0.938403  0.160127  1
  Yb  Yb9  1  0.427089  0.438504  0.834761  1
  Yb  Yb10  1  0.427089  0.061496  0.834761  1
  Yb  Yb11  1  0.578274  0.561597  0.160127  1
  Yb  Yb12  1  0.911633  0.250000  0.798571  1
  Yb  Yb13  1  0.089125  0.750000  0.201157  1
  Nb  Nb14  1  0.279255  0.250000  0.558816  1
  Nb  Nb15  1  0.721893  0.750000  0.437470  1
  V  V16  1  0.540248  0.750000  0.724664  1
  V  V17  1  0.673144  0.250000  0.067091  1
  V  V18  1  0.323804  0.750000  0.938873  1
  Fe  Fe19  1  0.456918  0.250000  0.279305  1
  N  N20  1  0.110535  0.403369  0.659713  1
  N  N21  1  0.886018  0.903106  0.341885  1
  N  N22  1  0.886018  0.596894  0.341885  1
  N  N23  1  0.110535  0.096631  0.659713  1
  N  N24  1  0.230210  0.907804  0.020955  1
  N  N25  1  0.770677  0.404945  0.981193  1
  N  N26  1  0.770677  0.095055  0.981193  1
  N  N27  1  0.230210  0.592196  0.020955  1
  N  N28  1  0.359436  0.394855  0.377355  1
  N  N29  1  0.629151  0.897951  0.627222  1
  N  N30  1  0.629151  0.602049  0.627222  1
  N  N31  1  0.359436  0.105145  0.377355  1
  N  N32  1  0.361198  0.250000  0.065244  1
  N  N33  1  0.645769  0.750000  0.934156  1
  N  N34  1  0.556955  0.250000  0.670225  1
  N  N35  1  0.444139  0.750000  0.326928  1
  N  N36  1  0.783264  0.250000  0.265985  1
  N  N37  1  0.219882  0.750000  0.730488  1
