# generated using pymatgen
data_Y3Be2Rh5
_symmetry_space_group_name_H-M   'P 1'
_cell_length_a   9.84867800
_cell_length_b   9.84867800
_cell_length_c   3.38737600
_cell_angle_alpha   90.00000000
_cell_angle_beta   90.00000000
_cell_angle_gamma   90.00000000
_symmetry_Int_Tables_number   1
_chemical_formula_structural   Y3Be2Rh5
_chemical_formula_sum   'Y6 Be4 Rh10'
_cell_volume   328.56347509
_cell_formula_units_Z   2
loop_
 _symmetry_equiv_pos_site_id
 _symmetry_equiv_pos_as_xyz
  1  'x, y, z'
loop_
 _atom_site_type_symbol
 _atom_site_label
 _atom_site_symmetry_multiplicity
 _atom_site_fract_x
 _atom_site_fract_y
 _atom_site_fract_z
 _atom_site_occupancy
  Y  Y0  1  0.825548  0.325548  0.000000  1
  Y  Y1  1  0.325548  0.174452  0.000000  1
  Y  Y2  1  0.674452  0.825548  0.000000  1
  Y  Y3  1  0.174452  0.674452  0.000000  1
  Y  Y4  1  0.000000  0.000000  0.000000  1
  Y  Y5  1  0.500000  0.500000  0.000000  1
  Be  Be6  1  0.619925  0.119925  0.000000  1
  Be  Be7  1  0.119925  0.380075  0.000000  1
  Be  Be8  1  0.880075  0.619925  0.000000  1
  Be  Be9  1  0.380075  0.880075  0.000000  1
  Rh  Rh10  1  0.070582  0.223521  0.500000  1
  Rh  Rh11  1  0.223521  0.929418  0.500000  1
  Rh  Rh12  1  0.776479  0.070582  0.500000  1
  Rh  Rh13  1  0.929418  0.776479  0.500000  1
  Rh  Rh14  1  0.429418  0.723521  0.500000  1
  Rh  Rh15  1  0.570582  0.276479  0.500000  1
  Rh  Rh16  1  0.723521  0.570582  0.500000  1
  Rh  Rh17  1  0.276479  0.429418  0.500000  1
  Rh  Rh18  1  0.500000  0.000000  0.500000  1
  Rh  Rh19  1  0.000000  0.500000  0.500000  1
