# generated using pymatgen
data_Y3Al12(IrOs)2
_symmetry_space_group_name_H-M   'P 1'
_cell_length_a   8.82288452
_cell_length_b   8.80482464
_cell_length_c   9.58540459
_cell_angle_alpha   90.00000212
_cell_angle_beta   90.15612935
_cell_angle_gamma   119.93230528
_symmetry_Int_Tables_number   1
_chemical_formula_structural   Y3Al12(IrOs)2
_chemical_formula_sum   'Y6 Al24 Ir4 Os4'
_cell_volume   645.30656526
_cell_formula_units_Z   2
loop_
 _symmetry_equiv_pos_site_id
 _symmetry_equiv_pos_as_xyz
  1  'x, y, z'
loop_
 _atom_site_type_symbol
 _atom_site_label
 _atom_site_symmetry_multiplicity
 _atom_site_fract_x
 _atom_site_fract_y
 _atom_site_fract_z
 _atom_site_occupancy
  Y  Y0  1  0.192578  0.384169  0.251010  1
  Y  Y1  1  0.807422  0.615831  0.748990  1
  Y  Y2  1  0.613385  0.806693  0.252134  1
  Y  Y3  1  0.386615  0.193307  0.747866  1
  Y  Y4  1  0.192578  0.808408  0.251010  1
  Y  Y5  1  0.807422  0.191592  0.748990  1
  Al  Al6  1  0.333070  0.666535  0.025613  1
  Al  Al7  1  0.666930  0.333465  0.974387  1
  Al  Al8  1  0.665593  0.332796  0.524390  1
  Al  Al9  1  0.334407  0.667204  0.475610  1
  Al  Al10  1  0.165605  0.327727  0.576535  1
  Al  Al11  1  0.834395  0.672273  0.423465  1
  Al  Al12  1  0.671817  0.835908  0.576259  1
  Al  Al13  1  0.836512  0.673192  0.077110  1
  Al  Al14  1  0.328183  0.164092  0.423741  1
  Al  Al15  1  0.163488  0.326808  0.922890  1
  Al  Al16  1  0.165605  0.837877  0.576535  1
  Al  Al17  1  0.326744  0.163372  0.076517  1
  Al  Al18  1  0.834395  0.162123  0.423465  1
  Al  Al19  1  0.673256  0.836628  0.923483  1
  Al  Al20  1  0.836512  0.163320  0.077110  1
  Al  Al21  1  0.163488  0.836680  0.922890  1
  Al  Al22  1  0.561294  0.124104  0.250243  1
  Al  Al23  1  0.438706  0.875896  0.749757  1
  Al  Al24  1  0.876082  0.438041  0.249311  1
  Al  Al25  1  0.123918  0.561959  0.750689  1
  Al  Al26  1  0.561294  0.437189  0.250243  1
  Al  Al27  1  0.438706  0.562811  0.749757  1
  Al  Al28  1  0.998917  0.999459  0.250126  1
  Al  Al29  1  0.001083  0.000541  0.749874  1
  Ir  Ir30  1  0.500000  0.000000  0.000000  1
  Ir  Ir31  1  0.000000  0.500000  0.000000  1
  Ir  Ir32  1  0.500000  0.500000  0.000000  1
  Ir  Ir33  1  0.000000  0.500000  0.500000  1
  Os  Os34  1  0.500000  0.000000  0.500000  1
  Os  Os35  1  0.500000  0.500000  0.500000  1
  Os  Os36  1  0.000000  0.000000  0.000000  1
  Os  Os37  1  0.000000  0.000000  0.500000  1
