# generated using pymatgen
data_Tb2Ta5WO18
_symmetry_space_group_name_H-M   'P 1'
_cell_length_a   7.52525193
_cell_length_b   5.32179463
_cell_length_c   8.32027741
_cell_angle_alpha   87.64652058
_cell_angle_beta   90.17113333
_cell_angle_gamma   89.79827142
_symmetry_Int_Tables_number   1
_chemical_formula_structural   Tb2Ta5WO18
_chemical_formula_sum   'Tb2 Ta5 W1 O18'
_cell_volume   332.92442225
_cell_formula_units_Z   1
loop_
 _symmetry_equiv_pos_site_id
 _symmetry_equiv_pos_as_xyz
  1  'x, y, z'
loop_
 _atom_site_type_symbol
 _atom_site_label
 _atom_site_symmetry_multiplicity
 _atom_site_fract_x
 _atom_site_fract_y
 _atom_site_fract_z
 _atom_site_occupancy
  Tb  Tb0  1  0.247653  0.965157  0.435064  1
  Tb  Tb1  1  0.752347  0.034843  0.564936  1
  Ta  Ta2  1  0.500000  0.000000  0.000000  1
  Ta  Ta3  1  0.008367  0.530112  0.696799  1
  Ta  Ta4  1  0.494032  0.526655  0.696153  1
  Ta  Ta5  1  0.991633  0.469888  0.303201  1
  Ta  Ta6  1  0.505968  0.473345  0.303847  1
  W  W7  1  0.000000  0.000000  0.000000  1
  O  O8  1  0.246792  0.908659  0.978855  1
  O  O9  1  0.933809  0.853882  0.781015  1
  O  O10  1  0.562170  0.849173  0.787332  1
  O  O11  1  0.957166  0.740744  0.468155  1
  O  O12  1  0.542673  0.741104  0.467929  1
  O  O13  1  0.250960  0.664194  0.655752  1
  O  O14  1  0.945574  0.673851  0.123011  1
  O  O15  1  0.551831  0.677691  0.121177  1
  O  O16  1  0.249969  0.575824  0.313461  1
  O  O17  1  0.750031  0.424176  0.686539  1
  O  O18  1  0.054426  0.326149  0.876989  1
  O  O19  1  0.448169  0.322309  0.878823  1
  O  O20  1  0.749040  0.335806  0.344248  1
  O  O21  1  0.042834  0.259256  0.531845  1
  O  O22  1  0.457327  0.258896  0.532071  1
  O  O23  1  0.066191  0.146118  0.218985  1
  O  O24  1  0.437830  0.150827  0.212668  1
  O  O25  1  0.753208  0.091341  0.021145  1
