# generated using pymatgen
data_TbHo15(In3Pt)2
_symmetry_space_group_name_H-M   'P 1'
_cell_length_a   10.47184900
_cell_length_b   10.47621379
_cell_length_c   6.97369404
_cell_angle_alpha   90.01064727
_cell_angle_beta   89.99876016
_cell_angle_gamma   119.98435724
_symmetry_Int_Tables_number   1
_chemical_formula_structural   TbHo15(In3Pt)2
_chemical_formula_sum   'Tb1 Ho15 In6 Pt2'
_cell_volume   662.65834436
_cell_formula_units_Z   1
loop_
 _symmetry_equiv_pos_site_id
 _symmetry_equiv_pos_as_xyz
  1  'x, y, z'
loop_
 _atom_site_type_symbol
 _atom_site_label
 _atom_site_symmetry_multiplicity
 _atom_site_fract_x
 _atom_site_fract_y
 _atom_site_fract_z
 _atom_site_occupancy
  Tb  Tb0  1  0.530934  0.061877  0.508401  1
  Ho  Ho1  1  0.937197  0.468527  0.508663  1
  Ho  Ho2  1  0.531319  0.468519  0.508679  1
  Ho  Ho3  1  0.468419  0.936830  0.008396  1
  Ho  Ho4  1  0.062922  0.531467  0.008673  1
  Ho  Ho5  1  0.468558  0.531474  0.008690  1
  Ho  Ho6  1  0.175304  0.350608  0.714836  1
  Ho  Ho7  1  0.649764  0.824393  0.715077  1
  Ho  Ho8  1  0.174636  0.824383  0.715066  1
  Ho  Ho9  1  0.824921  0.649837  0.214745  1
  Ho  Ho10  1  0.350519  0.175468  0.214253  1
  Ho  Ho11  1  0.824941  0.175473  0.214262  1
  Ho  Ho12  1  0.666929  0.333872  0.883955  1
  Ho  Ho13  1  0.333041  0.666067  0.383822  1
  Ho  Ho14  1  0.000031  0.000066  0.489208  1
  Ho  Ho15  1  0.000072  0.000144  0.989466  1
  In  In16  1  0.837251  0.674491  0.751324  1
  In  In17  1  0.325128  0.162618  0.751728  1
  In  In18  1  0.837495  0.162629  0.751710  1
  In  In19  1  0.162645  0.325306  0.251500  1
  In  In20  1  0.674539  0.837311  0.251403  1
  In  In21  1  0.162780  0.837304  0.251401  1
  Pt  Pt22  1  0.667266  0.334527  0.281071  1
  Pt  Pt23  1  0.333390  0.666809  0.781714  1
