# generated using pymatgen
data_Tb3AlGa2GePt2
_symmetry_space_group_name_H-M   'P 1'
_cell_length_a   7.24536900
_cell_length_b   7.22449592
_cell_length_c   4.03222000
_cell_angle_alpha   90.00000000
_cell_angle_beta   90.00000000
_cell_angle_gamma   120.86530320
_symmetry_Int_Tables_number   1
_chemical_formula_structural   Tb3AlGa2GePt2
_chemical_formula_sum   'Tb3 Al1 Ga2 Ge1 Pt2'
_cell_volume   181.17142937
_cell_formula_units_Z   1
loop_
 _symmetry_equiv_pos_site_id
 _symmetry_equiv_pos_as_xyz
  1  'x, y, z'
loop_
 _atom_site_type_symbol
 _atom_site_label
 _atom_site_symmetry_multiplicity
 _atom_site_fract_x
 _atom_site_fract_y
 _atom_site_fract_z
 _atom_site_occupancy
  Tb  Tb0  1  0.409233  0.993606  0.000000  1
  Tb  Tb1  1  0.000596  0.413117  0.000000  1
  Tb  Tb2  1  0.590069  0.594459  0.000000  1
  Al  Al3  1  0.232209  0.246300  0.500000  1
  Ga  Ga4  1  0.017048  0.763077  0.500000  1
  Ga  Ga5  1  0.749540  0.989002  0.500000  1
  Ge  Ge6  1  0.660377  0.332428  0.500000  1
  Pt  Pt7  1  0.009246  0.009471  0.000000  1
  Pt  Pt8  1  0.331680  0.658541  0.500000  1
