# generated using pymatgen
data_Ho4Tm4B24IrRh3
_symmetry_space_group_name_H-M   'P 1'
_cell_length_a   3.62780800
_cell_length_b   9.12913872
_cell_length_c   11.46598091
_cell_angle_alpha   90.04563019
_cell_angle_beta   90.00000000
_cell_angle_gamma   90.00000000
_symmetry_Int_Tables_number   1
_chemical_formula_structural   Ho4Tm4B24IrRh3
_chemical_formula_sum   'Ho4 Tm4 B24 Ir1 Rh3'
_cell_volume   379.73897808
_cell_formula_units_Z   1
loop_
 _symmetry_equiv_pos_site_id
 _symmetry_equiv_pos_as_xyz
  1  'x, y, z'
loop_
 _atom_site_type_symbol
 _atom_site_label
 _atom_site_symmetry_multiplicity
 _atom_site_fract_x
 _atom_site_fract_y
 _atom_site_fract_z
 _atom_site_occupancy
  Ho  Ho0  1  0.500000  0.322329  0.414271  1
  Ho  Ho1  1  0.500000  0.677772  0.586349  1
  Ho  Ho2  1  0.500000  0.178526  0.912989  1
  Ho  Ho3  1  0.500000  0.821194  0.086234  1
  Tm  Tm4  1  0.500000  0.445235  0.126500  1
  Tm  Tm5  1  0.500000  0.555680  0.872982  1
  Tm  Tm6  1  0.500000  0.055811  0.626851  1
  Tm  Tm7  1  0.500000  0.943602  0.374074  1
  B  B8  1  0.000000  0.107995  0.470778  1
  B  B9  1  0.000000  0.891687  0.529397  1
  B  B10  1  0.000000  0.392204  0.970730  1
  B  B11  1  0.000000  0.608073  0.029076  1
  B  B12  1  0.000000  0.132384  0.316617  1
  B  B13  1  0.000000  0.867300  0.683535  1
  B  B14  1  0.000000  0.367197  0.816382  1
  B  B15  1  0.000000  0.632964  0.183296  1
  B  B16  1  0.000000  0.054350  0.065523  1
  B  B17  1  0.000000  0.945827  0.934415  1
  B  B18  1  0.000000  0.445969  0.565434  1
  B  B19  1  0.000000  0.553823  0.434641  1
  B  B20  1  0.000000  0.482669  0.286591  1
  B  B21  1  0.000000  0.517343  0.713438  1
  B  B22  1  0.000000  0.017428  0.786436  1
  B  B23  1  0.000000  0.982693  0.213894  1
  B  B24  1  0.000000  0.250420  0.079339  1
  B  B25  1  0.000000  0.749754  0.920360  1
  B  B26  1  0.000000  0.250092  0.579598  1
  B  B27  1  0.000000  0.749781  0.420509  1
  B  B28  1  0.000000  0.294419  0.235548  1
  B  B29  1  0.000000  0.705544  0.764073  1
  B  B30  1  0.000000  0.205476  0.735952  1
  B  B31  1  0.000000  0.794320  0.264019  1
  Ir  Ir32  1  0.500000  0.139754  0.179197  1
  Rh  Rh33  1  0.500000  0.860519  0.821184  1
  Rh  Rh34  1  0.500000  0.360044  0.679634  1
  Rh  Rh35  1  0.500000  0.639822  0.320156  1
