# generated using pymatgen
data_Zr2GaRe3
_symmetry_space_group_name_H-M   'P 1'
_cell_length_a   5.27438600
_cell_length_b   5.27438714
_cell_length_c   8.68760500
_cell_angle_alpha   90.00000000
_cell_angle_beta   90.00000000
_cell_angle_gamma   120.00000542
_symmetry_Int_Tables_number   1
_chemical_formula_structural   Zr2GaRe3
_chemical_formula_sum   'Zr4 Ga2 Re6'
_cell_volume   209.30258304
_cell_formula_units_Z   2
loop_
 _symmetry_equiv_pos_site_id
 _symmetry_equiv_pos_as_xyz
  1  'x, y, z'
loop_
 _atom_site_type_symbol
 _atom_site_label
 _atom_site_symmetry_multiplicity
 _atom_site_fract_x
 _atom_site_fract_y
 _atom_site_fract_z
 _atom_site_occupancy
  Zr  Zr0  1  0.333333  0.666667  0.434449  1
  Zr  Zr1  1  0.666667  0.333333  0.934449  1
  Zr  Zr2  1  0.666667  0.333333  0.565551  1
  Zr  Zr3  1  0.333333  0.666667  0.065551  1
  Ga  Ga4  1  0.000000  0.000000  0.500000  1
  Ga  Ga5  1  0.000000  0.000000  0.000000  1
  Re  Re6  1  0.657610  0.828805  0.750000  1
  Re  Re7  1  0.342390  0.171195  0.250000  1
  Re  Re8  1  0.828805  0.171195  0.250000  1
  Re  Re9  1  0.171195  0.342390  0.750000  1
  Re  Re10  1  0.171195  0.828805  0.750000  1
  Re  Re11  1  0.828805  0.657610  0.250000  1
