# generated using pymatgen
data_MnBe4Ir
_symmetry_space_group_name_H-M   'P 1'
_cell_length_a   4.32654500
_cell_length_b   4.32654399
_cell_length_c   7.04759600
_cell_angle_alpha   90.00000000
_cell_angle_beta   90.00000000
_cell_angle_gamma   120.00000010
_symmetry_Int_Tables_number   1
_chemical_formula_structural   MnBe4Ir
_chemical_formula_sum   'Mn2 Be8 Ir2'
_cell_volume   114.24941376
_cell_formula_units_Z   2
loop_
 _symmetry_equiv_pos_site_id
 _symmetry_equiv_pos_as_xyz
  1  'x, y, z'
loop_
 _atom_site_type_symbol
 _atom_site_label
 _atom_site_symmetry_multiplicity
 _atom_site_fract_x
 _atom_site_fract_y
 _atom_site_fract_z
 _atom_site_occupancy
  Mn  Mn0  1  0.666667  0.333333  0.938498  1
  Mn  Mn1  1  0.333333  0.666667  0.438498  1
  Be  Be2  1  0.000000  0.000000  0.999699  1
  Be  Be3  1  0.000000  0.000000  0.499699  1
  Be  Be4  1  0.830509  0.661018  0.249856  1
  Be  Be5  1  0.169491  0.830509  0.749856  1
  Be  Be6  1  0.661018  0.830509  0.749856  1
  Be  Be7  1  0.338982  0.169491  0.249856  1
  Be  Be8  1  0.830509  0.169491  0.249856  1
  Be  Be9  1  0.169491  0.338982  0.749856  1
  Ir  Ir10  1  0.333333  0.666667  0.062234  1
  Ir  Ir11  1  0.666667  0.333333  0.562234  1
