# generated using pymatgen
data_Ho16In3HgRh4
_symmetry_space_group_name_H-M   'P 1'
_cell_length_a   9.60281184
_cell_length_b   9.60281210
_cell_length_c   9.60281202
_cell_angle_alpha   60.00580244
_cell_angle_beta   60.00579962
_cell_angle_gamma   60.00580239
_symmetry_Int_Tables_number   1
_chemical_formula_structural   Ho16In3HgRh4
_chemical_formula_sum   'Ho16 In3 Hg1 Rh4'
_cell_volume   626.23508929
_cell_formula_units_Z   1
loop_
 _symmetry_equiv_pos_site_id
 _symmetry_equiv_pos_as_xyz
  1  'x, y, z'
loop_
 _atom_site_type_symbol
 _atom_site_label
 _atom_site_symmetry_multiplicity
 _atom_site_fract_x
 _atom_site_fract_y
 _atom_site_fract_z
 _atom_site_occupancy
  Ho  Ho0  1  0.188065  0.188065  0.812299  1
  Ho  Ho1  1  0.601834  0.601834  0.198563  1
  Ho  Ho2  1  0.439757  0.058903  0.439757  1
  Ho  Ho3  1  0.439757  0.439757  0.058903  1
  Ho  Ho4  1  0.813187  0.184613  0.813187  1
  Ho  Ho5  1  0.188065  0.812299  0.188065  1
  Ho  Ho6  1  0.435992  0.061252  0.061252  1
  Ho  Ho7  1  0.184613  0.813187  0.813187  1
  Ho  Ho8  1  0.061252  0.435992  0.061252  1
  Ho  Ho9  1  0.813187  0.813187  0.184613  1
  Ho  Ho10  1  0.198563  0.601834  0.601834  1
  Ho  Ho11  1  0.058903  0.439757  0.439757  1
  Ho  Ho12  1  0.061252  0.061252  0.435992  1
  Ho  Ho13  1  0.812299  0.188065  0.188065  1
  Ho  Ho14  1  0.601834  0.198563  0.601834  1
  Ho  Ho15  1  0.598377  0.598377  0.598377  1
  In  In16  1  0.832237  0.832237  0.503130  1
  In  In17  1  0.503130  0.832237  0.832237  1
  In  In18  1  0.832237  0.503130  0.832237  1
  Hg  Hg19  1  0.835702  0.835702  0.835702  1
  Rh  Rh20  1  0.391907  0.822666  0.391907  1
  Rh  Rh21  1  0.393278  0.393278  0.393278  1
  Rh  Rh22  1  0.822666  0.391907  0.391907  1
  Rh  Rh23  1  0.391907  0.391907  0.822666  1
