# generated using pymatgen
data_ErTlPdPtF14
_symmetry_space_group_name_H-M   'P 1'
_cell_length_a   5.46727900
_cell_length_b   8.79520613
_cell_length_c   11.96915589
_cell_angle_alpha   62.66197547
_cell_angle_beta   90.00000000
_cell_angle_gamma   90.00000000
_symmetry_Int_Tables_number   1
_chemical_formula_structural   ErTlPdPtF14
_chemical_formula_sum   'Er2 Tl2 Pd2 Pt2 F28'
_cell_volume   511.26566843
_cell_formula_units_Z   2
loop_
 _symmetry_equiv_pos_site_id
 _symmetry_equiv_pos_as_xyz
  1  'x, y, z'
loop_
 _atom_site_type_symbol
 _atom_site_label
 _atom_site_symmetry_multiplicity
 _atom_site_fract_x
 _atom_site_fract_y
 _atom_site_fract_z
 _atom_site_occupancy
  Er  Er0  1  0.236057  0.185419  0.234992  1
  Er  Er1  1  0.736057  0.814581  0.265008  1
  Tl  Tl2  1  0.763933  0.813487  0.761265  1
  Tl  Tl3  1  0.263933  0.186513  0.738735  1
  Pd  Pd4  1  0.760972  0.273205  0.957462  1
  Pd  Pd5  1  0.260972  0.726795  0.542538  1
  Pt  Pt6  1  0.238035  0.727327  0.043826  1
  Pt  Pt7  1  0.738035  0.272673  0.456174  1
  F  F8  1  0.424104  0.695324  0.916897  1
  F  F9  1  0.924104  0.304676  0.583103  1
  F  F10  1  0.573102  0.298603  0.086169  1
  F  F11  1  0.073102  0.701397  0.413831  1
  F  F12  1  0.426021  0.274286  0.537422  1
  F  F13  1  0.926021  0.725714  0.962578  1
  F  F14  1  0.568994  0.729852  0.457801  1
  F  F15  1  0.068994  0.270148  0.042199  1
  F  F16  1  0.799281  0.522890  0.859763  1
  F  F17  1  0.299281  0.477110  0.640237  1
  F  F18  1  0.217625  0.476246  0.141008  1
  F  F19  1  0.717625  0.523754  0.358992  1
  F  F20  1  0.747437  0.024715  0.049442  1
  F  F21  1  0.247437  0.975285  0.450558  1
  F  F22  1  0.247425  0.977246  0.955555  1
  F  F23  1  0.747425  0.022754  0.544445  1
  F  F24  1  0.955911  0.714132  0.630829  1
  F  F25  1  0.455911  0.285868  0.869171  1
  F  F26  1  0.038170  0.277100  0.363728  1
  F  F27  1  0.538170  0.722900  0.136272  1
  F  F28  1  0.052179  0.747684  0.177928  1
  F  F29  1  0.552179  0.252316  0.322072  1
  F  F30  1  0.935086  0.259318  0.818359  1
  F  F31  1  0.435086  0.740682  0.681641  1
  F  F32  1  0.411521  0.969573  0.232269  1
  F  F33  1  0.911521  0.030427  0.267731  1
  F  F34  1  0.604149  0.034874  0.772823  1
  F  F35  1  0.104149  0.965126  0.727177  1
