# generated using pymatgen
data_Rb16Si15Pb
_symmetry_space_group_name_H-M   'P 1'
_cell_length_a   11.95323137
_cell_length_b   12.08973125
_cell_length_c   11.96571095
_cell_angle_alpha   124.56846623
_cell_angle_beta   124.67713566
_cell_angle_gamma   82.29323522
_symmetry_Int_Tables_number   1
_chemical_formula_structural   Rb16Si15Pb
_chemical_formula_sum   'Rb16 Si15 Pb1'
_cell_volume   1124.57978490
_cell_formula_units_Z   1
loop_
 _symmetry_equiv_pos_site_id
 _symmetry_equiv_pos_as_xyz
  1  'x, y, z'
loop_
 _atom_site_type_symbol
 _atom_site_label
 _atom_site_symmetry_multiplicity
 _atom_site_fract_x
 _atom_site_fract_y
 _atom_site_fract_z
 _atom_site_occupancy
  Rb  Rb0  1  0.262821  0.883293  0.891232  1
  Rb  Rb1  1  0.985854  0.374937  0.109554  1
  Rb  Rb2  1  0.626991  0.232924  0.112423  1
  Rb  Rb3  1  0.120977  0.513572  0.891056  1
  Rb  Rb4  1  0.624013  0.733956  0.607921  1
  Rb  Rb5  1  0.124108  0.014522  0.390393  1
  Rb  Rb6  1  0.771588  0.881127  0.400459  1
  Rb  Rb7  1  0.484463  0.366869  0.601766  1
  Rb  Rb8  1  0.373147  0.373705  0.247071  1
  Rb  Rb9  1  0.128423  0.127931  0.755359  1
  Rb  Rb10  1  0.879549  0.623694  0.502605  1
  Rb  Rb11  1  0.114276  0.369800  0.488674  1
  Rb  Rb12  1  0.373607  0.884906  0.261668  1
  Rb  Rb13  1  0.624500  0.120825  0.745818  1
  Rb  Rb14  1  0.868976  0.626327  0.000041  1
  Rb  Rb15  1  0.636416  0.886043  0.003831  1
  Si  Si16  1  0.644631  0.475674  0.037383  1
  Si  Si17  1  0.795855  0.261192  0.652510  1
  Si  Si18  1  0.609246  0.143190  0.347469  1
  Si  Si19  1  0.893485  0.047334  0.033885  1
  Si  Si20  1  0.009954  0.861784  0.966694  1
  Si  Si21  1  0.236944  0.704279  0.346345  1
  Si  Si22  1  0.356784  0.889501  0.651018  1
  Si  Si23  1  0.294613  0.645111  0.534454  1
  Si  Si24  1  0.108538  0.762089  0.465373  1
  Si  Si25  1  0.953662  0.988070  0.846832  1
  Si  Si26  1  0.140800  0.106297  0.151758  1
  Si  Si27  1  0.856996  0.203827  0.466436  1
  Si  Si28  1  0.739473  0.388378  0.533826  1
  Si  Si29  1  0.514461  0.536859  0.153966  1
  Si  Si30  1  0.396317  0.349497  0.849476  1
  Pb  Pb31  1  0.448531  0.622486  0.952708  1
