# generated using pymatgen
data_Pr2Y2Zn2P5
_symmetry_space_group_name_H-M   'P 1'
_cell_length_a   4.09531300
_cell_length_b   4.09531317
_cell_length_c   16.77785900
_cell_angle_alpha   90.00000000
_cell_angle_beta   90.00000000
_cell_angle_gamma   120.00000672
_symmetry_Int_Tables_number   1
_chemical_formula_structural   Pr2Y2Zn2P5
_chemical_formula_sum   'Pr2 Y2 Zn2 P5'
_cell_volume   243.69204946
_cell_formula_units_Z   1
loop_
 _symmetry_equiv_pos_site_id
 _symmetry_equiv_pos_as_xyz
  1  'x, y, z'
loop_
 _atom_site_type_symbol
 _atom_site_label
 _atom_site_symmetry_multiplicity
 _atom_site_fract_x
 _atom_site_fract_y
 _atom_site_fract_z
 _atom_site_occupancy
  Pr  Pr0  1  0.000000  0.000000  0.710202  1
  Pr  Pr1  1  0.000000  0.000000  0.289798  1
  Y  Y2  1  0.666667  0.333333  0.905821  1
  Y  Y3  1  0.333333  0.666667  0.094179  1
  Zn  Zn4  1  0.666667  0.333333  0.443605  1
  Zn  Zn5  1  0.333333  0.666667  0.556395  1
  P  P6  1  0.666667  0.333333  0.594114  1
  P  P7  1  0.333333  0.666667  0.405886  1
  P  P8  1  0.666667  0.333333  0.191685  1
  P  P9  1  0.333333  0.666667  0.808315  1
  P  P10  1  0.000000  0.000000  0.000000  1
