# generated using pymatgen
data_CoRe5TcNi
_symmetry_space_group_name_H-M   'P 1'
_cell_length_a   5.42448358
_cell_length_b   5.42448367
_cell_length_c   4.34528400
_cell_angle_alpha   90.00000000
_cell_angle_beta   90.00000000
_cell_angle_gamma   119.91244345
_symmetry_Int_Tables_number   1
_chemical_formula_structural   CoRe5TcNi
_chemical_formula_sum   'Co1 Re5 Tc1 Ni1'
_cell_volume   110.82764272
_cell_formula_units_Z   1
loop_
 _symmetry_equiv_pos_site_id
 _symmetry_equiv_pos_as_xyz
  1  'x, y, z'
loop_
 _atom_site_type_symbol
 _atom_site_label
 _atom_site_symmetry_multiplicity
 _atom_site_fract_x
 _atom_site_fract_y
 _atom_site_fract_z
 _atom_site_occupancy
  Co  Co0  1  0.665372  0.334628  0.250000  1
  Re  Re1  1  0.166645  0.332293  0.250000  1
  Re  Re2  1  0.667707  0.833355  0.250000  1
  Re  Re3  1  0.835819  0.669591  0.750000  1
  Re  Re4  1  0.330409  0.164181  0.750000  1
  Re  Re5  1  0.834199  0.165801  0.750000  1
  Tc  Tc6  1  0.166824  0.833176  0.250000  1
  Ni  Ni7  1  0.333024  0.666976  0.750000  1
