# generated using pymatgen
data_TmLu3Co8(PRu)12
_symmetry_space_group_name_H-M   'P 1'
_cell_length_a   3.77490700
_cell_length_b   10.61076734
_cell_length_c   12.05629939
_cell_angle_alpha   90.02897493
_cell_angle_beta   90.00000000
_cell_angle_gamma   90.00000000
_symmetry_Int_Tables_number   1
_chemical_formula_structural   TmLu3Co8(PRu)12
_chemical_formula_sum   'Tm1 Lu3 Co8 P12 Ru12'
_cell_volume   482.91090983
_cell_formula_units_Z   1
loop_
 _symmetry_equiv_pos_site_id
 _symmetry_equiv_pos_as_xyz
  1  'x, y, z'
loop_
 _atom_site_type_symbol
 _atom_site_label
 _atom_site_symmetry_multiplicity
 _atom_site_fract_x
 _atom_site_fract_y
 _atom_site_fract_z
 _atom_site_occupancy
  Tm  Tm0  1  0.750000  0.084413  0.793396  1
  Lu  Lu1  1  0.250000  0.584538  0.706519  1
  Lu  Lu2  1  0.250000  0.915461  0.206489  1
  Lu  Lu3  1  0.750000  0.415531  0.293547  1
  Co  Co4  1  0.250000  0.888216  0.695997  1
  Co  Co5  1  0.250000  0.611499  0.196522  1
  Co  Co6  1  0.750000  0.111505  0.303398  1
  Co  Co7  1  0.750000  0.388714  0.803708  1
  Co  Co8  1  0.250000  0.462946  0.934812  1
  Co  Co9  1  0.250000  0.037203  0.434267  1
  Co  Co10  1  0.750000  0.537146  0.065509  1
  Co  Co11  1  0.750000  0.962655  0.564928  1
  P  P12  1  0.250000  0.425991  0.114015  1
  P  P13  1  0.250000  0.074309  0.613257  1
  P  P14  1  0.750000  0.574182  0.886243  1
  P  P15  1  0.750000  0.925860  0.385876  1
  P  P16  1  0.250000  0.270735  0.872038  1
  P  P17  1  0.250000  0.229627  0.371704  1
  P  P18  1  0.750000  0.729478  0.128357  1
  P  P19  1  0.750000  0.770525  0.628196  1
  P  P20  1  0.250000  0.599886  0.385968  1
  P  P21  1  0.250000  0.899622  0.886146  1
  P  P22  1  0.750000  0.400073  0.614139  1
  P  P23  1  0.750000  0.099894  0.114056  1
  Ru  Ru24  1  0.250000  0.706176  0.986343  1
  Ru  Ru25  1  0.250000  0.793362  0.486118  1
  Ru  Ru26  1  0.750000  0.293637  0.013786  1
  Ru  Ru27  1  0.750000  0.206502  0.513780  1
  Ru  Ru28  1  0.250000  0.405855  0.484994  1
  Ru  Ru29  1  0.250000  0.094078  0.985769  1
  Ru  Ru30  1  0.750000  0.594134  0.515013  1
  Ru  Ru31  1  0.750000  0.905595  0.015104  1
  Ru  Ru32  1  0.250000  0.225033  0.181372  1
  Ru  Ru33  1  0.250000  0.275938  0.681219  1
  Ru  Ru34  1  0.750000  0.775134  0.818671  1
  Ru  Ru35  1  0.750000  0.724547  0.318740  1
