# generated using pymatgen
data_Er8Si16Os11Ru
_symmetry_space_group_name_H-M   'P 1'
_cell_length_a   10.22013902
_cell_length_b   10.22152141
_cell_length_c   13.79781900
_cell_angle_alpha   53.69555815
_cell_angle_beta   53.70597501
_cell_angle_gamma   31.00229600
_symmetry_Int_Tables_number   1
_chemical_formula_structural   Er8Si16Os11Ru
_chemical_formula_sum   'Er8 Si16 Os11 Ru1'
_cell_volume   585.79665030
_cell_formula_units_Z   1
loop_
 _symmetry_equiv_pos_site_id
 _symmetry_equiv_pos_as_xyz
  1  'x, y, z'
loop_
 _atom_site_type_symbol
 _atom_site_label
 _atom_site_symmetry_multiplicity
 _atom_site_fract_x
 _atom_site_fract_y
 _atom_site_fract_z
 _atom_site_occupancy
  Er  Er0  1  0.299514  0.556188  0.644852  1
  Er  Er1  1  0.709211  0.963809  0.860378  1
  Er  Er2  1  0.290967  0.035887  0.139673  1
  Er  Er3  1  0.444271  0.699671  0.855336  1
  Er  Er4  1  0.037256  0.290646  0.639305  1
  Er  Er5  1  0.555489  0.300401  0.144976  1
  Er  Er6  1  0.962793  0.709536  0.360641  1
  Er  Er7  1  0.700442  0.444380  0.355012  1
  Si  Si8  1  0.020693  0.753234  0.106140  1
  Si  Si9  1  0.615003  0.861028  0.599055  1
  Si  Si10  1  0.979556  0.246892  0.893804  1
  Si  Si11  1  0.379459  0.620208  0.250275  1
  Si  Si12  1  0.384437  0.139149  0.400303  1
  Si  Si13  1  0.572457  0.083388  0.069470  1
  Si  Si14  1  0.137809  0.385341  0.901452  1
  Si  Si15  1  0.246355  0.981090  0.393696  1
  Si  Si16  1  0.083749  0.572433  0.568847  1
  Si  Si17  1  0.427791  0.916271  0.930725  1
  Si  Si18  1  0.128119  0.871536  0.750218  1
  Si  Si19  1  0.753116  0.020793  0.605655  1
  Si  Si20  1  0.870998  0.129125  0.250036  1
  Si  Si21  1  0.621009  0.379285  0.749689  1
  Si  Si22  1  0.916293  0.427580  0.431318  1
  Si  Si23  1  0.863460  0.613399  0.098147  1
  Os  Os24  1  0.140971  0.897157  0.087155  1
  Os  Os25  1  0.163236  0.361089  0.215341  1
  Os  Os26  1  0.361156  0.162949  0.715674  1
  Os  Os27  1  0.837094  0.639217  0.784326  1
  Os  Os28  1  0.504924  0.247937  0.429759  1
  Os  Os29  1  0.858555  0.103289  0.913034  1
  Os  Os30  1  0.639833  0.836775  0.284196  1
  Os  Os31  1  0.248890  0.503040  0.930702  1
  Os  Os32  1  0.751064  0.496549  0.069752  1
  Os  Os33  1  0.103383  0.859441  0.412410  1
  Os  Os34  1  0.896648  0.140634  0.587557  1
  Ru  Ru35  1  0.493997  0.750652  0.571094  1
