# generated using pymatgen
data_Nd4Ga5Ir9
_symmetry_space_group_name_H-M   'P 1'
_cell_length_a   12.40116203
_cell_length_b   12.40116203
_cell_length_c   12.40116178
_cell_angle_alpha   26.23514753
_cell_angle_beta   26.23515047
_cell_angle_gamma   26.23514780
_symmetry_Int_Tables_number   1
_chemical_formula_structural   Nd4Ga5Ir9
_chemical_formula_sum   'Nd4 Ga5 Ir9'
_cell_volume   328.38923333
_cell_formula_units_Z   1
loop_
 _symmetry_equiv_pos_site_id
 _symmetry_equiv_pos_as_xyz
  1  'x, y, z'
loop_
 _atom_site_type_symbol
 _atom_site_label
 _atom_site_symmetry_multiplicity
 _atom_site_fract_x
 _atom_site_fract_y
 _atom_site_fract_z
 _atom_site_occupancy
  Nd  Nd0  1  0.950745  0.950745  0.950745  1
  Nd  Nd1  1  0.049255  0.049255  0.049255  1
  Nd  Nd2  1  0.853410  0.853410  0.853410  1
  Nd  Nd3  1  0.146590  0.146590  0.146590  1
  Ga  Ga4  1  0.500000  0.500000  0.500000  1
  Ga  Ga5  1  0.721511  0.721511  0.721511  1
  Ga  Ga6  1  0.278489  0.278489  0.278489  1
  Ga  Ga7  1  0.610987  0.610987  0.610987  1
  Ga  Ga8  1  0.389013  0.389013  0.389013  1
  Ir  Ir9  1  0.500000  0.500000  0.000000  1
  Ir  Ir10  1  0.000000  0.500000  0.500000  1
  Ir  Ir11  1  0.500000  0.000000  0.500000  1
  Ir  Ir12  1  0.387184  0.895859  0.387184  1
  Ir  Ir13  1  0.387184  0.387184  0.895859  1
  Ir  Ir14  1  0.895859  0.387184  0.387184  1
  Ir  Ir15  1  0.612816  0.104141  0.612816  1
  Ir  Ir16  1  0.612816  0.612816  0.104141  1
  Ir  Ir17  1  0.104141  0.612816  0.612816  1
