# generated using pymatgen
data_Ho12Fe2Co2BiIr
_symmetry_space_group_name_H-M   'P 1'
_cell_length_a   8.30668688
_cell_length_b   8.30669451
_cell_length_c   8.30668711
_cell_angle_alpha   112.07376675
_cell_angle_beta   110.86146273
_cell_angle_gamma   105.55063607
_symmetry_Int_Tables_number   1
_chemical_formula_structural   Ho12Fe2Co2BiIr
_chemical_formula_sum   'Ho12 Fe2 Co2 Bi1 Ir1'
_cell_volume   439.63844714
_cell_formula_units_Z   1
loop_
 _symmetry_equiv_pos_site_id
 _symmetry_equiv_pos_as_xyz
  1  'x, y, z'
loop_
 _atom_site_type_symbol
 _atom_site_label
 _atom_site_symmetry_multiplicity
 _atom_site_fract_x
 _atom_site_fract_y
 _atom_site_fract_z
 _atom_site_occupancy
  Ho  Ho0  1  0.816178  0.716733  0.532912  1
  Ho  Ho1  1  0.183822  0.283267  0.467088  1
  Ho  Ho2  1  0.183823  0.716733  0.900556  1
  Ho  Ho3  1  0.816177  0.283267  0.099444  1
  Ho  Ho4  1  0.688745  0.380030  0.691286  1
  Ho  Ho5  1  0.311255  0.619970  0.308714  1
  Ho  Ho6  1  0.688744  0.997457  0.308712  1
  Ho  Ho7  1  0.311256  0.002543  0.691288  1
  Ho  Ho8  1  0.590067  0.788238  0.801832  1
  Ho  Ho9  1  0.409933  0.211762  0.198168  1
  Ho  Ho10  1  0.986406  0.788238  0.198171  1
  Ho  Ho11  1  0.013594  0.211762  0.801829  1
  Fe  Fe12  1  0.616293  0.000000  0.616293  1
  Fe  Fe13  1  0.383707  0.000000  0.383707  1
  Co  Co14  1  0.109909  0.609910  0.500001  1
  Co  Co15  1  0.890091  0.390090  0.499999  1
  Bi  Bi16  1  0.500000  0.500000  0.000000  1
  Ir  Ir17  1  0.000000  0.000000  0.000000  1
