# generated using pymatgen
data_La4PrAlPb2
_symmetry_space_group_name_H-M   'P 1'
_cell_length_a   9.54391889
_cell_length_b   9.54391878
_cell_length_c   9.54392000
_cell_angle_alpha   96.10528491
_cell_angle_beta   96.10529088
_cell_angle_gamma   141.93281069
_symmetry_Int_Tables_number   1
_chemical_formula_structural   La4PrAlPb2
_chemical_formula_sum   'La8 Pr2 Al2 Pb4'
_cell_volume   506.70551825
_cell_formula_units_Z   2
loop_
 _symmetry_equiv_pos_site_id
 _symmetry_equiv_pos_as_xyz
  1  'x, y, z'
loop_
 _atom_site_type_symbol
 _atom_site_label
 _atom_site_symmetry_multiplicity
 _atom_site_fract_x
 _atom_site_fract_y
 _atom_site_fract_z
 _atom_site_occupancy
  La  La0  1  0.915841  0.216446  0.132290  1
  La  La1  1  0.216447  0.084152  0.300593  1
  La  La2  1  0.783553  0.915848  0.699407  1
  La  La3  1  0.084159  0.783554  0.867710  1
  La  La4  1  0.716442  0.415848  0.132295  1
  La  La5  1  0.283558  0.584152  0.867705  1
  La  La6  1  0.584156  0.716446  0.300604  1
  La  La7  1  0.415844  0.283554  0.699396  1
  Pr  Pr8  1  0.749993  0.250000  0.499993  1
  Pr  Pr9  1  0.250007  0.750000  0.500007  1
  Al  Al10  1  0.750000  0.750000  0.000000  1
  Al  Al11  1  0.250000  0.250000  0.000000  1
  Pb  Pb12  1  0.840112  0.659883  0.500000  1
  Pb  Pb13  1  0.659883  0.159883  0.819770  1
  Pb  Pb14  1  0.340117  0.840117  0.180230  1
  Pb  Pb15  1  0.159888  0.340117  0.500000  1
