# generated using pymatgen
data_KIrPt(RhSe4)2
_symmetry_space_group_name_H-M   'P 1'
_cell_length_a   3.80234402
_cell_length_b   8.40964021
_cell_length_c   9.46719841
_cell_angle_alpha   81.47567503
_cell_angle_beta   78.41527499
_cell_angle_gamma   76.93416456
_symmetry_Int_Tables_number   1
_chemical_formula_structural   KIrPt(RhSe4)2
_chemical_formula_sum   'K1 Ir1 Pt1 Rh2 Se8'
_cell_volume   287.19972904
_cell_formula_units_Z   1
loop_
 _symmetry_equiv_pos_site_id
 _symmetry_equiv_pos_as_xyz
  1  'x, y, z'
loop_
 _atom_site_type_symbol
 _atom_site_label
 _atom_site_symmetry_multiplicity
 _atom_site_fract_x
 _atom_site_fract_y
 _atom_site_fract_z
 _atom_site_occupancy
  K  K0  1  0.497784  0.001043  0.003387  1
  Ir  Ir1  1  0.633331  0.198812  0.534525  1
  Pt  Pt2  1  0.838013  0.499679  0.824292  1
  Rh  Rh3  1  0.162000  0.497929  0.178071  1
  Rh  Rh4  1  0.365699  0.805521  0.463080  1
  Se  Se5  1  0.458633  0.315944  0.766790  1
  Se  Se6  1  0.544452  0.679578  0.231517  1
  Se  Se7  1  0.899207  0.636321  0.565265  1
  Se  Se8  1  0.104083  0.363725  0.428110  1
  Se  Se9  1  0.208084  0.656160  0.927671  1
  Se  Se10  1  0.790598  0.340631  0.078173  1
  Se  Se11  1  0.829116  0.988339  0.353429  1
  Se  Se12  1  0.168997  0.016316  0.645689  1
