# generated using pymatgen
data_Ce2ZnFe2Si2Au
_symmetry_space_group_name_H-M   'P 1'
_cell_length_a   9.15072019
_cell_length_b   9.15072008
_cell_length_c   4.09258600
_cell_angle_alpha   90.00000000
_cell_angle_beta   90.00000000
_cell_angle_gamma   154.77359310
_symmetry_Int_Tables_number   1
_chemical_formula_structural   Ce2ZnFe2Si2Au
_chemical_formula_sum   'Ce2 Zn1 Fe2 Si2 Au1'
_cell_volume   146.05552983
_cell_formula_units_Z   1
loop_
 _symmetry_equiv_pos_site_id
 _symmetry_equiv_pos_as_xyz
  1  'x, y, z'
loop_
 _atom_site_type_symbol
 _atom_site_label
 _atom_site_symmetry_multiplicity
 _atom_site_fract_x
 _atom_site_fract_y
 _atom_site_fract_z
 _atom_site_occupancy
  Ce  Ce0  1  0.627067  0.372933  0.250000  1
  Ce  Ce1  1  0.373021  0.626979  0.750000  1
  Zn  Zn2  1  0.043757  0.956243  0.750000  1
  Fe  Fe3  1  0.247796  0.752204  0.250000  1
  Fe  Fe4  1  0.750721  0.249279  0.750000  1
  Si  Si5  1  0.811748  0.188252  0.250000  1
  Si  Si6  1  0.187735  0.812265  0.750000  1
  Au  Au7  1  0.958157  0.041843  0.250000  1
