# generated using pymatgen
data_Nb12Ga5Pt3N4
_symmetry_space_group_name_H-M   'P 1'
_cell_length_a   7.05891755
_cell_length_b   7.05891890
_cell_length_c   7.05891811
_cell_angle_alpha   90.34137777
_cell_angle_beta   90.34137641
_cell_angle_gamma   90.34138099
_symmetry_Int_Tables_number   1
_chemical_formula_structural   Nb12Ga5Pt3N4
_chemical_formula_sum   'Nb12 Ga5 Pt3 N4'
_cell_volume   351.71527237
_cell_formula_units_Z   1
loop_
 _symmetry_equiv_pos_site_id
 _symmetry_equiv_pos_as_xyz
  1  'x, y, z'
loop_
 _atom_site_type_symbol
 _atom_site_label
 _atom_site_symmetry_multiplicity
 _atom_site_fract_x
 _atom_site_fract_y
 _atom_site_fract_z
 _atom_site_occupancy
  Nb  Nb0  1  0.789260  0.956666  0.379947  1
  Nb  Nb1  1  0.709891  0.044198  0.874220  1
  Nb  Nb2  1  0.210319  0.454389  0.122503  1
  Nb  Nb3  1  0.289612  0.545044  0.621837  1
  Nb  Nb4  1  0.956666  0.379947  0.789260  1
  Nb  Nb5  1  0.044198  0.874220  0.709891  1
  Nb  Nb6  1  0.454389  0.122503  0.210319  1
  Nb  Nb7  1  0.545044  0.621837  0.289612  1
  Nb  Nb8  1  0.379947  0.789260  0.956666  1
  Nb  Nb9  1  0.874220  0.709891  0.044198  1
  Nb  Nb10  1  0.122503  0.210319  0.454389  1
  Nb  Nb11  1  0.621837  0.289612  0.545044  1
  Ga  Ga12  1  0.678114  0.678114  0.678114  1
  Ga  Ga13  1  0.569699  0.425110  0.933137  1
  Ga  Ga14  1  0.425110  0.933137  0.569699  1
  Ga  Ga15  1  0.933137  0.569699  0.425110  1
  Ga  Ga16  1  0.070892  0.070892  0.070892  1
  Pt  Pt17  1  0.178975  0.821898  0.317266  1
  Pt  Pt18  1  0.317266  0.178975  0.821898  1
  Pt  Pt19  1  0.821898  0.317266  0.178975  1
  N  N20  1  0.878701  0.127466  0.626252  1
  N  N21  1  0.626252  0.878701  0.127466  1
  N  N22  1  0.127466  0.626252  0.878701  1
  N  N23  1  0.374601  0.374601  0.374601  1
