# generated using pymatgen
data_Dy7Y(Sc3Ga4)4
_symmetry_space_group_name_H-M   'P 1'
_cell_length_a   7.28342601
_cell_length_b   7.53416204
_cell_length_c   14.53556518
_cell_angle_alpha   90.01273970
_cell_angle_beta   90.00045051
_cell_angle_gamma   90.00304869
_symmetry_Int_Tables_number   1
_chemical_formula_structural   Dy7Y(Sc3Ga4)4
_chemical_formula_sum   'Dy7 Y1 Sc12 Ga16'
_cell_volume   797.63202114
_cell_formula_units_Z   1
loop_
 _symmetry_equiv_pos_site_id
 _symmetry_equiv_pos_as_xyz
  1  'x, y, z'
loop_
 _atom_site_type_symbol
 _atom_site_label
 _atom_site_symmetry_multiplicity
 _atom_site_fract_x
 _atom_site_fract_y
 _atom_site_fract_z
 _atom_site_occupancy
  Dy  Dy0  1  0.988188  0.822853  0.904208  1
  Dy  Dy1  1  0.488272  0.677031  0.904241  1
  Dy  Dy2  1  0.988220  0.822907  0.595758  1
  Dy  Dy3  1  0.511750  0.322944  0.095749  1
  Dy  Dy4  1  0.011811  0.177083  0.404215  1
  Dy  Dy5  1  0.511773  0.322950  0.404268  1
  Dy  Dy6  1  0.488221  0.677068  0.595750  1
  Y  Y7  1  0.011664  0.176911  0.095624  1
  Sc  Sc8  1  0.161782  0.502864  0.749983  1
  Sc  Sc9  1  0.838209  0.497156  0.250009  1
  Sc  Sc10  1  0.338327  0.002866  0.250037  1
  Sc  Sc11  1  0.661761  0.997093  0.749996  1
  Sc  Sc12  1  0.330329  0.175277  0.624298  1
  Sc  Sc13  1  0.669633  0.824691  0.375733  1
  Sc  Sc14  1  0.169714  0.675289  0.375701  1
  Sc  Sc15  1  0.669664  0.824680  0.124309  1
  Sc  Sc16  1  0.830326  0.324723  0.624301  1
  Sc  Sc17  1  0.330292  0.175266  0.875729  1
  Sc  Sc18  1  0.830280  0.324816  0.875691  1
  Sc  Sc19  1  0.169626  0.675302  0.124262  1
  Ga  Ga20  1  0.031849  0.117296  0.749964  1
  Ga  Ga21  1  0.968051  0.882609  0.250105  1
  Ga  Ga22  1  0.468145  0.617329  0.250011  1
  Ga  Ga23  1  0.531849  0.382700  0.749959  1
  Ga  Ga24  1  0.284722  0.873009  0.749999  1
  Ga  Ga25  1  0.715164  0.126953  0.250069  1
  Ga  Ga26  1  0.215383  0.373097  0.250182  1
  Ga  Ga27  1  0.784711  0.627008  0.749954  1
  Ga  Ga28  1  0.159787  0.465053  0.539931  1
  Ga  Ga29  1  0.840215  0.534983  0.460076  1
  Ga  Ga30  1  0.340235  0.965083  0.460089  1
  Ga  Ga31  1  0.840146  0.535079  0.039893  1
  Ga  Ga32  1  0.659810  0.034934  0.539932  1
  Ga  Ga33  1  0.159732  0.465278  0.960019  1
  Ga  Ga34  1  0.659857  0.034965  0.960043  1
  Ga  Ga35  1  0.340502  0.964855  0.039910  1
