# generated using pymatgen
data_Nd3Y2P12Ru9Rh10
_symmetry_space_group_name_H-M   'P 1'
_cell_length_a   12.68144700
_cell_length_b   12.68144616
_cell_length_c   3.96870600
_cell_angle_alpha   90.00000000
_cell_angle_beta   90.00000000
_cell_angle_gamma   120.00000480
_symmetry_Int_Tables_number   1
_chemical_formula_structural   Nd3Y2P12Ru9Rh10
_chemical_formula_sum   'Nd3 Y2 P12 Ru9 Rh10'
_cell_volume   552.73521128
_cell_formula_units_Z   1
loop_
 _symmetry_equiv_pos_site_id
 _symmetry_equiv_pos_as_xyz
  1  'x, y, z'
loop_
 _atom_site_type_symbol
 _atom_site_label
 _atom_site_symmetry_multiplicity
 _atom_site_fract_x
 _atom_site_fract_y
 _atom_site_fract_z
 _atom_site_occupancy
  Nd  Nd0  1  0.000000  0.186105  0.500000  1
  Nd  Nd1  1  0.813895  0.813895  0.500000  1
  Nd  Nd2  1  0.186105  0.000000  0.500000  1
  Y  Y3  1  0.666667  0.333333  0.000000  1
  Y  Y4  1  0.333333  0.666667  0.000000  1
  P  P5  1  0.000000  0.815108  0.000000  1
  P  P6  1  0.184892  0.184892  0.000000  1
  P  P7  1  0.815108  0.000000  0.000000  1
  P  P8  1  0.689830  0.173152  0.500000  1
  P  P9  1  0.826848  0.516678  0.500000  1
  P  P10  1  0.483322  0.310170  0.500000  1
  P  P11  1  0.173152  0.689830  0.500000  1
  P  P12  1  0.516678  0.826848  0.500000  1
  P  P13  1  0.310170  0.483322  0.500000  1
  P  P14  1  0.000000  0.372151  0.000000  1
  P  P15  1  0.627849  0.627849  0.000000  1
  P  P16  1  0.372151  0.000000  0.000000  1
  Ru  Ru17  1  0.000000  0.712369  0.500000  1
  Ru  Ru18  1  0.287631  0.287631  0.500000  1
  Ru  Ru19  1  0.712369  0.000000  0.500000  1
  Ru  Ru20  1  0.873193  0.362757  0.500000  1
  Ru  Ru21  1  0.637243  0.510436  0.500000  1
  Ru  Ru22  1  0.489564  0.126807  0.500000  1
  Ru  Ru23  1  0.362757  0.873193  0.500000  1
  Ru  Ru24  1  0.510436  0.637243  0.500000  1
  Ru  Ru25  1  0.126807  0.489564  0.500000  1
  Rh  Rh26  1  0.000000  0.551182  0.000000  1
  Rh  Rh27  1  0.448818  0.448818  0.000000  1
  Rh  Rh28  1  0.551182  0.000000  0.000000  1
  Rh  Rh29  1  0.804866  0.182910  0.000000  1
  Rh  Rh30  1  0.817090  0.621957  0.000000  1
  Rh  Rh31  1  0.378043  0.195134  0.000000  1
  Rh  Rh32  1  0.182910  0.804866  0.000000  1
  Rh  Rh33  1  0.621957  0.817090  0.000000  1
  Rh  Rh34  1  0.195134  0.378043  0.000000  1
  Rh  Rh35  1  0.000000  0.000000  0.000000  1
