# generated using pymatgen
data_Li8Ho3Tm5Sn5Sb3
_symmetry_space_group_name_H-M   'P 1'
_cell_length_a   9.35609422
_cell_length_b   9.35957240
_cell_length_c   7.09455900
_cell_angle_alpha   90.00000010
_cell_angle_beta   89.99804532
_cell_angle_gamma   120.01230246
_symmetry_Int_Tables_number   1
_chemical_formula_structural   Li8Ho3Tm5Sn5Sb3
_chemical_formula_sum   'Li8 Ho3 Tm5 Sn5 Sb3'
_cell_volume   537.96346077
_cell_formula_units_Z   1
loop_
 _symmetry_equiv_pos_site_id
 _symmetry_equiv_pos_as_xyz
  1  'x, y, z'
loop_
 _atom_site_type_symbol
 _atom_site_label
 _atom_site_symmetry_multiplicity
 _atom_site_fract_x
 _atom_site_fract_y
 _atom_site_fract_z
 _atom_site_occupancy
  Li  Li0  1  0.166846  0.333347  0.284140  1
  Li  Li1  1  0.166846  0.833501  0.284140  1
  Li  Li2  1  0.666707  0.833354  0.284133  1
  Li  Li3  1  0.832738  0.665799  0.785800  1
  Li  Li4  1  0.832738  0.166937  0.785800  1
  Li  Li5  1  0.334217  0.167108  0.786008  1
  Li  Li6  1  0.333444  0.666723  0.675679  1
  Li  Li7  1  0.666481  0.333240  0.179498  1
  Ho  Ho8  1  0.020752  0.510376  0.995851  1
  Ho  Ho9  1  0.000035  0.000017  0.497638  1
  Ho  Ho10  1  0.000081  0.000041  0.004086  1
  Tm  Tm11  1  0.512456  0.024675  0.490498  1
  Tm  Tm12  1  0.512456  0.487780  0.490498  1
  Tm  Tm13  1  0.975177  0.487588  0.490460  1
  Tm  Tm14  1  0.489797  0.979567  0.996387  1
  Tm  Tm15  1  0.489797  0.510231  0.996387  1
  Sn  Sn16  1  0.832337  0.665785  0.232602  1
  Sn  Sn17  1  0.832337  0.166551  0.232602  1
  Sn  Sn18  1  0.334282  0.167141  0.232047  1
  Sn  Sn19  1  0.333763  0.666882  0.259642  1
  Sn  Sn20  1  0.666403  0.333201  0.759061  1
  Sb  Sb21  1  0.167291  0.334084  0.732862  1
  Sb  Sb22  1  0.167291  0.833209  0.732862  1
  Sb  Sb23  1  0.665725  0.832863  0.733291  1
