# generated using pymatgen
data_Th(ZnCu2)2
_symmetry_space_group_name_H-M   'P 1'
_cell_length_a   5.11680500
_cell_length_b   8.19172500
_cell_length_c   10.48251700
_cell_angle_alpha   90.00000000
_cell_angle_beta   90.00000000
_cell_angle_gamma   90.00000000
_symmetry_Int_Tables_number   1
_chemical_formula_structural   Th(ZnCu2)2
_chemical_formula_sum   'Th4 Zn8 Cu16'
_cell_volume   439.37951613
_cell_formula_units_Z   4
loop_
 _symmetry_equiv_pos_site_id
 _symmetry_equiv_pos_as_xyz
  1  'x, y, z'
loop_
 _atom_site_type_symbol
 _atom_site_label
 _atom_site_symmetry_multiplicity
 _atom_site_fract_x
 _atom_site_fract_y
 _atom_site_fract_z
 _atom_site_occupancy
  Th  Th0  1  0.250000  0.259193  0.561654  1
  Th  Th1  1  0.750000  0.740807  0.438346  1
  Th  Th2  1  0.250000  0.759193  0.938346  1
  Th  Th3  1  0.750000  0.240807  0.061654  1
  Zn  Zn4  1  0.750000  0.354765  0.361103  1
  Zn  Zn5  1  0.250000  0.645235  0.638897  1
  Zn  Zn6  1  0.750000  0.854765  0.138897  1
  Zn  Zn7  1  0.250000  0.145235  0.861103  1
  Zn  Zn8  1  0.750000  0.682910  0.747172  1
  Zn  Zn9  1  0.250000  0.317090  0.252828  1
  Zn  Zn10  1  0.750000  0.182910  0.752828  1
  Zn  Zn11  1  0.250000  0.817090  0.247172  1
  Cu  Cu12  1  0.506320  0.563303  0.190733  1
  Cu  Cu13  1  0.006320  0.436697  0.809267  1
  Cu  Cu14  1  0.993680  0.063303  0.309267  1
  Cu  Cu15  1  0.493680  0.936697  0.690733  1
  Cu  Cu16  1  0.750000  0.935126  0.903676  1
  Cu  Cu17  1  0.250000  0.064874  0.096324  1
  Cu  Cu18  1  0.750000  0.435126  0.596324  1
  Cu  Cu19  1  0.250000  0.564874  0.403676  1
  Cu  Cu20  1  0.750000  0.593841  0.985508  1
  Cu  Cu21  1  0.250000  0.406159  0.014492  1
  Cu  Cu22  1  0.750000  0.093841  0.514492  1
  Cu  Cu23  1  0.250000  0.906159  0.485508  1
  Cu  Cu24  1  0.506320  0.063303  0.309267  1
  Cu  Cu25  1  0.006320  0.936697  0.690733  1
  Cu  Cu26  1  0.993680  0.563303  0.190733  1
  Cu  Cu27  1  0.493680  0.436697  0.809267  1
