# generated using pymatgen
data_EuMnGaO5
_symmetry_space_group_name_H-M   'P 1'
_cell_length_a   5.80505400
_cell_length_b   7.59612700
_cell_length_c   8.65776900
_cell_angle_alpha   90.00000000
_cell_angle_beta   90.00000000
_cell_angle_gamma   90.00000000
_symmetry_Int_Tables_number   1
_chemical_formula_structural   EuMnGaO5
_chemical_formula_sum   'Eu4 Mn4 Ga4 O20'
_cell_volume   381.77235349
_cell_formula_units_Z   4
loop_
 _symmetry_equiv_pos_site_id
 _symmetry_equiv_pos_as_xyz
  1  'x, y, z'
loop_
 _atom_site_type_symbol
 _atom_site_label
 _atom_site_symmetry_multiplicity
 _atom_site_fract_x
 _atom_site_fract_y
 _atom_site_fract_z
 _atom_site_occupancy
  Eu  Eu0  1  0.500000  0.364070  0.330512  1
  Eu  Eu1  1  0.500000  0.635930  0.669488  1
  Eu  Eu2  1  0.500000  0.135930  0.830512  1
  Eu  Eu3  1  0.500000  0.864070  0.169488  1
  Mn  Mn4  1  0.247229  0.000000  0.500000  1
  Mn  Mn5  1  0.752771  0.000000  0.500000  1
  Mn  Mn6  1  0.752771  0.500000  0.000000  1
  Mn  Mn7  1  0.247229  0.500000  0.000000  1
  Ga  Ga8  1  0.000000  0.111348  0.143861  1
  Ga  Ga9  1  0.000000  0.888652  0.856139  1
  Ga  Ga10  1  0.000000  0.388652  0.643861  1
  Ga  Ga11  1  0.000000  0.611348  0.356139  1
  O  O12  1  0.500000  0.345656  0.055395  1
  O  O13  1  0.500000  0.654344  0.944605  1
  O  O14  1  0.500000  0.154344  0.555395  1
  O  O15  1  0.500000  0.845656  0.444605  1
  O  O16  1  0.222324  0.000000  0.000000  1
  O  O17  1  0.777676  0.000000  0.000000  1
  O  O18  1  0.777676  0.500000  0.500000  1
  O  O19  1  0.222324  0.500000  0.500000  1
  O  O20  1  0.252583  0.104397  0.294714  1
  O  O21  1  0.747417  0.895603  0.705286  1
  O  O22  1  0.252583  0.895603  0.705286  1
  O  O23  1  0.747417  0.395603  0.794714  1
  O  O24  1  0.747417  0.104397  0.294714  1
  O  O25  1  0.252583  0.604397  0.205286  1
  O  O26  1  0.747417  0.604397  0.205286  1
  O  O27  1  0.252583  0.395603  0.794714  1
  O  O28  1  0.000000  0.349871  0.070159  1
  O  O29  1  0.000000  0.650129  0.929841  1
  O  O30  1  0.000000  0.150129  0.570159  1
  O  O31  1  0.000000  0.849871  0.429841  1
