# generated using pymatgen
data_Ho2Er6Tc3RuC8
_symmetry_space_group_name_H-M   'P 1'
_cell_length_a   5.05120300
_cell_length_b   6.51353644
_cell_length_c   9.77769408
_cell_angle_alpha   89.86712569
_cell_angle_beta   90.00000000
_cell_angle_gamma   90.00000000
_symmetry_Int_Tables_number   1
_chemical_formula_structural   Ho2Er6Tc3RuC8
_chemical_formula_sum   'Ho2 Er6 Tc3 Ru1 C8'
_cell_volume   321.69695233
_cell_formula_units_Z   1
loop_
 _symmetry_equiv_pos_site_id
 _symmetry_equiv_pos_as_xyz
  1  'x, y, z'
loop_
 _atom_site_type_symbol
 _atom_site_label
 _atom_site_symmetry_multiplicity
 _atom_site_fract_x
 _atom_site_fract_y
 _atom_site_fract_z
 _atom_site_occupancy
  Ho  Ho0  1  0.750000  0.533175  0.783768  1
  Ho  Ho1  1  0.250000  0.965820  0.283530  1
  Er  Er2  1  0.750000  0.675837  0.441999  1
  Er  Er3  1  0.250000  0.823691  0.942387  1
  Er  Er4  1  0.750000  0.173472  0.056729  1
  Er  Er5  1  0.250000  0.323897  0.557974  1
  Er  Er6  1  0.250000  0.467380  0.215431  1
  Er  Er7  1  0.750000  0.032482  0.717761  1
  Tc  Tc8  1  0.250000  0.282097  0.867455  1
  Tc  Tc9  1  0.250000  0.782891  0.632117  1
  Tc  Tc10  1  0.750000  0.217087  0.366438  1
  Ru  Ru11  1  0.750000  0.717138  0.133283  1
  C  C12  1  0.250000  0.675434  0.447743  1
  C  C13  1  0.250000  0.549776  0.758861  1
  C  C14  1  0.750000  0.450285  0.242444  1
  C  C15  1  0.750000  0.827506  0.948740  1
  C  C16  1  0.250000  0.049681  0.740981  1
  C  C17  1  0.250000  0.176410  0.052598  1
  C  C18  1  0.750000  0.324588  0.550948  1
  C  C19  1  0.750000  0.951354  0.258812  1
