# generated using pymatgen
data_Ta10Si6B
_symmetry_space_group_name_H-M   'P 1'
_cell_length_a   7.57360000
_cell_length_b   7.57360050
_cell_length_c   5.28677600
_cell_angle_alpha   90.00000000
_cell_angle_beta   90.00000000
_cell_angle_gamma   120.00000654
_symmetry_Int_Tables_number   1
_chemical_formula_structural   Ta10Si6B
_chemical_formula_sum   'Ta10 Si6 B1'
_cell_volume   262.61907652
_cell_formula_units_Z   1
loop_
 _symmetry_equiv_pos_site_id
 _symmetry_equiv_pos_as_xyz
  1  'x, y, z'
loop_
 _atom_site_type_symbol
 _atom_site_label
 _atom_site_symmetry_multiplicity
 _atom_site_fract_x
 _atom_site_fract_y
 _atom_site_fract_z
 _atom_site_occupancy
  Ta  Ta0  1  0.000000  0.754525  0.249536  1
  Ta  Ta1  1  0.245475  0.245475  0.249536  1
  Ta  Ta2  1  0.754525  0.000000  0.249536  1
  Ta  Ta3  1  0.000000  0.245475  0.750464  1
  Ta  Ta4  1  0.754525  0.754525  0.750464  1
  Ta  Ta5  1  0.245475  0.000000  0.750464  1
  Ta  Ta6  1  0.333333  0.666667  0.500000  1
  Ta  Ta7  1  0.666667  0.333333  0.500000  1
  Ta  Ta8  1  0.666667  0.333333  0.000000  1
  Ta  Ta9  1  0.333333  0.666667  0.000000  1
  Si  Si10  1  0.000000  0.398537  0.245224  1
  Si  Si11  1  0.601463  0.601463  0.245224  1
  Si  Si12  1  0.398537  0.000000  0.245224  1
  Si  Si13  1  0.000000  0.601463  0.754776  1
  Si  Si14  1  0.398537  0.398537  0.754776  1
  Si  Si15  1  0.601463  0.000000  0.754776  1
  B  B16  1  0.000000  0.000000  0.500000  1
