# generated using pymatgen
data_Zr8Tc3Os4Pd
_symmetry_space_group_name_H-M   'P 1'
_cell_length_a   6.58715700
_cell_length_b   4.66976000
_cell_length_c   9.33492100
_cell_angle_alpha   90.00000000
_cell_angle_beta   89.99960609
_cell_angle_gamma   90.00000000
_symmetry_Int_Tables_number   1
_chemical_formula_structural   Zr8Tc3Os4Pd
_chemical_formula_sum   'Zr8 Tc3 Os4 Pd1'
_cell_volume   287.14629853
_cell_formula_units_Z   1
loop_
 _symmetry_equiv_pos_site_id
 _symmetry_equiv_pos_as_xyz
  1  'x, y, z'
loop_
 _atom_site_type_symbol
 _atom_site_label
 _atom_site_symmetry_multiplicity
 _atom_site_fract_x
 _atom_site_fract_y
 _atom_site_fract_z
 _atom_site_occupancy
  Zr  Zr0  1  0.006330  0.749999  0.125006  1
  Zr  Zr1  1  0.493766  0.749999  0.125010  1
  Zr  Zr2  1  0.002954  0.249999  0.378363  1
  Zr  Zr3  1  0.497177  0.249999  0.378373  1
  Zr  Zr4  1  0.499946  0.749999  0.625011  1
  Zr  Zr5  1  0.999921  0.749999  0.625013  1
  Zr  Zr6  1  0.497073  0.249999  0.871621  1
  Zr  Zr7  1  0.002837  0.249999  0.871617  1
  Tc  Tc8  1  0.250053  0.749999  0.373769  1
  Tc  Tc9  1  0.749947  0.249999  0.625003  1
  Tc  Tc10  1  0.249940  0.749999  0.876222  1
  Os  Os11  1  0.250051  0.249999  0.124998  1
  Os  Os12  1  0.750055  0.749999  0.374321  1
  Os  Os13  1  0.249947  0.249999  0.624996  1
  Os  Os14  1  0.749947  0.749999  0.875671  1
  Pd  Pd15  1  0.750059  0.249999  0.125004  1
