# generated using pymatgen
data_Sr19Yb(CdAg3)3
_symmetry_space_group_name_H-M   'P 1'
_cell_length_a   8.56820500
_cell_length_b   8.56820500
_cell_length_c   16.02235600
_cell_angle_alpha   90.00000000
_cell_angle_beta   90.00000000
_cell_angle_gamma   90.00000000
_symmetry_Int_Tables_number   1
_chemical_formula_structural   Sr19Yb(CdAg3)3
_chemical_formula_sum   'Sr19 Yb1 Cd3 Ag9'
_cell_volume   1176.26743720
_cell_formula_units_Z   1
loop_
 _symmetry_equiv_pos_site_id
 _symmetry_equiv_pos_as_xyz
  1  'x, y, z'
loop_
 _atom_site_type_symbol
 _atom_site_label
 _atom_site_symmetry_multiplicity
 _atom_site_fract_x
 _atom_site_fract_y
 _atom_site_fract_z
 _atom_site_occupancy
  Sr  Sr0  1  0.000000  0.000000  0.754759  1
  Sr  Sr1  1  0.500000  0.500000  0.250998  1
  Sr  Sr2  1  0.000000  0.000000  0.245276  1
  Sr  Sr3  1  0.171378  0.663428  0.105746  1
  Sr  Sr4  1  0.666599  0.170334  0.610664  1
  Sr  Sr5  1  0.828622  0.336572  0.105746  1
  Sr  Sr6  1  0.333401  0.829666  0.610664  1
  Sr  Sr7  1  0.336572  0.171378  0.105746  1
  Sr  Sr8  1  0.829666  0.666599  0.610664  1
  Sr  Sr9  1  0.663428  0.828622  0.105746  1
  Sr  Sr10  1  0.170334  0.333401  0.610664  1
  Sr  Sr11  1  0.338827  0.824997  0.892217  1
  Sr  Sr12  1  0.833002  0.331391  0.391597  1
  Sr  Sr13  1  0.661173  0.175003  0.892217  1
  Sr  Sr14  1  0.166998  0.668609  0.391597  1
  Sr  Sr15  1  0.175003  0.338827  0.892217  1
  Sr  Sr16  1  0.668609  0.833002  0.391597  1
  Sr  Sr17  1  0.824997  0.661173  0.892217  1
  Sr  Sr18  1  0.331391  0.166998  0.391597  1
  Yb  Yb19  1  0.500000  0.500000  0.748948  1
  Cd  Cd20  1  0.000000  0.000000  0.500440  1
  Cd  Cd21  1  0.000000  0.000000  0.999646  1
  Cd  Cd22  1  0.500000  0.500000  0.498984  1
  Ag  Ag23  1  0.623898  0.123644  0.248371  1
  Ag  Ag24  1  0.130035  0.622334  0.751520  1
  Ag  Ag25  1  0.869965  0.377666  0.751520  1
  Ag  Ag26  1  0.376102  0.876356  0.248371  1
  Ag  Ag27  1  0.377666  0.130035  0.751520  1
  Ag  Ag28  1  0.876356  0.623898  0.248371  1
  Ag  Ag29  1  0.123644  0.376102  0.248371  1
  Ag  Ag30  1  0.622334  0.869965  0.751520  1
  Ag  Ag31  1  0.500000  0.500000  0.000493  1
