# generated using pymatgen
data_CsGd7(Sn11Ru3)2
_symmetry_space_group_name_H-M   'P 1'
_cell_length_a   9.86800400
_cell_length_b   9.86800437
_cell_length_c   10.21583800
_cell_angle_alpha   90.00000000
_cell_angle_beta   90.00000000
_cell_angle_gamma   120.00000546
_symmetry_Int_Tables_number   1
_chemical_formula_structural   CsGd7(Sn11Ru3)2
_chemical_formula_sum   'Cs1 Gd7 Sn22 Ru6'
_cell_volume   861.51581692
_cell_formula_units_Z   1
loop_
 _symmetry_equiv_pos_site_id
 _symmetry_equiv_pos_as_xyz
  1  'x, y, z'
loop_
 _atom_site_type_symbol
 _atom_site_label
 _atom_site_symmetry_multiplicity
 _atom_site_fract_x
 _atom_site_fract_y
 _atom_site_fract_z
 _atom_site_occupancy
  Cs  Cs0  1  0.000000  0.000000  0.500000  1
  Gd  Gd1  1  0.000000  0.000000  0.000000  1
  Gd  Gd2  1  0.037064  0.518532  0.306966  1
  Gd  Gd3  1  0.481468  0.962936  0.306966  1
  Gd  Gd4  1  0.481468  0.518532  0.306966  1
  Gd  Gd5  1  0.962936  0.481468  0.693034  1
  Gd  Gd6  1  0.518532  0.037064  0.693034  1
  Gd  Gd7  1  0.518532  0.481468  0.693034  1
  Sn  Sn8  1  0.128613  0.871387  0.250896  1
  Sn  Sn9  1  0.742774  0.871387  0.250896  1
  Sn  Sn10  1  0.128613  0.257226  0.250896  1
  Sn  Sn11  1  0.871387  0.128613  0.749104  1
  Sn  Sn12  1  0.257226  0.128613  0.749104  1
  Sn  Sn13  1  0.871387  0.742774  0.749104  1
  Sn  Sn14  1  0.349573  0.000000  0.000000  1
  Sn  Sn15  1  0.650427  0.650427  0.000000  1
  Sn  Sn16  1  0.000000  0.349573  0.000000  1
  Sn  Sn17  1  0.349573  0.349573  0.000000  1
  Sn  Sn18  1  0.000000  0.650427  0.000000  1
  Sn  Sn19  1  0.650427  0.000000  0.000000  1
  Sn  Sn20  1  0.777604  0.555208  0.457820  1
  Sn  Sn21  1  0.777604  0.222396  0.457820  1
  Sn  Sn22  1  0.444792  0.222396  0.457820  1
  Sn  Sn23  1  0.222396  0.444792  0.542180  1
  Sn  Sn24  1  0.222396  0.777604  0.542180  1
  Sn  Sn25  1  0.555208  0.777604  0.542180  1
  Sn  Sn26  1  0.666667  0.333333  0.178395  1
  Sn  Sn27  1  0.333333  0.666667  0.821605  1
  Sn  Sn28  1  0.666667  0.333333  0.879721  1
  Sn  Sn29  1  0.333333  0.666667  0.120279  1
  Ru  Ru30  1  0.168188  0.831812  0.796603  1
  Ru  Ru31  1  0.663622  0.831812  0.796603  1
  Ru  Ru32  1  0.168188  0.336378  0.796603  1
  Ru  Ru33  1  0.831812  0.168188  0.203397  1
  Ru  Ru34  1  0.336378  0.168188  0.203397  1
  Ru  Ru35  1  0.831812  0.663622  0.203397  1
