# generated using pymatgen
data_Tm10Tl5Bi
_symmetry_space_group_name_H-M   'P 1'
_cell_length_a   8.89105993
_cell_length_b   8.89105904
_cell_length_c   6.62877900
_cell_angle_alpha   90.00000000
_cell_angle_beta   90.00000000
_cell_angle_gamma   119.80675897
_symmetry_Int_Tables_number   1
_chemical_formula_structural   Tm10Tl5Bi
_chemical_formula_sum   'Tm10 Tl5 Bi1'
_cell_volume   454.68809535
_cell_formula_units_Z   1
loop_
 _symmetry_equiv_pos_site_id
 _symmetry_equiv_pos_as_xyz
  1  'x, y, z'
loop_
 _atom_site_type_symbol
 _atom_site_label
 _atom_site_symmetry_multiplicity
 _atom_site_fract_x
 _atom_site_fract_y
 _atom_site_fract_z
 _atom_site_occupancy
  Tm  Tm0  1  0.673836  0.333698  0.504196  1
  Tm  Tm1  1  0.333698  0.673836  0.504196  1
  Tm  Tm2  1  0.333698  0.673836  0.995804  1
  Tm  Tm3  1  0.673836  0.333698  0.995804  1
  Tm  Tm4  1  0.769213  0.769213  0.250000  1
  Tm  Tm5  1  0.232544  0.991586  0.250000  1
  Tm  Tm6  1  0.991586  0.232544  0.250000  1
  Tm  Tm7  1  0.235245  0.235245  0.750000  1
  Tm  Tm8  1  0.763271  0.998412  0.750000  1
  Tm  Tm9  1  0.998412  0.763271  0.750000  1
  Tl  Tl10  1  0.597182  0.998296  0.250000  1
  Tl  Tl11  1  0.998296  0.597182  0.250000  1
  Tl  Tl12  1  0.601776  0.601776  0.750000  1
  Tl  Tl13  1  0.399774  0.003413  0.750000  1
  Tl  Tl14  1  0.003413  0.399774  0.750000  1
  Bi  Bi15  1  0.394222  0.394222  0.250000  1
