# generated using pymatgen
data_DyEr15ZnIn3Rh4
_symmetry_space_group_name_H-M   'P 1'
_cell_length_a   9.55084011
_cell_length_b   9.54489712
_cell_length_c   9.55454500
_cell_angle_alpha   59.96655427
_cell_angle_beta   59.98716366
_cell_angle_gamma   59.98402332
_symmetry_Int_Tables_number   1
_chemical_formula_structural   DyEr15ZnIn3Rh4
_chemical_formula_sum   'Dy1 Er15 Zn1 In3 Rh4'
_cell_volume   615.60676953
_cell_formula_units_Z   1
loop_
 _symmetry_equiv_pos_site_id
 _symmetry_equiv_pos_as_xyz
  1  'x, y, z'
loop_
 _atom_site_type_symbol
 _atom_site_label
 _atom_site_symmetry_multiplicity
 _atom_site_fract_x
 _atom_site_fract_y
 _atom_site_fract_z
 _atom_site_occupancy
  Dy  Dy0  1  0.191224  0.190858  0.808959  1
  Er  Er1  1  0.437609  0.056494  0.069310  1
  Er  Er2  1  0.437609  0.056494  0.436587  1
  Er  Er3  1  0.063489  0.435250  0.064075  1
  Er  Er4  1  0.648861  0.050862  0.650138  1
  Er  Er5  1  0.190619  0.810593  0.808808  1
  Er  Er6  1  0.067361  0.056538  0.438050  1
  Er  Er7  1  0.809580  0.191334  0.190705  1
  Er  Er8  1  0.809905  0.810202  0.189947  1
  Er  Er9  1  0.649886  0.649559  0.048788  1
  Er  Er10  1  0.649886  0.649559  0.651768  1
  Er  Er11  1  0.063489  0.435250  0.437187  1
  Er  Er12  1  0.050775  0.649012  0.650107  1
  Er  Er13  1  0.809580  0.191334  0.808381  1
  Er  Er14  1  0.437301  0.433445  0.064627  1
  Er  Er15  1  0.190619  0.810593  0.189981  1
  Zn  Zn16  1  0.416600  0.752651  0.415374  1
  In  In17  1  0.416521  0.423188  0.744565  1
  In  In18  1  0.744364  0.423730  0.415953  1
  In  In19  1  0.416521  0.423188  0.415725  1
  Rh  Rh20  1  0.857304  0.425858  0.858420  1
  Rh  Rh21  1  0.857073  0.858513  0.427306  1
  Rh  Rh22  1  0.426751  0.856985  0.858132  1
  Rh  Rh23  1  0.857073  0.858513  0.857109  1
