# generated using pymatgen
data_CaEu3(ZnCu)4
_symmetry_space_group_name_H-M   'P 1'
_cell_length_a   7.33300234
_cell_length_b   4.49442600
_cell_length_c   7.63074935
_cell_angle_alpha   90.00000000
_cell_angle_beta   89.96527946
_cell_angle_gamma   90.00000000
_symmetry_Int_Tables_number   1
_chemical_formula_structural   CaEu3(ZnCu)4
_chemical_formula_sum   'Ca1 Eu3 Zn4 Cu4'
_cell_volume   251.49141606
_cell_formula_units_Z   1
loop_
 _symmetry_equiv_pos_site_id
 _symmetry_equiv_pos_as_xyz
  1  'x, y, z'
loop_
 _atom_site_type_symbol
 _atom_site_label
 _atom_site_symmetry_multiplicity
 _atom_site_fract_x
 _atom_site_fract_y
 _atom_site_fract_z
 _atom_site_occupancy
  Ca  Ca0  1  0.507944  0.250000  0.802500  1
  Eu  Eu1  1  0.492045  0.749999  0.195636  1
  Eu  Eu2  1  0.991942  0.749999  0.303939  1
  Eu  Eu3  1  0.008101  0.250000  0.696663  1
  Zn  Zn4  1  0.179313  0.250000  0.081311  1
  Zn  Zn5  1  0.678098  0.250000  0.419164  1
  Zn  Zn6  1  0.322246  0.749999  0.583238  1
  Zn  Zn7  1  0.820761  0.749999  0.917404  1
  Cu  Cu8  1  0.806168  0.250000  0.091541  1
  Cu  Cu9  1  0.307531  0.250000  0.408154  1
  Cu  Cu10  1  0.692353  0.749999  0.593030  1
  Cu  Cu11  1  0.193499  0.749999  0.907424  1
