# generated using pymatgen
data_Zr3Ga3IrPt2
_symmetry_space_group_name_H-M   'P 1'
_cell_length_a   7.19562200
_cell_length_b   7.19562248
_cell_length_c   7.14215500
_cell_angle_alpha   90.00000000
_cell_angle_beta   90.00000000
_cell_angle_gamma   119.99999780
_symmetry_Int_Tables_number   1
_chemical_formula_structural   Zr3Ga3IrPt2
_chemical_formula_sum   'Zr6 Ga6 Ir2 Pt4'
_cell_volume   320.25551929
_cell_formula_units_Z   2
loop_
 _symmetry_equiv_pos_site_id
 _symmetry_equiv_pos_as_xyz
  1  'x, y, z'
loop_
 _atom_site_type_symbol
 _atom_site_label
 _atom_site_symmetry_multiplicity
 _atom_site_fract_x
 _atom_site_fract_y
 _atom_site_fract_z
 _atom_site_occupancy
  Zr  Zr0  1  0.396024  0.408953  0.750000  1
  Zr  Zr1  1  0.012929  0.603976  0.750000  1
  Zr  Zr2  1  0.591047  0.987071  0.750000  1
  Zr  Zr3  1  0.613890  0.025536  0.250000  1
  Zr  Zr4  1  0.974464  0.588355  0.250000  1
  Zr  Zr5  1  0.411645  0.386110  0.250000  1
  Ga  Ga6  1  0.267301  0.999459  0.999279  1
  Ga  Ga7  1  0.732158  0.732699  0.999279  1
  Ga  Ga8  1  0.000541  0.267842  0.999279  1
  Ga  Ga9  1  0.732158  0.732699  0.500721  1
  Ga  Ga10  1  0.267301  0.999459  0.500721  1
  Ga  Ga11  1  0.000541  0.267842  0.500721  1
  Ir  Ir12  1  0.666667  0.333333  0.975645  1
  Ir  Ir13  1  0.666667  0.333333  0.524355  1
  Pt  Pt14  1  0.000000  0.000000  0.750000  1
  Pt  Pt15  1  0.333333  0.666667  0.467376  1
  Pt  Pt16  1  0.333333  0.666667  0.032624  1
  Pt  Pt17  1  0.000000  0.000000  0.250000  1
