# generated using pymatgen
data_Zr6HgBiAs
_symmetry_space_group_name_H-M   'P 1'
_cell_length_a   7.70086200
_cell_length_b   7.70086139
_cell_length_c   3.91967500
_cell_angle_alpha   90.00000000
_cell_angle_beta   90.00000000
_cell_angle_gamma   119.99999401
_symmetry_Int_Tables_number   1
_chemical_formula_structural   Zr6HgBiAs
_chemical_formula_sum   'Zr6 Hg1 Bi1 As1'
_cell_volume   201.30722603
_cell_formula_units_Z   1
loop_
 _symmetry_equiv_pos_site_id
 _symmetry_equiv_pos_as_xyz
  1  'x, y, z'
loop_
 _atom_site_type_symbol
 _atom_site_label
 _atom_site_symmetry_multiplicity
 _atom_site_fract_x
 _atom_site_fract_y
 _atom_site_fract_z
 _atom_site_occupancy
  Zr  Zr0  1  0.385742  0.385320  0.500000  1
  Zr  Zr1  1  0.614680  0.000422  0.500000  1
  Zr  Zr2  1  0.999578  0.614258  0.500000  1
  Zr  Zr3  1  0.758547  0.749118  0.000000  1
  Zr  Zr4  1  0.250882  0.009430  0.000000  1
  Zr  Zr5  1  0.990570  0.241453  0.000000  1
  Hg  Hg6  1  0.666667  0.333333  0.000000  1
  Bi  Bi7  1  0.333333  0.666667  0.000000  1
  As  As8  1  0.000000  0.000000  0.500000  1
