# generated using pymatgen
data_LiPrPt4
_symmetry_space_group_name_H-M   'P 1'
_cell_length_a   5.41138176
_cell_length_b   5.41138196
_cell_length_c   5.41138200
_cell_angle_alpha   59.99999974
_cell_angle_beta   59.99999851
_cell_angle_gamma   60.00000377
_symmetry_Int_Tables_number   1
_chemical_formula_structural   LiPrPt4
_chemical_formula_sum   'Li1 Pr1 Pt4'
_cell_volume   112.04940738
_cell_formula_units_Z   1
loop_
 _symmetry_equiv_pos_site_id
 _symmetry_equiv_pos_as_xyz
  1  'x, y, z'
loop_
 _atom_site_type_symbol
 _atom_site_label
 _atom_site_symmetry_multiplicity
 _atom_site_fract_x
 _atom_site_fract_y
 _atom_site_fract_z
 _atom_site_occupancy
  Li  Li0  1  0.250000  0.250000  0.250000  1
  Pr  Pr1  1  0.000000  0.000000  0.000000  1
  Pt  Pt2  1  0.624441  0.624441  0.126677  1
  Pt  Pt3  1  0.624441  0.126677  0.624441  1
  Pt  Pt4  1  0.126677  0.624441  0.624441  1
  Pt  Pt5  1  0.624441  0.624441  0.624441  1
