# generated using pymatgen
data_Ho7TmIn3PbAu8
_symmetry_space_group_name_H-M   'P 1'
_cell_length_a   8.02456586
_cell_length_b   8.02370786
_cell_length_c   7.31104501
_cell_angle_alpha   90.00254258
_cell_angle_beta   90.00396107
_cell_angle_gamma   89.88762387
_symmetry_Int_Tables_number   1
_chemical_formula_structural   Ho7TmIn3PbAu8
_chemical_formula_sum   'Ho7 Tm1 In3 Pb1 Au8'
_cell_volume   470.73368230
_cell_formula_units_Z   1
loop_
 _symmetry_equiv_pos_site_id
 _symmetry_equiv_pos_as_xyz
  1  'x, y, z'
loop_
 _atom_site_type_symbol
 _atom_site_label
 _atom_site_symmetry_multiplicity
 _atom_site_fract_x
 _atom_site_fract_y
 _atom_site_fract_z
 _atom_site_occupancy
  Ho  Ho0  1  0.843656  0.158719  0.501592  1
  Ho  Ho1  1  0.156270  0.841339  0.501570  1
  Ho  Ho2  1  0.341404  0.343528  0.998426  1
  Ho  Ho3  1  0.658806  0.656240  0.998441  1
  Ho  Ho4  1  0.682404  0.680208  0.501336  1
  Ho  Ho5  1  0.317649  0.319709  0.501320  1
  Ho  Ho6  1  0.180188  0.817702  0.998667  1
  Tm  Tm7  1  0.820002  0.182266  0.998616  1
  In  In8  1  0.999925  0.499880  0.750073  1
  In  In9  1  0.500142  0.000058  0.750106  1
  In  In10  1  0.999932  0.499891  0.249930  1
  Pb  Pb11  1  0.500086  0.000054  0.249903  1
  Au  Au12  1  0.632505  0.375815  0.273762  1
  Au  Au13  1  0.368035  0.623629  0.274604  1
  Au  Au14  1  0.128554  0.128544  0.774480  1
  Au  Au15  1  0.870674  0.872234  0.774447  1
  Au  Au16  1  0.371753  0.629039  0.725965  1
  Au  Au17  1  0.628831  0.370401  0.726772  1
  Au  Au18  1  0.876106  0.868487  0.225022  1
  Au  Au19  1  0.123077  0.132259  0.224969  1
