# generated using pymatgen
data_Er3Tm5(CdRu)2
_symmetry_space_group_name_H-M   'P 1'
_cell_length_a   9.50223037
_cell_length_b   9.50222960
_cell_length_c   9.50223100
_cell_angle_alpha   59.99999860
_cell_angle_beta   60.00000129
_cell_angle_gamma   60.00000219
_symmetry_Int_Tables_number   1
_chemical_formula_structural   Er3Tm5(CdRu)2
_chemical_formula_sum   'Er6 Tm10 Cd4 Ru4'
_cell_volume   606.68277979
_cell_formula_units_Z   2
loop_
 _symmetry_equiv_pos_site_id
 _symmetry_equiv_pos_as_xyz
  1  'x, y, z'
loop_
 _atom_site_type_symbol
 _atom_site_label
 _atom_site_symmetry_multiplicity
 _atom_site_fract_x
 _atom_site_fract_y
 _atom_site_fract_z
 _atom_site_occupancy
  Er  Er0  1  0.189745  0.810255  0.810255  1
  Er  Er1  1  0.810255  0.189745  0.189745  1
  Er  Er2  1  0.810255  0.189745  0.810255  1
  Er  Er3  1  0.189745  0.810255  0.189745  1
  Er  Er4  1  0.810255  0.810255  0.189745  1
  Er  Er5  1  0.189745  0.189745  0.810255  1
  Tm  Tm6  1  0.596921  0.596921  0.596921  1
  Tm  Tm7  1  0.596921  0.596921  0.209236  1
  Tm  Tm8  1  0.596921  0.209236  0.596921  1
  Tm  Tm9  1  0.209236  0.596921  0.596921  1
  Tm  Tm10  1  0.061793  0.438207  0.438207  1
  Tm  Tm11  1  0.438207  0.061793  0.061793  1
  Tm  Tm12  1  0.438207  0.061793  0.438207  1
  Tm  Tm13  1  0.061793  0.438207  0.061793  1
  Tm  Tm14  1  0.438207  0.438207  0.061793  1
  Tm  Tm15  1  0.061793  0.061793  0.438207  1
  Cd  Cd16  1  0.830769  0.830769  0.830769  1
  Cd  Cd17  1  0.830769  0.830769  0.507692  1
  Cd  Cd18  1  0.830769  0.507692  0.830769  1
  Cd  Cd19  1  0.507692  0.830769  0.830769  1
  Ru  Ru20  1  0.390203  0.390203  0.390203  1
  Ru  Ru21  1  0.390203  0.390203  0.829390  1
  Ru  Ru22  1  0.390203  0.829390  0.390203  1
  Ru  Ru23  1  0.829390  0.390203  0.390203  1
