# generated using pymatgen
data_Yb2DyY7(In2Pt)4
_symmetry_space_group_name_H-M   'P 1'
_cell_length_a   3.61671400
_cell_length_b   8.21589637
_cell_length_c   18.41661507
_cell_angle_alpha   90.06613517
_cell_angle_beta   90.00000000
_cell_angle_gamma   90.00000000
_symmetry_Int_Tables_number   1
_chemical_formula_structural   Yb2DyY7(In2Pt)4
_chemical_formula_sum   'Yb2 Dy1 Y7 In8 Pt4'
_cell_volume   547.24101713
_cell_formula_units_Z   1
loop_
 _symmetry_equiv_pos_site_id
 _symmetry_equiv_pos_as_xyz
  1  'x, y, z'
loop_
 _atom_site_type_symbol
 _atom_site_label
 _atom_site_symmetry_multiplicity
 _atom_site_fract_x
 _atom_site_fract_y
 _atom_site_fract_z
 _atom_site_occupancy
  Yb  Yb0  1  0.000000  0.999998  0.999991  1
  Yb  Yb1  1  0.000000  0.500051  0.499959  1
  Dy  Dy2  1  0.000000  0.743974  0.278994  1
  Y  Y3  1  0.000000  0.119706  0.414601  1
  Y  Y4  1  0.000000  0.880165  0.585432  1
  Y  Y5  1  0.000000  0.380088  0.914602  1
  Y  Y6  1  0.000000  0.620033  0.085443  1
  Y  Y7  1  0.000000  0.243563  0.220727  1
  Y  Y8  1  0.000000  0.756420  0.779360  1
  Y  Y9  1  0.000000  0.256513  0.720634  1
  In  In10  1  0.500000  0.426438  0.351389  1
  In  In11  1  0.500000  0.573849  0.648685  1
  In  In12  1  0.500000  0.073780  0.851315  1
  In  In13  1  0.500000  0.926419  0.148579  1
  In  In14  1  0.500000  0.292817  0.067543  1
  In  In15  1  0.500000  0.707174  0.932449  1
  In  In16  1  0.500000  0.207055  0.567496  1
  In  In17  1  0.500000  0.792710  0.432401  1
  Pt  Pt18  1  0.500000  0.021374  0.302834  1
  Pt  Pt19  1  0.500000  0.976866  0.697056  1
  Pt  Pt20  1  0.500000  0.476885  0.803023  1
  Pt  Pt21  1  0.500000  0.524124  0.197487  1
