# generated using pymatgen
data_Tm6Al21Si3Os8
_symmetry_space_group_name_H-M   'P 1'
_cell_length_a   8.68478200
_cell_length_b   8.68478214
_cell_length_c   9.60294500
_cell_angle_alpha   90.00000000
_cell_angle_beta   90.00000000
_cell_angle_gamma   119.99999947
_symmetry_Int_Tables_number   1
_chemical_formula_structural   Tm6Al21Si3Os8
_chemical_formula_sum   'Tm6 Al21 Si3 Os8'
_cell_volume   627.26770096
_cell_formula_units_Z   1
loop_
 _symmetry_equiv_pos_site_id
 _symmetry_equiv_pos_as_xyz
  1  'x, y, z'
loop_
 _atom_site_type_symbol
 _atom_site_label
 _atom_site_symmetry_multiplicity
 _atom_site_fract_x
 _atom_site_fract_y
 _atom_site_fract_z
 _atom_site_occupancy
  Tm  Tm0  1  0.196489  0.392979  0.247572  1
  Tm  Tm1  1  0.803146  0.606293  0.752523  1
  Tm  Tm2  1  0.607021  0.803511  0.247572  1
  Tm  Tm3  1  0.393707  0.196854  0.752523  1
  Tm  Tm4  1  0.196489  0.803511  0.247572  1
  Tm  Tm5  1  0.803146  0.196854  0.752523  1
  Al  Al6  1  0.333333  0.666667  0.475640  1
  Al  Al7  1  0.163965  0.327930  0.575182  1
  Al  Al8  1  0.835259  0.670517  0.422576  1
  Al  Al9  1  0.672070  0.836035  0.575182  1
  Al  Al10  1  0.835066  0.670131  0.077535  1
  Al  Al11  1  0.329483  0.164741  0.422576  1
  Al  Al12  1  0.165164  0.330328  0.921845  1
  Al  Al13  1  0.163965  0.836035  0.575182  1
  Al  Al14  1  0.329869  0.164934  0.077535  1
  Al  Al15  1  0.835259  0.164741  0.422576  1
  Al  Al16  1  0.669672  0.834836  0.921845  1
  Al  Al17  1  0.835066  0.164934  0.077535  1
  Al  Al18  1  0.165164  0.834836  0.921845  1
  Al  Al19  1  0.563197  0.126394  0.249014  1
  Al  Al20  1  0.437056  0.874112  0.748813  1
  Al  Al21  1  0.873606  0.436803  0.249014  1
  Al  Al22  1  0.125888  0.562944  0.748813  1
  Al  Al23  1  0.563197  0.436803  0.249014  1
  Al  Al24  1  0.437056  0.562944  0.748813  1
  Al  Al25  1  0.000000  0.000000  0.249078  1
  Al  Al26  1  0.000000  0.000000  0.749579  1
  Si  Si27  1  0.333333  0.666667  0.040569  1
  Si  Si28  1  0.666667  0.333333  0.960948  1
  Si  Si29  1  0.666667  0.333333  0.540146  1
  Os  Os30  1  0.500079  0.000159  0.998712  1
  Os  Os31  1  0.999841  0.499921  0.998712  1
  Os  Os32  1  0.504124  0.008249  0.501376  1
  Os  Os33  1  0.500079  0.499921  0.998712  1
  Os  Os34  1  0.991751  0.495876  0.501376  1
  Os  Os35  1  0.504124  0.495876  0.501376  1
  Os  Os36  1  0.000000  0.000000  0.999210  1
  Os  Os37  1  0.000000  0.000000  0.499387  1
