# generated using pymatgen
data_SrY2Er(Ir2O7)2
_symmetry_space_group_name_H-M   'P 1'
_cell_length_a   7.28280290
_cell_length_b   7.31053414
_cell_length_c   7.27761862
_cell_angle_alpha   60.13094466
_cell_angle_beta   59.97643148
_cell_angle_gamma   60.12539789
_symmetry_Int_Tables_number   1
_chemical_formula_structural   SrY2Er(Ir2O7)2
_chemical_formula_sum   'Sr1 Y2 Er1 Ir4 O14'
_cell_volume   274.46242478
_cell_formula_units_Z   1
loop_
 _symmetry_equiv_pos_site_id
 _symmetry_equiv_pos_as_xyz
  1  'x, y, z'
loop_
 _atom_site_type_symbol
 _atom_site_label
 _atom_site_symmetry_multiplicity
 _atom_site_fract_x
 _atom_site_fract_y
 _atom_site_fract_z
 _atom_site_occupancy
  Sr  Sr0  1  0.125000  0.625000  0.125000  1
  Y  Y1  1  0.625000  0.125000  0.125000  1
  Y  Y2  1  0.125000  0.125000  0.125000  1
  Er  Er3  1  0.125000  0.125000  0.625000  1
  Ir  Ir4  1  0.125000  0.625000  0.625000  1
  Ir  Ir5  1  0.625000  0.125000  0.625000  1
  Ir  Ir6  1  0.625000  0.625000  0.125000  1
  Ir  Ir7  1  0.625000  0.625000  0.625000  1
  O  O8  1  0.692396  0.719798  0.294134  1
  O  O9  1  0.293117  0.290544  0.704903  1
  O  O10  1  0.711436  0.290544  0.704903  1
  O  O11  1  0.293672  0.719798  0.294134  1
  O  O12  1  0.293616  0.722856  0.689912  1
  O  O13  1  0.707913  0.290506  0.293669  1
  O  O14  1  0.557604  0.530202  0.955866  1
  O  O15  1  0.956883  0.959456  0.545097  1
  O  O16  1  0.538564  0.959456  0.545097  1
  O  O17  1  0.956328  0.530202  0.955866  1
  O  O18  1  0.956384  0.527144  0.560088  1
  O  O19  1  0.542087  0.959494  0.956331  1
  O  O20  1  0.256632  0.226622  0.260114  1
  O  O21  1  0.993368  0.023378  0.989886  1
