# generated using pymatgen
data_Zr6Zn22RhS
_symmetry_space_group_name_H-M   'P 1'
_cell_length_a   8.73749540
_cell_length_b   8.73784768
_cell_length_c   8.73784200
_cell_angle_alpha   59.99660769
_cell_angle_beta   60.00081345
_cell_angle_gamma   59.99963794
_symmetry_Int_Tables_number   1
_chemical_formula_structural   Zr6Zn22RhS
_chemical_formula_sum   'Zr6 Zn22 Rh1 S1'
_cell_volume   471.70552765
_cell_formula_units_Z   1
loop_
 _symmetry_equiv_pos_site_id
 _symmetry_equiv_pos_as_xyz
  1  'x, y, z'
loop_
 _atom_site_type_symbol
 _atom_site_label
 _atom_site_symmetry_multiplicity
 _atom_site_fract_x
 _atom_site_fract_y
 _atom_site_fract_z
 _atom_site_occupancy
  Zr  Zr0  1  0.705381  0.294613  0.294622  1
  Zr  Zr1  1  0.294610  0.705384  0.705388  1
  Zr  Zr2  1  0.294589  0.705405  0.294604  1
  Zr  Zr3  1  0.705406  0.294591  0.705418  1
  Zr  Zr4  1  0.294594  0.294599  0.705409  1
  Zr  Zr5  1  0.705396  0.705403  0.294606  1
  Zn  Zn6  1  0.120556  0.120579  0.120560  1
  Zn  Zn7  1  0.879458  0.879434  0.879414  1
  Zn  Zn8  1  0.120572  0.120548  0.638312  1
  Zn  Zn9  1  0.120580  0.638303  0.120538  1
  Zn  Zn10  1  0.879428  0.879448  0.361701  1
  Zn  Zn11  1  0.879437  0.361690  0.879440  1
  Zn  Zn12  1  0.638306  0.120579  0.120560  1
  Zn  Zn13  1  0.361690  0.879436  0.879417  1
  Zn  Zn14  1  0.499999  0.000002  0.999998  1
  Zn  Zn15  1  0.000001  0.499995  0.500005  1
  Zn  Zn16  1  0.000004  0.499998  0.999998  1
  Zn  Zn17  1  0.499996  0.999998  0.500006  1
  Zn  Zn18  1  0.000000  0.999998  0.500005  1
  Zn  Zn19  1  0.500000  0.499998  0.999998  1
  Zn  Zn20  1  0.332990  0.332997  0.333000  1
  Zn  Zn21  1  0.667005  0.666996  0.667005  1
  Zn  Zn22  1  0.333003  0.332995  0.000999  1
  Zn  Zn23  1  0.332994  0.001017  0.332993  1
  Zn  Zn24  1  0.667005  0.667011  0.998975  1
  Zn  Zn25  1  0.666999  0.998993  0.667010  1
  Zn  Zn26  1  0.001018  0.332994  0.333000  1
  Zn  Zn27  1  0.998993  0.666998  0.667003  1
  Rh  Rh28  1  0.000001  0.999994  0.000009  1
  S  S29  1  0.499991  0.500005  0.500006  1
