# generated using pymatgen
data_Hf8MnVBi4
_symmetry_space_group_name_H-M   'P 1'
_cell_length_a   8.27158338
_cell_length_b   8.27164557
_cell_length_c   8.27213546
_cell_angle_alpha   96.18660164
_cell_angle_beta   96.18014505
_cell_angle_gamma   141.67983560
_symmetry_Int_Tables_number   1
_chemical_formula_structural   Hf8MnVBi4
_chemical_formula_sum   'Hf8 Mn1 V1 Bi4'
_cell_volume   331.50020083
_cell_formula_units_Z   1
loop_
 _symmetry_equiv_pos_site_id
 _symmetry_equiv_pos_as_xyz
  1  'x, y, z'
loop_
 _atom_site_type_symbol
 _atom_site_label
 _atom_site_symmetry_multiplicity
 _atom_site_fract_x
 _atom_site_fract_y
 _atom_site_fract_z
 _atom_site_occupancy
  Hf  Hf0  1  0.694206  0.581396  0.274645  1
  Hf  Hf1  1  0.306740  0.419555  0.725329  1
  Hf  Hf2  1  0.581399  0.306747  0.887166  1
  Hf  Hf3  1  0.080431  0.193257  0.274660  1
  Hf  Hf4  1  0.805774  0.080433  0.887179  1
  Hf  Hf5  1  0.419595  0.694245  0.112869  1
  Hf  Hf6  1  0.918616  0.805753  0.725338  1
  Hf  Hf7  1  0.193241  0.918603  0.112815  1
  Mn  Mn8  1  0.749960  0.750016  0.999970  1
  V  V9  1  0.249984  0.250001  0.999981  1
  Bi  Bi10  1  0.138924  0.638890  0.777815  1
  Bi  Bi11  1  0.361104  0.138894  0.499995  1
  Bi  Bi12  1  0.861101  0.361103  0.222208  1
  Bi  Bi13  1  0.638925  0.861107  0.500032  1
