# generated using pymatgen
data_YHo2Co9(SiB2)2
_symmetry_space_group_name_H-M   'P 1'
_cell_length_a   5.11049500
_cell_length_b   5.11034189
_cell_length_c   9.34181200
_cell_angle_alpha   89.99988198
_cell_angle_beta   90.00010090
_cell_angle_gamma   120.00439249
_symmetry_Int_Tables_number   1
_chemical_formula_structural   YHo2Co9(SiB2)2
_chemical_formula_sum   'Y1 Ho2 Co9 Si2 B4'
_cell_volume   211.27857268
_cell_formula_units_Z   1
loop_
 _symmetry_equiv_pos_site_id
 _symmetry_equiv_pos_as_xyz
  1  'x, y, z'
loop_
 _atom_site_type_symbol
 _atom_site_label
 _atom_site_symmetry_multiplicity
 _atom_site_fract_x
 _atom_site_fract_y
 _atom_site_fract_z
 _atom_site_occupancy
  Y  Y0  1  0.999982  0.999999  0.000043  1
  Ho  Ho1  1  0.999995  0.000000  0.338583  1
  Ho  Ho2  1  0.000001  0.999999  0.661431  1
  Co  Co3  1  0.499998  0.000000  0.499986  1
  Co  Co4  1  0.499998  0.500001  0.499981  1
  Co  Co5  1  0.999997  0.500000  0.499971  1
  Co  Co6  1  0.499992  0.000000  0.196322  1
  Co  Co7  1  0.499991  0.500001  0.196325  1
  Co  Co8  1  0.999991  0.500001  0.196320  1
  Co  Co9  1  0.499999  0.000000  0.803689  1
  Co  Co10  1  0.499999  0.500001  0.803690  1
  Co  Co11  1  0.999998  0.499999  0.803691  1
  Si  Si12  1  0.333392  0.666739  0.000001  1
  Si  Si13  1  0.666584  0.333260  0.000000  1
  B  B14  1  0.333310  0.666663  0.345751  1
  B  B15  1  0.666677  0.333337  0.345750  1
  B  B16  1  0.666677  0.333344  0.654233  1
  B  B17  1  0.333320  0.666656  0.654233  1
