# generated using pymatgen
data_Tb3HfIn2Ir3
_symmetry_space_group_name_H-M   'P 1'
_cell_length_a   7.44859261
_cell_length_b   7.26261208
_cell_length_c   4.17028100
_cell_angle_alpha   90.00000000
_cell_angle_beta   90.00000000
_cell_angle_gamma   119.17743457
_symmetry_Int_Tables_number   1
_chemical_formula_structural   Tb3HfIn2Ir3
_chemical_formula_sum   'Tb3 Hf1 In2 Ir3'
_cell_volume   196.97151021
_cell_formula_units_Z   1
loop_
 _symmetry_equiv_pos_site_id
 _symmetry_equiv_pos_as_xyz
  1  'x, y, z'
loop_
 _atom_site_type_symbol
 _atom_site_label
 _atom_site_symmetry_multiplicity
 _atom_site_fract_x
 _atom_site_fract_y
 _atom_site_fract_z
 _atom_site_occupancy
  Tb  Tb0  1  0.417141  0.412964  0.000000  1
  Tb  Tb1  1  0.582859  0.995823  0.000000  1
  Tb  Tb2  1  0.000000  0.605097  0.000000  1
  Hf  Hf3  1  0.000000  0.245694  0.500000  1
  In  In4  1  0.745330  0.746817  0.500000  1
  In  In5  1  0.254670  0.001487  0.500000  1
  Ir  Ir6  1  0.000000  0.021937  0.000000  1
  Ir  Ir7  1  0.316724  0.643453  0.500000  1
  Ir  Ir8  1  0.683276  0.326728  0.500000  1
