# generated using pymatgen
data_LiMg4Zn6Ru
_symmetry_space_group_name_H-M   'P 1'
_cell_length_a   5.16363683
_cell_length_b   5.25089673
_cell_length_c   8.39867700
_cell_angle_alpha   90.00000000
_cell_angle_beta   90.00000000
_cell_angle_gamma   119.25267259
_symmetry_Int_Tables_number   1
_chemical_formula_structural   LiMg4Zn6Ru
_chemical_formula_sum   'Li1 Mg4 Zn6 Ru1'
_cell_volume   198.67908389
_cell_formula_units_Z   1
loop_
 _symmetry_equiv_pos_site_id
 _symmetry_equiv_pos_as_xyz
  1  'x, y, z'
loop_
 _atom_site_type_symbol
 _atom_site_label
 _atom_site_symmetry_multiplicity
 _atom_site_fract_x
 _atom_site_fract_y
 _atom_site_fract_z
 _atom_site_occupancy
  Li  Li0  1  0.822382  0.162416  0.250000  1
  Mg  Mg1  1  0.326800  0.650329  0.054686  1
  Mg  Mg2  1  0.667185  0.337357  0.574084  1
  Mg  Mg3  1  0.667185  0.337357  0.925916  1
  Mg  Mg4  1  0.326800  0.650329  0.445314  1
  Zn  Zn5  1  0.008358  0.016970  0.000751  1
  Zn  Zn6  1  0.008358  0.016970  0.499249  1
  Zn  Zn7  1  0.345742  0.166456  0.250000  1
  Zn  Zn8  1  0.659382  0.827537  0.750000  1
  Zn  Zn9  1  0.168957  0.829224  0.750000  1
  Zn  Zn10  1  0.830386  0.665385  0.250000  1
  Ru  Ru11  1  0.168466  0.339672  0.750000  1
