# generated using pymatgen
data_Sm3Y13Cd4Co3Ni
_symmetry_space_group_name_H-M   'P 1'
_cell_length_a   9.61130446
_cell_length_b   9.60680858
_cell_length_c   9.60680800
_cell_angle_alpha   60.00000201
_cell_angle_beta   60.01547449
_cell_angle_gamma   60.01547668
_symmetry_Int_Tables_number   1
_chemical_formula_structural   Sm3Y13Cd4Co3Ni
_chemical_formula_sum   'Sm3 Y13 Cd4 Co3 Ni1'
_cell_volume   627.37490018
_cell_formula_units_Z   1
loop_
 _symmetry_equiv_pos_site_id
 _symmetry_equiv_pos_as_xyz
  1  'x, y, z'
loop_
 _atom_site_type_symbol
 _atom_site_label
 _atom_site_symmetry_multiplicity
 _atom_site_fract_x
 _atom_site_fract_y
 _atom_site_fract_z
 _atom_site_occupancy
  Sm  Sm0  1  0.595216  0.598878  0.598878  1
  Sm  Sm1  1  0.595216  0.598878  0.207027  1
  Sm  Sm2  1  0.595216  0.207027  0.598878  1
  Y  Y3  1  0.209922  0.596693  0.596693  1
  Y  Y4  1  0.065455  0.438043  0.438043  1
  Y  Y5  1  0.437507  0.062352  0.062352  1
  Y  Y6  1  0.437507  0.062352  0.437790  1
  Y  Y7  1  0.065455  0.438043  0.058459  1
  Y  Y8  1  0.437507  0.437790  0.062352  1
  Y  Y9  1  0.065455  0.058459  0.438043  1
  Y  Y10  1  0.186045  0.813331  0.813331  1
  Y  Y11  1  0.811930  0.186879  0.186879  1
  Y  Y12  1  0.811930  0.186879  0.814311  1
  Y  Y13  1  0.186045  0.813331  0.187292  1
  Y  Y14  1  0.811930  0.814311  0.186879  1
  Y  Y15  1  0.186045  0.187292  0.813331  1
  Cd  Cd16  1  0.830929  0.830150  0.830150  1
  Cd  Cd17  1  0.830929  0.830150  0.508769  1
  Cd  Cd18  1  0.830929  0.508769  0.830150  1
  Cd  Cd19  1  0.507649  0.830784  0.830784  1
  Co  Co20  1  0.391514  0.391135  0.391135  1
  Co  Co21  1  0.391514  0.391135  0.826216  1
  Co  Co22  1  0.391514  0.826216  0.391135  1
  Ni  Ni23  1  0.826642  0.391120  0.391120  1
