# generated using pymatgen
data_ScCO3F
_symmetry_space_group_name_H-M   'P 1'
_cell_length_a   4.07560847
_cell_length_b   6.05070437
_cell_length_c   6.51053379
_cell_angle_alpha   90.18427271
_cell_angle_beta   90.81601062
_cell_angle_gamma   93.54032867
_symmetry_Int_Tables_number   1
_chemical_formula_structural   ScCO3F
_chemical_formula_sum   'Sc2 C2 O6 F2'
_cell_volume   160.22772886
_cell_formula_units_Z   2
loop_
 _symmetry_equiv_pos_site_id
 _symmetry_equiv_pos_as_xyz
  1  'x, y, z'
loop_
 _atom_site_type_symbol
 _atom_site_label
 _atom_site_symmetry_multiplicity
 _atom_site_fract_x
 _atom_site_fract_y
 _atom_site_fract_z
 _atom_site_occupancy
  Sc  Sc0  1  0.496621  0.350215  0.249491  1
  Sc  Sc1  1  0.503340  0.649756  0.750513  1
  C  C2  1  0.499356  0.802180  0.250270  1
  C  C3  1  0.500662  0.197791  0.749730  1
  O  O4  1  0.525630  0.681643  0.084810  1
  O  O5  1  0.467612  0.007227  0.249830  1
  O  O6  1  0.503560  0.680686  0.416061  1
  O  O7  1  0.496422  0.319271  0.584001  1
  O  O8  1  0.532284  0.992903  0.750164  1
  O  O9  1  0.474542  0.318328  0.915133  1
  F  F10  1  0.995927  0.357902  0.248425  1
  F  F11  1  0.004042  0.642099  0.751572  1
