# generated using pymatgen
data_Er5TmFe3Si6Ru
_symmetry_space_group_name_H-M   'P 1'
_cell_length_a   5.61594637
_cell_length_b   5.61594657
_cell_length_c   13.54218801
_cell_angle_alpha   89.76903101
_cell_angle_beta   90.23096855
_cell_angle_gamma   137.24731015
_symmetry_Int_Tables_number   1
_chemical_formula_structural   Er5TmFe3Si6Ru
_chemical_formula_sum   'Er5 Tm1 Fe3 Si6 Ru1'
_cell_volume   289.93126781
_cell_formula_units_Z   1
loop_
 _symmetry_equiv_pos_site_id
 _symmetry_equiv_pos_as_xyz
  1  'x, y, z'
loop_
 _atom_site_type_symbol
 _atom_site_label
 _atom_site_symmetry_multiplicity
 _atom_site_fract_x
 _atom_site_fract_y
 _atom_site_fract_z
 _atom_site_occupancy
  Er  Er0  1  0.363992  0.636008  0.750257  1
  Er  Er1  1  0.918271  0.081729  0.112066  1
  Er  Er2  1  0.079258  0.920742  0.889744  1
  Er  Er3  1  0.080867  0.919133  0.613286  1
  Er  Er4  1  0.922274  0.077726  0.384392  1
  Tm  Tm5  1  0.637434  0.362566  0.248926  1
  Fe  Fe6  1  0.213941  0.786059  0.418296  1
  Fe  Fe7  1  0.213132  0.786868  0.081182  1
  Fe  Fe8  1  0.783906  0.216094  0.921109  1
  Si  Si9  1  0.324609  0.675391  0.249217  1
  Si  Si10  1  0.673665  0.326335  0.755002  1
  Si  Si11  1  0.623072  0.376928  0.040274  1
  Si  Si12  1  0.373814  0.626186  0.961021  1
  Si  Si13  1  0.383404  0.616596  0.534851  1
  Si  Si14  1  0.620842  0.379158  0.457504  1
  Ru  Ru15  1  0.787517  0.212483  0.582873  1
