# generated using pymatgen
data_Tb7Lu(AlRu)8
_symmetry_space_group_name_H-M   'P 1'
_cell_length_a   4.08540500
_cell_length_b   7.01581054
_cell_length_c   16.02100919
_cell_angle_alpha   90.28142278
_cell_angle_beta   90.00000000
_cell_angle_gamma   90.00000000
_symmetry_Int_Tables_number   1
_chemical_formula_structural   Tb7Lu(AlRu)8
_chemical_formula_sum   'Tb7 Lu1 Al8 Ru8'
_cell_volume   459.19547453
_cell_formula_units_Z   1
loop_
 _symmetry_equiv_pos_site_id
 _symmetry_equiv_pos_as_xyz
  1  'x, y, z'
loop_
 _atom_site_type_symbol
 _atom_site_label
 _atom_site_symmetry_multiplicity
 _atom_site_fract_x
 _atom_site_fract_y
 _atom_site_fract_z
 _atom_site_occupancy
  Tb  Tb0  1  0.750000  0.964698  0.219580  1
  Tb  Tb1  1  0.250000  0.162943  0.563651  1
  Tb  Tb2  1  0.750000  0.842042  0.437319  1
  Tb  Tb3  1  0.750000  0.464799  0.280810  1
  Tb  Tb4  1  0.750000  0.338736  0.062515  1
  Tb  Tb5  1  0.250000  0.657391  0.936069  1
  Tb  Tb6  1  0.250000  0.035553  0.779744  1
  Lu  Lu7  1  0.250000  0.538076  0.717515  1
  Al  Al8  1  0.750000  0.504098  0.566398  1
  Al  Al9  1  0.750000  0.363443  0.848428  1
  Al  Al10  1  0.750000  0.995926  0.933621  1
  Al  Al11  1  0.750000  0.866541  0.651537  1
  Al  Al12  1  0.250000  0.501489  0.435077  1
  Al  Al13  1  0.250000  0.997221  0.065411  1
  Al  Al14  1  0.250000  0.634244  0.150760  1
  Al  Al15  1  0.250000  0.136229  0.349366  1
  Ru  Ru16  1  0.750000  0.736382  0.810807  1
  Ru  Ru17  1  0.250000  0.229503  0.936469  1
  Ru  Ru18  1  0.750000  0.266867  0.436801  1
  Ru  Ru19  1  0.250000  0.753475  0.312211  1
  Ru  Ru20  1  0.750000  0.764072  0.063791  1
  Ru  Ru21  1  0.750000  0.256102  0.689245  1
  Ru  Ru22  1  0.250000  0.253641  0.187666  1
  Ru  Ru23  1  0.250000  0.736527  0.565207  1
