# generated using pymatgen
data_Dy2Tm(ThSn2)2
_symmetry_space_group_name_H-M   'P 1'
_cell_length_a   8.10122700
_cell_length_b   8.21285200
_cell_length_c   15.54376000
_cell_angle_alpha   90.00000000
_cell_angle_beta   90.00000000
_cell_angle_gamma   90.00000000
_symmetry_Int_Tables_number   1
_chemical_formula_structural   Dy2Tm(ThSn2)2
_chemical_formula_sum   'Dy8 Tm4 Th8 Sn16'
_cell_volume   1034.19130037
_cell_formula_units_Z   4
loop_
 _symmetry_equiv_pos_site_id
 _symmetry_equiv_pos_as_xyz
  1  'x, y, z'
loop_
 _atom_site_type_symbol
 _atom_site_label
 _atom_site_symmetry_multiplicity
 _atom_site_fract_x
 _atom_site_fract_y
 _atom_site_fract_z
 _atom_site_occupancy
  Dy  Dy0  1  0.361804  0.837404  0.876155  1
  Dy  Dy1  1  0.861804  0.662596  0.623845  1
  Dy  Dy2  1  0.638196  0.162596  0.376155  1
  Dy  Dy3  1  0.138196  0.337404  0.123845  1
  Dy  Dy4  1  0.638196  0.162596  0.123845  1
  Dy  Dy5  1  0.138196  0.337404  0.376155  1
  Dy  Dy6  1  0.361804  0.837404  0.623845  1
  Dy  Dy7  1  0.861804  0.662596  0.876155  1
  Tm  Tm8  1  0.191842  0.497841  0.750000  1
  Tm  Tm9  1  0.691842  0.002159  0.750000  1
  Tm  Tm10  1  0.808158  0.502159  0.250000  1
  Tm  Tm11  1  0.308158  0.997841  0.250000  1
  Th  Th12  1  0.518904  0.321382  0.903825  1
  Th  Th13  1  0.018904  0.178618  0.596175  1
  Th  Th14  1  0.481096  0.678618  0.403825  1
  Th  Th15  1  0.981096  0.821382  0.096175  1
  Th  Th16  1  0.481096  0.678618  0.096175  1
  Th  Th17  1  0.981096  0.821382  0.403825  1
  Th  Th18  1  0.518904  0.321382  0.596175  1
  Th  Th19  1  0.018904  0.178618  0.903825  1
  Sn  Sn20  1  0.298520  0.039582  0.042656  1
  Sn  Sn21  1  0.798520  0.460418  0.457344  1
  Sn  Sn22  1  0.701480  0.960418  0.542656  1
  Sn  Sn23  1  0.201480  0.539582  0.957344  1
  Sn  Sn24  1  0.701480  0.960418  0.957344  1
  Sn  Sn25  1  0.201480  0.539582  0.542656  1
  Sn  Sn26  1  0.298520  0.039582  0.457344  1
  Sn  Sn27  1  0.798520  0.460418  0.042656  1
  Sn  Sn28  1  0.557084  0.622464  0.750000  1
  Sn  Sn29  1  0.057084  0.877536  0.750000  1
  Sn  Sn30  1  0.442916  0.377536  0.250000  1
  Sn  Sn31  1  0.942916  0.122464  0.250000  1
  Sn  Sn32  1  0.326244  0.143843  0.750000  1
  Sn  Sn33  1  0.826244  0.356157  0.750000  1
  Sn  Sn34  1  0.673756  0.856157  0.250000  1
  Sn  Sn35  1  0.173756  0.643843  0.250000  1
