# generated using pymatgen
data_Nb5Re3
_symmetry_space_group_name_H-M   'P 1'
_cell_length_a   6.46842200
_cell_length_b   6.46842200
_cell_length_c   6.46842200
_cell_angle_alpha   90.00000000
_cell_angle_beta   90.00000000
_cell_angle_gamma   90.00000000
_symmetry_Int_Tables_number   1
_chemical_formula_structural   Nb5Re3
_chemical_formula_sum   'Nb10 Re6'
_cell_volume   270.64190183
_cell_formula_units_Z   2
loop_
 _symmetry_equiv_pos_site_id
 _symmetry_equiv_pos_as_xyz
  1  'x, y, z'
loop_
 _atom_site_type_symbol
 _atom_site_label
 _atom_site_symmetry_multiplicity
 _atom_site_fract_x
 _atom_site_fract_y
 _atom_site_fract_z
 _atom_site_occupancy
  Nb  Nb0  1  0.250322  0.250322  0.250322  1
  Nb  Nb1  1  0.749678  0.250322  0.250322  1
  Nb  Nb2  1  0.250322  0.749678  0.250322  1
  Nb  Nb3  1  0.749678  0.749678  0.250322  1
  Nb  Nb4  1  0.500000  0.500000  0.500000  1
  Nb  Nb5  1  0.250322  0.250322  0.749678  1
  Nb  Nb6  1  0.749678  0.250322  0.749678  1
  Nb  Nb7  1  0.250322  0.749678  0.749678  1
  Nb  Nb8  1  0.749678  0.749678  0.749678  1
  Nb  Nb9  1  0.000000  0.000000  0.000000  1
  Re  Re10  1  0.500000  0.000000  0.000000  1
  Re  Re11  1  0.000000  0.500000  0.000000  1
  Re  Re12  1  0.500000  0.500000  0.000000  1
  Re  Re13  1  0.000000  0.000000  0.500000  1
  Re  Re14  1  0.500000  0.000000  0.500000  1
  Re  Re15  1  0.000000  0.500000  0.500000  1
