# generated using pymatgen
data_Ce12Pu7Mo12WN48
_symmetry_space_group_name_H-M   'P 1'
_cell_length_a   11.34837331
_cell_length_b   11.45245073
_cell_length_c   11.45245105
_cell_angle_alpha   109.65458081
_cell_angle_beta   109.28723211
_cell_angle_gamma   109.28723214
_symmetry_Int_Tables_number   1
_chemical_formula_structural   Ce12Pu7Mo12WN48
_chemical_formula_sum   'Ce12 Pu7 Mo12 W1 N48'
_cell_volume   1148.39079320
_cell_formula_units_Z   1
loop_
 _symmetry_equiv_pos_site_id
 _symmetry_equiv_pos_as_xyz
  1  'x, y, z'
loop_
 _atom_site_type_symbol
 _atom_site_label
 _atom_site_symmetry_multiplicity
 _atom_site_fract_x
 _atom_site_fract_y
 _atom_site_fract_z
 _atom_site_occupancy
  Ce  Ce0  1  0.377332  0.746284  0.121380  1
  Ce  Ce1  1  0.255952  0.378620  0.124904  1
  Ce  Ce2  1  0.375709  0.124094  0.250962  1
  Ce  Ce3  1  0.868952  0.624904  0.246284  1
  Ce  Ce4  1  0.751615  0.126868  0.375906  1
  Ce  Ce5  1  0.124747  0.249038  0.373132  1
  Ce  Ce6  1  0.875253  0.750962  0.626869  1
  Ce  Ce7  1  0.248385  0.873132  0.624094  1
  Ce  Ce8  1  0.131048  0.375096  0.753716  1
  Ce  Ce9  1  0.624292  0.875906  0.749038  1
  Ce  Ce10  1  0.622668  0.253716  0.878620  1
  Ce  Ce11  1  0.744048  0.621381  0.875096  1
  Pu  Pu12  1  0.000000  0.000000  0.000000  1
  Pu  Pu13  1  0.500000  0.000000  0.000000  1
  Pu  Pu14  1  0.000000  0.500000  0.000000  1
  Pu  Pu15  1  0.000000  0.000000  0.500000  1
  Pu  Pu16  1  0.500000  0.000000  0.500000  1
  Pu  Pu17  1  0.000000  0.500000  0.500000  1
  Pu  Pu18  1  0.500000  0.500000  0.500000  1
  Mo  Mo19  1  0.874812  0.251154  0.125401  1
  Mo  Mo20  1  0.748023  0.871834  0.125999  1
  Mo  Mo21  1  0.622026  0.374001  0.245835  1
  Mo  Mo22  1  0.123657  0.874246  0.248844  1
  Mo  Mo23  1  0.250588  0.625402  0.374246  1
  Mo  Mo24  1  0.623811  0.745835  0.371834  1
  Mo  Mo25  1  0.376189  0.254165  0.628167  1
  Mo  Mo26  1  0.749412  0.374599  0.625754  1
  Mo  Mo27  1  0.876343  0.125754  0.751155  1
  Mo  Mo28  1  0.377975  0.625999  0.754165  1
  Mo  Mo29  1  0.251976  0.128166  0.874001  1
  Mo  Mo30  1  0.125188  0.748845  0.874599  1
  W  W31  1  0.500000  0.500000  0.000000  1
  N  N32  1  0.215814  0.130411  0.023579  1
  N  N33  1  0.310515  0.896964  0.026072  1
  N  N34  1  0.868642  0.398835  0.087850  1
  N  N35  1  0.693755  0.677662  0.079527  1
  N  N36  1  0.614228  0.420473  0.098135  1
  N  N37  1  0.969806  0.689014  0.101164  1
  N  N38  1  0.026589  0.216198  0.127735  1
  N  N39  1  0.602496  0.912776  0.127723  1
  N  N40  1  0.219207  0.587850  0.189014  1
  N  N41  1  0.483908  0.598136  0.177662  1
  N  N42  1  0.586520  0.189070  0.212558  1
  N  N43  1  0.129308  0.027208  0.216332  1
  N  N44  1  0.474774  0.372276  0.285053  1
  N  N45  1  0.310391  0.911537  0.283802  1
  N  N46  1  0.897450  0.023488  0.310930  1
  N  N47  1  0.912975  0.283668  0.310876  1
  N  N48  1  0.284441  0.473928  0.370891  1
  N  N49  1  0.585403  0.893167  0.369589  1
  N  N50  1  0.807765  0.523579  0.393167  1
  N  N51  1  0.086450  0.870891  0.396964  1
  N  N52  1  0.101146  0.627735  0.411537  1
  N  N53  1  0.810279  0.785053  0.412776  1
  N  N54  1  0.602101  0.189124  0.472793  1
  N  N55  1  0.373962  0.287441  0.476512  1
  N  N56  1  0.626037  0.712558  0.523488  1
  N  N57  1  0.397900  0.810876  0.527208  1
  N  N58  1  0.189720  0.214946  0.587224  1
  N  N59  1  0.898854  0.372265  0.588463  1
  N  N60  1  0.913550  0.129108  0.603035  1
  N  N61  1  0.192235  0.476422  0.606834  1
  N  N62  1  0.414597  0.106833  0.630411  1
  N  N63  1  0.715558  0.526072  0.629108  1
  N  N64  1  0.087025  0.716332  0.689124  1
  N  N65  1  0.102549  0.976511  0.689070  1
  N  N66  1  0.689609  0.088463  0.716198  1
  N  N67  1  0.525226  0.627723  0.714946  1
  N  N68  1  0.413480  0.810929  0.787441  1
  N  N69  1  0.870693  0.972793  0.783669  1
  N  N70  1  0.516093  0.401865  0.822338  1
  N  N71  1  0.780792  0.412150  0.810985  1
  N  N72  1  0.397503  0.087224  0.872276  1
  N  N73  1  0.973412  0.783803  0.872266  1
  N  N74  1  0.030193  0.310986  0.898835  1
  N  N75  1  0.385772  0.579527  0.901865  1
  N  N76  1  0.306245  0.322338  0.920473  1
  N  N77  1  0.131357  0.601164  0.912150  1
  N  N78  1  0.689485  0.103035  0.973927  1
  N  N79  1  0.784187  0.869590  0.976422  1
