# generated using pymatgen
data_Pr2ScAlPt2
_symmetry_space_group_name_H-M   'P 1'
_cell_length_a   4.53149400
_cell_length_b   7.50868200
_cell_length_c   8.10509200
_cell_angle_alpha   90.00000000
_cell_angle_beta   90.00000000
_cell_angle_gamma   90.00000000
_symmetry_Int_Tables_number   1
_chemical_formula_structural   Pr2ScAlPt2
_chemical_formula_sum   'Pr4 Sc2 Al2 Pt4'
_cell_volume   275.78019228
_cell_formula_units_Z   2
loop_
 _symmetry_equiv_pos_site_id
 _symmetry_equiv_pos_as_xyz
  1  'x, y, z'
loop_
 _atom_site_type_symbol
 _atom_site_label
 _atom_site_symmetry_multiplicity
 _atom_site_fract_x
 _atom_site_fract_y
 _atom_site_fract_z
 _atom_site_occupancy
  Pr  Pr0  1  0.250000  0.553429  0.823662  1
  Pr  Pr1  1  0.250000  0.023139  0.672708  1
  Pr  Pr2  1  0.750000  0.946571  0.323662  1
  Pr  Pr3  1  0.750000  0.476861  0.172708  1
  Sc  Sc4  1  0.250000  0.124625  0.065885  1
  Sc  Sc5  1  0.750000  0.375375  0.565885  1
  Al  Al6  1  0.250000  0.640130  0.433691  1
  Al  Al7  1  0.750000  0.859870  0.933691  1
  Pt  Pt8  1  0.250000  0.772141  0.118655  1
  Pt  Pt9  1  0.250000  0.285746  0.385400  1
  Pt  Pt10  1  0.750000  0.727859  0.618655  1
  Pt  Pt11  1  0.750000  0.214254  0.885400  1
