# generated using pymatgen
data_Tb3Gd4DyB20
_symmetry_space_group_name_H-M   'P 1'
_cell_length_a   7.13841160
_cell_length_b   7.12991945
_cell_length_c   7.16341119
_cell_angle_alpha   77.05023770
_cell_angle_beta   90.06778475
_cell_angle_gamma   89.98035129
_symmetry_Int_Tables_number   1
_chemical_formula_structural   Tb3Gd4DyB20
_chemical_formula_sum   'Tb3 Gd4 Dy1 B20'
_cell_volume   355.31813382
_cell_formula_units_Z   1
loop_
 _symmetry_equiv_pos_site_id
 _symmetry_equiv_pos_as_xyz
  1  'x, y, z'
loop_
 _atom_site_type_symbol
 _atom_site_label
 _atom_site_symmetry_multiplicity
 _atom_site_fract_x
 _atom_site_fract_y
 _atom_site_fract_z
 _atom_site_occupancy
  Tb  Tb0  1  0.314845  0.756837  0.253639  1
  Tb  Tb1  1  0.815114  0.243179  0.246264  1
  Tb  Tb2  1  0.685070  0.243408  0.746250  1
  Gd  Gd3  1  0.692062  0.768817  0.627455  1
  Gd  Gd4  1  0.192148  0.230880  0.872514  1
  Gd  Gd5  1  0.307952  0.231213  0.372619  1
  Gd  Gd6  1  0.807951  0.768862  0.127321  1
  Dy  Dy7  1  0.184877  0.755572  0.753696  1
  B  B8  1  0.501907  0.314541  0.040149  1
  B  B9  1  0.002096  0.685449  0.460031  1
  B  B10  1  0.497715  0.685610  0.959548  1
  B  B11  1  0.998194  0.314368  0.540420  1
  B  B12  1  0.489716  0.924970  0.926500  1
  B  B13  1  0.990597  0.074697  0.573842  1
  B  B14  1  0.509811  0.075088  0.073075  1
  B  B15  1  0.010156  0.924672  0.427297  1
  B  B16  1  0.326304  0.496569  0.039598  1
  B  B17  1  0.826485  0.503694  0.460046  1
  B  B18  1  0.673471  0.503756  0.960010  1
  B  B19  1  0.173606  0.496396  0.540105  1
  B  B20  1  0.910596  0.498951  0.910410  1
  B  B21  1  0.410595  0.501569  0.589435  1
  B  B22  1  0.089442  0.501734  0.089333  1
  B  B23  1  0.589375  0.498776  0.410566  1
  B  B24  1  0.961896  0.496768  0.674024  1
  B  B25  1  0.461473  0.503497  0.825914  1
  B  B26  1  0.038273  0.503379  0.326086  1
  B  B27  1  0.538273  0.496748  0.173853  1
