# generated using pymatgen
data_NaVSeO5
_symmetry_space_group_name_H-M   'P 1'
_cell_length_a   4.55330800
_cell_length_b   5.28764700
_cell_length_c   19.42170000
_cell_angle_alpha   90.00000000
_cell_angle_beta   90.00000000
_cell_angle_gamma   90.00000000
_symmetry_Int_Tables_number   1
_chemical_formula_structural   NaVSeO5
_chemical_formula_sum   'Na4 V4 Se4 O20'
_cell_volume   467.60239189
_cell_formula_units_Z   4
loop_
 _symmetry_equiv_pos_site_id
 _symmetry_equiv_pos_as_xyz
  1  'x, y, z'
loop_
 _atom_site_type_symbol
 _atom_site_label
 _atom_site_symmetry_multiplicity
 _atom_site_fract_x
 _atom_site_fract_y
 _atom_site_fract_z
 _atom_site_occupancy
  Na  Na0  1  0.704105  0.250000  0.485156  1
  Na  Na1  1  0.295895  0.250000  0.985156  1
  Na  Na2  1  0.295895  0.750000  0.514844  1
  Na  Na3  1  0.704105  0.750000  0.014844  1
  V  V4  1  0.603032  0.750000  0.689239  1
  V  V5  1  0.396968  0.250000  0.310761  1
  V  V6  1  0.396968  0.750000  0.189239  1
  V  V7  1  0.603032  0.250000  0.810761  1
  Se  Se8  1  0.259872  0.250000  0.619088  1
  Se  Se9  1  0.740128  0.250000  0.119088  1
  Se  Se10  1  0.259872  0.750000  0.880912  1
  Se  Se11  1  0.740128  0.750000  0.380912  1
  O  O12  1  0.494893  0.992215  0.113421  1
  O  O13  1  0.505107  0.007785  0.886579  1
  O  O14  1  0.831869  0.750000  0.465411  1
  O  O15  1  0.039475  0.250000  0.316056  1
  O  O16  1  0.168131  0.250000  0.534589  1
  O  O17  1  0.492123  0.500000  0.250000  1
  O  O18  1  0.507877  0.000000  0.750000  1
  O  O19  1  0.505107  0.507785  0.613421  1
  O  O20  1  0.505107  0.492215  0.886579  1
  O  O21  1  0.039475  0.750000  0.183944  1
  O  O22  1  0.494893  0.507785  0.113421  1
  O  O23  1  0.507877  0.500000  0.750000  1
  O  O24  1  0.494893  0.007785  0.386579  1
  O  O25  1  0.168131  0.750000  0.965411  1
  O  O26  1  0.492123  0.000000  0.250000  1
  O  O27  1  0.960525  0.750000  0.683944  1
  O  O28  1  0.494893  0.492215  0.386579  1
  O  O29  1  0.831869  0.250000  0.034589  1
  O  O30  1  0.505107  0.992215  0.613421  1
  O  O31  1  0.960525  0.250000  0.816056  1
