# generated using pymatgen
data_Na6GaAsP2
_symmetry_space_group_name_H-M   'P 1'
_cell_length_a   8.09541043
_cell_length_b   8.08547053
_cell_length_c   8.80727116
_cell_angle_alpha   81.20595327
_cell_angle_beta   107.62808039
_cell_angle_gamma   119.04232077
_symmetry_Int_Tables_number   1
_chemical_formula_structural   Na6GaAsP2
_chemical_formula_sum   'Na12 Ga2 As2 P4'
_cell_volume   480.31733215
_cell_formula_units_Z   2
loop_
 _symmetry_equiv_pos_site_id
 _symmetry_equiv_pos_as_xyz
  1  'x, y, z'
loop_
 _atom_site_type_symbol
 _atom_site_label
 _atom_site_symmetry_multiplicity
 _atom_site_fract_x
 _atom_site_fract_y
 _atom_site_fract_z
 _atom_site_occupancy
  Na  Na0  1  0.729068  0.121982  0.615175  1
  Na  Na1  1  0.260934  0.862049  0.393803  1
  Na  Na2  1  0.973258  0.820604  0.623555  1
  Na  Na3  1  0.018357  0.191069  0.393544  1
  Na  Na4  1  0.625990  0.451596  0.398318  1
  Na  Na5  1  0.391658  0.557328  0.594188  1
  Na  Na6  1  0.869364  0.487031  0.142301  1
  Na  Na7  1  0.117739  0.502593  0.845893  1
  Na  Na8  1  0.746294  0.090486  0.987844  1
  Na  Na9  1  0.244474  0.874719  0.003583  1
  Na  Na10  1  0.580131  0.635032  0.948026  1
  Na  Na11  1  0.246811  0.206723  0.108461  1
  Ga  Ga12  1  0.593291  0.834372  0.260251  1
  Ga  Ga13  1  0.412036  0.169460  0.748374  1
  As  As14  1  0.278592  0.544070  0.231527  1
  As  As15  1  0.724540  0.454582  0.765466  1
  P  P16  1  0.595299  0.124739  0.259461  1
  P  P17  1  0.388033  0.867567  0.739801  1
  P  P18  1  0.871765  0.825429  0.244434  1
  P  P19  1  0.141746  0.195310  0.757379  1
