# generated using pymatgen
data_Dy11YIn2Fe2Os
_symmetry_space_group_name_H-M   'P 1'
_cell_length_a   8.40588448
_cell_length_b   8.40219998
_cell_length_c   8.40588265
_cell_angle_alpha   108.61117796
_cell_angle_beta   108.78068911
_cell_angle_gamma   111.05146783
_symmetry_Int_Tables_number   1
_chemical_formula_structural   Dy11YIn2Fe2Os
_chemical_formula_sum   'Dy11 Y1 In2 Fe2 Os1'
_cell_volume   456.66035049
_cell_formula_units_Z   1
loop_
 _symmetry_equiv_pos_site_id
 _symmetry_equiv_pos_as_xyz
  1  'x, y, z'
loop_
 _atom_site_type_symbol
 _atom_site_label
 _atom_site_symmetry_multiplicity
 _atom_site_fract_x
 _atom_site_fract_y
 _atom_site_fract_z
 _atom_site_occupancy
  Dy  Dy0  1  0.307741  0.307960  0.616229  1
  Dy  Dy1  1  0.692087  0.692087  0.383577  1
  Dy  Dy2  1  0.308510  0.692087  0.000000  1
  Dy  Dy3  1  0.691731  0.307960  0.000220  1
  Dy  Dy4  1  0.428862  0.191433  0.237379  1
  Dy  Dy5  1  0.571240  0.808464  0.762742  1
  Dy  Dy6  1  0.954053  0.191433  0.762571  1
  Dy  Dy7  1  0.191427  0.953561  0.762135  1
  Dy  Dy8  1  0.045725  0.808464  0.237224  1
  Dy  Dy9  1  0.808610  0.046816  0.238206  1
  Dy  Dy10  1  0.191822  0.430121  0.238299  1
  Y  Y11  1  0.807973  0.568158  0.760186  1
  In  In12  1  0.500168  0.000272  0.500104  1
  In  In13  1  0.000238  0.500163  0.499924  1
  Fe  Fe14  1  0.387588  0.387408  0.999820  1
  Fe  Fe15  1  0.611879  0.612489  0.000611  1
  Os  Os16  1  0.000346  0.001121  0.000775  1
