# generated using pymatgen
data_Tb2DyAlAu5
_symmetry_space_group_name_H-M   'P 1'
_cell_length_a   8.50420600
_cell_length_b   8.50420744
_cell_length_c   13.52878300
_cell_angle_alpha   90.00000000
_cell_angle_beta   90.00000000
_cell_angle_gamma   128.49631066
_symmetry_Int_Tables_number   1
_chemical_formula_structural   Tb2DyAlAu5
_chemical_formula_sum   'Tb8 Dy4 Al4 Au20'
_cell_volume   765.76049993
_cell_formula_units_Z   4
loop_
 _symmetry_equiv_pos_site_id
 _symmetry_equiv_pos_as_xyz
  1  'x, y, z'
loop_
 _atom_site_type_symbol
 _atom_site_label
 _atom_site_symmetry_multiplicity
 _atom_site_fract_x
 _atom_site_fract_y
 _atom_site_fract_z
 _atom_site_occupancy
  Tb  Tb0  1  0.927663  0.072337  0.250000  1
  Tb  Tb1  1  0.072337  0.927663  0.750000  1
  Tb  Tb2  1  0.320510  0.679490  0.250000  1
  Tb  Tb3  1  0.679490  0.320510  0.750000  1
  Tb  Tb4  1  0.881530  0.118470  0.951346  1
  Tb  Tb5  1  0.118470  0.881530  0.048654  1
  Tb  Tb6  1  0.881530  0.118470  0.548654  1
  Tb  Tb7  1  0.118470  0.881530  0.451346  1
  Dy  Dy8  1  0.630698  0.369302  0.464772  1
  Dy  Dy9  1  0.369302  0.630698  0.535228  1
  Dy  Dy10  1  0.630698  0.369302  0.035228  1
  Dy  Dy11  1  0.369302  0.630698  0.964772  1
  Al  Al12  1  0.720211  0.279789  0.250000  1
  Al  Al13  1  0.279789  0.720211  0.750000  1
  Al  Al14  1  0.532720  0.467280  0.250000  1
  Al  Al15  1  0.467280  0.532720  0.750000  1
  Au  Au16  1  0.323327  0.069409  0.250000  1
  Au  Au17  1  0.069409  0.323327  0.750000  1
  Au  Au18  1  0.676673  0.930591  0.750000  1
  Au  Au19  1  0.930591  0.676673  0.250000  1
  Au  Au20  1  0.570375  0.004177  0.396720  1
  Au  Au21  1  0.004177  0.570375  0.603280  1
  Au  Au22  1  0.570375  0.004177  0.103280  1
  Au  Au23  1  0.004177  0.570375  0.896720  1
  Au  Au24  1  0.429625  0.995823  0.603280  1
  Au  Au25  1  0.995823  0.429625  0.396720  1
  Au  Au26  1  0.429625  0.995823  0.896720  1
  Au  Au27  1  0.995823  0.429625  0.103280  1
  Au  Au28  1  0.685661  0.740898  0.394848  1
  Au  Au29  1  0.740898  0.685661  0.605152  1
  Au  Au30  1  0.685661  0.740898  0.105152  1
  Au  Au31  1  0.740898  0.685661  0.894848  1
  Au  Au32  1  0.314339  0.259102  0.605152  1
  Au  Au33  1  0.259102  0.314339  0.394848  1
  Au  Au34  1  0.314339  0.259102  0.894848  1
  Au  Au35  1  0.259102  0.314339  0.105152  1
