# generated using pymatgen
data_LaTbAl3SiAu4
_symmetry_space_group_name_H-M   'P 1'
_cell_length_a   4.35419900
_cell_length_b   4.35419900
_cell_length_c   10.69012300
_cell_angle_alpha   90.00000000
_cell_angle_beta   90.00000000
_cell_angle_gamma   90.00000000
_symmetry_Int_Tables_number   1
_chemical_formula_structural   LaTbAl3SiAu4
_chemical_formula_sum   'La1 Tb1 Al3 Si1 Au4'
_cell_volume   202.67456504
_cell_formula_units_Z   1
loop_
 _symmetry_equiv_pos_site_id
 _symmetry_equiv_pos_as_xyz
  1  'x, y, z'
loop_
 _atom_site_type_symbol
 _atom_site_label
 _atom_site_symmetry_multiplicity
 _atom_site_fract_x
 _atom_site_fract_y
 _atom_site_fract_z
 _atom_site_occupancy
  La  La0  1  0.500000  0.000000  0.758562  1
  Tb  Tb1  1  0.000000  0.500000  0.242588  1
  Al  Al2  1  0.000000  0.000000  0.498103  1
  Al  Al3  1  0.500000  0.500000  0.498103  1
  Al  Al4  1  0.500000  0.000000  0.134674  1
  Si  Si5  1  0.000000  0.500000  0.866213  1
  Au  Au6  1  0.000000  0.000000  0.001225  1
  Au  Au7  1  0.500000  0.500000  0.001225  1
  Au  Au8  1  0.000000  0.500000  0.633009  1
  Au  Au9  1  0.500000  0.000000  0.366297  1
