# generated using pymatgen
data_Tb4HoTm5Sb6
_symmetry_space_group_name_H-M   'P 1'
_cell_length_a   8.93181674
_cell_length_b   8.92988109
_cell_length_c   6.26398300
_cell_angle_alpha   90.00000000
_cell_angle_beta   90.00000000
_cell_angle_gamma   119.99281979
_symmetry_Int_Tables_number   1
_chemical_formula_structural   Tb4HoTm5Sb6
_chemical_formula_sum   'Tb4 Ho1 Tm5 Sb6'
_cell_volume   432.71116329
_cell_formula_units_Z   1
loop_
 _symmetry_equiv_pos_site_id
 _symmetry_equiv_pos_as_xyz
  1  'x, y, z'
loop_
 _atom_site_type_symbol
 _atom_site_label
 _atom_site_symmetry_multiplicity
 _atom_site_fract_x
 _atom_site_fract_y
 _atom_site_fract_z
 _atom_site_occupancy
  Tb  Tb0  1  0.754059  0.753035  0.250000  1
  Tb  Tb1  1  0.754148  0.001213  0.750000  1
  Tb  Tb2  1  0.245852  0.247066  0.750000  1
  Tb  Tb3  1  0.245941  0.998977  0.250000  1
  Ho  Ho4  1  0.000000  0.751924  0.750000  1
  Tm  Tm5  1  0.000000  0.247851  0.250000  1
  Tm  Tm6  1  0.334001  0.666979  0.500020  1
  Tm  Tm7  1  0.665999  0.332975  0.999980  1
  Tm  Tm8  1  0.665999  0.332975  0.500020  1
  Tm  Tm9  1  0.334001  0.666979  0.999980  1
  Sb  Sb10  1  0.389033  0.999202  0.750000  1
  Sb  Sb11  1  0.388454  0.389763  0.250000  1
  Sb  Sb12  1  0.000000  0.607475  0.250000  1
  Sb  Sb13  1  0.000000  0.392109  0.750000  1
  Sb  Sb14  1  0.610967  0.610169  0.750000  1
  Sb  Sb15  1  0.611546  0.001308  0.250000  1
