# generated using pymatgen
data_Mn2TeMoO8
_symmetry_space_group_name_H-M   'P 1'
_cell_length_a   4.89274308
_cell_length_b   5.11834562
_cell_length_c   5.80532300
_cell_angle_alpha   90.00000000
_cell_angle_beta   90.00000000
_cell_angle_gamma   92.53584671
_symmetry_Int_Tables_number   1
_chemical_formula_structural   Mn2TeMoO8
_chemical_formula_sum   'Mn2 Te1 Mo1 O8'
_cell_volume   145.23888636
_cell_formula_units_Z   1
loop_
 _symmetry_equiv_pos_site_id
 _symmetry_equiv_pos_as_xyz
  1  'x, y, z'
loop_
 _atom_site_type_symbol
 _atom_site_label
 _atom_site_symmetry_multiplicity
 _atom_site_fract_x
 _atom_site_fract_y
 _atom_site_fract_z
 _atom_site_occupancy
  Mn  Mn0  1  0.000000  0.750000  0.837471  1
  Mn  Mn1  1  0.000000  0.250000  0.185439  1
  Te  Te2  1  0.500000  0.750000  0.333273  1
  Mo  Mo3  1  0.500000  0.250000  0.677865  1
  O  O4  1  0.711503  0.443671  0.395009  1
  O  O5  1  0.288497  0.056329  0.395009  1
  O  O6  1  0.288338  0.559766  0.599737  1
  O  O7  1  0.711661  0.940234  0.599737  1
  O  O8  1  0.757960  0.388902  0.868872  1
  O  O9  1  0.242040  0.111098  0.868872  1
  O  O10  1  0.248535  0.597470  0.119358  1
  O  O11  1  0.751465  0.902530  0.119358  1
