# generated using pymatgen
data_Sm8Fe(Pd3Pt5)3
_symmetry_space_group_name_H-M   'P 1'
_cell_length_a   8.42300500
_cell_length_b   8.40995400
_cell_length_c   8.45147900
_cell_angle_alpha   90.00000000
_cell_angle_beta   90.00000000
_cell_angle_gamma   90.00000000
_symmetry_Int_Tables_number   1
_chemical_formula_structural   Sm8Fe(Pd3Pt5)3
_chemical_formula_sum   'Sm8 Fe1 Pd9 Pt15'
_cell_volume   598.67813285
_cell_formula_units_Z   1
loop_
 _symmetry_equiv_pos_site_id
 _symmetry_equiv_pos_as_xyz
  1  'x, y, z'
loop_
 _atom_site_type_symbol
 _atom_site_label
 _atom_site_symmetry_multiplicity
 _atom_site_fract_x
 _atom_site_fract_y
 _atom_site_fract_z
 _atom_site_occupancy
  Sm  Sm0  1  0.250130  0.249976  0.250341  1
  Sm  Sm1  1  0.750092  0.749999  0.749698  1
  Sm  Sm2  1  0.750092  0.749999  0.250302  1
  Sm  Sm3  1  0.749870  0.249976  0.749659  1
  Sm  Sm4  1  0.250130  0.249976  0.749659  1
  Sm  Sm5  1  0.249908  0.749999  0.250302  1
  Sm  Sm6  1  0.249908  0.749999  0.749698  1
  Sm  Sm7  1  0.749870  0.249976  0.250341  1
  Fe  Fe8  1  0.000000  0.000274  0.000000  1
  Pd  Pd9  1  0.500000  0.000179  0.263085  1
  Pd  Pd10  1  0.262518  0.000428  0.500000  1
  Pd  Pd11  1  0.500000  0.000179  0.736915  1
  Pd  Pd12  1  0.737482  0.000428  0.500000  1
  Pd  Pd13  1  0.000000  0.500129  0.262133  1
  Pd  Pd14  1  0.000000  0.500129  0.737867  1
  Pd  Pd15  1  0.500000  0.745136  0.500000  1
  Pd  Pd16  1  0.500000  0.499963  0.255207  1
  Pd  Pd17  1  0.500000  0.499963  0.744793  1
  Pt  Pt18  1  0.262388  0.500114  0.000000  1
  Pt  Pt19  1  0.737612  0.500114  0.000000  1
  Pt  Pt20  1  0.000000  0.261115  0.500000  1
  Pt  Pt21  1  0.500000  0.262403  0.000000  1
  Pt  Pt22  1  0.000000  0.738265  0.500000  1
  Pt  Pt23  1  0.500000  0.737376  0.000000  1
  Pt  Pt24  1  0.253648  0.499552  0.500000  1
  Pt  Pt25  1  0.746352  0.499552  0.500000  1
  Pt  Pt26  1  0.500000  0.254575  0.500000  1
  Pt  Pt27  1  0.295980  0.999815  0.000000  1
  Pt  Pt28  1  0.704020  0.999815  0.000000  1
  Pt  Pt29  1  0.000000  0.295372  0.000000  1
  Pt  Pt30  1  0.000000  0.705648  0.000000  1
  Pt  Pt31  1  0.000000  0.999790  0.294137  1
  Pt  Pt32  1  0.000000  0.999790  0.705863  1
