# generated using pymatgen
data_LaNd3(PPt3)8
_symmetry_space_group_name_H-M   'P 1'
_cell_length_a   8.55987321
_cell_length_b   8.55987321
_cell_length_c   8.55987321
_cell_angle_alpha   90.01800418
_cell_angle_beta   89.98199582
_cell_angle_gamma   89.98199582
_symmetry_Int_Tables_number   1
_chemical_formula_structural   LaNd3(PPt3)8
_chemical_formula_sum   'La1 Nd3 P8 Pt24'
_cell_volume   627.19405271
_cell_formula_units_Z   1
loop_
 _symmetry_equiv_pos_site_id
 _symmetry_equiv_pos_as_xyz
  1  'x, y, z'
loop_
 _atom_site_type_symbol
 _atom_site_label
 _atom_site_symmetry_multiplicity
 _atom_site_fract_x
 _atom_site_fract_y
 _atom_site_fract_z
 _atom_site_occupancy
  La  La0  1  0.500000  0.500000  0.000000  1
  Nd  Nd1  1  0.500000  0.000000  0.500000  1
  Nd  Nd2  1  0.000000  0.500000  0.500000  1
  Nd  Nd3  1  0.000000  0.000000  0.000000  1
  P  P4  1  0.805438  0.305321  0.194810  1
  P  P5  1  0.194574  0.805426  0.305426  1
  P  P6  1  0.694679  0.694810  0.694562  1
  P  P7  1  0.305190  0.194562  0.805321  1
  P  P8  1  0.194562  0.694679  0.805190  1
  P  P9  1  0.805426  0.194574  0.694574  1
  P  P10  1  0.305321  0.305190  0.305438  1
  P  P11  1  0.694810  0.805438  0.194679  1
  Pt  Pt12  1  0.422625  0.843570  0.158926  1
  Pt  Pt13  1  0.577328  0.342709  0.342501  1
  Pt  Pt14  1  0.077362  0.156752  0.658482  1
  Pt  Pt15  1  0.922398  0.656846  0.841566  1
  Pt  Pt16  1  0.157499  0.422672  0.842709  1
  Pt  Pt17  1  0.341074  0.577375  0.343570  1
  Pt  Pt18  1  0.658434  0.077602  0.156846  1
  Pt  Pt19  1  0.841518  0.922638  0.656752  1
  Pt  Pt20  1  0.843248  0.158482  0.422638  1
  Pt  Pt21  1  0.343154  0.341566  0.577602  1
  Pt  Pt22  1  0.156430  0.658926  0.077375  1
  Pt  Pt23  1  0.657291  0.842501  0.922672  1
  Pt  Pt24  1  0.577375  0.156430  0.841074  1
  Pt  Pt25  1  0.422672  0.657291  0.657499  1
  Pt  Pt26  1  0.922638  0.843248  0.341518  1
  Pt  Pt27  1  0.077602  0.343154  0.158434  1
  Pt  Pt28  1  0.842501  0.577328  0.157291  1
  Pt  Pt29  1  0.658926  0.422625  0.656430  1
  Pt  Pt30  1  0.341566  0.922398  0.843154  1
  Pt  Pt31  1  0.158482  0.077362  0.343248  1
  Pt  Pt32  1  0.156752  0.841518  0.577362  1
  Pt  Pt33  1  0.656846  0.658434  0.422398  1
  Pt  Pt34  1  0.843570  0.341074  0.922625  1
  Pt  Pt35  1  0.342709  0.157499  0.077328  1
