# generated using pymatgen
data_PrTh10Mg(GePd)12
_symmetry_space_group_name_H-M   'P 1'
_cell_length_a   4.45027200
_cell_length_b   7.70170452
_cell_length_c   22.52166029
_cell_angle_alpha   90.30202117
_cell_angle_beta   90.00000000
_cell_angle_gamma   90.00000000
_symmetry_Int_Tables_number   1
_chemical_formula_structural   PrTh10Mg(GePd)12
_chemical_formula_sum   'Pr1 Th10 Mg1 Ge12 Pd12'
_cell_volume   771.91197445
_cell_formula_units_Z   1
loop_
 _symmetry_equiv_pos_site_id
 _symmetry_equiv_pos_as_xyz
  1  'x, y, z'
loop_
 _atom_site_type_symbol
 _atom_site_label
 _atom_site_symmetry_multiplicity
 _atom_site_fract_x
 _atom_site_fract_y
 _atom_site_fract_z
 _atom_site_occupancy
  Pr  Pr0  1  0.250000  0.794774  0.500387  1
  Th  Th1  1  0.250000  0.722160  0.338364  1
  Th  Th2  1  0.750000  0.272318  0.658765  1
  Th  Th3  1  0.750000  0.235150  0.169877  1
  Th  Th4  1  0.250000  0.760646  0.830475  1
  Th  Th5  1  0.250000  0.765051  0.168908  1
  Th  Th6  1  0.750000  0.234440  0.830784  1
  Th  Th7  1  0.750000  0.281512  0.339720  1
  Th  Th8  1  0.250000  0.716125  0.662678  1
  Th  Th9  1  0.250000  0.737089  0.000075  1
  Th  Th10  1  0.750000  0.263288  0.000046  1
  Mg  Mg11  1  0.750000  0.232783  0.499577  1
  Ge  Ge12  1  0.250000  0.086475  0.080846  1
  Ge  Ge13  1  0.750000  0.913308  0.918184  1
  Ge  Ge14  1  0.750000  0.586025  0.428361  1
  Ge  Ge15  1  0.250000  0.407900  0.566755  1
  Ge  Ge16  1  0.250000  0.085733  0.259997  1
  Ge  Ge17  1  0.750000  0.912314  0.741083  1
  Ge  Ge18  1  0.750000  0.589495  0.248335  1
  Ge  Ge19  1  0.250000  0.405111  0.749486  1
  Ge  Ge20  1  0.250000  0.092359  0.402730  1
  Ge  Ge21  1  0.750000  0.911490  0.596944  1
  Ge  Ge22  1  0.750000  0.584698  0.084000  1
  Ge  Ge23  1  0.250000  0.414935  0.916901  1
  Pd  Pd24  1  0.250000  0.418661  0.245693  1
  Pd  Pd25  1  0.750000  0.577896  0.754131  1
  Pd  Pd26  1  0.750000  0.921466  0.261768  1
  Pd  Pd27  1  0.250000  0.073809  0.740349  1
  Pd  Pd28  1  0.250000  0.412719  0.442284  1
  Pd  Pd29  1  0.750000  0.580336  0.563097  1
  Pd  Pd30  1  0.750000  0.919314  0.079622  1
  Pd  Pd31  1  0.250000  0.080934  0.920701  1
  Pd  Pd32  1  0.250000  0.418401  0.093905  1
  Pd  Pd33  1  0.750000  0.580339  0.906773  1
  Pd  Pd34  1  0.750000  0.927769  0.412057  1
  Pd  Pd35  1  0.250000  0.083178  0.586342  1
