# generated using pymatgen
data_HoLu2In3RhAu2
_symmetry_space_group_name_H-M   'P 1'
_cell_length_a   7.70026100
_cell_length_b   7.72715324
_cell_length_c   3.83633500
_cell_angle_alpha   90.00000000
_cell_angle_beta   90.00000000
_cell_angle_gamma   119.88492883
_symmetry_Int_Tables_number   1
_chemical_formula_structural   HoLu2In3RhAu2
_chemical_formula_sum   'Ho1 Lu2 In3 Rh1 Au2'
_cell_volume   197.91309876
_cell_formula_units_Z   1
loop_
 _symmetry_equiv_pos_site_id
 _symmetry_equiv_pos_as_xyz
  1  'x, y, z'
loop_
 _atom_site_type_symbol
 _atom_site_label
 _atom_site_symmetry_multiplicity
 _atom_site_fract_x
 _atom_site_fract_y
 _atom_site_fract_z
 _atom_site_occupancy
  Ho  Ho0  1  0.398350  0.000000  0.500000  1
  Lu  Lu1  1  0.999764  0.397079  0.500000  1
  Lu  Lu2  1  0.602684  0.602921  0.500000  1
  In  In3  1  0.742305  0.000000  0.000000  1
  In  In4  1  0.999027  0.741312  0.000000  1
  In  In5  1  0.257715  0.258688  0.000000  1
  Rh  Rh6  1  0.998932  0.000000  0.500000  1
  Au  Au7  1  0.332488  0.663753  0.000000  1
  Au  Au8  1  0.668736  0.336247  0.000000  1
