# generated using pymatgen
data_K9Rb7(TiSe4)4
_symmetry_space_group_name_H-M   'P 1'
_cell_length_a   8.42149377
_cell_length_b   10.23808200
_cell_length_c   15.45480121
_cell_angle_alpha   90.00000000
_cell_angle_beta   89.89438579
_cell_angle_gamma   90.00000000
_symmetry_Int_Tables_number   1
_chemical_formula_structural   K9Rb7(TiSe4)4
_chemical_formula_sum   'K9 Rb7 Ti4 Se16'
_cell_volume   1332.50982843
_cell_formula_units_Z   1
loop_
 _symmetry_equiv_pos_site_id
 _symmetry_equiv_pos_as_xyz
  1  'x, y, z'
loop_
 _atom_site_type_symbol
 _atom_site_label
 _atom_site_symmetry_multiplicity
 _atom_site_fract_x
 _atom_site_fract_y
 _atom_site_fract_z
 _atom_site_occupancy
  K  K0  1  0.975060  0.750000  0.432307  1
  K  K1  1  0.840462  0.051683  0.272104  1
  K  K2  1  0.341348  0.947406  0.230277  1
  K  K3  1  0.159481  0.552009  0.728046  1
  K  K4  1  0.659441  0.449024  0.769659  1
  K  K5  1  0.159481  0.947991  0.728046  1
  K  K6  1  0.659441  0.050976  0.769659  1
  K  K7  1  0.840462  0.448317  0.272104  1
  K  K8  1  0.341348  0.552594  0.230277  1
  Rb  Rb9  1  0.000390  0.000063  0.000334  1
  Rb  Rb10  1  0.498807  0.998898  0.499298  1
  Rb  Rb11  1  0.000390  0.499937  0.000334  1
  Rb  Rb12  1  0.498807  0.501102  0.499298  1
  Rb  Rb13  1  0.485491  0.250000  0.069599  1
  Rb  Rb14  1  0.014794  0.250000  0.568858  1
  Rb  Rb15  1  0.515517  0.750000  0.931379  1
  Ti  Ti16  1  0.763313  0.750000  0.670664  1
  Ti  Ti17  1  0.235771  0.250000  0.328578  1
  Ti  Ti18  1  0.740632  0.750000  0.173704  1
  Ti  Ti19  1  0.261985  0.250000  0.827177  1
  Se  Se20  1  0.974932  0.250000  0.821710  1
  Se  Se21  1  0.522792  0.250000  0.323191  1
  Se  Se22  1  0.476454  0.750000  0.677284  1
  Se  Se23  1  0.027360  0.750000  0.177603  1
  Se  Se24  1  0.648913  0.558721  0.099759  1
  Se  Se25  1  0.146075  0.443575  0.401902  1
  Se  Se26  1  0.352159  0.058114  0.901136  1
  Se  Se27  1  0.852747  0.941573  0.596043  1
  Se  Se28  1  0.352159  0.441886  0.901136  1
  Se  Se29  1  0.852747  0.558427  0.596043  1
  Se  Se30  1  0.648913  0.941279  0.099759  1
  Se  Se31  1  0.146075  0.056425  0.401902  1
  Se  Se32  1  0.632320  0.750000  0.320195  1
  Se  Se33  1  0.126813  0.250000  0.182775  1
  Se  Se34  1  0.373141  0.250000  0.681568  1
  Se  Se35  1  0.873979  0.750000  0.816291  1
