# generated using pymatgen
data_Dy8Ti10NbSi16Mo
_symmetry_space_group_name_H-M   'P 1'
_cell_length_a   7.03404203
_cell_length_b   7.03404121
_cell_length_c   12.93860187
_cell_angle_alpha   89.96997118
_cell_angle_beta   90.03002841
_cell_angle_gamma   90.03777084
_symmetry_Int_Tables_number   1
_chemical_formula_structural   Dy8Ti10NbSi16Mo
_chemical_formula_sum   'Dy8 Ti10 Nb1 Si16 Mo1'
_cell_volume   640.17248382
_cell_formula_units_Z   1
loop_
 _symmetry_equiv_pos_site_id
 _symmetry_equiv_pos_as_xyz
  1  'x, y, z'
loop_
 _atom_site_type_symbol
 _atom_site_label
 _atom_site_symmetry_multiplicity
 _atom_site_fract_x
 _atom_site_fract_y
 _atom_site_fract_z
 _atom_site_occupancy
  Dy  Dy0  1  0.997293  0.659393  0.032620  1
  Dy  Dy1  1  0.001384  0.341424  0.532460  1
  Dy  Dy2  1  0.659393  0.997293  0.967380  1
  Dy  Dy3  1  0.160130  0.502351  0.782937  1
  Dy  Dy4  1  0.839699  0.499135  0.284659  1
  Dy  Dy5  1  0.502351  0.160130  0.217063  1
  Dy  Dy6  1  0.499135  0.839699  0.715341  1
  Dy  Dy7  1  0.341424  0.001384  0.467540  1
  Ti  Ti8  1  0.347869  0.508365  0.375632  1
  Ti  Ti9  1  0.846037  0.990324  0.377230  1
  Ti  Ti10  1  0.008911  0.153141  0.123536  1
  Ti  Ti11  1  0.990324  0.846037  0.622770  1
  Ti  Ti12  1  0.508365  0.347869  0.624368  1
  Ti  Ti13  1  0.153141  0.008911  0.876464  1
  Ti  Ti14  1  0.825910  0.173030  0.749440  1
  Ti  Ti15  1  0.173030  0.825910  0.250560  1
  Ti  Ti16  1  0.491929  0.651756  0.125602  1
  Ti  Ti17  1  0.651756  0.491929  0.874398  1
  Nb  Nb18  1  0.326638  0.326638  0.000000  1
  Si  Si19  1  0.046776  0.709510  0.435185  1
  Si  Si20  1  0.951966  0.291461  0.934744  1
  Si  Si21  1  0.709510  0.046776  0.564815  1
  Si  Si22  1  0.207604  0.454263  0.186228  1
  Si  Si23  1  0.791247  0.547214  0.684319  1
  Si  Si24  1  0.454263  0.207604  0.813772  1
  Si  Si25  1  0.547214  0.791247  0.315681  1
  Si  Si26  1  0.291461  0.951966  0.065256  1
  Si  Si27  1  0.797863  0.870025  0.184952  1
  Si  Si28  1  0.298939  0.629172  0.565250  1
  Si  Si29  1  0.703296  0.370162  0.065477  1
  Si  Si30  1  0.629172  0.298939  0.434750  1
  Si  Si31  1  0.370162  0.703296  0.934523  1
  Si  Si32  1  0.129556  0.202248  0.315640  1
  Si  Si33  1  0.202248  0.129556  0.684360  1
  Si  Si34  1  0.870025  0.797863  0.815048  1
  Mo  Mo35  1  0.673976  0.673976  0.500000  1
