# generated using pymatgen
data_Nd17Ho2CdIr12
_symmetry_space_group_name_H-M   'P 1'
_cell_length_a   11.22216000
_cell_length_b   11.22216000
_cell_length_c   6.45351700
_cell_angle_alpha   90.00000000
_cell_angle_beta   90.00000000
_cell_angle_gamma   90.00000000
_symmetry_Int_Tables_number   1
_chemical_formula_structural   Nd17Ho2CdIr12
_chemical_formula_sum   'Nd17 Ho2 Cd1 Ir12'
_cell_volume   812.73576416
_cell_formula_units_Z   1
loop_
 _symmetry_equiv_pos_site_id
 _symmetry_equiv_pos_as_xyz
  1  'x, y, z'
loop_
 _atom_site_type_symbol
 _atom_site_label
 _atom_site_symmetry_multiplicity
 _atom_site_fract_x
 _atom_site_fract_y
 _atom_site_fract_z
 _atom_site_occupancy
  Nd  Nd0  1  0.085434  0.280683  0.115390  1
  Nd  Nd1  1  0.790351  0.413058  0.117562  1
  Nd  Nd2  1  0.209649  0.586942  0.117562  1
  Nd  Nd3  1  0.914566  0.719317  0.115390  1
  Nd  Nd4  1  0.410819  0.789952  0.385490  1
  Nd  Nd5  1  0.589181  0.210048  0.385490  1
  Nd  Nd6  1  0.291049  0.088913  0.383508  1
  Nd  Nd7  1  0.708951  0.911087  0.383508  1
  Nd  Nd8  1  0.413058  0.209649  0.882438  1
  Nd  Nd9  1  0.719317  0.085434  0.884610  1
  Nd  Nd10  1  0.280683  0.914566  0.884610  1
  Nd  Nd11  1  0.586942  0.790351  0.882438  1
  Nd  Nd12  1  0.088913  0.708951  0.616492  1
  Nd  Nd13  1  0.911087  0.291049  0.616492  1
  Nd  Nd14  1  0.210048  0.410819  0.614510  1
  Nd  Nd15  1  0.789952  0.589181  0.614510  1
  Nd  Nd16  1  0.000000  0.000000  0.500000  1
  Ho  Ho17  1  0.500000  0.500000  0.000000  1
  Ho  Ho18  1  0.500000  0.500000  0.500000  1
  Cd  Cd19  1  0.000000  0.000000  0.000000  1
  Ir  Ir20  1  0.156148  0.844906  0.255931  1
  Ir  Ir21  1  0.350024  0.350811  0.247238  1
  Ir  Ir22  1  0.649976  0.649189  0.247238  1
  Ir  Ir23  1  0.843852  0.155094  0.255931  1
  Ir  Ir24  1  0.350811  0.649976  0.752762  1
  Ir  Ir25  1  0.155094  0.156148  0.744069  1
  Ir  Ir26  1  0.844906  0.843852  0.744069  1
  Ir  Ir27  1  0.649189  0.350024  0.752762  1
  Ir  Ir28  1  0.000000  0.500000  0.376523  1
  Ir  Ir29  1  0.500000  0.000000  0.116828  1
  Ir  Ir30  1  0.500000  0.000000  0.623477  1
  Ir  Ir31  1  0.000000  0.500000  0.883172  1
