# generated using pymatgen
data_Tb2MgB2RuRh4
_symmetry_space_group_name_H-M   'P 1'
_cell_length_a   9.71916800
_cell_length_b   9.71916800
_cell_length_c   3.14230600
_cell_angle_alpha   90.00000000
_cell_angle_beta   90.00000000
_cell_angle_gamma   90.00000000
_symmetry_Int_Tables_number   1
_chemical_formula_structural   Tb2MgB2RuRh4
_chemical_formula_sum   'Tb4 Mg2 B4 Ru2 Rh8'
_cell_volume   296.82922146
_cell_formula_units_Z   2
loop_
 _symmetry_equiv_pos_site_id
 _symmetry_equiv_pos_as_xyz
  1  'x, y, z'
loop_
 _atom_site_type_symbol
 _atom_site_label
 _atom_site_symmetry_multiplicity
 _atom_site_fract_x
 _atom_site_fract_y
 _atom_site_fract_z
 _atom_site_occupancy
  Tb  Tb0  1  0.675754  0.175754  0.000000  1
  Tb  Tb1  1  0.324246  0.824246  0.000000  1
  Tb  Tb2  1  0.175754  0.324246  0.000000  1
  Tb  Tb3  1  0.824246  0.675754  0.000000  1
  Mg  Mg4  1  0.000000  0.000000  0.000000  1
  Mg  Mg5  1  0.500000  0.500000  0.000000  1
  B  B6  1  0.119969  0.619969  0.000000  1
  B  B7  1  0.880031  0.380031  0.000000  1
  B  B8  1  0.619969  0.880031  0.000000  1
  B  B9  1  0.380031  0.119969  0.000000  1
  Ru  Ru10  1  0.500000  0.000000  0.500000  1
  Ru  Ru11  1  0.000000  0.500000  0.500000  1
  Rh  Rh12  1  0.223836  0.070387  0.500000  1
  Rh  Rh13  1  0.776164  0.929613  0.500000  1
  Rh  Rh14  1  0.070387  0.776164  0.500000  1
  Rh  Rh15  1  0.723836  0.429613  0.500000  1
  Rh  Rh16  1  0.929613  0.223836  0.500000  1
  Rh  Rh17  1  0.276164  0.570387  0.500000  1
  Rh  Rh18  1  0.570387  0.723836  0.500000  1
  Rh  Rh19  1  0.429613  0.276164  0.500000  1
