# generated using pymatgen
data_Tb2Dy10Tc3Ir
_symmetry_space_group_name_H-M   'P 1'
_cell_length_a   6.29319801
_cell_length_b   7.41035331
_cell_length_c   9.15695700
_cell_angle_alpha   90.00000000
_cell_angle_beta   90.00000000
_cell_angle_gamma   89.98592574
_symmetry_Int_Tables_number   1
_chemical_formula_structural   Tb2Dy10Tc3Ir
_chemical_formula_sum   'Tb2 Dy10 Tc3 Ir1'
_cell_volume   427.03303486
_cell_formula_units_Z   1
loop_
 _symmetry_equiv_pos_site_id
 _symmetry_equiv_pos_as_xyz
  1  'x, y, z'
loop_
 _atom_site_type_symbol
 _atom_site_label
 _atom_site_symmetry_multiplicity
 _atom_site_fract_x
 _atom_site_fract_y
 _atom_site_fract_z
 _atom_site_occupancy
  Tb  Tb0  1  0.874373  0.542012  0.250000  1
  Tb  Tb1  1  0.625038  0.039376  0.250000  1
  Dy  Dy2  1  0.333325  0.675872  0.064671  1
  Dy  Dy3  1  0.162739  0.175742  0.436512  1
  Dy  Dy4  1  0.664658  0.323064  0.561931  1
  Dy  Dy5  1  0.835874  0.825254  0.937685  1
  Dy  Dy6  1  0.664658  0.323064  0.938069  1
  Dy  Dy7  1  0.835874  0.825254  0.562315  1
  Dy  Dy8  1  0.333325  0.675872  0.435329  1
  Dy  Dy9  1  0.162739  0.175742  0.063488  1
  Dy  Dy10  1  0.131615  0.457379  0.750000  1
  Dy  Dy11  1  0.370739  0.959125  0.750000  1
  Tc  Tc12  1  0.039460  0.883878  0.250000  1
  Tc  Tc13  1  0.462826  0.386576  0.250000  1
  Tc  Tc14  1  0.960013  0.115966  0.750000  1
  Ir  Ir15  1  0.542745  0.615824  0.750000  1
