# generated using pymatgen
data_Nd10Ir5Ru
_symmetry_space_group_name_H-M   'P 1'
_cell_length_a   11.25812900
_cell_length_b   11.25812900
_cell_length_c   6.59452700
_cell_angle_alpha   90.00000000
_cell_angle_beta   90.00000000
_cell_angle_gamma   90.00000000
_symmetry_Int_Tables_number   1
_chemical_formula_structural   Nd10Ir5Ru
_chemical_formula_sum   'Nd20 Ir10 Ru2'
_cell_volume   835.82641468
_cell_formula_units_Z   2
loop_
 _symmetry_equiv_pos_site_id
 _symmetry_equiv_pos_as_xyz
  1  'x, y, z'
loop_
 _atom_site_type_symbol
 _atom_site_label
 _atom_site_symmetry_multiplicity
 _atom_site_fract_x
 _atom_site_fract_y
 _atom_site_fract_z
 _atom_site_occupancy
  Nd  Nd0  1  0.088663  0.292353  0.117997  1
  Nd  Nd1  1  0.792353  0.411337  0.117997  1
  Nd  Nd2  1  0.207647  0.588663  0.117997  1
  Nd  Nd3  1  0.911337  0.707647  0.117997  1
  Nd  Nd4  1  0.411337  0.792353  0.382003  1
  Nd  Nd5  1  0.588663  0.207647  0.382003  1
  Nd  Nd6  1  0.292353  0.088663  0.382003  1
  Nd  Nd7  1  0.707647  0.911337  0.382003  1
  Nd  Nd8  1  0.411024  0.207459  0.885252  1
  Nd  Nd9  1  0.707459  0.088976  0.885252  1
  Nd  Nd10  1  0.292541  0.911024  0.885252  1
  Nd  Nd11  1  0.588976  0.792541  0.885252  1
  Nd  Nd12  1  0.088976  0.707459  0.614748  1
  Nd  Nd13  1  0.911024  0.292541  0.614748  1
  Nd  Nd14  1  0.207459  0.411024  0.614748  1
  Nd  Nd15  1  0.792541  0.588976  0.614748  1
  Nd  Nd16  1  0.000000  0.000000  0.999848  1
  Nd  Nd17  1  0.500000  0.500000  0.999848  1
  Nd  Nd18  1  0.500000  0.500000  0.500152  1
  Nd  Nd19  1  0.000000  0.000000  0.500152  1
  Ir  Ir20  1  0.153582  0.846418  0.250000  1
  Ir  Ir21  1  0.346418  0.346418  0.250000  1
  Ir  Ir22  1  0.653582  0.653582  0.250000  1
  Ir  Ir23  1  0.846418  0.153582  0.250000  1
  Ir  Ir24  1  0.346767  0.653233  0.750000  1
  Ir  Ir25  1  0.153233  0.153233  0.750000  1
  Ir  Ir26  1  0.846767  0.846767  0.750000  1
  Ir  Ir27  1  0.653233  0.346767  0.750000  1
  Ir  Ir28  1  0.500000  0.000000  0.621131  1
  Ir  Ir29  1  0.000000  0.500000  0.878869  1
  Ru  Ru30  1  0.000000  0.500000  0.380168  1
  Ru  Ru31  1  0.500000  0.000000  0.119832  1
