# generated using pymatgen
data_Zr2CuBRh5
_symmetry_space_group_name_H-M   'P 1'
_cell_length_a   5.68048336
_cell_length_b   5.68048282
_cell_length_c   5.77557100
_cell_angle_alpha   59.44470689
_cell_angle_beta   59.44471013
_cell_angle_gamma   61.11059851
_symmetry_Int_Tables_number   1
_chemical_formula_structural   Zr2CuBRh5
_chemical_formula_sum   'Zr2 Cu1 B1 Rh5'
_cell_volume   131.70519514
_cell_formula_units_Z   1
loop_
 _symmetry_equiv_pos_site_id
 _symmetry_equiv_pos_as_xyz
  1  'x, y, z'
loop_
 _atom_site_type_symbol
 _atom_site_label
 _atom_site_symmetry_multiplicity
 _atom_site_fract_x
 _atom_site_fract_y
 _atom_site_fract_z
 _atom_site_occupancy
  Zr  Zr0  1  0.250803  0.250803  0.249197  1
  Zr  Zr1  1  0.750803  0.750803  0.749197  1
  Cu  Cu2  1  0.763556  0.763556  0.236443  1
  B  B3  1  0.500321  0.500321  0.499679  1
  Rh  Rh4  1  0.753781  0.243621  0.246218  1
  Rh  Rh5  1  0.243621  0.753781  0.246218  1
  Rh  Rh6  1  0.239711  0.239711  0.760288  1
  Rh  Rh7  1  0.753781  0.243621  0.756378  1
  Rh  Rh8  1  0.243621  0.753781  0.756378  1
