# generated using pymatgen
data_La8Ho11ScSn16
_symmetry_space_group_name_H-M   'P 1'
_cell_length_a   8.17515300
_cell_length_b   8.34156207
_cell_length_c   15.72228100
_cell_angle_alpha   90.00000000
_cell_angle_beta   90.00000000
_cell_angle_gamma   90.00750750
_symmetry_Int_Tables_number   1
_chemical_formula_structural   La8Ho11ScSn16
_chemical_formula_sum   'La8 Ho11 Sc1 Sn16'
_cell_volume   1072.15808645
_cell_formula_units_Z   1
loop_
 _symmetry_equiv_pos_site_id
 _symmetry_equiv_pos_as_xyz
  1  'x, y, z'
loop_
 _atom_site_type_symbol
 _atom_site_label
 _atom_site_symmetry_multiplicity
 _atom_site_fract_x
 _atom_site_fract_y
 _atom_site_fract_z
 _atom_site_occupancy
  La  La0  1  0.516586  0.322658  0.903274  1
  La  La1  1  0.016971  0.178437  0.596509  1
  La  La2  1  0.483972  0.677934  0.404490  1
  La  La3  1  0.984049  0.821863  0.095704  1
  La  La4  1  0.483972  0.677934  0.095510  1
  La  La5  1  0.984049  0.821863  0.404296  1
  La  La6  1  0.516586  0.322658  0.596726  1
  La  La7  1  0.016971  0.178437  0.903491  1
  Ho  Ho8  1  0.358293  0.837045  0.875474  1
  Ho  Ho9  1  0.859589  0.661831  0.624698  1
  Ho  Ho10  1  0.641093  0.163052  0.376412  1
  Ho  Ho11  1  0.140751  0.337215  0.123178  1
  Ho  Ho12  1  0.641093  0.163052  0.123588  1
  Ho  Ho13  1  0.140751  0.337215  0.376822  1
  Ho  Ho14  1  0.358293  0.837045  0.624526  1
  Ho  Ho15  1  0.859589  0.661831  0.875302  1
  Ho  Ho16  1  0.691627  0.995980  0.750000  1
  Ho  Ho17  1  0.807641  0.496065  0.250000  1
  Ho  Ho18  1  0.307722  0.004349  0.250000  1
  Sc  Sc19  1  0.191258  0.505025  0.750000  1
  Sn  Sn20  1  0.306469  0.041503  0.042581  1
  Sn  Sn21  1  0.806304  0.458562  0.457565  1
  Sn  Sn22  1  0.693938  0.958424  0.543321  1
  Sn  Sn23  1  0.194349  0.540625  0.954574  1
  Sn  Sn24  1  0.693938  0.958424  0.956679  1
  Sn  Sn25  1  0.194349  0.540625  0.545426  1
  Sn  Sn26  1  0.306469  0.041503  0.457419  1
  Sn  Sn27  1  0.806304  0.458562  0.042435  1
  Sn  Sn28  1  0.551360  0.622081  0.750000  1
  Sn  Sn29  1  0.058239  0.871958  0.750000  1
  Sn  Sn30  1  0.442448  0.375400  0.250000  1
  Sn  Sn31  1  0.942753  0.125146  0.250000  1
  Sn  Sn32  1  0.322203  0.147601  0.750000  1
  Sn  Sn33  1  0.827574  0.358445  0.750000  1
  Sn  Sn34  1  0.676086  0.857254  0.250000  1
  Sn  Sn35  1  0.176363  0.642400  0.250000  1
