# generated using pymatgen
data_Li3Y3(WO6)2
_symmetry_space_group_name_H-M   'P 1'
_cell_length_a   10.76576098
_cell_length_b   10.76576098
_cell_length_c   10.76576098
_cell_angle_alpha   109.47122063
_cell_angle_beta   109.47122063
_cell_angle_gamma   109.47122063
_symmetry_Int_Tables_number   1
_chemical_formula_structural   Li3Y3(WO6)2
_chemical_formula_sum   'Li12 Y12 W8 O48'
_cell_volume   960.53304325
_cell_formula_units_Z   4
loop_
 _symmetry_equiv_pos_site_id
 _symmetry_equiv_pos_as_xyz
  1  'x, y, z'
loop_
 _atom_site_type_symbol
 _atom_site_label
 _atom_site_symmetry_multiplicity
 _atom_site_fract_x
 _atom_site_fract_y
 _atom_site_fract_z
 _atom_site_occupancy
  Li  Li0  1  0.250000  0.625000  0.375000  1
  Li  Li1  1  0.750000  0.375000  0.625000  1
  Li  Li2  1  0.750000  0.875000  0.125000  1
  Li  Li3  1  0.375000  0.250000  0.625000  1
  Li  Li4  1  0.625000  0.750000  0.375000  1
  Li  Li5  1  0.250000  0.125000  0.875000  1
  Li  Li6  1  0.125000  0.750000  0.875000  1
  Li  Li7  1  0.875000  0.250000  0.125000  1
  Li  Li8  1  0.625000  0.375000  0.250000  1
  Li  Li9  1  0.375000  0.625000  0.750000  1
  Li  Li10  1  0.875000  0.125000  0.750000  1
  Li  Li11  1  0.125000  0.875000  0.250000  1
  Y  Y12  1  0.250000  0.375000  0.125000  1
  Y  Y13  1  0.750000  0.625000  0.875000  1
  Y  Y14  1  0.750000  0.125000  0.375000  1
  Y  Y15  1  0.125000  0.250000  0.375000  1
  Y  Y16  1  0.375000  0.750000  0.125000  1
  Y  Y17  1  0.250000  0.875000  0.625000  1
  Y  Y18  1  0.875000  0.750000  0.625000  1
  Y  Y19  1  0.625000  0.250000  0.875000  1
  Y  Y20  1  0.375000  0.125000  0.250000  1
  Y  Y21  1  0.625000  0.875000  0.750000  1
  Y  Y22  1  0.125000  0.375000  0.750000  1
  Y  Y23  1  0.875000  0.625000  0.250000  1
  W  W24  1  0.000000  0.000000  0.000000  1
  W  W25  1  0.500000  0.000000  0.500000  1
  W  W26  1  0.000000  0.500000  0.500000  1
  W  W27  1  0.500000  0.000000  0.000000  1
  W  W28  1  0.500000  0.500000  0.000000  1
  W  W29  1  0.500000  0.500000  0.500000  1
  W  W30  1  0.000000  0.000000  0.500000  1
  W  W31  1  0.000000  0.500000  0.000000  1
  O  O32  1  0.473412  0.380720  0.300570  1
  O  O33  1  0.526588  0.619280  0.699430  1
  O  O34  1  0.580149  0.172841  0.199430  1
  O  O35  1  0.919851  0.119280  0.592692  1
  O  O36  1  0.300570  0.473412  0.380720  1
  O  O37  1  0.327159  0.919851  0.300570  1
  O  O38  1  0.419851  0.827159  0.800570  1
  O  O39  1  0.080149  0.880720  0.407308  1
  O  O40  1  0.699430  0.526588  0.619280  1
  O  O41  1  0.672841  0.080149  0.699430  1
  O  O42  1  0.026588  0.327159  0.907308  1
  O  O43  1  0.199430  0.580149  0.172841  1
  O  O44  1  0.119280  0.026588  0.199430  1
  O  O45  1  0.973412  0.672841  0.092692  1
  O  O46  1  0.800570  0.419851  0.827159  1
  O  O47  1  0.880720  0.973412  0.800570  1
  O  O48  1  0.592692  0.919851  0.119280  1
  O  O49  1  0.172841  0.473412  0.592692  1
  O  O50  1  0.407308  0.080149  0.880720  1
  O  O51  1  0.827159  0.526588  0.407308  1
  O  O52  1  0.907308  0.026588  0.327159  1
  O  O53  1  0.380720  0.580149  0.907308  1
  O  O54  1  0.092692  0.973412  0.672841  1
  O  O55  1  0.619280  0.419851  0.092692  1
  O  O56  1  0.380720  0.300570  0.473412  1
  O  O57  1  0.580149  0.907308  0.380720  1
  O  O58  1  0.619280  0.699430  0.526588  1
  O  O59  1  0.419851  0.092692  0.619280  1
  O  O60  1  0.119280  0.592692  0.919851  1
  O  O61  1  0.026588  0.199430  0.119280  1
  O  O62  1  0.880720  0.407308  0.080149  1
  O  O63  1  0.973412  0.800570  0.880720  1
  O  O64  1  0.327159  0.907308  0.026588  1
  O  O65  1  0.919851  0.300570  0.327159  1
  O  O66  1  0.672841  0.092692  0.973412  1
  O  O67  1  0.080149  0.699430  0.672841  1
  O  O68  1  0.172841  0.199430  0.580149  1
  O  O69  1  0.473412  0.592692  0.172841  1
  O  O70  1  0.827159  0.800570  0.419851  1
  O  O71  1  0.526588  0.407308  0.827159  1
  O  O72  1  0.300570  0.327159  0.919851  1
  O  O73  1  0.699430  0.672841  0.080149  1
  O  O74  1  0.199430  0.119280  0.026588  1
  O  O75  1  0.800570  0.880720  0.973412  1
  O  O76  1  0.907308  0.380720  0.580149  1
  O  O77  1  0.092692  0.619280  0.419851  1
  O  O78  1  0.592692  0.172841  0.473412  1
  O  O79  1  0.407308  0.827159  0.526588  1
