# generated using pymatgen
data_Zr4MnCo(P2Pd)2
_symmetry_space_group_name_H-M   'P 1'
_cell_length_a   3.76794900
_cell_length_b   6.49181937
_cell_length_c   7.39370000
_cell_angle_alpha   88.26844139
_cell_angle_beta   90.00000000
_cell_angle_gamma   90.00000000
_symmetry_Int_Tables_number   1
_chemical_formula_structural   Zr4MnCo(P2Pd)2
_chemical_formula_sum   'Zr4 Mn1 Co1 P4 Pd2'
_cell_volume   180.77355989
_cell_formula_units_Z   1
loop_
 _symmetry_equiv_pos_site_id
 _symmetry_equiv_pos_as_xyz
  1  'x, y, z'
loop_
 _atom_site_type_symbol
 _atom_site_label
 _atom_site_symmetry_multiplicity
 _atom_site_fract_x
 _atom_site_fract_y
 _atom_site_fract_z
 _atom_site_occupancy
  Zr  Zr0  1  0.250000  0.525519  0.689190  1
  Zr  Zr1  1  0.750000  0.474051  0.311048  1
  Zr  Zr2  1  0.250000  0.022116  0.827810  1
  Zr  Zr3  1  0.750000  0.976982  0.172460  1
  Mn  Mn4  1  0.750000  0.366284  0.945060  1
  Co  Co5  1  0.250000  0.636668  0.056864  1
  P  P6  1  0.250000  0.279769  0.095957  1
  P  P7  1  0.750000  0.716912  0.899831  1
  P  P8  1  0.250000  0.751186  0.355999  1
  P  P9  1  0.750000  0.248539  0.645200  1
  Pd  Pd10  1  0.750000  0.850682  0.564272  1
  Pd  Pd11  1  0.250000  0.151292  0.436312  1
