# generated using pymatgen
data_Nd2Dy4NbCo17P12
_symmetry_space_group_name_H-M   'P 1'
_cell_length_a   3.72732800
_cell_length_b   10.61790000
_cell_length_c   12.33154700
_cell_angle_alpha   90.00000000
_cell_angle_beta   90.00000000
_cell_angle_gamma   90.00000000
_symmetry_Int_Tables_number   1
_chemical_formula_structural   Nd2Dy4NbCo17P12
_chemical_formula_sum   'Nd2 Dy4 Nb1 Co17 P12'
_cell_volume   488.03818701
_cell_formula_units_Z   1
loop_
 _symmetry_equiv_pos_site_id
 _symmetry_equiv_pos_as_xyz
  1  'x, y, z'
loop_
 _atom_site_type_symbol
 _atom_site_label
 _atom_site_symmetry_multiplicity
 _atom_site_fract_x
 _atom_site_fract_y
 _atom_site_fract_z
 _atom_site_occupancy
  Nd  Nd0  1  0.000000  0.500000  0.527683  1
  Nd  Nd1  1  0.500000  0.000000  0.477357  1
  Dy  Dy2  1  0.500000  0.819361  0.206142  1
  Dy  Dy3  1  0.500000  0.180639  0.206142  1
  Dy  Dy4  1  0.000000  0.683197  0.796769  1
  Dy  Dy5  1  0.000000  0.316803  0.796769  1
  Nb  Nb6  1  0.500000  0.500000  0.152605  1
  Co  Co7  1  0.000000  0.000000  0.840360  1
  Co  Co8  1  0.500000  0.500000  0.705231  1
  Co  Co9  1  0.000000  0.000000  0.293255  1
  Co  Co10  1  0.000000  0.500000  0.984280  1
  Co  Co11  1  0.500000  0.000000  0.013819  1
  Co  Co12  1  0.500000  0.329491  0.989633  1
  Co  Co13  1  0.500000  0.670509  0.989633  1
  Co  Co14  1  0.000000  0.163850  0.003855  1
  Co  Co15  1  0.000000  0.836150  0.003855  1
  Co  Co16  1  0.500000  0.294974  0.431655  1
  Co  Co17  1  0.500000  0.705026  0.431655  1
  Co  Co18  1  0.000000  0.203124  0.570957  1
  Co  Co19  1  0.000000  0.796876  0.570957  1
  Co  Co20  1  0.500000  0.880243  0.710694  1
  Co  Co21  1  0.500000  0.119757  0.710694  1
  Co  Co22  1  0.000000  0.622412  0.292144  1
  Co  Co23  1  0.000000  0.377588  0.292144  1
  P  P24  1  0.500000  0.500000  0.882145  1
  P  P25  1  0.000000  0.000000  0.115725  1
  P  P26  1  0.500000  0.500000  0.351725  1
  P  P27  1  0.000000  0.000000  0.659633  1
  P  P28  1  0.500000  0.306413  0.618733  1
  P  P29  1  0.500000  0.693587  0.618733  1
  P  P30  1  0.000000  0.191554  0.384449  1
  P  P31  1  0.000000  0.808446  0.384449  1
  P  P32  1  0.500000  0.850924  0.891114  1
  P  P33  1  0.500000  0.149076  0.891114  1
  P  P34  1  0.000000  0.660860  0.101946  1
  P  P35  1  0.000000  0.339140  0.101946  1
