# generated using pymatgen
data_K4IrO5
_symmetry_space_group_name_H-M   'P 1'
_cell_length_a   6.42047313
_cell_length_b   6.44934267
_cell_length_c   9.43422752
_cell_angle_alpha   101.27647069
_cell_angle_beta   109.89401911
_cell_angle_gamma   103.31665812
_symmetry_Int_Tables_number   1
_chemical_formula_structural   K4IrO5
_chemical_formula_sum   'K8 Ir2 O10'
_cell_volume   341.06880471
_cell_formula_units_Z   2
loop_
 _symmetry_equiv_pos_site_id
 _symmetry_equiv_pos_as_xyz
  1  'x, y, z'
loop_
 _atom_site_type_symbol
 _atom_site_label
 _atom_site_symmetry_multiplicity
 _atom_site_fract_x
 _atom_site_fract_y
 _atom_site_fract_z
 _atom_site_occupancy
  K  K0  1  0.583000  0.803024  0.094557  1
  K  K1  1  0.209146  0.600678  0.713571  1
  K  K2  1  0.597015  0.298292  0.597808  1
  K  K3  1  0.402985  0.701708  0.402192  1
  K  K4  1  0.417000  0.196976  0.905443  1
  K  K5  1  0.000000  0.000000  0.500000  1
  K  K6  1  0.000000  0.500000  0.000000  1
  K  K7  1  0.790854  0.399322  0.286429  1
  Ir  Ir8  1  0.182037  0.095677  0.188258  1
  Ir  Ir9  1  0.817963  0.904323  0.811742  1
  O  O10  1  0.347979  0.364407  0.154222  1
  O  O11  1  0.652021  0.635593  0.845778  1
  O  O12  1  0.168946  0.283532  0.372097  1
  O  O13  1  0.831054  0.716468  0.627903  1
  O  O14  1  0.975272  0.169654  0.769138  1
  O  O15  1  0.024728  0.830346  0.230862  1
  O  O16  1  0.860280  0.099498  0.032530  1
  O  O17  1  0.139720  0.900502  0.967470  1
  O  O18  1  0.518035  0.939554  0.702402  1
  O  O19  1  0.481965  0.060446  0.297598  1
