# generated using pymatgen
data_K3Ba8Li(ReN4)4
_symmetry_space_group_name_H-M   'P 1'
_cell_length_a   11.09200998
_cell_length_b   10.66763339
_cell_length_c   8.40330207
_cell_angle_alpha   69.97905046
_cell_angle_beta   64.63806986
_cell_angle_gamma   44.22387491
_symmetry_Int_Tables_number   1
_chemical_formula_structural   K3Ba8Li(ReN4)4
_chemical_formula_sum   'K3 Ba8 Li1 Re4 N16'
_cell_volume   625.67567882
_cell_formula_units_Z   1
loop_
 _symmetry_equiv_pos_site_id
 _symmetry_equiv_pos_as_xyz
  1  'x, y, z'
loop_
 _atom_site_type_symbol
 _atom_site_label
 _atom_site_symmetry_multiplicity
 _atom_site_fract_x
 _atom_site_fract_y
 _atom_site_fract_z
 _atom_site_occupancy
  K  K0  1  0.342887  0.342887  0.657113  1
  K  K1  1  0.903376  0.903376  0.596624  1
  K  K2  1  0.643296  0.643296  0.356704  1
  Ba  Ba3  1  0.568611  0.899845  0.948716  1
  Ba  Ba4  1  0.899845  0.568611  0.582828  1
  Ba  Ba5  1  0.303362  0.676984  0.697387  1
  Ba  Ba6  1  0.120636  0.120636  0.879364  1
  Ba  Ba7  1  0.141054  0.141054  0.358946  1
  Ba  Ba8  1  0.366199  0.366199  0.133801  1
  Ba  Ba9  1  0.676984  0.303362  0.322267  1
  Ba  Ba10  1  0.885567  0.885567  0.114433  1
  Li  Li11  1  0.569798  0.569798  0.930202  1
  Re  Re12  1  0.481009  0.021729  0.477968  1
  Re  Re13  1  0.021729  0.481009  0.019295  1
  Re  Re14  1  0.765021  0.247100  0.775866  1
  Re  Re15  1  0.247100  0.765021  0.212013  1
  N  N16  1  0.050270  0.635588  0.867802  1
  N  N17  1  0.697078  0.275417  0.013440  1
  N  N18  1  0.635588  0.050270  0.446341  1
  N  N19  1  0.509429  0.850543  0.656582  1
  N  N20  1  0.271119  0.597310  0.391601  1
  N  N21  1  0.767585  0.421657  0.644426  1
  N  N22  1  0.994993  0.026019  0.716726  1
  N  N23  1  0.526502  0.969902  0.260149  1
  N  N24  1  0.421657  0.767585  0.166332  1
  N  N25  1  0.969902  0.526502  0.243448  1
  N  N26  1  0.275417  0.697078  0.014065  1
  N  N27  1  0.850543  0.509429  0.983446  1
  N  N28  1  0.229113  0.241004  0.990747  1
  N  N29  1  0.597310  0.271119  0.739971  1
  N  N30  1  0.241004  0.229113  0.539136  1
  N  N31  1  0.026019  0.994993  0.262263  1
