# generated using pymatgen
data_U2TaCo6Sn
_symmetry_space_group_name_H-M   'P 1'
_cell_length_a   5.19639900
_cell_length_b   7.19801200
_cell_length_c   8.03877900
_cell_angle_alpha   90.00000000
_cell_angle_beta   90.00000000
_cell_angle_gamma   90.00000000
_symmetry_Int_Tables_number   1
_chemical_formula_structural   U2TaCo6Sn
_chemical_formula_sum   'U4 Ta2 Co12 Sn2'
_cell_volume   300.68041860
_cell_formula_units_Z   2
loop_
 _symmetry_equiv_pos_site_id
 _symmetry_equiv_pos_as_xyz
  1  'x, y, z'
loop_
 _atom_site_type_symbol
 _atom_site_label
 _atom_site_symmetry_multiplicity
 _atom_site_fract_x
 _atom_site_fract_y
 _atom_site_fract_z
 _atom_site_occupancy
  U  U0  1  0.750000  0.882743  0.845723  1
  U  U1  1  0.750000  0.382743  0.654277  1
  U  U2  1  0.250000  0.120699  0.148207  1
  U  U3  1  0.250000  0.620699  0.351793  1
  Ta  Ta4  1  0.750000  0.938130  0.402718  1
  Ta  Ta5  1  0.750000  0.438130  0.097282  1
  Co  Co6  1  0.750000  0.579154  0.388758  1
  Co  Co7  1  0.750000  0.079154  0.111242  1
  Co  Co8  1  0.250000  0.425414  0.602071  1
  Co  Co9  1  0.250000  0.925414  0.897929  1
  Co  Co10  1  0.993584  0.266629  0.357360  1
  Co  Co11  1  0.506416  0.766629  0.142640  1
  Co  Co12  1  0.502338  0.732163  0.629505  1
  Co  Co13  1  0.997662  0.232163  0.870495  1
  Co  Co14  1  0.997662  0.732163  0.629505  1
  Co  Co15  1  0.502338  0.232163  0.870495  1
  Co  Co16  1  0.506416  0.266629  0.357360  1
  Co  Co17  1  0.993584  0.766629  0.142640  1
  Sn  Sn18  1  0.250000  0.056275  0.587797  1
  Sn  Sn19  1  0.250000  0.556275  0.912203  1
