# generated using pymatgen
data_TbDy3Hg2
_symmetry_space_group_name_H-M   'P 1'
_cell_length_a   7.05440600
_cell_length_b   5.11485300
_cell_length_c   9.29069358
_cell_angle_alpha   89.99977676
_cell_angle_beta   90.02217210
_cell_angle_gamma   90.00123338
_symmetry_Int_Tables_number   1
_chemical_formula_structural   TbDy3Hg2
_chemical_formula_sum   'Tb2 Dy6 Hg4'
_cell_volume   335.22910076
_cell_formula_units_Z   2
loop_
 _symmetry_equiv_pos_site_id
 _symmetry_equiv_pos_as_xyz
  1  'x, y, z'
loop_
 _atom_site_type_symbol
 _atom_site_label
 _atom_site_symmetry_multiplicity
 _atom_site_fract_x
 _atom_site_fract_y
 _atom_site_fract_z
 _atom_site_occupancy
  Tb  Tb0  1  0.483441  0.750000  0.805545  1
  Tb  Tb1  1  0.169651  0.250000  0.925232  1
  Dy  Dy2  1  0.830316  0.750000  0.074877  1
  Dy  Dy3  1  0.516670  0.250001  0.194443  1
  Dy  Dy4  1  0.016595  0.250001  0.305623  1
  Dy  Dy5  1  0.330370  0.750000  0.425133  1
  Dy  Dy6  1  0.669668  0.250000  0.574733  1
  Dy  Dy7  1  0.983303  0.749999  0.694377  1
  Hg  Hg8  1  0.263819  0.749999  0.101875  1
  Hg  Hg9  1  0.763818  0.750000  0.398272  1
  Hg  Hg10  1  0.236177  0.250000  0.601602  1
  Hg  Hg11  1  0.736175  0.250000  0.898289  1
