# generated using pymatgen
data_Y12TlCdSi4
_symmetry_space_group_name_H-M   'P 1'
_cell_length_a   8.51786142
_cell_length_b   8.51786251
_cell_length_c   8.51786300
_cell_angle_alpha   111.68139514
_cell_angle_beta   112.02154806
_cell_angle_gamma   104.80913074
_symmetry_Int_Tables_number   1
_chemical_formula_structural   Y12TlCdSi4
_chemical_formula_sum   'Y12 Tl1 Cd1 Si4'
_cell_volume   473.39874470
_cell_formula_units_Z   1
loop_
 _symmetry_equiv_pos_site_id
 _symmetry_equiv_pos_as_xyz
  1  'x, y, z'
loop_
 _atom_site_type_symbol
 _atom_site_label
 _atom_site_symmetry_multiplicity
 _atom_site_fract_x
 _atom_site_fract_y
 _atom_site_fract_z
 _atom_site_occupancy
  Y  Y0  1  0.442754  0.241412  0.201343  1
  Y  Y1  1  0.557246  0.758588  0.798657  1
  Y  Y2  1  0.040068  0.241412  0.798657  1
  Y  Y3  1  0.959932  0.758588  0.201343  1
  Y  Y4  1  0.183435  0.276040  0.459477  1
  Y  Y5  1  0.816565  0.723960  0.540523  1
  Y  Y6  1  0.183435  0.723960  0.907396  1
  Y  Y7  1  0.816565  0.276040  0.092604  1
  Y  Y8  1  0.319469  0.618693  0.299224  1
  Y  Y9  1  0.680531  0.381307  0.700776  1
  Y  Y10  1  0.319469  0.020247  0.700776  1
  Y  Y11  1  0.680531  0.979753  0.299224  1
  Tl  Tl12  1  0.500000  0.500000  0.000000  1
  Cd  Cd13  1  0.000000  0.000000  0.000000  1
  Si  Si14  1  0.360707  0.000000  0.360707  1
  Si  Si15  1  0.639293  0.000000  0.639293  1
  Si  Si16  1  0.115907  0.615907  0.500000  1
  Si  Si17  1  0.884093  0.384093  0.500000  1
