# generated using pymatgen
data_Tb5Dy(MnB7)2
_symmetry_space_group_name_H-M   'P 1'
_cell_length_a   8.10166803
_cell_length_b   8.10166830
_cell_length_c   9.32461200
_cell_angle_alpha   90.00000000
_cell_angle_beta   90.00000000
_cell_angle_gamma   155.42008902
_symmetry_Int_Tables_number   1
_chemical_formula_structural   Tb5Dy(MnB7)2
_chemical_formula_sum   'Tb5 Dy1 Mn2 B14'
_cell_volume   254.58528548
_cell_formula_units_Z   1
loop_
 _symmetry_equiv_pos_site_id
 _symmetry_equiv_pos_as_xyz
  1  'x, y, z'
loop_
 _atom_site_type_symbol
 _atom_site_label
 _atom_site_symmetry_multiplicity
 _atom_site_fract_x
 _atom_site_fract_y
 _atom_site_fract_z
 _atom_site_occupancy
  Tb  Tb0  1  0.896115  0.103885  0.439167  1
  Tb  Tb1  1  0.103938  0.896062  0.561283  1
  Tb  Tb2  1  0.896115  0.103885  0.060833  1
  Tb  Tb3  1  0.103938  0.896062  0.938717  1
  Tb  Tb4  1  0.239943  0.760057  0.250000  1
  Dy  Dy5  1  0.760618  0.239382  0.750000  1
  Mn  Mn6  1  0.053338  0.946662  0.250000  1
  Mn  Mn7  1  0.946573  0.053427  0.750000  1
  B  B8  1  0.727438  0.272562  0.468850  1
  B  B9  1  0.272480  0.727520  0.532514  1
  B  B10  1  0.727438  0.272562  0.031150  1
  B  B11  1  0.272480  0.727520  0.967486  1
  B  B12  1  0.629720  0.370280  0.153152  1
  B  B13  1  0.370194  0.629806  0.846670  1
  B  B14  1  0.629720  0.370280  0.346848  1
  B  B15  1  0.370194  0.629806  0.653330  1
  B  B16  1  0.522315  0.477685  0.098515  1
  B  B17  1  0.477636  0.522364  0.901517  1
  B  B18  1  0.522315  0.477685  0.401485  1
  B  B19  1  0.477636  0.522364  0.598483  1
  B  B20  1  0.461632  0.538368  0.250000  1
  B  B21  1  0.538222  0.461778  0.750000  1
