# generated using pymatgen
data_Pa(TaC)4
_symmetry_space_group_name_H-M   'P 1'
_cell_length_a   6.31739146
_cell_length_b   6.31736990
_cell_length_c   6.31743291
_cell_angle_alpha   93.79316669
_cell_angle_beta   93.79422401
_cell_angle_gamma   150.18911417
_symmetry_Int_Tables_number   1
_chemical_formula_structural   Pa(TaC)4
_chemical_formula_sum   'Pa1 Ta4 C4'
_cell_volume   121.12332513
_cell_formula_units_Z   1
loop_
 _symmetry_equiv_pos_site_id
 _symmetry_equiv_pos_as_xyz
  1  'x, y, z'
loop_
 _atom_site_type_symbol
 _atom_site_label
 _atom_site_symmetry_multiplicity
 _atom_site_fract_x
 _atom_site_fract_y
 _atom_site_fract_z
 _atom_site_occupancy
  Pa  Pa0  1  0.000000  0.000000  0.000000  1
  Ta  Ta1  1  0.829750  0.371025  0.200775  1
  Ta  Ta2  1  0.628972  0.829746  0.458724  1
  Ta  Ta3  1  0.371027  0.170253  0.541276  1
  Ta  Ta4  1  0.170249  0.628974  0.799225  1
  C  C5  1  0.401522  0.716803  0.118325  1
  C  C6  1  0.716802  0.598476  0.315281  1
  C  C7  1  0.283197  0.401523  0.684719  1
  C  C8  1  0.598477  0.283196  0.881675  1
