# generated using pymatgen
data_Nd16Cd3Ni3HgOs
_symmetry_space_group_name_H-M   'P 1'
_cell_length_a   9.92252072
_cell_length_b   9.92252012
_cell_length_c   9.92252080
_cell_angle_alpha   59.53910050
_cell_angle_beta   59.53910340
_cell_angle_gamma   59.53910464
_symmetry_Int_Tables_number   1
_chemical_formula_structural   Nd16Cd3Ni3HgOs
_chemical_formula_sum   'Nd16 Cd3 Ni3 Hg1 Os1'
_cell_volume   683.55867293
_cell_formula_units_Z   1
loop_
 _symmetry_equiv_pos_site_id
 _symmetry_equiv_pos_as_xyz
  1  'x, y, z'
loop_
 _atom_site_type_symbol
 _atom_site_label
 _atom_site_symmetry_multiplicity
 _atom_site_fract_x
 _atom_site_fract_y
 _atom_site_fract_z
 _atom_site_occupancy
  Nd  Nd0  1  0.597756  0.597756  0.597756  1
  Nd  Nd1  1  0.600454  0.600454  0.204422  1
  Nd  Nd2  1  0.600454  0.204422  0.600454  1
  Nd  Nd3  1  0.204422  0.600454  0.600454  1
  Nd  Nd4  1  0.061304  0.438051  0.438051  1
  Nd  Nd5  1  0.438366  0.058002  0.058002  1
  Nd  Nd6  1  0.438051  0.061304  0.438051  1
  Nd  Nd7  1  0.058002  0.438366  0.058002  1
  Nd  Nd8  1  0.438051  0.438051  0.061304  1
  Nd  Nd9  1  0.058002  0.058002  0.438366  1
  Nd  Nd10  1  0.187476  0.814422  0.814422  1
  Nd  Nd11  1  0.803086  0.190339  0.190339  1
  Nd  Nd12  1  0.814422  0.187476  0.814422  1
  Nd  Nd13  1  0.190339  0.803086  0.190339  1
  Nd  Nd14  1  0.814422  0.814422  0.187476  1
  Nd  Nd15  1  0.190339  0.190339  0.803086  1
  Cd  Cd16  1  0.828784  0.828784  0.509458  1
  Cd  Cd17  1  0.828784  0.509458  0.828784  1
  Cd  Cd18  1  0.509458  0.828784  0.828784  1
  Ni  Ni19  1  0.393196  0.393196  0.825091  1
  Ni  Ni20  1  0.393196  0.825091  0.393196  1
  Ni  Ni21  1  0.825091  0.393196  0.393196  1
  Hg  Hg22  1  0.833823  0.833823  0.833823  1
  Os  Os23  1  0.392724  0.392724  0.392724  1
