# generated using pymatgen
data_Th4Co(Sn2Rh)5
_symmetry_space_group_name_H-M   'P 1'
_cell_length_a   13.55945307
_cell_length_b   13.55945439
_cell_length_c   7.37792985
_cell_angle_alpha   89.90017718
_cell_angle_beta   90.09982250
_cell_angle_gamma   160.87813175
_symmetry_Int_Tables_number   1
_chemical_formula_structural   Th4Co(Sn2Rh)5
_chemical_formula_sum   'Th4 Co1 Sn10 Rh5'
_cell_volume   444.35868099
_cell_formula_units_Z   1
loop_
 _symmetry_equiv_pos_site_id
 _symmetry_equiv_pos_as_xyz
  1  'x, y, z'
loop_
 _atom_site_type_symbol
 _atom_site_label
 _atom_site_symmetry_multiplicity
 _atom_site_fract_x
 _atom_site_fract_y
 _atom_site_fract_z
 _atom_site_occupancy
  Th  Th0  1  0.471471  0.528529  0.227693  1
  Th  Th1  1  0.172417  0.827583  0.257413  1
  Th  Th2  1  0.525475  0.474525  0.733924  1
  Th  Th3  1  0.828575  0.171425  0.761774  1
  Co  Co4  1  0.397080  0.602920  0.986055  1
  Sn  Sn5  1  0.704975  0.295025  0.553266  1
  Sn  Sn6  1  0.596684  0.403316  0.111928  1
  Sn  Sn7  1  0.048145  0.951855  0.392038  1
  Sn  Sn8  1  0.949251  0.050749  0.896009  1
  Sn  Sn9  1  0.711014  0.288986  0.977174  1
  Sn  Sn10  1  0.289448  0.710552  0.477508  1
  Sn  Sn11  1  0.298339  0.701661  0.052894  1
  Sn  Sn12  1  0.877249  0.122751  0.230425  1
  Sn  Sn13  1  0.122891  0.877109  0.734509  1
  Sn  Sn14  1  0.402863  0.597137  0.617468  1
  Rh  Rh15  1  0.776539  0.223461  0.268057  1
  Rh  Rh16  1  0.224478  0.775522  0.773404  1
  Rh  Rh17  1  0.050445  0.949555  0.011050  1
  Rh  Rh18  1  0.604244  0.395756  0.487754  1
  Rh  Rh19  1  0.948418  0.051582  0.513461  1
