# generated using pymatgen
data_PrEu3Co(Si2Pt)5
_symmetry_space_group_name_H-M   'P 1'
_cell_length_a   8.25634889
_cell_length_b   8.26327197
_cell_length_c   8.26286125
_cell_angle_alpha   137.71150787
_cell_angle_beta   105.03776973
_cell_angle_gamma   90.06724819
_symmetry_Int_Tables_number   1
_chemical_formula_structural   PrEu3Co(Si2Pt)5
_chemical_formula_sum   'Pr1 Eu3 Co1 Si10 Pt5'
_cell_volume   349.77418675
_cell_formula_units_Z   1
loop_
 _symmetry_equiv_pos_site_id
 _symmetry_equiv_pos_as_xyz
  1  'x, y, z'
loop_
 _atom_site_type_symbol
 _atom_site_label
 _atom_site_symmetry_multiplicity
 _atom_site_fract_x
 _atom_site_fract_y
 _atom_site_fract_z
 _atom_site_occupancy
  Pr  Pr0  1  0.102865  0.872662  0.236288  1
  Eu  Eu1  1  0.896016  0.133565  0.770045  1
  Eu  Eu2  1  0.636325  0.365923  0.263668  1
  Eu  Eu3  1  0.364059  0.628018  0.729790  1
  Co  Co4  1  0.498655  0.751092  0.250468  1
  Si  Si5  1  0.999451  0.748826  0.747768  1
  Si  Si6  1  0.999380  0.251823  0.250688  1
  Si  Si7  1  0.274480  0.023527  0.751448  1
  Si  Si8  1  0.725815  0.475619  0.748862  1
  Si  Si9  1  0.723996  0.974336  0.249930  1
  Si  Si10  1  0.276361  0.525094  0.250555  1
  Si  Si11  1  0.750503  0.620064  0.162336  1
  Si  Si12  1  0.249829  0.410933  0.869396  1
  Si  Si13  1  0.459184  0.090077  0.337586  1
  Si  Si14  1  0.542345  0.879206  0.631208  1
  Pt  Pt15  1  0.499373  0.248767  0.748314  1
  Pt  Pt16  1  0.023964  0.637899  0.387944  1
  Pt  Pt17  1  0.976832  0.363974  0.614170  1
  Pt  Pt18  1  0.248817  0.135616  0.112290  1
  Pt  Pt19  1  0.751749  0.862978  0.887243  1
