# generated using pymatgen
data_Ba2AlBiSe5
_symmetry_space_group_name_H-M   'P 1'
_cell_length_a   9.49940000
_cell_length_b   9.28093700
_cell_length_c   12.85419600
_cell_angle_alpha   90.00000000
_cell_angle_beta   90.00000000
_cell_angle_gamma   90.00000000
_symmetry_Int_Tables_number   1
_chemical_formula_structural   Ba2AlBiSe5
_chemical_formula_sum   'Ba8 Al4 Bi4 Se20'
_cell_volume   1133.26876160
_cell_formula_units_Z   4
loop_
 _symmetry_equiv_pos_site_id
 _symmetry_equiv_pos_as_xyz
  1  'x, y, z'
loop_
 _atom_site_type_symbol
 _atom_site_label
 _atom_site_symmetry_multiplicity
 _atom_site_fract_x
 _atom_site_fract_y
 _atom_site_fract_z
 _atom_site_occupancy
  Ba  Ba0  1  0.622260  0.506669  0.325408  1
  Ba  Ba1  1  0.877740  0.993331  0.825408  1
  Ba  Ba2  1  0.377740  0.006669  0.674592  1
  Ba  Ba3  1  0.122260  0.493331  0.174592  1
  Ba  Ba4  1  0.377740  0.493331  0.674592  1
  Ba  Ba5  1  0.122260  0.006669  0.174592  1
  Ba  Ba6  1  0.622260  0.993331  0.325408  1
  Ba  Ba7  1  0.877740  0.506669  0.825408  1
  Al  Al8  1  0.829291  0.750000  0.096006  1
  Al  Al9  1  0.670709  0.750000  0.596006  1
  Al  Al10  1  0.170709  0.250000  0.903994  1
  Al  Al11  1  0.329291  0.250000  0.403994  1
  Bi  Bi12  1  0.475761  0.750000  0.021668  1
  Bi  Bi13  1  0.024239  0.750000  0.521668  1
  Bi  Bi14  1  0.524239  0.250000  0.978332  1
  Bi  Bi15  1  0.975761  0.250000  0.478332  1
  Se  Se16  1  0.681010  0.541953  0.059534  1
  Se  Se17  1  0.818990  0.958047  0.559534  1
  Se  Se18  1  0.318990  0.041953  0.940466  1
  Se  Se19  1  0.181010  0.458047  0.440466  1
  Se  Se20  1  0.318990  0.458047  0.940466  1
  Se  Se21  1  0.181010  0.041953  0.440466  1
  Se  Se22  1  0.681010  0.958047  0.059534  1
  Se  Se23  1  0.818990  0.541953  0.559534  1
  Se  Se24  1  0.379012  0.750000  0.219301  1
  Se  Se25  1  0.120988  0.750000  0.719301  1
  Se  Se26  1  0.620988  0.250000  0.780699  1
  Se  Se27  1  0.879012  0.250000  0.280699  1
  Se  Se28  1  0.892956  0.750000  0.276151  1
  Se  Se29  1  0.607044  0.750000  0.776151  1
  Se  Se30  1  0.107044  0.250000  0.723849  1
  Se  Se31  1  0.392956  0.250000  0.223849  1
  Se  Se32  1  0.468293  0.750000  0.491195  1
  Se  Se33  1  0.031707  0.750000  0.991195  1
  Se  Se34  1  0.531707  0.250000  0.508805  1
  Se  Se35  1  0.968293  0.250000  0.008805  1
