# generated using pymatgen
data_YHo6TmC10
_symmetry_space_group_name_H-M   'P 1'
_cell_length_a   3.64727400
_cell_length_b   6.54651572
_cell_length_c   11.86892604
_cell_angle_alpha   89.82255644
_cell_angle_beta   90.00000000
_cell_angle_gamma   90.00000000
_symmetry_Int_Tables_number   1
_chemical_formula_structural   YHo6TmC10
_chemical_formula_sum   'Y1 Ho6 Tm1 C10'
_cell_volume   283.39223512
_cell_formula_units_Z   1
loop_
 _symmetry_equiv_pos_site_id
 _symmetry_equiv_pos_as_xyz
  1  'x, y, z'
loop_
 _atom_site_type_symbol
 _atom_site_label
 _atom_site_symmetry_multiplicity
 _atom_site_fract_x
 _atom_site_fract_y
 _atom_site_fract_z
 _atom_site_occupancy
  Y  Y0  1  0.000000  0.238399  0.042165  1
  Ho  Ho1  1  0.000000  0.749549  0.456653  1
  Ho  Ho2  1  0.000000  0.749860  0.955482  1
  Ho  Ho3  1  0.500000  0.108068  0.803171  1
  Ho  Ho4  1  0.500000  0.893548  0.196581  1
  Ho  Ho5  1  0.500000  0.605607  0.696863  1
  Ho  Ho6  1  0.500000  0.391587  0.304616  1
  Tm  Tm7  1  0.000000  0.264356  0.542195  1
  C  C8  1  0.500000  0.508815  0.501290  1
  C  C9  1  0.500000  0.986781  0.000164  1
  C  C10  1  0.000000  0.363581  0.733269  1
  C  C11  1  0.000000  0.644163  0.262602  1
  C  C12  1  0.000000  0.857321  0.760961  1
  C  C13  1  0.000000  0.134622  0.237349  1
  C  C14  1  0.000000  0.388131  0.845119  1
  C  C15  1  0.000000  0.576230  0.156991  1
  C  C16  1  0.000000  0.113603  0.349470  1
  C  C17  1  0.000000  0.925779  0.655061  1
