# generated using pymatgen
data_Dy4YP12Ru6Rh13
_symmetry_space_group_name_H-M   'P 1'
_cell_length_a   12.63786513
_cell_length_b   12.64763272
_cell_length_c   3.93598800
_cell_angle_alpha   90.00000000
_cell_angle_beta   90.00000000
_cell_angle_gamma   120.10181422
_symmetry_Int_Tables_number   1
_chemical_formula_structural   Dy4YP12Ru6Rh13
_chemical_formula_sum   'Dy4 Y1 P12 Ru6 Rh13'
_cell_volume   544.27812615
_cell_formula_units_Z   1
loop_
 _symmetry_equiv_pos_site_id
 _symmetry_equiv_pos_as_xyz
  1  'x, y, z'
loop_
 _atom_site_type_symbol
 _atom_site_label
 _atom_site_symmetry_multiplicity
 _atom_site_fract_x
 _atom_site_fract_y
 _atom_site_fract_z
 _atom_site_occupancy
  Dy  Dy0  1  0.668628  0.332107  0.000000  1
  Dy  Dy1  1  0.332645  0.667335  0.000000  1
  Dy  Dy2  1  0.184898  0.187033  0.500000  1
  Dy  Dy3  1  0.999602  0.813401  0.500000  1
  Y  Y4  1  0.813993  0.001290  0.500000  1
  P  P5  1  0.635521  0.999606  0.000000  1
  P  P6  1  0.364762  0.365247  0.000000  1
  P  P7  1  0.000373  0.633307  0.000000  1
  P  P8  1  0.688281  0.519042  0.500000  1
  P  P9  1  0.832243  0.309988  0.500000  1
  P  P10  1  0.316218  0.833966  0.500000  1
  P  P11  1  0.518764  0.690910  0.500000  1
  P  P12  1  0.180717  0.999788  0.000000  1
  P  P13  1  0.818721  0.818183  0.000000  1
  P  P14  1  0.996613  0.179132  0.000000  1
  P  P15  1  0.478989  0.167769  0.500000  1
  P  P16  1  0.165188  0.480186  0.500000  1
  Ru  Ru17  1  0.513523  0.873858  0.500000  1
  Ru  Ru18  1  0.715443  0.714889  0.500000  1
  Ru  Ru19  1  0.000650  0.284680  0.500000  1
  Ru  Ru20  1  0.003350  0.451869  0.000000  1
  Ru  Ru21  1  0.818105  0.195330  0.000000  1
  Ru  Ru22  1  0.281689  0.999171  0.500000  1
  Rh  Rh23  1  0.623899  0.804578  0.000000  1
  Rh  Rh24  1  0.181860  0.374950  0.000000  1
  Rh  Rh25  1  0.375474  0.182148  0.000000  1
  Rh  Rh26  1  0.194799  0.817547  0.000000  1
  Rh  Rh27  1  0.804200  0.621260  0.000000  1
  Rh  Rh28  1  0.872488  0.509798  0.500000  1
  Rh  Rh29  1  0.491358  0.360009  0.500000  1
  Rh  Rh30  1  0.637490  0.129968  0.500000  1
  Rh  Rh31  1  0.129248  0.640331  0.500000  1
  Rh  Rh32  1  0.358764  0.492329  0.500000  1
  Rh  Rh33  1  0.999788  0.998978  0.000000  1
  Rh  Rh34  1  0.454136  0.002100  0.000000  1
  Rh  Rh35  1  0.547581  0.547920  0.000000  1
