# generated using pymatgen
data_YbFeBrO2
_symmetry_space_group_name_H-M   'P 1'
_cell_length_a   5.51216226
_cell_length_b   5.51216311
_cell_length_c   8.92301767
_cell_angle_alpha   102.76861539
_cell_angle_beta   102.76861940
_cell_angle_gamma   41.21017056
_symmetry_Int_Tables_number   1
_chemical_formula_structural   YbFeBrO2
_chemical_formula_sum   'Yb2 Fe2 Br2 O4'
_cell_volume   173.56714849
_cell_formula_units_Z   2
loop_
 _symmetry_equiv_pos_site_id
 _symmetry_equiv_pos_as_xyz
  1  'x, y, z'
loop_
 _atom_site_type_symbol
 _atom_site_label
 _atom_site_symmetry_multiplicity
 _atom_site_fract_x
 _atom_site_fract_y
 _atom_site_fract_z
 _atom_site_occupancy
  Yb  Yb0  1  0.603903  0.603903  0.279108  1
  Yb  Yb1  1  0.396098  0.396098  0.720891  1
  Fe  Fe2  1  0.139154  0.139154  0.000132  1
  Fe  Fe3  1  0.860847  0.860847  0.999868  1
  Br  Br4  1  0.336477  0.336477  0.370612  1
  Br  Br5  1  0.663523  0.663523  0.629388  1
  O  O6  1  0.685007  0.685007  0.057733  1
  O  O7  1  0.023522  0.023522  0.157629  1
  O  O8  1  0.976477  0.976477  0.842371  1
  O  O9  1  0.314994  0.314994  0.942268  1
