# generated using pymatgen
data_Tb2DyY(NiPt)2
_symmetry_space_group_name_H-M   'P 1'
_cell_length_a   4.36566600
_cell_length_b   5.50005373
_cell_length_c   7.12383958
_cell_angle_alpha   90.16626566
_cell_angle_beta   90.00000000
_cell_angle_gamma   90.00000000
_symmetry_Int_Tables_number   1
_chemical_formula_structural   Tb2DyY(NiPt)2
_chemical_formula_sum   'Tb2 Dy1 Y1 Ni2 Pt2'
_cell_volume   171.05262405
_cell_formula_units_Z   1
loop_
 _symmetry_equiv_pos_site_id
 _symmetry_equiv_pos_as_xyz
  1  'x, y, z'
loop_
 _atom_site_type_symbol
 _atom_site_label
 _atom_site_symmetry_multiplicity
 _atom_site_fract_x
 _atom_site_fract_y
 _atom_site_fract_z
 _atom_site_occupancy
  Tb  Tb0  1  0.000000  0.119112  0.679213  1
  Tb  Tb1  1  0.000000  0.880581  0.179287  1
  Dy  Dy2  1  0.500000  0.384300  0.318497  1
  Y  Y3  1  0.500000  0.616082  0.818174  1
  Ni  Ni4  1  0.000000  0.609294  0.539977  1
  Ni  Ni5  1  0.000000  0.388958  0.044539  1
  Pt  Pt6  1  0.500000  0.884229  0.458594  1
  Pt  Pt7  1  0.500000  0.117445  0.961719  1
