# generated using pymatgen
data_Dy11Lu(In2Ru)4
_symmetry_space_group_name_H-M   'P 1'
_cell_length_a   3.77225900
_cell_length_b   12.98613792
_cell_length_c   12.98613732
_cell_angle_alpha   112.28606686
_cell_angle_beta   90.00000000
_cell_angle_gamma   90.00000000
_symmetry_Int_Tables_number   1
_chemical_formula_structural   Dy11Lu(In2Ru)4
_chemical_formula_sum   'Dy11 Lu1 In8 Ru4'
_cell_volume   588.63352116
_cell_formula_units_Z   1
loop_
 _symmetry_equiv_pos_site_id
 _symmetry_equiv_pos_as_xyz
  1  'x, y, z'
loop_
 _atom_site_type_symbol
 _atom_site_label
 _atom_site_symmetry_multiplicity
 _atom_site_fract_x
 _atom_site_fract_y
 _atom_site_fract_z
 _atom_site_occupancy
  Dy  Dy0  1  0.000000  0.914146  0.581863  1
  Dy  Dy1  1  0.000000  0.085854  0.418137  1
  Dy  Dy2  1  0.000000  0.581863  0.914146  1
  Dy  Dy3  1  0.000000  0.418137  0.085854  1
  Dy  Dy4  1  0.000000  0.162688  0.837312  1
  Dy  Dy5  1  0.000000  0.837312  0.162688  1
  Dy  Dy6  1  0.000000  0.361668  0.638332  1
  Dy  Dy7  1  0.000000  0.638332  0.361668  1
  Dy  Dy8  1  0.000000  0.706614  0.706614  1
  Dy  Dy9  1  0.000000  0.293386  0.293386  1
  Dy  Dy10  1  0.000000  0.000000  0.000000  1
  Lu  Lu11  1  0.500000  0.500000  0.500000  1
  In  In12  1  0.500000  0.147721  0.630417  1
  In  In13  1  0.500000  0.852279  0.369583  1
  In  In14  1  0.500000  0.630417  0.147721  1
  In  In15  1  0.500000  0.369583  0.852279  1
  In  In16  1  0.500000  0.932397  0.784905  1
  In  In17  1  0.500000  0.067603  0.215095  1
  In  In18  1  0.500000  0.784905  0.932397  1
  In  In19  1  0.500000  0.215095  0.067603  1
  Ru  Ru20  1  0.500000  0.736800  0.547320  1
  Ru  Ru21  1  0.500000  0.263200  0.452680  1
  Ru  Ru22  1  0.500000  0.547320  0.736800  1
  Ru  Ru23  1  0.500000  0.452680  0.263200  1
