# generated using pymatgen
data_ZrSc9(Ga2As)2
_symmetry_space_group_name_H-M   'P 1'
_cell_length_a   8.01806365
_cell_length_b   7.99410290
_cell_length_c   5.91715700
_cell_angle_alpha   90.00000000
_cell_angle_beta   90.00000000
_cell_angle_gamma   119.90119496
_symmetry_Int_Tables_number   1
_chemical_formula_structural   ZrSc9(Ga2As)2
_chemical_formula_sum   'Zr1 Sc9 Ga4 As2'
_cell_volume   328.78688965
_cell_formula_units_Z   1
loop_
 _symmetry_equiv_pos_site_id
 _symmetry_equiv_pos_as_xyz
  1  'x, y, z'
loop_
 _atom_site_type_symbol
 _atom_site_label
 _atom_site_symmetry_multiplicity
 _atom_site_fract_x
 _atom_site_fract_y
 _atom_site_fract_z
 _atom_site_occupancy
  Zr  Zr0  1  0.000000  0.764936  0.250000  1
  Sc  Sc1  1  0.666433  0.333567  0.002930  1
  Sc  Sc2  1  0.333567  0.667135  0.002930  1
  Sc  Sc3  1  0.333567  0.667135  0.497070  1
  Sc  Sc4  1  0.666433  0.333567  0.497070  1
  Sc  Sc5  1  0.761564  0.756650  0.750000  1
  Sc  Sc6  1  0.238436  0.995086  0.750000  1
  Sc  Sc7  1  0.000000  0.239632  0.750000  1
  Sc  Sc8  1  0.238006  0.239814  0.250000  1
  Sc  Sc9  1  0.761994  0.001808  0.250000  1
  Ga  Ga10  1  0.000000  0.601236  0.750000  1
  Ga  Ga11  1  0.604737  0.605965  0.250000  1
  Ga  Ga12  1  0.395263  0.001228  0.250000  1
  Ga  Ga13  1  0.000000  0.400646  0.250000  1
  As  As14  1  0.392184  0.391887  0.750000  1
  As  As15  1  0.607816  0.999704  0.750000  1
