# generated using pymatgen
data_TbEr3(Al8Pd3)3
_symmetry_space_group_name_H-M   'P 1'
_cell_length_a   7.54013297
_cell_length_b   7.56423774
_cell_length_c   13.16242200
_cell_angle_alpha   84.58530881
_cell_angle_beta   79.08649538
_cell_angle_gamma   60.01856682
_symmetry_Int_Tables_number   1
_chemical_formula_structural   TbEr3(Al8Pd3)3
_chemical_formula_sum   'Tb1 Er3 Al24 Pd9'
_cell_volume   638.50650284
_cell_formula_units_Z   1
loop_
 _symmetry_equiv_pos_site_id
 _symmetry_equiv_pos_as_xyz
  1  'x, y, z'
loop_
 _atom_site_type_symbol
 _atom_site_label
 _atom_site_symmetry_multiplicity
 _atom_site_fract_x
 _atom_site_fract_y
 _atom_site_fract_z
 _atom_site_occupancy
  Tb  Tb0  1  0.393176  0.168755  0.808807  1
  Er  Er1  1  0.606803  0.831042  0.191610  1
  Er  Er2  1  0.733822  0.498236  0.808236  1
  Er  Er3  1  0.266063  0.501904  0.191761  1
  Al  Al4  1  0.684707  0.833027  0.944900  1
  Al  Al5  1  0.315668  0.166337  0.055918  1
  Al  Al6  1  0.146248  0.832991  0.561512  1
  Al  Al7  1  0.853864  0.167005  0.438331  1
  Al  Al8  1  0.479214  0.166594  0.558959  1
  Al  Al9  1  0.520830  0.833371  0.440772  1
  Al  Al10  1  0.217353  0.165255  0.329322  1
  Al  Al11  1  0.783260  0.834287  0.670274  1
  Al  Al12  1  0.437290  0.506891  0.670406  1
  Al  Al13  1  0.562859  0.493616  0.329174  1
  Al  Al14  1  0.108791  0.159777  0.669338  1
  Al  Al15  1  0.890887  0.840215  0.330196  1
  Al  Al16  1  0.353039  0.499955  0.945019  1
  Al  Al17  1  0.646843  0.500703  0.055365  1
  Al  Al18  1  0.014757  0.167832  0.954005  1
  Al  Al19  1  0.984481  0.832194  0.046485  1
  Al  Al20  1  0.186975  0.499370  0.440710  1
  Al  Al21  1  0.813031  0.500662  0.559183  1
  Al  Al22  1  0.733286  0.163992  0.183619  1
  Al  Al23  1  0.266727  0.835217  0.816365  1
  Al  Al24  1  0.061045  0.631188  0.815204  1
  Al  Al25  1  0.938197  0.369568  0.184789  1
  Al  Al26  1  0.855564  0.042118  0.816022  1
  Al  Al27  1  0.145143  0.957818  0.184006  1
  Pd  Pd28  1  0.119661  0.492571  0.638527  1
  Pd  Pd29  1  0.880203  0.507637  0.361311  1
  Pd  Pd30  1  0.657446  0.171081  0.999731  1
  Pd  Pd31  1  0.342564  0.828913  0.000371  1
  Pd  Pd32  1  0.538418  0.166924  0.361160  1
  Pd  Pd33  1  0.461617  0.832908  0.638699  1
  Pd  Pd34  1  0.778648  0.174506  0.637484  1
  Pd  Pd35  1  0.221547  0.825501  0.362381  1
  Pd  Pd36  1  0.999972  0.500038  0.000050  1
