# generated using pymatgen
data_HoEr11Tc3Pt
_symmetry_space_group_name_H-M   'P 1'
_cell_length_a   6.26613331
_cell_length_b   7.31591788
_cell_length_c   9.11026300
_cell_angle_alpha   90.00000000
_cell_angle_beta   90.00000000
_cell_angle_gamma   90.04802594
_symmetry_Int_Tables_number   1
_chemical_formula_structural   HoEr11Tc3Pt
_chemical_formula_sum   'Ho1 Er11 Tc3 Pt1'
_cell_volume   417.63723757
_cell_formula_units_Z   1
loop_
 _symmetry_equiv_pos_site_id
 _symmetry_equiv_pos_as_xyz
  1  'x, y, z'
loop_
 _atom_site_type_symbol
 _atom_site_label
 _atom_site_symmetry_multiplicity
 _atom_site_fract_x
 _atom_site_fract_y
 _atom_site_fract_z
 _atom_site_occupancy
  Ho  Ho0  1  0.127782  0.456875  0.750000  1
  Er  Er1  1  0.327558  0.677117  0.066527  1
  Er  Er2  1  0.166868  0.177394  0.436926  1
  Er  Er3  1  0.668998  0.318138  0.558379  1
  Er  Er4  1  0.835245  0.826183  0.940847  1
  Er  Er5  1  0.668998  0.318138  0.941621  1
  Er  Er6  1  0.835245  0.826183  0.559153  1
  Er  Er7  1  0.327558  0.677117  0.433473  1
  Er  Er8  1  0.166868  0.177394  0.063074  1
  Er  Er9  1  0.873579  0.541302  0.250000  1
  Er  Er10  1  0.623836  0.038033  0.250000  1
  Er  Er11  1  0.372095  0.964729  0.750000  1
  Tc  Tc12  1  0.038368  0.887048  0.250000  1
  Tc  Tc13  1  0.463333  0.388547  0.250000  1
  Tc  Tc14  1  0.957921  0.112937  0.750000  1
  Pt  Pt15  1  0.545746  0.612867  0.750000  1
