# generated using pymatgen
data_SmCu2(PPd)2
_symmetry_space_group_name_H-M   'P 1'
_cell_length_a   7.54661700
_cell_length_b   7.33323300
_cell_length_c   3.83192400
_cell_angle_alpha   90.00000000
_cell_angle_beta   90.00000000
_cell_angle_gamma   90.00000000
_symmetry_Int_Tables_number   1
_chemical_formula_structural   SmCu2(PPd)2
_chemical_formula_sum   'Sm2 Cu4 P4 Pd4'
_cell_volume   212.06289243
_cell_formula_units_Z   2
loop_
 _symmetry_equiv_pos_site_id
 _symmetry_equiv_pos_as_xyz
  1  'x, y, z'
loop_
 _atom_site_type_symbol
 _atom_site_label
 _atom_site_symmetry_multiplicity
 _atom_site_fract_x
 _atom_site_fract_y
 _atom_site_fract_z
 _atom_site_occupancy
  Sm  Sm0  1  0.500000  0.500000  0.000000  1
  Sm  Sm1  1  0.000000  0.000000  0.500000  1
  Cu  Cu2  1  0.159942  0.580546  0.500000  1
  Cu  Cu3  1  0.840058  0.419454  0.500000  1
  Cu  Cu4  1  0.340058  0.080546  0.000000  1
  Cu  Cu5  1  0.659942  0.919454  0.000000  1
  P  P6  1  0.714613  0.721937  0.500000  1
  P  P7  1  0.285387  0.278063  0.500000  1
  P  P8  1  0.214613  0.778063  0.000000  1
  P  P9  1  0.785387  0.221937  0.000000  1
  Pd  Pd10  1  0.588305  0.171307  0.500000  1
  Pd  Pd11  1  0.411695  0.828693  0.500000  1
  Pd  Pd12  1  0.088305  0.328693  0.000000  1
  Pd  Pd13  1  0.911695  0.671307  0.000000  1
