# generated using pymatgen
data_Th7Co2Tc
_symmetry_space_group_name_H-M   'P 1'
_cell_length_a   9.84699679
_cell_length_b   9.81632348
_cell_length_c   6.24875767
_cell_angle_alpha   90.26103411
_cell_angle_beta   89.47955843
_cell_angle_gamma   120.10341227
_symmetry_Int_Tables_number   1
_chemical_formula_structural   Th7Co2Tc
_chemical_formula_sum   'Th14 Co4 Tc2'
_cell_volume   522.52317240
_cell_formula_units_Z   2
loop_
 _symmetry_equiv_pos_site_id
 _symmetry_equiv_pos_as_xyz
  1  'x, y, z'
loop_
 _atom_site_type_symbol
 _atom_site_label
 _atom_site_symmetry_multiplicity
 _atom_site_fract_x
 _atom_site_fract_y
 _atom_site_fract_z
 _atom_site_occupancy
  Th  Th0  1  0.329168  0.662858  0.040226  1
  Th  Th1  1  0.666311  0.337142  0.540226  1
  Th  Th2  1  0.126947  0.872643  0.241490  1
  Th  Th3  1  0.254305  0.127357  0.741490  1
  Th  Th4  1  0.879480  0.749986  0.744993  1
  Th  Th5  1  0.129494  0.250014  0.244993  1
  Th  Th6  1  0.751045  0.871587  0.254076  1
  Th  Th7  1  0.879459  0.128413  0.754076  1
  Th  Th8  1  0.544560  0.459210  0.050650  1
  Th  Th9  1  0.085349  0.540790  0.550650  1
  Th  Th10  1  0.455316  0.916302  0.550959  1
  Th  Th11  1  0.539014  0.083698  0.050959  1
  Th  Th12  1  0.913113  0.461060  0.050763  1
  Th  Th13  1  0.452051  0.538940  0.550763  1
  Co  Co14  1  0.184905  0.370943  0.798277  1
  Co  Co15  1  0.813961  0.629057  0.298277  1
  Co  Co16  1  0.370671  0.187429  0.298759  1
  Co  Co17  1  0.183244  0.812571  0.798759  1
  Tc  Tc18  1  0.814968  0.188330  0.299808  1
  Tc  Tc19  1  0.626639  0.811670  0.799808  1
