# generated using pymatgen
data_Tb10Sn6Se
_symmetry_space_group_name_H-M   'P 1'
_cell_length_a   9.10378500
_cell_length_b   9.10378778
_cell_length_c   6.65948600
_cell_angle_alpha   90.00000000
_cell_angle_beta   90.00000000
_cell_angle_gamma   119.99999354
_symmetry_Int_Tables_number   1
_chemical_formula_structural   Tb10Sn6Se
_chemical_formula_sum   'Tb10 Sn6 Se1'
_cell_volume   477.98634287
_cell_formula_units_Z   1
loop_
 _symmetry_equiv_pos_site_id
 _symmetry_equiv_pos_as_xyz
  1  'x, y, z'
loop_
 _atom_site_type_symbol
 _atom_site_label
 _atom_site_symmetry_multiplicity
 _atom_site_fract_x
 _atom_site_fract_y
 _atom_site_fract_z
 _atom_site_occupancy
  Tb  Tb0  1  0.666667  0.333333  0.500000  1
  Tb  Tb1  1  0.333333  0.666667  0.500000  1
  Tb  Tb2  1  0.333333  0.666667  0.000000  1
  Tb  Tb3  1  0.666667  0.333333  0.000000  1
  Tb  Tb4  1  0.751595  0.751595  0.242081  1
  Tb  Tb5  1  0.248405  0.000000  0.242081  1
  Tb  Tb6  1  0.000000  0.248405  0.242081  1
  Tb  Tb7  1  0.248405  0.248405  0.757919  1
  Tb  Tb8  1  0.751595  0.000000  0.757919  1
  Tb  Tb9  1  0.000000  0.751595  0.757919  1
  Sn  Sn10  1  0.394677  0.394677  0.248920  1
  Sn  Sn11  1  0.605323  0.000000  0.248920  1
  Sn  Sn12  1  0.000000  0.605323  0.248920  1
  Sn  Sn13  1  0.605323  0.605323  0.751080  1
  Sn  Sn14  1  0.394677  0.000000  0.751080  1
  Sn  Sn15  1  0.000000  0.394677  0.751080  1
  Se  Se16  1  0.000000  0.000000  0.500000  1
