# generated using pymatgen
data_Nb18SiOs11
_symmetry_space_group_name_H-M   'P 1'
_cell_length_a   9.89384764
_cell_length_b   9.89384626
_cell_length_c   5.11763400
_cell_angle_alpha   90.00000000
_cell_angle_beta   90.00000000
_cell_angle_gamma   90.63569415
_symmetry_Int_Tables_number   1
_chemical_formula_structural   Nb18SiOs11
_chemical_formula_sum   'Nb18 Si1 Os11'
_cell_volume   500.92518581
_cell_formula_units_Z   1
loop_
 _symmetry_equiv_pos_site_id
 _symmetry_equiv_pos_as_xyz
  1  'x, y, z'
loop_
 _atom_site_type_symbol
 _atom_site_label
 _atom_site_symmetry_multiplicity
 _atom_site_fract_x
 _atom_site_fract_y
 _atom_site_fract_z
 _atom_site_occupancy
  Nb  Nb0  1  0.895926  0.895926  0.495042  1
  Nb  Nb1  1  0.104074  0.104074  0.495042  1
  Nb  Nb2  1  0.602219  0.397781  0.009634  1
  Nb  Nb3  1  0.397781  0.602219  0.009634  1
  Nb  Nb4  1  0.627404  0.960770  0.498099  1
  Nb  Nb5  1  0.372596  0.039230  0.498099  1
  Nb  Nb6  1  0.871990  0.467219  0.995551  1
  Nb  Nb7  1  0.128010  0.532781  0.995551  1
  Nb  Nb8  1  0.039230  0.372596  0.498099  1
  Nb  Nb9  1  0.960770  0.627404  0.498099  1
  Nb  Nb10  1  0.532781  0.128010  0.995551  1
  Nb  Nb11  1  0.467219  0.871990  0.995551  1
  Nb  Nb12  1  0.820621  0.179379  0.251122  1
  Nb  Nb13  1  0.179379  0.820621  0.251122  1
  Nb  Nb14  1  0.318099  0.318099  0.245522  1
  Nb  Nb15  1  0.681901  0.681901  0.245522  1
  Nb  Nb16  1  0.181634  0.818366  0.746554  1
  Nb  Nb17  1  0.818366  0.181634  0.746554  1
  Si  Si18  1  0.000000  0.000000  0.000351  1
  Os  Os19  1  0.500000  0.500000  0.527393  1
  Os  Os20  1  0.564123  0.243735  0.501042  1
  Os  Os21  1  0.435877  0.756265  0.501042  1
  Os  Os22  1  0.933809  0.744880  0.999601  1
  Os  Os23  1  0.066191  0.255120  0.999601  1
  Os  Os24  1  0.756265  0.435877  0.501042  1
  Os  Os25  1  0.243735  0.564123  0.501042  1
  Os  Os26  1  0.255120  0.066191  0.999601  1
  Os  Os27  1  0.744880  0.933809  0.999601  1
  Os  Os28  1  0.682141  0.682141  0.749670  1
  Os  Os29  1  0.317859  0.317859  0.749670  1
