# generated using pymatgen
data_Dy2Ho2Ga5Tc3
_symmetry_space_group_name_H-M   'P 1'
_cell_length_a   5.47400653
_cell_length_b   5.55061114
_cell_length_c   8.69901503
_cell_angle_alpha   90.00000248
_cell_angle_beta   90.00767257
_cell_angle_gamma   120.46402796
_symmetry_Int_Tables_number   1
_chemical_formula_structural   Dy2Ho2Ga5Tc3
_chemical_formula_sum   'Dy2 Ho2 Ga5 Tc3'
_cell_volume   227.82274157
_cell_formula_units_Z   1
loop_
 _symmetry_equiv_pos_site_id
 _symmetry_equiv_pos_as_xyz
  1  'x, y, z'
loop_
 _atom_site_type_symbol
 _atom_site_label
 _atom_site_symmetry_multiplicity
 _atom_site_fract_x
 _atom_site_fract_y
 _atom_site_fract_z
 _atom_site_occupancy
  Dy  Dy0  1  0.335858  0.667930  0.443357  1
  Dy  Dy1  1  0.662108  0.331053  0.552426  1
  Ho  Ho2  1  0.662332  0.331166  0.947456  1
  Ho  Ho3  1  0.336242  0.668121  0.056558  1
  Ga  Ga4  1  0.836458  0.164161  0.249665  1
  Ga  Ga5  1  0.836458  0.672296  0.249665  1
  Ga  Ga6  1  0.327099  0.163549  0.249571  1
  Ga  Ga7  1  0.186578  0.839231  0.750448  1
  Ga  Ga8  1  0.186578  0.347348  0.750448  1
  Tc  Tc9  1  0.976092  0.988046  0.510193  1
  Tc  Tc10  1  0.975515  0.987757  0.989845  1
  Tc  Tc11  1  0.678682  0.839341  0.750367  1
