# generated using pymatgen
data_Tb3Nd(CrB4)4
_symmetry_space_group_name_H-M   'P 1'
_cell_length_a   5.97670350
_cell_length_b   11.55526089
_cell_length_c   3.48409400
_cell_angle_alpha   90.00000000
_cell_angle_beta   90.00000000
_cell_angle_gamma   89.91886109
_symmetry_Int_Tables_number   1
_chemical_formula_structural   Tb3Nd(CrB4)4
_chemical_formula_sum   'Tb3 Nd1 Cr4 B16'
_cell_volume   240.61954148
_cell_formula_units_Z   1
loop_
 _symmetry_equiv_pos_site_id
 _symmetry_equiv_pos_as_xyz
  1  'x, y, z'
loop_
 _atom_site_type_symbol
 _atom_site_label
 _atom_site_symmetry_multiplicity
 _atom_site_fract_x
 _atom_site_fract_y
 _atom_site_fract_z
 _atom_site_occupancy
  Tb  Tb0  1  0.375810  0.651642  0.000000  1
  Tb  Tb1  1  0.123986  0.149999  0.000000  1
  Tb  Tb2  1  0.876031  0.849055  0.000000  1
  Nd  Nd3  1  0.623920  0.348705  0.000000  1
  Cr  Cr4  1  0.623364  0.079085  0.000000  1
  Cr  Cr5  1  0.376295  0.918652  0.000000  1
  Cr  Cr6  1  0.123628  0.420235  0.000000  1
  Cr  Cr7  1  0.877042  0.582230  0.000000  1
  B  B8  1  0.780943  0.181391  0.500000  1
  B  B9  1  0.219557  0.816076  0.500000  1
  B  B10  1  0.277070  0.315880  0.500000  1
  B  B11  1  0.719479  0.684982  0.500000  1
  B  B12  1  0.862204  0.031332  0.500000  1
  B  B13  1  0.138009  0.966764  0.500000  1
  B  B14  1  0.360194  0.469083  0.500000  1
  B  B15  1  0.639217  0.534879  0.500000  1
  B  B16  1  0.889804  0.455373  0.500000  1
  B  B17  1  0.113547  0.547994  0.500000  1
  B  B18  1  0.386413  0.045265  0.500000  1
  B  B19  1  0.612775  0.952839  0.500000  1
  B  B20  1  0.977355  0.309367  0.500000  1
  B  B21  1  0.025017  0.691879  0.500000  1
  B  B22  1  0.473447  0.188336  0.500000  1
  B  B23  1  0.524893  0.808956  0.500000  1
