# generated using pymatgen
data_Dy3Sc5Au4
_symmetry_space_group_name_H-M   'P 1'
_cell_length_a   4.74470200
_cell_length_b   6.92002682
_cell_length_c   8.53504805
_cell_angle_alpha   89.94363114
_cell_angle_beta   90.00000000
_cell_angle_gamma   90.00000000
_symmetry_Int_Tables_number   1
_chemical_formula_structural   Dy3Sc5Au4
_chemical_formula_sum   'Dy3 Sc5 Au4'
_cell_volume   280.23506673
_cell_formula_units_Z   1
loop_
 _symmetry_equiv_pos_site_id
 _symmetry_equiv_pos_as_xyz
  1  'x, y, z'
loop_
 _atom_site_type_symbol
 _atom_site_label
 _atom_site_symmetry_multiplicity
 _atom_site_fract_x
 _atom_site_fract_y
 _atom_site_fract_z
 _atom_site_occupancy
  Dy  Dy0  1  0.250000  0.982514  0.316815  1
  Dy  Dy1  1  0.750000  0.516570  0.820829  1
  Dy  Dy2  1  0.750000  0.017182  0.681135  1
  Sc  Sc3  1  0.250000  0.851127  0.925991  1
  Sc  Sc4  1  0.250000  0.353886  0.573929  1
  Sc  Sc5  1  0.750000  0.151605  0.078248  1
  Sc  Sc6  1  0.750000  0.643284  0.417723  1
  Sc  Sc7  1  0.250000  0.483300  0.179011  1
  Au  Au8  1  0.250000  0.249720  0.903157  1
  Au  Au9  1  0.250000  0.746812  0.602500  1
  Au  Au10  1  0.750000  0.751086  0.103638  1
  Au  Au11  1  0.750000  0.252914  0.397025  1
