# generated using pymatgen
data_Ti12CoTc5Ir6
_symmetry_space_group_name_H-M   'P 1'
_cell_length_a   4.37864900
_cell_length_b   6.19233200
_cell_length_c   13.16401900
_cell_angle_alpha   90.00000000
_cell_angle_beta   89.99793473
_cell_angle_gamma   90.00000000
_symmetry_Int_Tables_number   1
_chemical_formula_structural   Ti12CoTc5Ir6
_chemical_formula_sum   'Ti12 Co1 Tc5 Ir6'
_cell_volume   356.92984713
_cell_formula_units_Z   1
loop_
 _symmetry_equiv_pos_site_id
 _symmetry_equiv_pos_as_xyz
  1  'x, y, z'
loop_
 _atom_site_type_symbol
 _atom_site_label
 _atom_site_symmetry_multiplicity
 _atom_site_fract_x
 _atom_site_fract_y
 _atom_site_fract_z
 _atom_site_occupancy
  Ti  Ti0  1  0.500000  0.247896  0.000000  1
  Ti  Ti1  1  0.500000  0.752105  0.000000  1
  Ti  Ti2  1  0.000084  0.249182  0.166027  1
  Ti  Ti3  1  0.000084  0.750818  0.166027  1
  Ti  Ti4  1  0.500085  0.250346  0.333389  1
  Ti  Ti5  1  0.500085  0.749655  0.333389  1
  Ti  Ti6  1  0.000000  0.249686  0.500000  1
  Ti  Ti7  1  0.000000  0.750313  0.500000  1
  Ti  Ti8  1  0.499914  0.250346  0.666611  1
  Ti  Ti9  1  0.499914  0.749655  0.666611  1
  Ti  Ti10  1  0.999916  0.249182  0.833972  1
  Ti  Ti11  1  0.999916  0.750818  0.833972  1
  Co  Co12  1  0.000000  0.000000  0.000000  1
  Tc  Tc13  1  0.500080  0.500000  0.166370  1
  Tc  Tc14  1  0.000089  0.000000  0.333053  1
  Tc  Tc15  1  0.500000  0.500000  0.500000  1
  Tc  Tc16  1  0.999911  0.000000  0.666946  1
  Tc  Tc17  1  0.499920  0.500000  0.833629  1
  Ir  Ir18  1  0.000000  0.500000  0.000000  1
  Ir  Ir19  1  0.500137  0.000000  0.165486  1
  Ir  Ir20  1  0.000104  0.500000  0.332949  1
  Ir  Ir21  1  0.500000  0.000000  0.500000  1
  Ir  Ir22  1  0.999895  0.500000  0.667052  1
  Ir  Ir23  1  0.499863  0.000000  0.834514  1
