# generated using pymatgen
data_La17Yb3(Ir3Ru)3
_symmetry_space_group_name_H-M   'P 1'
_cell_length_a   11.32071158
_cell_length_b   11.32494058
_cell_length_c   6.62607600
_cell_angle_alpha   90.00000000
_cell_angle_beta   90.00000000
_cell_angle_gamma   90.03680285
_symmetry_Int_Tables_number   1
_chemical_formula_structural   La17Yb3(Ir3Ru)3
_chemical_formula_sum   'La17 Yb3 Ir9 Ru3'
_cell_volume   849.50508245
_cell_formula_units_Z   1
loop_
 _symmetry_equiv_pos_site_id
 _symmetry_equiv_pos_as_xyz
  1  'x, y, z'
loop_
 _atom_site_type_symbol
 _atom_site_label
 _atom_site_symmetry_multiplicity
 _atom_site_fract_x
 _atom_site_fract_y
 _atom_site_fract_z
 _atom_site_occupancy
  La  La0  1  0.289186  0.089288  0.393538  1
  La  La1  1  0.290722  0.912853  0.892225  1
  La  La2  1  0.709278  0.087147  0.892225  1
  La  La3  1  0.710814  0.910712  0.393538  1
  La  La4  1  0.588934  0.790694  0.893113  1
  La  La5  1  0.589054  0.204013  0.391196  1
  La  La6  1  0.410946  0.795987  0.391196  1
  La  La7  1  0.411066  0.209306  0.893113  1
  La  La8  1  0.205927  0.409711  0.610500  1
  La  La9  1  0.211089  0.589962  0.105866  1
  La  La10  1  0.788911  0.410038  0.105866  1
  La  La11  1  0.794073  0.590289  0.610500  1
  La  La12  1  0.911928  0.710940  0.107177  1
  La  La13  1  0.909862  0.287388  0.607494  1
  La  La14  1  0.090138  0.712612  0.607494  1
  La  La15  1  0.088072  0.289060  0.107177  1
  La  La16  1  0.500000  0.500000  0.499677  1
  Yb  Yb17  1  0.000000  0.000000  0.499566  1
  Yb  Yb18  1  0.000000  0.000000  0.999923  1
  Yb  Yb19  1  0.500000  0.500000  0.999685  1
  Ir  Ir20  1  0.845559  0.155197  0.248418  1
  Ir  Ir21  1  0.845426  0.844611  0.751294  1
  Ir  Ir22  1  0.154574  0.155389  0.751294  1
  Ir  Ir23  1  0.154441  0.844803  0.248418  1
  Ir  Ir24  1  0.655624  0.347193  0.744814  1
  Ir  Ir25  1  0.653363  0.654839  0.255118  1
  Ir  Ir26  1  0.346637  0.345161  0.255118  1
  Ir  Ir27  1  0.344376  0.652807  0.744814  1
  Ir  Ir28  1  0.000000  0.500000  0.375162  1
  Ru  Ru29  1  0.500000  0.000000  0.118780  1
  Ru  Ru30  1  0.500000  0.000000  0.622599  1
  Ru  Ru31  1  0.000000  0.500000  0.883098  1
