# generated using pymatgen
data_Ac3Tl2
_symmetry_space_group_name_H-M   'P 1'
_cell_length_a   8.64292600
_cell_length_b   8.64292600
_cell_length_c   5.21037700
_cell_angle_alpha   90.00000000
_cell_angle_beta   90.00000000
_cell_angle_gamma   90.00000000
_symmetry_Int_Tables_number   1
_chemical_formula_structural   Ac3Tl2
_chemical_formula_sum   'Ac6 Tl4'
_cell_volume   389.21604684
_cell_formula_units_Z   2
loop_
 _symmetry_equiv_pos_site_id
 _symmetry_equiv_pos_as_xyz
  1  'x, y, z'
loop_
 _atom_site_type_symbol
 _atom_site_label
 _atom_site_symmetry_multiplicity
 _atom_site_fract_x
 _atom_site_fract_y
 _atom_site_fract_z
 _atom_site_occupancy
  Ac  Ac0  1  0.000000  0.000000  0.000000  1
  Ac  Ac1  1  0.499999  0.499999  0.000000  1
  Ac  Ac2  1  0.329928  0.170071  0.500001  1
  Ac  Ac3  1  0.829929  0.329928  0.500001  1
  Ac  Ac4  1  0.170071  0.670072  0.500001  1
  Ac  Ac5  1  0.670072  0.829929  0.500001  1
  Tl  Tl6  1  0.624582  0.124581  0.000000  1
  Tl  Tl7  1  0.124581  0.375418  0.000000  1
  Tl  Tl8  1  0.875419  0.624582  0.000000  1
  Tl  Tl9  1  0.375418  0.875419  0.000000  1
