# generated using pymatgen
data_Dy3Tm5B24(IrRh)2
_symmetry_space_group_name_H-M   'P 1'
_cell_length_a   3.62701100
_cell_length_b   9.13290213
_cell_length_c   11.47833001
_cell_angle_alpha   90.10173965
_cell_angle_beta   90.00000000
_cell_angle_gamma   90.00000000
_symmetry_Int_Tables_number   1
_chemical_formula_structural   Dy3Tm5B24(IrRh)2
_chemical_formula_sum   'Dy3 Tm5 B24 Ir2 Rh2'
_cell_volume   380.22064875
_cell_formula_units_Z   1
loop_
 _symmetry_equiv_pos_site_id
 _symmetry_equiv_pos_as_xyz
  1  'x, y, z'
loop_
 _atom_site_type_symbol
 _atom_site_label
 _atom_site_symmetry_multiplicity
 _atom_site_fract_x
 _atom_site_fract_y
 _atom_site_fract_z
 _atom_site_occupancy
  Dy  Dy0  1  0.500000  0.323043  0.413787  1
  Dy  Dy1  1  0.500000  0.677001  0.586061  1
  Dy  Dy2  1  0.500000  0.178901  0.912920  1
  Tm  Tm3  1  0.500000  0.820624  0.087196  1
  Tm  Tm4  1  0.500000  0.445315  0.126331  1
  Tm  Tm5  1  0.500000  0.555067  0.874001  1
  Tm  Tm6  1  0.500000  0.056516  0.625845  1
  Tm  Tm7  1  0.500000  0.943360  0.374020  1
  B  B8  1  0.000000  0.108040  0.470372  1
  B  B9  1  0.000000  0.891770  0.529443  1
  B  B10  1  0.000000  0.391958  0.970775  1
  B  B11  1  0.000000  0.609163  0.029660  1
  B  B12  1  0.000000  0.131781  0.315917  1
  B  B13  1  0.000000  0.868000  0.683975  1
  B  B14  1  0.000000  0.367583  0.816382  1
  B  B15  1  0.000000  0.633148  0.183279  1
  B  B16  1  0.000000  0.053449  0.066079  1
  B  B17  1  0.000000  0.945430  0.934566  1
  B  B18  1  0.000000  0.446171  0.565735  1
  B  B19  1  0.000000  0.553913  0.434048  1
  B  B20  1  0.000000  0.482695  0.286281  1
  B  B21  1  0.000000  0.517675  0.713754  1
  B  B22  1  0.000000  0.017494  0.786180  1
  B  B23  1  0.000000  0.981496  0.213407  1
  B  B24  1  0.000000  0.250609  0.079622  1
  B  B25  1  0.000000  0.749591  0.921303  1
  B  B26  1  0.000000  0.250331  0.579624  1
  B  B27  1  0.000000  0.749676  0.420086  1
  B  B28  1  0.000000  0.293972  0.234812  1
  B  B29  1  0.000000  0.706067  0.765418  1
  B  B30  1  0.000000  0.206039  0.735382  1
  B  B31  1  0.000000  0.794287  0.263859  1
  Ir  Ir32  1  0.500000  0.138238  0.178221  1
  Ir  Ir33  1  0.500000  0.860890  0.822032  1
  Rh  Rh34  1  0.500000  0.360351  0.680780  1
  Rh  Rh35  1  0.500000  0.640357  0.318848  1
