# generated using pymatgen
data_Dy4Mg4IrRh3
_symmetry_space_group_name_H-M   'P 1'
_cell_length_a   4.11348900
_cell_length_b   7.08904656
_cell_length_c   8.53515906
_cell_angle_alpha   90.55640003
_cell_angle_beta   90.00000000
_cell_angle_gamma   90.00000000
_symmetry_Int_Tables_number   1
_chemical_formula_structural   Dy4Mg4IrRh3
_chemical_formula_sum   'Dy4 Mg4 Ir1 Rh3'
_cell_volume   248.87960553
_cell_formula_units_Z   1
loop_
 _symmetry_equiv_pos_site_id
 _symmetry_equiv_pos_as_xyz
  1  'x, y, z'
loop_
 _atom_site_type_symbol
 _atom_site_label
 _atom_site_symmetry_multiplicity
 _atom_site_fract_x
 _atom_site_fract_y
 _atom_site_fract_z
 _atom_site_occupancy
  Dy  Dy0  1  0.250000  0.541927  0.177846  1
  Dy  Dy1  1  0.750000  0.461713  0.824827  1
  Dy  Dy2  1  0.250000  0.035073  0.324243  1
  Dy  Dy3  1  0.750000  0.959280  0.673855  1
  Mg  Mg4  1  0.250000  0.136517  0.941218  1
  Mg  Mg5  1  0.750000  0.864843  0.058881  1
  Mg  Mg6  1  0.250000  0.634560  0.558818  1
  Mg  Mg7  1  0.750000  0.364031  0.441525  1
  Ir  Ir8  1  0.750000  0.748034  0.369911  1
  Rh  Rh9  1  0.250000  0.250489  0.630645  1
  Rh  Rh10  1  0.750000  0.251405  0.128192  1
  Rh  Rh11  1  0.250000  0.752129  0.870041  1
