# generated using pymatgen
data_Mg2Zr6(Al2Pt)7
_symmetry_space_group_name_H-M   'P 1'
_cell_length_a   8.83571915
_cell_length_b   8.83461474
_cell_length_c   8.83461430
_cell_angle_alpha   59.97000568
_cell_angle_beta   59.99586020
_cell_angle_gamma   59.99585716
_symmetry_Int_Tables_number   1
_chemical_formula_structural   Mg2Zr6(Al2Pt)7
_chemical_formula_sum   'Mg2 Zr6 Al14 Pt7'
_cell_volume   487.50199331
_cell_formula_units_Z   1
loop_
 _symmetry_equiv_pos_site_id
 _symmetry_equiv_pos_as_xyz
  1  'x, y, z'
loop_
 _atom_site_type_symbol
 _atom_site_label
 _atom_site_symmetry_multiplicity
 _atom_site_fract_x
 _atom_site_fract_y
 _atom_site_fract_z
 _atom_site_occupancy
  Mg  Mg0  1  0.880808  0.882357  0.356027  1
  Mg  Mg1  1  0.880808  0.356027  0.882357  1
  Zr  Zr2  1  0.683934  0.683581  0.315724  1
  Zr  Zr3  1  0.316761  0.683581  0.315724  1
  Zr  Zr4  1  0.681827  0.318173  0.318173  1
  Zr  Zr5  1  0.316761  0.315724  0.683581  1
  Zr  Zr6  1  0.683934  0.315724  0.683581  1
  Zr  Zr7  1  0.314330  0.685670  0.685670  1
  Al  Al8  1  0.360396  0.880040  0.880040  1
  Al  Al9  1  0.879525  0.880040  0.880040  1
  Al  Al10  1  0.119726  0.121568  0.638980  1
  Al  Al11  1  0.119726  0.638980  0.121568  1
  Al  Al12  1  0.641187  0.119915  0.119915  1
  Al  Al13  1  0.118983  0.119915  0.119915  1
  Al  Al14  1  0.664685  0.663591  0.007040  1
  Al  Al15  1  0.664685  0.007040  0.663591  1
  Al  Al16  1  0.006578  0.664085  0.664085  1
  Al  Al17  1  0.665253  0.664085  0.664085  1
  Al  Al18  1  0.335890  0.334949  0.993270  1
  Al  Al19  1  0.335890  0.993270  0.334949  1
  Al  Al20  1  0.992619  0.335356  0.335356  1
  Al  Al21  1  0.336668  0.335356  0.335356  1
  Pt  Pt22  1  0.008076  0.991924  0.991924  1
  Pt  Pt23  1  0.001044  0.000577  0.505679  1
  Pt  Pt24  1  0.492700  0.000577  0.505679  1
  Pt  Pt25  1  0.002727  0.497273  0.497273  1
  Pt  Pt26  1  0.492700  0.505679  0.000577  1
  Pt  Pt27  1  0.001044  0.505679  0.000577  1
  Pt  Pt28  1  0.500734  0.999266  0.999266  1
