# generated using pymatgen
data_Tm8Ti3Si16Mo9
_symmetry_space_group_name_H-M   'P 1'
_cell_length_a   6.88080676
_cell_length_b   6.88080676
_cell_length_c   12.72560009
_cell_angle_alpha   89.99000343
_cell_angle_beta   90.00999657
_cell_angle_gamma   89.74729555
_symmetry_Int_Tables_number   1
_chemical_formula_structural   Tm8Ti3Si16Mo9
_chemical_formula_sum   'Tm8 Ti3 Si16 Mo9'
_cell_volume   602.49404167
_cell_formula_units_Z   1
loop_
 _symmetry_equiv_pos_site_id
 _symmetry_equiv_pos_as_xyz
  1  'x, y, z'
loop_
 _atom_site_type_symbol
 _atom_site_label
 _atom_site_symmetry_multiplicity
 _atom_site_fract_x
 _atom_site_fract_y
 _atom_site_fract_z
 _atom_site_occupancy
  Tm  Tm0  1  0.340494  0.002212  0.468807  1
  Tm  Tm1  1  0.496641  0.840263  0.719430  1
  Tm  Tm2  1  0.500082  0.160623  0.217692  1
  Tm  Tm3  1  0.840263  0.496641  0.280570  1
  Tm  Tm4  1  0.160623  0.500082  0.782308  1
  Tm  Tm5  1  0.658306  0.999476  0.968958  1
  Tm  Tm6  1  0.002212  0.340494  0.531193  1
  Tm  Tm7  1  0.999476  0.658306  0.031042  1
  Ti  Ti8  1  0.170974  0.830347  0.248920  1
  Ti  Ti9  1  0.830347  0.170974  0.751080  1
  Ti  Ti10  1  0.669428  0.669428  0.500000  1
  Si  Si11  1  0.200567  0.131503  0.683165  1
  Si  Si12  1  0.371384  0.696807  0.933861  1
  Si  Si13  1  0.630867  0.299069  0.432944  1
  Si  Si14  1  0.696807  0.371384  0.066139  1
  Si  Si15  1  0.299069  0.630867  0.567056  1
  Si  Si16  1  0.797786  0.869466  0.183589  1
  Si  Si17  1  0.131503  0.200567  0.316835  1
  Si  Si18  1  0.869466  0.797786  0.816411  1
  Si  Si19  1  0.288494  0.962440  0.062058  1
  Si  Si20  1  0.540399  0.791841  0.313773  1
  Si  Si21  1  0.457268  0.210407  0.815358  1
  Si  Si22  1  0.791841  0.540399  0.686227  1
  Si  Si23  1  0.210407  0.457268  0.184642  1
  Si  Si24  1  0.709241  0.041356  0.563788  1
  Si  Si25  1  0.962440  0.288494  0.937942  1
  Si  Si26  1  0.041356  0.709241  0.436212  1
  Mo  Mo27  1  0.330456  0.330456  0.000000  1
  Mo  Mo28  1  0.154273  0.000631  0.873150  1
  Mo  Mo29  1  0.497926  0.665174  0.124518  1
  Mo  Mo30  1  0.504858  0.341946  0.624422  1
  Mo  Mo31  1  0.665174  0.497926  0.875482  1
  Mo  Mo32  1  0.341946  0.504858  0.375578  1
  Mo  Mo33  1  0.842414  0.994583  0.373950  1
  Mo  Mo34  1  0.000631  0.154273  0.126850  1
  Mo  Mo35  1  0.994583  0.842414  0.626050  1
