# generated using pymatgen
data_Dy12IrOsPt2
_symmetry_space_group_name_H-M   'P 1'
_cell_length_a   6.41193530
_cell_length_b   7.19317507
_cell_length_c   9.36003400
_cell_angle_alpha   90.00000000
_cell_angle_beta   90.00000000
_cell_angle_gamma   89.95118124
_symmetry_Int_Tables_number   1
_chemical_formula_structural   Dy12IrOsPt2
_chemical_formula_sum   'Dy12 Ir1 Os1 Pt2'
_cell_volume   431.70495231
_cell_formula_units_Z   1
loop_
 _symmetry_equiv_pos_site_id
 _symmetry_equiv_pos_as_xyz
  1  'x, y, z'
loop_
 _atom_site_type_symbol
 _atom_site_label
 _atom_site_symmetry_multiplicity
 _atom_site_fract_x
 _atom_site_fract_y
 _atom_site_fract_z
 _atom_site_occupancy
  Dy  Dy0  1  0.323728  0.681717  0.061527  1
  Dy  Dy1  1  0.170918  0.174567  0.435891  1
  Dy  Dy2  1  0.670692  0.324424  0.563427  1
  Dy  Dy3  1  0.828517  0.819061  0.941894  1
  Dy  Dy4  1  0.670692  0.324424  0.936573  1
  Dy  Dy5  1  0.828517  0.819061  0.558106  1
  Dy  Dy6  1  0.323728  0.681717  0.438473  1
  Dy  Dy7  1  0.170918  0.174567  0.064109  1
  Dy  Dy8  1  0.873640  0.537292  0.250000  1
  Dy  Dy9  1  0.630275  0.028908  0.250000  1
  Dy  Dy10  1  0.134568  0.469896  0.750000  1
  Dy  Dy11  1  0.373910  0.963475  0.750000  1
  Ir  Ir12  1  0.549344  0.615510  0.750000  1
  Os  Os13  1  0.045099  0.885127  0.250000  1
  Pt  Pt14  1  0.453341  0.385549  0.250000  1
  Pt  Pt15  1  0.952113  0.114703  0.750000  1
