# generated using pymatgen
data_Ho2Lu6Ga3Co
_symmetry_space_group_name_H-M   'P 1'
_cell_length_a   9.81035742
_cell_length_b   9.81035792
_cell_length_c   6.85204801
_cell_angle_alpha   90.00554474
_cell_angle_beta   89.99445766
_cell_angle_gamma   119.93872273
_symmetry_Int_Tables_number   1
_chemical_formula_structural   Ho2Lu6Ga3Co
_chemical_formula_sum   'Ho4 Lu12 Ga6 Co2'
_cell_volume   571.46355908
_cell_formula_units_Z   2
loop_
 _symmetry_equiv_pos_site_id
 _symmetry_equiv_pos_as_xyz
  1  'x, y, z'
loop_
 _atom_site_type_symbol
 _atom_site_label
 _atom_site_symmetry_multiplicity
 _atom_site_fract_x
 _atom_site_fract_y
 _atom_site_fract_z
 _atom_site_occupancy
  Ho  Ho0  1  0.929248  0.464710  0.708290  1
  Ho  Ho1  1  0.535290  0.070752  0.708290  1
  Ho  Ho2  1  0.999941  0.000059  0.231080  1
  Ho  Ho3  1  0.999944  0.000056  0.731486  1
  Lu  Lu4  1  0.174297  0.825703  0.509612  1
  Lu  Lu5  1  0.650959  0.824653  0.510238  1
  Lu  Lu6  1  0.175347  0.349041  0.510238  1
  Lu  Lu7  1  0.825716  0.174284  0.013460  1
  Lu  Lu8  1  0.348585  0.174903  0.012322  1
  Lu  Lu9  1  0.825097  0.651415  0.012322  1
  Lu  Lu10  1  0.333732  0.666268  0.828271  1
  Lu  Lu11  1  0.666251  0.333749  0.327544  1
  Lu  Lu12  1  0.463555  0.536445  0.207027  1
  Lu  Lu13  1  0.073488  0.536890  0.207581  1
  Lu  Lu14  1  0.463110  0.926512  0.207581  1
  Lu  Lu15  1  0.536016  0.463984  0.707311  1
  Ga  Ga16  1  0.163808  0.836192  0.959830  1
  Ga  Ga17  1  0.672396  0.836461  0.958773  1
  Ga  Ga18  1  0.163539  0.327604  0.958773  1
  Ga  Ga19  1  0.836878  0.163122  0.457673  1
  Ga  Ga20  1  0.327367  0.163839  0.458366  1
  Ga  Ga21  1  0.836161  0.672633  0.458366  1
  Co  Co22  1  0.333547  0.666453  0.444021  1
  Co  Co23  1  0.665731  0.334269  0.945589  1
