# generated using pymatgen
data_PrNd5(Pd3Rh)2
_symmetry_space_group_name_H-M   'P 1'
_cell_length_a   8.08014461
_cell_length_b   8.08617342
_cell_length_c   8.08249455
_cell_angle_alpha   114.23349353
_cell_angle_beta   114.17557074
_cell_angle_gamma   114.22594450
_symmetry_Int_Tables_number   1
_chemical_formula_structural   PrNd5(Pd3Rh)2
_chemical_formula_sum   'Pr1 Nd5 Pd6 Rh2'
_cell_volume   315.74299443
_cell_formula_units_Z   1
loop_
 _symmetry_equiv_pos_site_id
 _symmetry_equiv_pos_as_xyz
  1  'x, y, z'
loop_
 _atom_site_type_symbol
 _atom_site_label
 _atom_site_symmetry_multiplicity
 _atom_site_fract_x
 _atom_site_fract_y
 _atom_site_fract_z
 _atom_site_occupancy
  Pr  Pr0  1  0.718162  0.596942  0.961792  1
  Nd  Nd1  1  0.403201  0.038607  0.281644  1
  Nd  Nd2  1  0.038426  0.281866  0.403015  1
  Nd  Nd3  1  0.281506  0.402888  0.038538  1
  Nd  Nd4  1  0.596963  0.961373  0.718205  1
  Nd  Nd5  1  0.961550  0.718292  0.597045  1
  Pd  Pd6  1  0.223947  0.056676  0.554378  1
  Pd  Pd7  1  0.057604  0.554565  0.224683  1
  Pd  Pd8  1  0.554481  0.224024  0.057203  1
  Pd  Pd9  1  0.775803  0.943103  0.445717  1
  Pd  Pd10  1  0.943082  0.445227  0.775475  1
  Pd  Pd11  1  0.445154  0.775953  0.942894  1
  Rh  Rh12  1  0.000408  0.000593  0.000050  1
  Rh  Rh13  1  0.499712  0.499891  0.499361  1
