# generated using pymatgen
data_Nd4Dy2Si3Hg
_symmetry_space_group_name_H-M   'P 1'
_cell_length_a   7.73743985
_cell_length_b   7.73743985
_cell_length_c   4.44273800
_cell_angle_alpha   90.00000000
_cell_angle_beta   90.00000000
_cell_angle_gamma   88.53901221
_symmetry_Int_Tables_number   1
_chemical_formula_structural   Nd4Dy2Si3Hg
_chemical_formula_sum   'Nd4 Dy2 Si3 Hg1'
_cell_volume   265.89126480
_cell_formula_units_Z   1
loop_
 _symmetry_equiv_pos_site_id
 _symmetry_equiv_pos_as_xyz
  1  'x, y, z'
loop_
 _atom_site_type_symbol
 _atom_site_label
 _atom_site_symmetry_multiplicity
 _atom_site_fract_x
 _atom_site_fract_y
 _atom_site_fract_z
 _atom_site_occupancy
  Nd  Nd0  1  0.675651  0.175651  0.500000  1
  Nd  Nd1  1  0.337877  0.837877  0.500000  1
  Nd  Nd2  1  0.175152  0.310185  0.500000  1
  Nd  Nd3  1  0.810185  0.675152  0.500000  1
  Dy  Dy4  1  0.503157  0.506062  0.000000  1
  Dy  Dy5  1  0.006062  0.003157  0.000000  1
  Si  Si6  1  0.869009  0.369009  0.000000  1
  Si  Si7  1  0.617661  0.888239  0.000000  1
  Si  Si8  1  0.388239  0.117661  0.000000  1
  Hg  Hg9  1  0.117007  0.617007  0.000000  1
