# generated using pymatgen
data_Zr2Si7(Ni5Mo)2
_symmetry_space_group_name_H-M   'P 1'
_cell_length_a   9.25747747
_cell_length_b   9.22714449
_cell_length_c   3.68010500
_cell_angle_alpha   90.00000000
_cell_angle_beta   90.00000000
_cell_angle_gamma   120.52941833
_symmetry_Int_Tables_number   1
_chemical_formula_structural   Zr2Si7(Ni5Mo)2
_chemical_formula_sum   'Zr2 Si7 Ni10 Mo2'
_cell_volume   270.77536969
_cell_formula_units_Z   1
loop_
 _symmetry_equiv_pos_site_id
 _symmetry_equiv_pos_as_xyz
  1  'x, y, z'
loop_
 _atom_site_type_symbol
 _atom_site_label
 _atom_site_symmetry_multiplicity
 _atom_site_fract_x
 _atom_site_fract_y
 _atom_site_fract_z
 _atom_site_occupancy
  Zr  Zr0  1  0.991061  0.999923  0.000000  1
  Zr  Zr1  1  0.333501  0.667087  0.500000  1
  Si  Si2  1  0.659891  0.320538  0.000000  1
  Si  Si3  1  0.084221  0.453697  0.000000  1
  Si  Si4  1  0.250930  0.209514  0.500000  1
  Si  Si5  1  0.779227  0.044430  0.500000  1
  Si  Si6  1  0.960138  0.750297  0.500000  1
  Si  Si7  1  0.548791  0.628675  0.000000  1
  Si  Si8  1  0.381463  0.927671  0.000000  1
  Ni  Ni9  1  0.289884  0.389698  0.000000  1
  Ni  Ni10  1  0.103659  0.713776  0.000000  1
  Ni  Ni11  1  0.373522  0.167574  0.000000  1
  Ni  Ni12  1  0.794743  0.621908  0.000000  1
  Ni  Ni13  1  0.829960  0.208486  0.000000  1
  Ni  Ni14  1  0.234588  0.946786  0.500000  1
  Ni  Ni15  1  0.051510  0.280396  0.500000  1
  Ni  Ni16  1  0.720255  0.772338  0.500000  1
  Ni  Ni17  1  0.569065  0.114783  0.500000  1
  Ni  Ni18  1  0.607434  0.897678  0.000000  1
  Mo  Mo19  1  0.885784  0.453119  0.500000  1
  Mo  Mo20  1  0.550372  0.431627  0.500000  1
