# generated using pymatgen
data_NdSeBr
_symmetry_space_group_name_H-M   'P 1'
_cell_length_a   7.28205100
_cell_length_b   7.33158824
_cell_length_c   7.22738102
_cell_angle_alpha   79.47840874
_cell_angle_beta   90.00000000
_cell_angle_gamma   90.00000000
_symmetry_Int_Tables_number   1
_chemical_formula_structural   NdSeBr
_chemical_formula_sum   'Nd4 Se4 Br4'
_cell_volume   379.37481071
_cell_formula_units_Z   4
loop_
 _symmetry_equiv_pos_site_id
 _symmetry_equiv_pos_as_xyz
  1  'x, y, z'
loop_
 _atom_site_type_symbol
 _atom_site_label
 _atom_site_symmetry_multiplicity
 _atom_site_fract_x
 _atom_site_fract_y
 _atom_site_fract_z
 _atom_site_occupancy
  Nd  Nd0  1  0.955091  0.795303  0.313906  1
  Nd  Nd1  1  0.044909  0.204697  0.686094  1
  Nd  Nd2  1  0.455091  0.704697  0.686094  1
  Nd  Nd3  1  0.544909  0.295303  0.313906  1
  Se  Se4  1  0.739108  0.990030  0.564978  1
  Se  Se5  1  0.260892  0.009970  0.435022  1
  Se  Se6  1  0.239108  0.509970  0.435022  1
  Se  Se7  1  0.760892  0.490030  0.564978  1
  Br  Br8  1  0.644261  0.678749  0.072665  1
  Br  Br9  1  0.355739  0.321251  0.927335  1
  Br  Br10  1  0.144261  0.821251  0.927335  1
  Br  Br11  1  0.855739  0.178749  0.072665  1
