# generated using pymatgen
data_MnSe2O7
_symmetry_space_group_name_H-M   'P 1'
_cell_length_a   5.30990109
_cell_length_b   7.59901921
_cell_length_c   8.94083359
_cell_angle_alpha   92.54177589
_cell_angle_beta   94.34841973
_cell_angle_gamma   105.51900535
_symmetry_Int_Tables_number   1
_chemical_formula_structural   MnSe2O7
_chemical_formula_sum   'Mn2 Se4 O14'
_cell_volume   345.82436149
_cell_formula_units_Z   2
loop_
 _symmetry_equiv_pos_site_id
 _symmetry_equiv_pos_as_xyz
  1  'x, y, z'
loop_
 _atom_site_type_symbol
 _atom_site_label
 _atom_site_symmetry_multiplicity
 _atom_site_fract_x
 _atom_site_fract_y
 _atom_site_fract_z
 _atom_site_occupancy
  Mn  Mn0  1  0.000000  0.500000  0.000000  1
  Mn  Mn1  1  0.500000  0.000000  0.500000  1
  Se  Se2  1  0.505615  0.647846  0.768584  1
  Se  Se3  1  0.494385  0.352154  0.231416  1
  Se  Se4  1  0.127372  0.247989  0.687549  1
  Se  Se5  1  0.872628  0.752011  0.312451  1
  O  O6  1  0.745598  0.556565  0.817005  1
  O  O7  1  0.254402  0.443435  0.182995  1
  O  O8  1  0.331444  0.684717  0.905925  1
  O  O9  1  0.668556  0.315283  0.094075  1
  O  O10  1  0.600549  0.821736  0.663856  1
  O  O11  1  0.399451  0.178264  0.336144  1
  O  O12  1  0.281778  0.479438  0.632640  1
  O  O13  1  0.718222  0.520562  0.367360  1
  O  O14  1  0.883129  0.189581  0.554304  1
  O  O15  1  0.116871  0.810419  0.445696  1
  O  O16  1  0.347726  0.132059  0.679502  1
  O  O17  1  0.652274  0.867941  0.320498  1
  O  O18  1  0.050622  0.270975  0.861506  1
  O  O19  1  0.949378  0.729025  0.138494  1
