# generated using pymatgen
data_Ho10(InBi)3
_symmetry_space_group_name_H-M   'P 1'
_cell_length_a   9.02834900
_cell_length_b   9.02834824
_cell_length_c   6.53892900
_cell_angle_alpha   90.00000000
_cell_angle_beta   90.00000000
_cell_angle_gamma   119.99999912
_symmetry_Int_Tables_number   1
_chemical_formula_structural   Ho10(InBi)3
_chemical_formula_sum   'Ho10 In3 Bi3'
_cell_volume   461.58735020
_cell_formula_units_Z   1
loop_
 _symmetry_equiv_pos_site_id
 _symmetry_equiv_pos_as_xyz
  1  'x, y, z'
loop_
 _atom_site_type_symbol
 _atom_site_label
 _atom_site_symmetry_multiplicity
 _atom_site_fract_x
 _atom_site_fract_y
 _atom_site_fract_z
 _atom_site_occupancy
  Ho  Ho0  1  0.666667  0.333333  0.006193  1
  Ho  Ho1  1  0.333333  0.666667  0.006193  1
  Ho  Ho2  1  0.333333  0.666667  0.493807  1
  Ho  Ho3  1  0.666667  0.333333  0.493807  1
  Ho  Ho4  1  0.762790  0.762790  0.750000  1
  Ho  Ho5  1  0.237210  0.000000  0.750000  1
  Ho  Ho6  1  0.000000  0.237210  0.750000  1
  Ho  Ho7  1  0.237556  0.237556  0.250000  1
  Ho  Ho8  1  0.762444  0.000000  0.250000  1
  Ho  Ho9  1  0.000000  0.762444  0.250000  1
  In  In10  1  0.607016  0.607016  0.250000  1
  In  In11  1  0.392984  0.000000  0.250000  1
  In  In12  1  0.000000  0.392984  0.250000  1
  Bi  Bi13  1  0.395761  0.395761  0.750000  1
  Bi  Bi14  1  0.604239  0.000000  0.750000  1
  Bi  Bi15  1  0.000000  0.604239  0.750000  1
