# generated using pymatgen
data_Tm6Al24ZnOs6Pd
_symmetry_space_group_name_H-M   'P 1'
_cell_length_a   8.82789053
_cell_length_b   8.82789057
_cell_length_c   9.48239378
_cell_angle_alpha   89.96776401
_cell_angle_beta   90.03223604
_cell_angle_gamma   119.33873513
_symmetry_Int_Tables_number   1
_chemical_formula_structural   Tm6Al24ZnOs6Pd
_chemical_formula_sum   'Tm6 Al24 Zn1 Os6 Pd1'
_cell_volume   644.19576225
_cell_formula_units_Z   1
loop_
 _symmetry_equiv_pos_site_id
 _symmetry_equiv_pos_as_xyz
  1  'x, y, z'
loop_
 _atom_site_type_symbol
 _atom_site_label
 _atom_site_symmetry_multiplicity
 _atom_site_fract_x
 _atom_site_fract_y
 _atom_site_fract_z
 _atom_site_occupancy
  Tm  Tm0  1  0.185330  0.386442  0.246764  1
  Tm  Tm1  1  0.814670  0.613558  0.753236  1
  Tm  Tm2  1  0.613558  0.814670  0.246764  1
  Tm  Tm3  1  0.386442  0.185330  0.753236  1
  Tm  Tm4  1  0.195350  0.804650  0.252844  1
  Tm  Tm5  1  0.804650  0.195350  0.747156  1
  Al  Al6  1  0.329743  0.670257  0.025102  1
  Al  Al7  1  0.670257  0.329743  0.974898  1
  Al  Al8  1  0.668841  0.331159  0.523487  1
  Al  Al9  1  0.331159  0.668841  0.476513  1
  Al  Al10  1  0.157826  0.323470  0.575105  1
  Al  Al11  1  0.842174  0.676530  0.424895  1
  Al  Al12  1  0.676530  0.842174  0.575105  1
  Al  Al13  1  0.847945  0.677879  0.080361  1
  Al  Al14  1  0.323470  0.157826  0.424895  1
  Al  Al15  1  0.152055  0.322121  0.919639  1
  Al  Al16  1  0.164131  0.835869  0.575160  1
  Al  Al17  1  0.322121  0.152055  0.080361  1
  Al  Al18  1  0.835869  0.164131  0.424840  1
  Al  Al19  1  0.677879  0.847945  0.919639  1
  Al  Al20  1  0.835953  0.164047  0.075908  1
  Al  Al21  1  0.164047  0.835953  0.924092  1
  Al  Al22  1  0.560725  0.123273  0.250065  1
  Al  Al23  1  0.439275  0.876727  0.749935  1
  Al  Al24  1  0.876727  0.439275  0.250065  1
  Al  Al25  1  0.123273  0.560725  0.749935  1
  Al  Al26  1  0.562119  0.437881  0.252656  1
  Al  Al27  1  0.437881  0.562119  0.747344  1
  Al  Al28  1  0.998070  0.001930  0.250358  1
  Al  Al29  1  0.001930  0.998070  0.749642  1
  Zn  Zn30  1  0.500000  0.500000  0.000000  1
  Os  Os31  1  0.500000  0.000000  0.000000  1
  Os  Os32  1  0.000000  0.500000  0.000000  1
  Os  Os33  1  0.500000  0.000000  0.500000  1
  Os  Os34  1  0.000000  0.500000  0.500000  1
  Os  Os35  1  0.000000  0.000000  0.000000  1
  Os  Os36  1  0.000000  0.000000  0.500000  1
  Pd  Pd37  1  0.500000  0.500000  0.500000  1
