# generated using pymatgen
data_VAg6PO8
_symmetry_space_group_name_H-M   'P 1'
_cell_length_a   5.75374874
_cell_length_b   5.75374884
_cell_length_c   10.18945375
_cell_angle_alpha   66.78287409
_cell_angle_beta   66.78287370
_cell_angle_gamma   52.36917135
_symmetry_Int_Tables_number   1
_chemical_formula_structural   VAg6PO8
_chemical_formula_sum   'V1 Ag6 P1 O8'
_cell_volume   239.99260513
_cell_formula_units_Z   1
loop_
 _symmetry_equiv_pos_site_id
 _symmetry_equiv_pos_as_xyz
  1  'x, y, z'
loop_
 _atom_site_type_symbol
 _atom_site_label
 _atom_site_symmetry_multiplicity
 _atom_site_fract_x
 _atom_site_fract_y
 _atom_site_fract_z
 _atom_site_occupancy
  V  V0  1  0.546682  0.453318  0.250000  1
  Ag  Ag1  1  0.788072  0.693712  0.901821  1
  Ag  Ag2  1  0.694046  0.786407  0.404905  1
  Ag  Ag3  1  0.213593  0.305954  0.095095  1
  Ag  Ag4  1  0.306288  0.211928  0.598179  1
  Ag  Ag5  1  0.000225  0.998269  0.996641  1
  Ag  Ag6  1  0.001731  0.999775  0.503359  1
  P  P7  1  0.455693  0.544307  0.750000  1
  O  O8  1  0.628934  0.137811  0.205512  1
  O  O9  1  0.862189  0.371066  0.294488  1
  O  O10  1  0.381132  0.829287  0.785598  1
  O  O11  1  0.170713  0.618868  0.714402  1
  O  O12  1  0.545432  0.279095  0.884545  1
  O  O13  1  0.440750  0.756383  0.100685  1
  O  O14  1  0.720905  0.454568  0.615455  1
  O  O15  1  0.243617  0.559250  0.399315  1
