# generated using pymatgen
data_LuHf3(BiRh5)2
_symmetry_space_group_name_H-M   'P 1'
_cell_length_a   4.17571300
_cell_length_b   5.74402635
_cell_length_c   11.27831763
_cell_angle_alpha   89.92162150
_cell_angle_beta   90.00000000
_cell_angle_gamma   90.00000000
_symmetry_Int_Tables_number   1
_chemical_formula_structural   LuHf3(BiRh5)2
_chemical_formula_sum   'Lu1 Hf3 Bi2 Rh10'
_cell_volume   270.51476852
_cell_formula_units_Z   1
loop_
 _symmetry_equiv_pos_site_id
 _symmetry_equiv_pos_as_xyz
  1  'x, y, z'
loop_
 _atom_site_type_symbol
 _atom_site_label
 _atom_site_symmetry_multiplicity
 _atom_site_fract_x
 _atom_site_fract_y
 _atom_site_fract_z
 _atom_site_occupancy
  Lu  Lu0  1  0.500000  0.178904  0.643106  1
  Hf  Hf1  1  0.500000  0.826884  0.355473  1
  Hf  Hf2  1  0.500000  0.675638  0.854024  1
  Hf  Hf3  1  0.500000  0.327097  0.143241  1
  Bi  Bi4  1  0.000000  0.497626  0.499525  1
  Bi  Bi5  1  0.000000  0.999170  0.000421  1
  Rh  Rh6  1  0.500000  0.210881  0.889813  1
  Rh  Rh7  1  0.500000  0.791698  0.116786  1
  Rh  Rh8  1  0.500000  0.702796  0.616380  1
  Rh  Rh9  1  0.500000  0.293957  0.379074  1
  Rh  Rh10  1  0.000000  0.443844  0.753596  1
  Rh  Rh11  1  0.000000  0.562285  0.250608  1
  Rh  Rh12  1  0.000000  0.992070  0.494842  1
  Rh  Rh13  1  0.000000  0.501396  0.001343  1
  Rh  Rh14  1  0.000000  0.062389  0.247263  1
  Rh  Rh15  1  0.000000  0.933365  0.754505  1
