# generated using pymatgen
data_Lu3MgZn2Ga3
_symmetry_space_group_name_H-M   'P 1'
_cell_length_a   6.89809106
_cell_length_b   6.89809116
_cell_length_c   4.29399500
_cell_angle_alpha   90.00000000
_cell_angle_beta   90.00000000
_cell_angle_gamma   118.92815391
_symmetry_Int_Tables_number   1
_chemical_formula_structural   Lu3MgZn2Ga3
_chemical_formula_sum   'Lu3 Mg1 Zn2 Ga3'
_cell_volume   178.82987260
_cell_formula_units_Z   1
loop_
 _symmetry_equiv_pos_site_id
 _symmetry_equiv_pos_as_xyz
  1  'x, y, z'
loop_
 _atom_site_type_symbol
 _atom_site_label
 _atom_site_symmetry_multiplicity
 _atom_site_fract_x
 _atom_site_fract_y
 _atom_site_fract_z
 _atom_site_occupancy
  Lu  Lu0  1  0.576505  0.576505  0.000000  1
  Lu  Lu1  1  0.434867  0.001457  0.000000  1
  Lu  Lu2  1  0.001457  0.434867  0.000000  1
  Mg  Mg3  1  0.235414  0.235414  0.500000  1
  Zn  Zn4  1  0.751190  0.999020  0.500000  1
  Zn  Zn5  1  0.999020  0.751190  0.500000  1
  Ga  Ga6  1  0.990440  0.990440  0.000000  1
  Ga  Ga7  1  0.673504  0.337604  0.500000  1
  Ga  Ga8  1  0.337604  0.673504  0.500000  1
