# generated using pymatgen
data_Nd5Sc3(Ni4As3)4
_symmetry_space_group_name_H-M   'P 1'
_cell_length_a   12.85051400
_cell_length_b   12.85051487
_cell_length_c   3.99561400
_cell_angle_alpha   90.00000000
_cell_angle_beta   90.00000000
_cell_angle_gamma   120.00000292
_symmetry_Int_Tables_number   1
_chemical_formula_structural   Nd5Sc3(Ni4As3)4
_chemical_formula_sum   'Nd5 Sc3 Ni16 As12'
_cell_volume   571.41965233
_cell_formula_units_Z   1
loop_
 _symmetry_equiv_pos_site_id
 _symmetry_equiv_pos_as_xyz
  1  'x, y, z'
loop_
 _atom_site_type_symbol
 _atom_site_label
 _atom_site_symmetry_multiplicity
 _atom_site_fract_x
 _atom_site_fract_y
 _atom_site_fract_z
 _atom_site_occupancy
  Nd  Nd0  1  0.187134  0.187134  0.500000  1
  Nd  Nd1  1  0.812866  0.000000  0.500000  1
  Nd  Nd2  1  0.000000  0.812866  0.500000  1
  Nd  Nd3  1  0.333333  0.666667  0.000000  1
  Nd  Nd4  1  0.666667  0.333333  0.000000  1
  Sc  Sc5  1  0.569977  0.569977  0.000000  1
  Sc  Sc6  1  0.430023  0.000000  0.000000  1
  Sc  Sc7  1  0.000000  0.430023  0.000000  1
  Ni  Ni8  1  0.721873  0.721873  0.500000  1
  Ni  Ni9  1  0.278127  0.000000  0.500000  1
  Ni  Ni10  1  0.000000  0.278127  0.500000  1
  Ni  Ni11  1  0.186863  0.379818  0.000000  1
  Ni  Ni12  1  0.620182  0.807045  0.000000  1
  Ni  Ni13  1  0.192955  0.813137  0.000000  1
  Ni  Ni14  1  0.807045  0.620182  0.000000  1
  Ni  Ni15  1  0.813137  0.192955  0.000000  1
  Ni  Ni16  1  0.379818  0.186863  0.000000  1
  Ni  Ni17  1  0.363182  0.482984  0.500000  1
  Ni  Ni18  1  0.517016  0.880199  0.500000  1
  Ni  Ni19  1  0.119801  0.636818  0.500000  1
  Ni  Ni20  1  0.880199  0.517016  0.500000  1
  Ni  Ni21  1  0.636818  0.119801  0.500000  1
  Ni  Ni22  1  0.482984  0.363182  0.500000  1
  Ni  Ni23  1  0.000000  0.000000  0.000000  1
  As  As24  1  0.819915  0.819915  0.000000  1
  As  As25  1  0.180085  0.000000  0.000000  1
  As  As26  1  0.000000  0.180085  0.000000  1
  As  As27  1  0.170308  0.475381  0.500000  1
  As  As28  1  0.524619  0.694927  0.500000  1
  As  As29  1  0.305073  0.829692  0.500000  1
  As  As30  1  0.694927  0.524619  0.500000  1
  As  As31  1  0.829692  0.305073  0.500000  1
  As  As32  1  0.475381  0.170308  0.500000  1
  As  As33  1  0.362454  0.362454  0.000000  1
  As  As34  1  0.637546  0.000000  0.000000  1
  As  As35  1  0.000000  0.637546  0.000000  1
