# generated using pymatgen
data_Hf6Al16Co2Cu4Ru
_symmetry_space_group_name_H-M   'P 1'
_cell_length_a   8.57345050
_cell_length_b   8.57345175
_cell_length_c   8.56704100
_cell_angle_alpha   60.02472824
_cell_angle_beta   60.02472342
_cell_angle_gamma   59.95054008
_symmetry_Int_Tables_number   1
_chemical_formula_structural   Hf6Al16Co2Cu4Ru
_chemical_formula_sum   'Hf6 Al16 Co2 Cu4 Ru1'
_cell_volume   445.27333442
_cell_formula_units_Z   1
loop_
 _symmetry_equiv_pos_site_id
 _symmetry_equiv_pos_as_xyz
  1  'x, y, z'
loop_
 _atom_site_type_symbol
 _atom_site_label
 _atom_site_symmetry_multiplicity
 _atom_site_fract_x
 _atom_site_fract_y
 _atom_site_fract_z
 _atom_site_occupancy
  Hf  Hf0  1  0.687528  0.312472  0.312472  1
  Hf  Hf1  1  0.312472  0.687528  0.687528  1
  Hf  Hf2  1  0.312472  0.687528  0.312472  1
  Hf  Hf3  1  0.687528  0.312472  0.687528  1
  Hf  Hf4  1  0.307742  0.307742  0.692258  1
  Hf  Hf5  1  0.692258  0.692258  0.307742  1
  Al  Al6  1  0.336309  0.336309  0.328609  1
  Al  Al7  1  0.663691  0.663691  0.671391  1
  Al  Al8  1  0.336309  0.336309  0.998773  1
  Al  Al9  1  0.328609  0.998773  0.336309  1
  Al  Al10  1  0.663691  0.663691  0.001227  1
  Al  Al11  1  0.671391  0.001227  0.663691  1
  Al  Al12  1  0.998773  0.328609  0.336309  1
  Al  Al13  1  0.001227  0.671391  0.663691  1
  Al  Al14  1  0.114893  0.114893  0.128013  1
  Al  Al15  1  0.885107  0.885107  0.871987  1
  Al  Al16  1  0.114893  0.114893  0.642200  1
  Al  Al17  1  0.128013  0.642200  0.114893  1
  Al  Al18  1  0.885107  0.885107  0.357800  1
  Al  Al19  1  0.871987  0.357800  0.885107  1
  Al  Al20  1  0.642200  0.128013  0.114893  1
  Al  Al21  1  0.357800  0.871987  0.885107  1
  Co  Co22  1  0.000000  0.000000  0.500000  1
  Co  Co23  1  0.500000  0.500000  0.000000  1
  Cu  Cu24  1  0.500000  0.000000  0.000000  1
  Cu  Cu25  1  0.000000  0.500000  0.500000  1
  Cu  Cu26  1  0.000000  0.500000  0.000000  1
  Cu  Cu27  1  0.500000  0.000000  0.500000  1
  Ru  Ru28  1  0.000000  0.000000  0.000000  1
