# generated using pymatgen
data_Pr7Sm(B4Br5)2
_symmetry_space_group_name_H-M   'P 1'
_cell_length_a   9.39638798
_cell_length_b   9.39638928
_cell_length_c   19.41692368
_cell_angle_alpha   75.74980780
_cell_angle_beta   75.74980522
_cell_angle_gamma   26.48448623
_symmetry_Int_Tables_number   1
_chemical_formula_structural   Pr7Sm(B4Br5)2
_chemical_formula_sum   'Pr7 Sm1 B8 Br10'
_cell_volume   739.67973208
_cell_formula_units_Z   1
loop_
 _symmetry_equiv_pos_site_id
 _symmetry_equiv_pos_as_xyz
  1  'x, y, z'
loop_
 _atom_site_type_symbol
 _atom_site_label
 _atom_site_symmetry_multiplicity
 _atom_site_fract_x
 _atom_site_fract_y
 _atom_site_fract_z
 _atom_site_occupancy
  Pr  Pr0  1  0.609772  0.609772  0.722356  1
  Pr  Pr1  1  0.390293  0.390293  0.277163  1
  Pr  Pr2  1  0.973661  0.973661  0.628100  1
  Pr  Pr3  1  0.026666  0.026666  0.371970  1
  Pr  Pr4  1  0.331294  0.331294  0.791934  1
  Pr  Pr5  1  0.668465  0.668465  0.206898  1
  Pr  Pr6  1  0.968876  0.968876  0.887637  1
  Sm  Sm7  1  0.030215  0.030215  0.116283  1
  B  B8  1  0.155698  0.785723  0.757969  1
  B  B9  1  0.214375  0.844115  0.242219  1
  B  B10  1  0.844115  0.214375  0.242219  1
  B  B11  1  0.785723  0.155698  0.757969  1
  B  B12  1  0.470536  0.470536  0.807250  1
  B  B13  1  0.529178  0.529178  0.192748  1
  B  B14  1  0.469860  0.469860  0.708837  1
  B  B15  1  0.530372  0.530372  0.291288  1
  Br  Br16  1  0.143939  0.143939  0.603530  1
  Br  Br17  1  0.856305  0.856305  0.395802  1
  Br  Br18  1  0.145410  0.145410  0.827106  1
  Br  Br19  1  0.856439  0.856439  0.170931  1
  Br  Br20  1  0.798320  0.798320  0.911085  1
  Br  Br21  1  0.197683  0.197683  0.087218  1
  Br  Br22  1  0.796905  0.796905  0.685118  1
  Br  Br23  1  0.203832  0.203832  0.313148  1
  Br  Br24  1  0.499956  0.499956  0.499874  1
  Br  Br25  1  0.502112  0.502112  0.003348  1
