# generated using pymatgen
data_Dy11Ho(OsRu)2
_symmetry_space_group_name_H-M   'P 1'
_cell_length_a   6.31430294
_cell_length_b   7.34249660
_cell_length_c   9.15895802
_cell_angle_alpha   90.00321541
_cell_angle_beta   90.07649517
_cell_angle_gamma   90.04640936
_symmetry_Int_Tables_number   1
_chemical_formula_structural   Dy11Ho(OsRu)2
_chemical_formula_sum   'Dy11 Ho1 Os2 Ru2'
_cell_volume   424.63394338
_cell_formula_units_Z   1
loop_
 _symmetry_equiv_pos_site_id
 _symmetry_equiv_pos_as_xyz
  1  'x, y, z'
loop_
 _atom_site_type_symbol
 _atom_site_label
 _atom_site_symmetry_multiplicity
 _atom_site_fract_x
 _atom_site_fract_y
 _atom_site_fract_z
 _atom_site_occupancy
  Dy  Dy0  1  0.328746  0.676606  0.064568  1
  Dy  Dy1  1  0.170922  0.176682  0.435066  1
  Dy  Dy2  1  0.668168  0.324426  0.563288  1
  Dy  Dy3  1  0.832136  0.824785  0.936977  1
  Dy  Dy4  1  0.668197  0.324308  0.936975  1
  Dy  Dy5  1  0.831886  0.824446  0.563256  1
  Dy  Dy6  1  0.328891  0.676532  0.435407  1
  Dy  Dy7  1  0.868196  0.538232  0.249856  1
  Dy  Dy8  1  0.631805  0.038551  0.249752  1
  Dy  Dy9  1  0.133226  0.459143  0.750187  1
  Dy  Dy10  1  0.366767  0.959420  0.750259  1
  Ho  Ho11  1  0.170902  0.176521  0.064717  1
  Os  Os12  1  0.039987  0.885134  0.249707  1
  Os  Os13  1  0.459800  0.384336  0.249655  1
  Ru  Ru14  1  0.962974  0.115491  0.750411  1
  Ru  Ru15  1  0.537398  0.615387  0.749919  1
