# generated using pymatgen
data_Pr2Y2TmSi4
_symmetry_space_group_name_H-M   'P 1'
_cell_length_a   7.50509500
_cell_length_b   7.79874000
_cell_length_c   14.85156300
_cell_angle_alpha   90.00000000
_cell_angle_beta   90.00000000
_cell_angle_gamma   90.00000000
_symmetry_Int_Tables_number   1
_chemical_formula_structural   Pr2Y2TmSi4
_chemical_formula_sum   'Pr8 Y8 Tm4 Si16'
_cell_volume   869.26620885
_cell_formula_units_Z   4
loop_
 _symmetry_equiv_pos_site_id
 _symmetry_equiv_pos_as_xyz
  1  'x, y, z'
loop_
 _atom_site_type_symbol
 _atom_site_label
 _atom_site_symmetry_multiplicity
 _atom_site_fract_x
 _atom_site_fract_y
 _atom_site_fract_z
 _atom_site_occupancy
  Pr  Pr0  1  0.023134  0.179087  0.401891  1
  Pr  Pr1  1  0.523134  0.320913  0.401891  1
  Pr  Pr2  1  0.476866  0.679087  0.901891  1
  Pr  Pr3  1  0.476866  0.679087  0.598109  1
  Pr  Pr4  1  0.976866  0.820913  0.598109  1
  Pr  Pr5  1  0.976866  0.820913  0.901891  1
  Pr  Pr6  1  0.523134  0.320913  0.098109  1
  Pr  Pr7  1  0.023134  0.179087  0.098109  1
  Y  Y8  1  0.321254  0.179240  0.623080  1
  Y  Y9  1  0.678746  0.820760  0.376920  1
  Y  Y10  1  0.178746  0.679240  0.376920  1
  Y  Y11  1  0.821254  0.320760  0.876920  1
  Y  Y12  1  0.821254  0.320760  0.623080  1
  Y  Y13  1  0.321254  0.179240  0.876920  1
  Y  Y14  1  0.178746  0.679240  0.123080  1
  Y  Y15  1  0.678746  0.820760  0.123080  1
  Tm  Tm16  1  0.652331  0.988214  0.750000  1
  Tm  Tm17  1  0.847669  0.488214  0.250000  1
  Tm  Tm18  1  0.347669  0.011786  0.250000  1
  Tm  Tm19  1  0.152331  0.511786  0.750000  1
  Si  Si20  1  0.271053  0.879135  0.750000  1
  Si  Si21  1  0.473801  0.610883  0.250000  1
  Si  Si22  1  0.026199  0.110883  0.750000  1
  Si  Si23  1  0.526199  0.389117  0.750000  1
  Si  Si24  1  0.144901  0.469856  0.539949  1
  Si  Si25  1  0.973801  0.889117  0.250000  1
  Si  Si26  1  0.728947  0.120865  0.250000  1
  Si  Si27  1  0.855099  0.530144  0.039949  1
  Si  Si28  1  0.355099  0.969856  0.039949  1
  Si  Si29  1  0.144901  0.469856  0.960051  1
  Si  Si30  1  0.644901  0.030144  0.539949  1
  Si  Si31  1  0.355099  0.969856  0.460051  1
  Si  Si32  1  0.855099  0.530144  0.460051  1
  Si  Si33  1  0.771053  0.620865  0.750000  1
  Si  Si34  1  0.228947  0.379135  0.250000  1
  Si  Si35  1  0.644901  0.030144  0.960051  1
