# generated using pymatgen
data_CaY6NiI12
_symmetry_space_group_name_H-M   'P 1'
_cell_length_a   9.78349662
_cell_length_b   9.78349605
_cell_length_c   9.78349662
_cell_angle_alpha   106.82856373
_cell_angle_beta   106.82857331
_cell_angle_gamma   106.82857264
_symmetry_Int_Tables_number   1
_chemical_formula_structural   CaY6NiI12
_chemical_formula_sum   'Ca1 Y6 Ni1 I12'
_cell_volume   783.49879307
_cell_formula_units_Z   1
loop_
 _symmetry_equiv_pos_site_id
 _symmetry_equiv_pos_as_xyz
  1  'x, y, z'
loop_
 _atom_site_type_symbol
 _atom_site_label
 _atom_site_symmetry_multiplicity
 _atom_site_fract_x
 _atom_site_fract_y
 _atom_site_fract_z
 _atom_site_occupancy
  Ca  Ca0  1  0.500000  0.500000  0.500000  1
  Y  Y1  1  0.024257  0.095230  0.293276  1
  Y  Y2  1  0.095230  0.293276  0.024257  1
  Y  Y3  1  0.293276  0.024257  0.095230  1
  Y  Y4  1  0.975743  0.904770  0.706724  1
  Y  Y5  1  0.904770  0.706724  0.975743  1
  Y  Y6  1  0.706724  0.975743  0.904770  1
  Ni  Ni7  1  0.000000  0.000000  0.000000  1
  I  I8  1  0.149836  0.456150  0.377982  1
  I  I9  1  0.456150  0.377982  0.149836  1
  I  I10  1  0.377982  0.149836  0.456150  1
  I  I11  1  0.850164  0.543850  0.622018  1
  I  I12  1  0.543850  0.622018  0.850164  1
  I  I13  1  0.622018  0.850164  0.543850  1
  I  I14  1  0.678941  0.072072  0.223267  1
  I  I15  1  0.072072  0.223267  0.678941  1
  I  I16  1  0.223267  0.678941  0.072072  1
  I  I17  1  0.321059  0.927928  0.776733  1
  I  I18  1  0.927928  0.776733  0.321059  1
  I  I19  1  0.776733  0.321059  0.927928  1
