# generated using pymatgen
data_Th3Cu2(Si2Rh)2
_symmetry_space_group_name_H-M   'P 1'
_cell_length_a   4.15894650
_cell_length_b   4.10293849
_cell_length_c   12.50307356
_cell_angle_alpha   99.44361352
_cell_angle_beta   99.57375253
_cell_angle_gamma   90.00001829
_symmetry_Int_Tables_number   1
_chemical_formula_structural   Th3Cu2(Si2Rh)2
_chemical_formula_sum   'Th3 Cu2 Si4 Rh2'
_cell_volume   207.44688676
_cell_formula_units_Z   1
loop_
 _symmetry_equiv_pos_site_id
 _symmetry_equiv_pos_as_xyz
  1  'x, y, z'
loop_
 _atom_site_type_symbol
 _atom_site_label
 _atom_site_symmetry_multiplicity
 _atom_site_fract_x
 _atom_site_fract_y
 _atom_site_fract_z
 _atom_site_occupancy
  Th  Th0  1  0.853445  0.353445  0.706892  1
  Th  Th1  1  0.146555  0.646555  0.293108  1
  Th  Th2  1  0.000000  0.000000  0.000000  1
  Cu  Cu3  1  0.596688  0.096688  0.193376  1
  Cu  Cu4  1  0.403312  0.903312  0.806624  1
  Si  Si5  1  0.450738  0.450738  0.901477  1
  Si  Si6  1  0.549262  0.549262  0.098523  1
  Si  Si7  1  0.695366  0.195366  0.390732  1
  Si  Si8  1  0.304634  0.804634  0.609268  1
  Rh  Rh9  1  0.249230  0.249230  0.498459  1
  Rh  Rh10  1  0.750770  0.750770  0.501541  1
