# generated using pymatgen
data_Yb4Tm2Al17Si7Os8
_symmetry_space_group_name_H-M   'P 1'
_cell_length_a   8.66894048
_cell_length_b   8.64839548
_cell_length_c   9.57102500
_cell_angle_alpha   90.00000000
_cell_angle_beta   90.00000000
_cell_angle_gamma   120.20008276
_symmetry_Int_Tables_number   1
_chemical_formula_structural   Yb4Tm2Al17Si7Os8
_chemical_formula_sum   'Yb4 Tm2 Al17 Si7 Os8'
_cell_volume   620.17106409
_cell_formula_units_Z   1
loop_
 _symmetry_equiv_pos_site_id
 _symmetry_equiv_pos_as_xyz
  1  'x, y, z'
loop_
 _atom_site_type_symbol
 _atom_site_label
 _atom_site_symmetry_multiplicity
 _atom_site_fract_x
 _atom_site_fract_y
 _atom_site_fract_z
 _atom_site_occupancy
  Yb  Yb0  1  0.192860  0.388358  0.250000  1
  Yb  Yb1  1  0.806163  0.612297  0.750000  1
  Yb  Yb2  1  0.389958  0.191674  0.750000  1
  Yb  Yb3  1  0.800942  0.192317  0.750000  1
  Tm  Tm4  1  0.608658  0.806312  0.250000  1
  Tm  Tm5  1  0.196844  0.803358  0.250000  1
  Al  Al6  1  0.165783  0.332718  0.576414  1
  Al  Al7  1  0.833498  0.669776  0.420990  1
  Al  Al8  1  0.668653  0.834631  0.576990  1
  Al  Al9  1  0.833498  0.669776  0.079010  1
  Al  Al10  1  0.331726  0.166557  0.423279  1
  Al  Al11  1  0.165783  0.332718  0.923586  1
  Al  Al12  1  0.165695  0.833695  0.576075  1
  Al  Al13  1  0.331726  0.166557  0.076721  1
  Al  Al14  1  0.834526  0.164943  0.422477  1
  Al  Al15  1  0.668653  0.834631  0.923010  1
  Al  Al16  1  0.834526  0.164943  0.077523  1
  Al  Al17  1  0.165695  0.833695  0.923925  1
  Al  Al18  1  0.125753  0.565803  0.750000  1
  Al  Al19  1  0.563565  0.434129  0.250000  1
  Al  Al20  1  0.438535  0.566289  0.750000  1
  Al  Al21  1  0.999270  0.998486  0.250000  1
  Al  Al22  1  0.000327  0.001732  0.750000  1
  Si  Si23  1  0.333512  0.664407  0.040632  1
  Si  Si24  1  0.666152  0.335545  0.963184  1
  Si  Si25  1  0.666152  0.335545  0.536816  1
  Si  Si26  1  0.333512  0.664407  0.459368  1
  Si  Si27  1  0.565104  0.125238  0.250000  1
  Si  Si28  1  0.435220  0.871959  0.750000  1
  Si  Si29  1  0.874297  0.433070  0.250000  1
  Os  Os30  1  0.500187  0.999356  0.004601  1
  Os  Os31  1  0.999333  0.500954  0.009092  1
  Os  Os32  1  0.500187  0.999356  0.495399  1
  Os  Os33  1  0.501474  0.501694  0.002256  1
  Os  Os34  1  0.999333  0.500954  0.490908  1
  Os  Os35  1  0.501474  0.501694  0.497744  1
  Os  Os36  1  0.000715  0.000213  0.999214  1
  Os  Os37  1  0.000715  0.000213  0.500786  1
