# generated using pymatgen
data_Sm8Sc12Si15Ag
_symmetry_space_group_name_H-M   'P 1'
_cell_length_a   7.21566485
_cell_length_b   7.44931564
_cell_length_c   14.21216513
_cell_angle_alpha   89.94598278
_cell_angle_beta   89.61456642
_cell_angle_gamma   90.21928917
_symmetry_Int_Tables_number   1
_chemical_formula_structural   Sm8Sc12Si15Ag
_chemical_formula_sum   'Sm8 Sc12 Si15 Ag1'
_cell_volume   763.90572192
_cell_formula_units_Z   1
loop_
 _symmetry_equiv_pos_site_id
 _symmetry_equiv_pos_as_xyz
  1  'x, y, z'
loop_
 _atom_site_type_symbol
 _atom_site_label
 _atom_site_symmetry_multiplicity
 _atom_site_fract_x
 _atom_site_fract_y
 _atom_site_fract_z
 _atom_site_occupancy
  Sm  Sm0  1  0.012488  0.174034  0.098048  1
  Sm  Sm1  1  0.987227  0.827287  0.903378  1
  Sm  Sm2  1  0.486947  0.674768  0.903205  1
  Sm  Sm3  1  0.988894  0.832195  0.597696  1
  Sm  Sm4  1  0.512358  0.325731  0.097000  1
  Sm  Sm5  1  0.009190  0.171008  0.398808  1
  Sm  Sm6  1  0.513164  0.324525  0.399617  1
  Sm  Sm7  1  0.493470  0.676504  0.600644  1
  Sc  Sc8  1  0.162557  0.499397  0.753521  1
  Sc  Sc9  1  0.838347  0.500211  0.250738  1
  Sc  Sc10  1  0.338598  0.998660  0.248491  1
  Sc  Sc11  1  0.664680  0.997879  0.751740  1
  Sc  Sc12  1  0.341811  0.172123  0.627474  1
  Sc  Sc13  1  0.665925  0.823621  0.373810  1
  Sc  Sc14  1  0.167061  0.675876  0.371572  1
  Sc  Sc15  1  0.670565  0.824707  0.124460  1
  Sc  Sc16  1  0.824544  0.325353  0.625197  1
  Sc  Sc17  1  0.328389  0.174520  0.876034  1
  Sc  Sc18  1  0.830152  0.322832  0.875982  1
  Sc  Sc19  1  0.169288  0.676155  0.125077  1
  Si  Si20  1  0.036259  0.125568  0.749799  1
  Si  Si21  1  0.964556  0.878965  0.248935  1
  Si  Si22  1  0.465847  0.620475  0.248212  1
  Si  Si23  1  0.535227  0.380885  0.752339  1
  Si  Si24  1  0.285917  0.878101  0.750944  1
  Si  Si25  1  0.711563  0.122427  0.248321  1
  Si  Si26  1  0.213813  0.376569  0.248849  1
  Si  Si27  1  0.789549  0.622726  0.752030  1
  Si  Si28  1  0.837649  0.540068  0.458679  1
  Si  Si29  1  0.341459  0.960676  0.461077  1
  Si  Si30  1  0.846526  0.536300  0.039262  1
  Si  Si31  1  0.655684  0.036862  0.538128  1
  Si  Si32  1  0.152523  0.463760  0.961371  1
  Si  Si33  1  0.653922  0.036028  0.960123  1
  Si  Si34  1  0.345169  0.963579  0.039969  1
  Ag  Ag35  1  0.158680  0.459626  0.539469  1
