# generated using pymatgen
data_KSm3(SbAu)4
_symmetry_space_group_name_H-M   'P 1'
_cell_length_a   4.66469000
_cell_length_b   4.66469046
_cell_length_c   17.42588800
_cell_angle_alpha   90.00000000
_cell_angle_beta   90.00000000
_cell_angle_gamma   120.00001089
_symmetry_Int_Tables_number   1
_chemical_formula_structural   KSm3(SbAu)4
_chemical_formula_sum   'K1 Sm3 Sb4 Au4'
_cell_volume   328.37578214
_cell_formula_units_Z   1
loop_
 _symmetry_equiv_pos_site_id
 _symmetry_equiv_pos_as_xyz
  1  'x, y, z'
loop_
 _atom_site_type_symbol
 _atom_site_label
 _atom_site_symmetry_multiplicity
 _atom_site_fract_x
 _atom_site_fract_y
 _atom_site_fract_z
 _atom_site_occupancy
  K  K0  1  0.000000  0.000000  0.250000  1
  Sm  Sm1  1  0.000000  0.000000  0.513034  1
  Sm  Sm2  1  0.000000  0.000000  0.986966  1
  Sm  Sm3  1  0.000000  0.000000  0.750000  1
  Sb  Sb4  1  0.333333  0.666667  0.390925  1
  Sb  Sb5  1  0.666667  0.333333  0.617943  1
  Sb  Sb6  1  0.666667  0.333333  0.882057  1
  Sb  Sb7  1  0.333333  0.666667  0.109075  1
  Au  Au8  1  0.666667  0.333333  0.425278  1
  Au  Au9  1  0.333333  0.666667  0.665484  1
  Au  Au10  1  0.333333  0.666667  0.834516  1
  Au  Au11  1  0.666667  0.333333  0.074722  1
