# generated using pymatgen
data_Zr7Os
_symmetry_space_group_name_H-M   'P 1'
_cell_length_a   6.06217479
_cell_length_b   5.85270413
_cell_length_c   5.85812137
_cell_angle_alpha   84.96510671
_cell_angle_beta   99.38912312
_cell_angle_gamma   121.10933418
_symmetry_Int_Tables_number   1
_chemical_formula_structural   Zr7Os
_chemical_formula_sum   'Zr7 Os1'
_cell_volume   175.56938089
_cell_formula_units_Z   1
loop_
 _symmetry_equiv_pos_site_id
 _symmetry_equiv_pos_as_xyz
  1  'x, y, z'
loop_
 _atom_site_type_symbol
 _atom_site_label
 _atom_site_symmetry_multiplicity
 _atom_site_fract_x
 _atom_site_fract_y
 _atom_site_fract_z
 _atom_site_occupancy
  Zr  Zr0  1  0.905439  0.744803  0.413332  1
  Zr  Zr1  1  0.651061  0.742916  0.867869  1
  Zr  Zr2  1  0.488630  0.191877  0.629363  1
  Zr  Zr3  1  0.262606  0.193821  0.103330  1
  Zr  Zr4  1  0.810345  0.289423  0.107341  1
  Zr  Zr5  1  0.040769  0.296143  0.633227  1
  Zr  Zr6  1  0.386250  0.740553  0.316136  1
  Os  Os7  1  0.146831  0.742959  0.866458  1
