# generated using pymatgen
data_Dy20Sn15Sb
_symmetry_space_group_name_H-M   'P 1'
_cell_length_a   8.07029078
_cell_length_b   8.18570690
_cell_length_c   15.44959134
_cell_angle_alpha   90.04897743
_cell_angle_beta   90.27226705
_cell_angle_gamma   90.02258434
_symmetry_Int_Tables_number   1
_chemical_formula_structural   Dy20Sn15Sb
_chemical_formula_sum   'Dy20 Sn15 Sb1'
_cell_volume   1020.60401607
_cell_formula_units_Z   1
loop_
 _symmetry_equiv_pos_site_id
 _symmetry_equiv_pos_as_xyz
  1  'x, y, z'
loop_
 _atom_site_type_symbol
 _atom_site_label
 _atom_site_symmetry_multiplicity
 _atom_site_fract_x
 _atom_site_fract_y
 _atom_site_fract_z
 _atom_site_occupancy
  Dy  Dy0  1  0.369428  0.836470  0.878839  1
  Dy  Dy1  1  0.867893  0.663306  0.622172  1
  Dy  Dy2  1  0.632127  0.163158  0.377589  1
  Dy  Dy3  1  0.130745  0.337566  0.121896  1
  Dy  Dy4  1  0.632250  0.163587  0.121250  1
  Dy  Dy5  1  0.132525  0.336764  0.377567  1
  Dy  Dy6  1  0.367871  0.836750  0.622117  1
  Dy  Dy7  1  0.868251  0.663364  0.878143  1
  Dy  Dy8  1  0.523560  0.323015  0.901391  1
  Dy  Dy9  1  0.021289  0.179137  0.597876  1
  Dy  Dy10  1  0.478729  0.678903  0.401959  1
  Dy  Dy11  1  0.975289  0.821047  0.098901  1
  Dy  Dy12  1  0.478637  0.677613  0.098088  1
  Dy  Dy13  1  0.978735  0.820900  0.401948  1
  Dy  Dy14  1  0.521325  0.320839  0.597869  1
  Dy  Dy15  1  0.020927  0.179369  0.901240  1
  Dy  Dy16  1  0.198732  0.501879  0.749795  1
  Dy  Dy17  1  0.698471  0.997665  0.750399  1
  Dy  Dy18  1  0.801133  0.497953  0.250428  1
  Dy  Dy19  1  0.301496  0.001852  0.251193  1
  Sn  Sn20  1  0.791792  0.464728  0.457973  1
  Sn  Sn21  1  0.708331  0.964626  0.541844  1
  Sn  Sn22  1  0.209531  0.534450  0.958119  1
  Sn  Sn23  1  0.712150  0.965518  0.957942  1
  Sn  Sn24  1  0.208118  0.535096  0.541827  1
  Sn  Sn25  1  0.292159  0.035084  0.458068  1
  Sn  Sn26  1  0.791233  0.465528  0.042100  1
  Sn  Sn27  1  0.565583  0.619374  0.750037  1
  Sn  Sn28  1  0.066256  0.880846  0.750843  1
  Sn  Sn29  1  0.434452  0.380336  0.249188  1
  Sn  Sn30  1  0.934400  0.118988  0.249079  1
  Sn  Sn31  1  0.330277  0.146918  0.750099  1
  Sn  Sn32  1  0.830292  0.353275  0.749935  1
  Sn  Sn33  1  0.668915  0.852974  0.249788  1
  Sn  Sn34  1  0.169474  0.647239  0.249676  1
  Sb  Sb35  1  0.287624  0.033883  0.042823  1
