# generated using pymatgen
data_LaPrGd4In6O18
_symmetry_space_group_name_H-M   'P 1'
_cell_length_a   6.48319900
_cell_length_b   6.48319959
_cell_length_c   12.50109100
_cell_angle_alpha   90.00000000
_cell_angle_beta   90.00000000
_cell_angle_gamma   119.99999189
_symmetry_Int_Tables_number   1
_chemical_formula_structural   LaPrGd4In6O18
_chemical_formula_sum   'La1 Pr1 Gd4 In6 O18'
_cell_volume   455.04812359
_cell_formula_units_Z   1
loop_
 _symmetry_equiv_pos_site_id
 _symmetry_equiv_pos_as_xyz
  1  'x, y, z'
loop_
 _atom_site_type_symbol
 _atom_site_label
 _atom_site_symmetry_multiplicity
 _atom_site_fract_x
 _atom_site_fract_y
 _atom_site_fract_z
 _atom_site_occupancy
  La  La0  1  0.666667  0.333333  0.965647  1
  Pr  Pr1  1  0.333333  0.666667  0.462528  1
  Gd  Gd2  1  0.666667  0.333333  0.462190  1
  Gd  Gd3  1  0.333333  0.666667  0.960669  1
  Gd  Gd4  1  0.000000  0.000000  0.996971  1
  Gd  Gd5  1  0.000000  0.000000  0.497318  1
  In  In6  1  0.668069  0.667471  0.726313  1
  In  In7  1  0.999402  0.331931  0.726313  1
  In  In8  1  0.331525  0.332449  0.227473  1
  In  In9  1  0.000924  0.668475  0.227473  1
  In  In10  1  0.332529  0.000598  0.726313  1
  In  In11  1  0.667551  0.999076  0.227473  1
  O  O12  1  0.691425  0.701110  0.896166  1
  O  O13  1  0.009686  0.308575  0.896166  1
  O  O14  1  0.309328  0.299283  0.396577  1
  O  O15  1  0.989954  0.690672  0.396577  1
  O  O16  1  0.298890  0.990314  0.896166  1
  O  O17  1  0.700717  0.010046  0.396577  1
  O  O18  1  0.649030  0.640699  0.558183  1
  O  O19  1  0.991669  0.350970  0.558183  1
  O  O20  1  0.347765  0.360257  0.058885  1
  O  O21  1  0.012492  0.652235  0.058885  1
  O  O22  1  0.359301  0.008331  0.558183  1
  O  O23  1  0.639743  0.987508  0.058885  1
  O  O24  1  0.000000  0.000000  0.696559  1
  O  O25  1  0.000000  0.000000  0.197186  1
  O  O26  1  0.666667  0.333333  0.751767  1
  O  O27  1  0.333333  0.666667  0.255230  1
  O  O28  1  0.666667  0.333333  0.246834  1
  O  O29  1  0.333333  0.666667  0.748096  1
