# generated using pymatgen
data_Ce3Pa(HgRh2)2
_symmetry_space_group_name_H-M   'P 1'
_cell_length_a   7.72217063
_cell_length_b   7.72217107
_cell_length_c   3.66486600
_cell_angle_alpha   90.00000000
_cell_angle_beta   90.00000000
_cell_angle_gamma   91.49403602
_symmetry_Int_Tables_number   1
_chemical_formula_structural   Ce3Pa(HgRh2)2
_chemical_formula_sum   'Ce3 Pa1 Hg2 Rh4'
_cell_volume   218.46871076
_cell_formula_units_Z   1
loop_
 _symmetry_equiv_pos_site_id
 _symmetry_equiv_pos_as_xyz
  1  'x, y, z'
loop_
 _atom_site_type_symbol
 _atom_site_label
 _atom_site_symmetry_multiplicity
 _atom_site_fract_x
 _atom_site_fract_y
 _atom_site_fract_z
 _atom_site_occupancy
  Ce  Ce0  1  0.328379  0.828379  0.500000  1
  Ce  Ce1  1  0.171820  0.331294  0.500000  1
  Ce  Ce2  1  0.831294  0.671820  0.500000  1
  Pa  Pa3  1  0.666522  0.166522  0.500000  1
  Hg  Hg4  1  0.006072  0.000373  0.000000  1
  Hg  Hg5  1  0.500373  0.506072  0.000000  1
  Rh  Rh6  1  0.128191  0.628191  0.000000  1
  Rh  Rh7  1  0.850513  0.350513  0.000000  1
  Rh  Rh8  1  0.637912  0.878925  0.000000  1
  Rh  Rh9  1  0.378925  0.137912  0.000000  1
