# generated using pymatgen
data_Cs6VPSe8
_symmetry_space_group_name_H-M   'P 1'
_cell_length_a   10.01566200
_cell_length_b   10.06130500
_cell_length_c   11.83144400
_cell_angle_alpha   90.00000000
_cell_angle_beta   90.00000000
_cell_angle_gamma   90.00000000
_symmetry_Int_Tables_number   1
_chemical_formula_structural   Cs6VPSe8
_chemical_formula_sum   'Cs12 V2 P2 Se16'
_cell_volume   1192.26206757
_cell_formula_units_Z   2
loop_
 _symmetry_equiv_pos_site_id
 _symmetry_equiv_pos_as_xyz
  1  'x, y, z'
loop_
 _atom_site_type_symbol
 _atom_site_label
 _atom_site_symmetry_multiplicity
 _atom_site_fract_x
 _atom_site_fract_y
 _atom_site_fract_z
 _atom_site_occupancy
  Cs  Cs0  1  0.543164  0.206250  0.039382  1
  Cs  Cs1  1  0.043164  0.293750  0.460618  1
  Cs  Cs2  1  0.457882  0.797602  0.540694  1
  Cs  Cs3  1  0.957882  0.702398  0.959306  1
  Cs  Cs4  1  0.457882  0.797602  0.959306  1
  Cs  Cs5  1  0.957882  0.702398  0.540694  1
  Cs  Cs6  1  0.543164  0.206250  0.460618  1
  Cs  Cs7  1  0.043164  0.293750  0.039382  1
  Cs  Cs8  1  0.651678  0.414372  0.750000  1
  Cs  Cs9  1  0.151678  0.085628  0.750000  1
  Cs  Cs10  1  0.349559  0.594714  0.250000  1
  Cs  Cs11  1  0.849559  0.905286  0.250000  1
  V  V12  1  0.276790  0.019364  0.250000  1
  V  V13  1  0.776790  0.480636  0.250000  1
  P  P14  1  0.722053  0.982436  0.750000  1
  P  P15  1  0.222053  0.517564  0.750000  1
  Se  Se16  1  0.829130  0.045591  0.594421  1
  Se  Se17  1  0.329130  0.454409  0.905579  1
  Se  Se18  1  0.167587  0.953672  0.089865  1
  Se  Se19  1  0.667587  0.546328  0.410135  1
  Se  Se20  1  0.167587  0.953672  0.410135  1
  Se  Se21  1  0.667587  0.546328  0.089865  1
  Se  Se22  1  0.829130  0.045591  0.905579  1
  Se  Se23  1  0.329130  0.454409  0.594421  1
  Se  Se24  1  0.517208  0.071927  0.750000  1
  Se  Se25  1  0.017208  0.428073  0.750000  1
  Se  Se26  1  0.488432  0.931648  0.250000  1
  Se  Se27  1  0.988432  0.568352  0.250000  1
  Se  Se28  1  0.707902  0.761629  0.750000  1
  Se  Se29  1  0.207902  0.738371  0.750000  1
  Se  Se30  1  0.290854  0.246104  0.250000  1
  Se  Se31  1  0.790854  0.253896  0.250000  1
