# generated using pymatgen
data_LaPr2(PdAu)3
_symmetry_space_group_name_H-M   'P 1'
_cell_length_a   7.67758910
_cell_length_b   7.67759113
_cell_length_c   4.00054500
_cell_angle_alpha   90.00000000
_cell_angle_beta   90.00000000
_cell_angle_gamma   119.99234765
_symmetry_Int_Tables_number   1
_chemical_formula_structural   LaPr2(PdAu)3
_chemical_formula_sum   'La1 Pr2 Pd3 Au3'
_cell_volume   204.23638771
_cell_formula_units_Z   1
loop_
 _symmetry_equiv_pos_site_id
 _symmetry_equiv_pos_as_xyz
  1  'x, y, z'
loop_
 _atom_site_type_symbol
 _atom_site_label
 _atom_site_symmetry_multiplicity
 _atom_site_fract_x
 _atom_site_fract_y
 _atom_site_fract_z
 _atom_site_occupancy
  La  La0  1  0.392906  0.392906  0.500000  1
  Pr  Pr1  1  0.607697  0.000015  0.500000  1
  Pr  Pr2  1  0.000015  0.607697  0.500000  1
  Pd  Pd3  1  0.664393  0.333145  0.000000  1
  Pd  Pd4  1  0.333145  0.664393  0.000000  1
  Pd  Pd5  1  0.002069  0.002069  0.500000  1
  Au  Au6  1  0.739260  0.739260  0.000000  1
  Au  Au7  1  0.263059  0.997456  0.000000  1
  Au  Au8  1  0.997456  0.263059  0.000000  1
