# generated using pymatgen
data_TmB9N
_symmetry_space_group_name_H-M   'P 1'
_cell_length_a   7.55838889
_cell_length_b   7.55838869
_cell_length_c   7.55838849
_cell_angle_alpha   42.66899774
_cell_angle_beta   42.66899780
_cell_angle_gamma   42.66900726
_symmetry_Int_Tables_number   1
_chemical_formula_structural   TmB9N
_chemical_formula_sum   'Tm2 B18 N2'
_cell_volume   179.66772840
_cell_formula_units_Z   2
loop_
 _symmetry_equiv_pos_site_id
 _symmetry_equiv_pos_as_xyz
  1  'x, y, z'
loop_
 _atom_site_type_symbol
 _atom_site_label
 _atom_site_symmetry_multiplicity
 _atom_site_fract_x
 _atom_site_fract_y
 _atom_site_fract_z
 _atom_site_occupancy
  Tm  Tm0  1  0.700125  0.700125  0.700125  1
  Tm  Tm1  1  0.299875  0.299875  0.299875  1
  B  B2  1  0.181335  0.856650  0.856650  1
  B  B3  1  0.856650  0.181335  0.856650  1
  B  B4  1  0.856650  0.856650  0.181335  1
  B  B5  1  0.818665  0.143350  0.143350  1
  B  B6  1  0.337345  0.337345  0.866558  1
  B  B7  1  0.337345  0.866558  0.337345  1
  B  B8  1  0.866558  0.337345  0.337345  1
  B  B9  1  0.662655  0.662655  0.133442  1
  B  B10  1  0.662655  0.133442  0.662655  1
  B  B11  1  0.133442  0.662655  0.662655  1
  B  B12  1  0.323866  0.323866  0.647965  1
  B  B13  1  0.323866  0.647965  0.323866  1
  B  B14  1  0.647965  0.323866  0.323866  1
  B  B15  1  0.676134  0.676134  0.352035  1
  B  B16  1  0.676134  0.352035  0.676134  1
  B  B17  1  0.352035  0.676134  0.676134  1
  B  B18  1  0.143350  0.143350  0.818665  1
  B  B19  1  0.143350  0.818665  0.143350  1
  N  N20  1  0.809196  0.809196  0.809196  1
  N  N21  1  0.190804  0.190804  0.190804  1
