# generated using pymatgen
data_Sm2Y2Ni(Sn2Rh)5
_symmetry_space_group_name_H-M   'P 1'
_cell_length_a   13.46662417
_cell_length_b   13.46662366
_cell_length_c   7.28622057
_cell_angle_alpha   90.15269769
_cell_angle_beta   89.84730222
_cell_angle_gamma   160.99714785
_symmetry_Int_Tables_number   1
_chemical_formula_structural   Sm2Y2Ni(Sn2Rh)5
_chemical_formula_sum   'Sm2 Y2 Ni1 Sn10 Rh5'
_cell_volume   430.25199289
_cell_formula_units_Z   1
loop_
 _symmetry_equiv_pos_site_id
 _symmetry_equiv_pos_as_xyz
  1  'x, y, z'
loop_
 _atom_site_type_symbol
 _atom_site_label
 _atom_site_symmetry_multiplicity
 _atom_site_fract_x
 _atom_site_fract_y
 _atom_site_fract_z
 _atom_site_occupancy
  Sm  Sm0  1  0.475724  0.524276  0.236287  1
  Sm  Sm1  1  0.172254  0.827746  0.255836  1
  Y  Y2  1  0.524084  0.475916  0.738540  1
  Y  Y3  1  0.828505  0.171495  0.758854  1
  Ni  Ni4  1  0.393919  0.606081  0.978596  1
  Sn  Sn5  1  0.704820  0.295180  0.549840  1
  Sn  Sn6  1  0.595844  0.404156  0.113729  1
  Sn  Sn7  1  0.047109  0.952891  0.400508  1
  Sn  Sn8  1  0.951539  0.048461  0.902920  1
  Sn  Sn9  1  0.709654  0.290346  0.975557  1
  Sn  Sn10  1  0.290482  0.709518  0.476078  1
  Sn  Sn11  1  0.297331  0.702669  0.045159  1
  Sn  Sn12  1  0.880945  0.119055  0.232512  1
  Sn  Sn13  1  0.119018  0.880982  0.730185  1
  Sn  Sn14  1  0.402681  0.597319  0.619529  1
  Rh  Rh15  1  0.778943  0.221057  0.259213  1
  Rh  Rh16  1  0.223691  0.776309  0.764267  1
  Rh  Rh17  1  0.049942  0.950058  0.018615  1
  Rh  Rh18  1  0.605510  0.394490  0.483823  1
  Rh  Rh19  1  0.948003  0.051997  0.523760  1
