# generated using pymatgen
data_Nd6Ga4Pd2Pt11
_symmetry_space_group_name_H-M   'P 1'
_cell_length_a   8.40945789
_cell_length_b   8.40945664
_cell_length_c   8.41839410
_cell_angle_alpha   109.42167103
_cell_angle_beta   109.42166493
_cell_angle_gamma   109.64221941
_symmetry_Int_Tables_number   1
_chemical_formula_structural   Nd6Ga4Pd2Pt11
_chemical_formula_sum   'Nd6 Ga4 Pd2 Pt11'
_cell_volume   457.88430470
_cell_formula_units_Z   1
loop_
 _symmetry_equiv_pos_site_id
 _symmetry_equiv_pos_as_xyz
  1  'x, y, z'
loop_
 _atom_site_type_symbol
 _atom_site_label
 _atom_site_symmetry_multiplicity
 _atom_site_fract_x
 _atom_site_fract_y
 _atom_site_fract_z
 _atom_site_occupancy
  Nd  Nd0  1  0.698051  0.698051  0.002030  1
  Nd  Nd1  1  0.299427  0.999594  0.299562  1
  Nd  Nd2  1  0.999594  0.299427  0.299562  1
  Nd  Nd3  1  0.300222  0.300222  0.999568  1
  Nd  Nd4  1  0.700064  0.000786  0.698973  1
  Nd  Nd5  1  0.000786  0.700064  0.698973  1
  Ga  Ga6  1  0.000310  0.000310  0.499992  1
  Ga  Ga7  1  0.999443  0.499741  0.999366  1
  Ga  Ga8  1  0.499741  0.999443  0.999366  1
  Ga  Ga9  1  0.499696  0.499696  0.500490  1
  Pd  Pd10  1  0.676444  0.352104  0.676058  1
  Pd  Pd11  1  0.352104  0.676444  0.676058  1
  Pt  Pt12  1  0.322557  0.322557  0.641732  1
  Pt  Pt13  1  0.679489  0.002194  0.322971  1
  Pt  Pt14  1  0.002194  0.679489  0.322971  1
  Pt  Pt15  1  0.680591  0.322291  0.000906  1
  Pt  Pt16  1  0.322394  0.642476  0.321810  1
  Pt  Pt17  1  0.002254  0.323679  0.680361  1
  Pt  Pt18  1  0.322291  0.680591  0.000906  1
  Pt  Pt19  1  0.323679  0.002254  0.680361  1
  Pt  Pt20  1  0.642476  0.322394  0.321810  1
  Pt  Pt21  1  0.679437  0.679437  0.358306  1
  Pt  Pt22  1  0.996758  0.996758  0.997865  1
