# generated using pymatgen
data_Dy3Y2Tm2P12Ir17
_symmetry_space_group_name_H-M   'P 1'
_cell_length_a   12.71267400
_cell_length_b   13.00041710
_cell_length_c   3.98367500
_cell_angle_alpha   90.00000000
_cell_angle_beta   90.00000000
_cell_angle_gamma   119.27049539
_symmetry_Int_Tables_number   1
_chemical_formula_structural   Dy3Y2Tm2P12Ir17
_chemical_formula_sum   'Dy3 Y2 Tm2 P12 Ir17'
_cell_volume   574.32074917
_cell_formula_units_Z   1
loop_
 _symmetry_equiv_pos_site_id
 _symmetry_equiv_pos_as_xyz
  1  'x, y, z'
loop_
 _atom_site_type_symbol
 _atom_site_label
 _atom_site_symmetry_multiplicity
 _atom_site_fract_x
 _atom_site_fract_y
 _atom_site_fract_z
 _atom_site_occupancy
  Dy  Dy0  1  0.329856  0.662008  0.500000  1
  Dy  Dy1  1  0.667849  0.337992  0.500000  1
  Dy  Dy2  1  0.810811  0.000000  0.000000  1
  Y  Y3  1  0.002590  0.816540  0.000000  1
  Y  Y4  1  0.186050  0.183460  0.000000  1
  Tm  Tm5  1  0.995991  0.443776  0.500000  1
  Tm  Tm6  1  0.552215  0.556224  0.500000  1
  P  P7  1  0.009634  0.657686  0.500000  1
  P  P8  1  0.351948  0.342314  0.500000  1
  P  P9  1  0.644137  0.000000  0.500000  1
  P  P10  1  0.516397  0.690549  0.000000  1
  P  P11  1  0.309150  0.824412  0.000000  1
  P  P12  1  0.166713  0.480470  0.000000  1
  P  P13  1  0.484737  0.175588  0.000000  1
  P  P14  1  0.686244  0.519530  0.000000  1
  P  P15  1  0.825848  0.309451  0.000000  1
  P  P16  1  0.999262  0.174679  0.500000  1
  P  P17  1  0.824584  0.825321  0.500000  1
  P  P18  1  0.181605  0.000000  0.500000  1
  Ir  Ir19  1  0.504329  0.865986  0.000000  1
  Ir  Ir20  1  0.121915  0.645210  0.000000  1
  Ir  Ir21  1  0.357825  0.501491  0.000000  1
  Ir  Ir22  1  0.476706  0.354790  0.000000  1
  Ir  Ir23  1  0.856335  0.498509  0.000000  1
  Ir  Ir24  1  0.638343  0.134014  0.000000  1
  Ir  Ir25  1  0.465009  0.000000  0.500000  1
  Ir  Ir26  1  0.996414  0.272361  0.000000  1
  Ir  Ir27  1  0.724053  0.727639  0.000000  1
  Ir  Ir28  1  0.287320  0.000000  0.000000  1
  Ir  Ir29  1  0.623950  0.810620  0.500000  1
  Ir  Ir30  1  0.208761  0.828523  0.500000  1
  Ir  Ir31  1  0.180552  0.364573  0.500000  1
  Ir  Ir32  1  0.380238  0.171477  0.500000  1
  Ir  Ir33  1  0.815979  0.635427  0.500000  1
  Ir  Ir34  1  0.813330  0.189380  0.500000  1
  Ir  Ir35  1  0.003320  0.000000  0.500000  1
