# generated using pymatgen
data_Tm8In2HgAu
_symmetry_space_group_name_H-M   'P 1'
_cell_length_a   10.39259791
_cell_length_b   10.39260763
_cell_length_c   6.84092131
_cell_angle_alpha   90.09889970
_cell_angle_beta   89.90120028
_cell_angle_gamma   119.83371936
_symmetry_Int_Tables_number   1
_chemical_formula_structural   Tm8In2HgAu
_chemical_formula_sum   'Tm16 In4 Hg2 Au2'
_cell_volume   640.94131449
_cell_formula_units_Z   2
loop_
 _symmetry_equiv_pos_site_id
 _symmetry_equiv_pos_as_xyz
  1  'x, y, z'
loop_
 _atom_site_type_symbol
 _atom_site_label
 _atom_site_symmetry_multiplicity
 _atom_site_fract_x
 _atom_site_fract_y
 _atom_site_fract_z
 _atom_site_occupancy
  Tm  Tm0  1  0.520901  0.050026  0.521154  1
  Tm  Tm1  1  0.949973  0.479098  0.521155  1
  Tm  Tm2  1  0.527120  0.472880  0.520491  1
  Tm  Tm3  1  0.476548  0.948227  0.017728  1
  Tm  Tm4  1  0.051772  0.523452  0.017729  1
  Tm  Tm5  1  0.472742  0.527258  0.021885  1
  Tm  Tm6  1  0.175951  0.340217  0.730425  1
  Tm  Tm7  1  0.659782  0.824049  0.730425  1
  Tm  Tm8  1  0.168498  0.831502  0.734187  1
  Tm  Tm9  1  0.827369  0.654181  0.216496  1
  Tm  Tm10  1  0.345819  0.172632  0.216498  1
  Tm  Tm11  1  0.826419  0.173581  0.232405  1
  Tm  Tm12  1  0.663989  0.336010  0.873003  1
  Tm  Tm13  1  0.332867  0.667134  0.377885  1
  Tm  Tm14  1  0.000220  0.999780  0.495806  1
  Tm  Tm15  1  0.999036  0.000964  0.999417  1
  In  In16  1  0.835335  0.164664  0.757463  1
  In  In17  1  0.163313  0.328288  0.257852  1
  In  In18  1  0.671712  0.836687  0.257852  1
  In  In19  1  0.164328  0.835678  0.259030  1
  Hg  Hg20  1  0.836052  0.669253  0.763325  1
  Hg  Hg21  1  0.330747  0.163947  0.763325  1
  Au  Au22  1  0.666577  0.333424  0.285284  1
  Au  Au23  1  0.332932  0.667068  0.787186  1
