# generated using pymatgen
data_LiSmNi3Rh
_symmetry_space_group_name_H-M   'P 1'
_cell_length_a   5.08342320
_cell_length_b   5.08342279
_cell_length_c   5.08342323
_cell_angle_alpha   57.86954657
_cell_angle_beta   57.86954722
_cell_angle_gamma   57.86954578
_symmetry_Int_Tables_number   1
_chemical_formula_structural   LiSmNi3Rh
_chemical_formula_sum   'Li1 Sm1 Ni3 Rh1'
_cell_volume   88.34418453
_cell_formula_units_Z   1
loop_
 _symmetry_equiv_pos_site_id
 _symmetry_equiv_pos_as_xyz
  1  'x, y, z'
loop_
 _atom_site_type_symbol
 _atom_site_label
 _atom_site_symmetry_multiplicity
 _atom_site_fract_x
 _atom_site_fract_y
 _atom_site_fract_z
 _atom_site_occupancy
  Li  Li0  1  0.756595  0.756595  0.756595  1
  Sm  Sm1  1  0.000561  0.000561  0.000561  1
  Ni  Ni2  1  0.871900  0.373433  0.373433  1
  Ni  Ni3  1  0.373433  0.871900  0.373433  1
  Ni  Ni4  1  0.373433  0.373433  0.871900  1
  Rh  Rh5  1  0.374079  0.374079  0.374079  1
