# generated using pymatgen
data_HoCdSnSbO7
_symmetry_space_group_name_H-M   'P 1'
_cell_length_a   7.41906600
_cell_length_b   7.41906600
_cell_length_c   10.44528500
_cell_angle_alpha   90.00000000
_cell_angle_beta   90.00000000
_cell_angle_gamma   90.00000000
_symmetry_Int_Tables_number   1
_chemical_formula_structural   HoCdSnSbO7
_chemical_formula_sum   'Ho4 Cd4 Sn4 Sb4 O28'
_cell_volume   574.93502069
_cell_formula_units_Z   4
loop_
 _symmetry_equiv_pos_site_id
 _symmetry_equiv_pos_as_xyz
  1  'x, y, z'
loop_
 _atom_site_type_symbol
 _atom_site_label
 _atom_site_symmetry_multiplicity
 _atom_site_fract_x
 _atom_site_fract_y
 _atom_site_fract_z
 _atom_site_occupancy
  Ho  Ho0  1  0.000000  0.742922  0.000000  1
  Ho  Ho1  1  0.000000  0.257078  0.500000  1
  Ho  Ho2  1  0.257078  0.000000  0.250000  1
  Ho  Ho3  1  0.742922  0.000000  0.750000  1
  Cd  Cd4  1  0.500000  0.741380  0.000000  1
  Cd  Cd5  1  0.258620  0.500000  0.250000  1
  Cd  Cd6  1  0.500000  0.258620  0.500000  1
  Cd  Cd7  1  0.741380  0.500000  0.750000  1
  Sn  Sn8  1  0.757722  0.000000  0.250000  1
  Sn  Sn9  1  0.000000  0.757722  0.500000  1
  Sn  Sn10  1  0.242278  0.000000  0.750000  1
  Sn  Sn11  1  0.000000  0.242278  0.000000  1
  Sb  Sb12  1  0.244704  0.500000  0.750000  1
  Sb  Sb13  1  0.500000  0.755296  0.500000  1
  Sb  Sb14  1  0.500000  0.244704  0.000000  1
  Sb  Sb15  1  0.755296  0.500000  0.250000  1
  O  O16  1  0.251363  0.748637  0.125000  1
  O  O17  1  0.542313  0.949437  0.370643  1
  O  O18  1  0.764427  0.743380  0.170531  1
  O  O19  1  0.748637  0.251363  0.625000  1
  O  O20  1  0.970753  0.970753  0.375000  1
  O  O21  1  0.029247  0.029247  0.875000  1
  O  O22  1  0.050563  0.457687  0.879357  1
  O  O23  1  0.029247  0.970753  0.625000  1
  O  O24  1  0.256620  0.235573  0.079469  1
  O  O25  1  0.235573  0.256620  0.670531  1
  O  O26  1  0.256620  0.764427  0.420531  1
  O  O27  1  0.457687  0.949437  0.629357  1
  O  O28  1  0.457687  0.050563  0.870643  1
  O  O29  1  0.445429  0.445429  0.875000  1
  O  O30  1  0.554571  0.554571  0.375000  1
  O  O31  1  0.542313  0.050563  0.129357  1
  O  O32  1  0.554571  0.445429  0.125000  1
  O  O33  1  0.743380  0.764427  0.579469  1
  O  O34  1  0.764427  0.256620  0.329469  1
  O  O35  1  0.748637  0.748637  0.875000  1
  O  O36  1  0.743380  0.235573  0.920531  1
  O  O37  1  0.949437  0.542313  0.379357  1
  O  O38  1  0.970753  0.029247  0.125000  1
  O  O39  1  0.949437  0.457687  0.120643  1
  O  O40  1  0.050563  0.542313  0.620643  1
  O  O41  1  0.235573  0.743380  0.829469  1
  O  O42  1  0.251363  0.251363  0.375000  1
  O  O43  1  0.445429  0.554571  0.625000  1
