# generated using pymatgen
data_K8MnV3S4(O4F3)4
_symmetry_space_group_name_H-M   'P 1'
_cell_length_a   7.45957000
_cell_length_b   8.53063300
_cell_length_c   10.98786500
_cell_angle_alpha   90.00000000
_cell_angle_beta   90.00000000
_cell_angle_gamma   90.00000000
_symmetry_Int_Tables_number   1
_chemical_formula_structural   K8MnV3S4(O4F3)4
_chemical_formula_sum   'K8 Mn1 V3 S4 O16 F12'
_cell_volume   699.21118513
_cell_formula_units_Z   1
loop_
 _symmetry_equiv_pos_site_id
 _symmetry_equiv_pos_as_xyz
  1  'x, y, z'
loop_
 _atom_site_type_symbol
 _atom_site_label
 _atom_site_symmetry_multiplicity
 _atom_site_fract_x
 _atom_site_fract_y
 _atom_site_fract_z
 _atom_site_occupancy
  K  K0  1  0.811541  0.666712  0.193084  1
  K  K1  1  0.812195  0.168314  0.304884  1
  K  K2  1  0.317448  0.834016  0.306616  1
  K  K3  1  0.684616  0.667331  0.807049  1
  K  K4  1  0.682552  0.165984  0.693384  1
  K  K5  1  0.315384  0.332669  0.192951  1
  K  K6  1  0.188459  0.333288  0.806916  1
  K  K7  1  0.187805  0.831686  0.695116  1
  Mn  Mn8  1  0.000000  0.000000  0.000000  1
  V  V9  1  0.500000  0.500000  0.500000  1
  V  V10  1  0.500000  0.000000  0.000000  1
  V  V11  1  0.000000  0.500000  0.500000  1
  S  S12  1  0.249424  0.188386  0.499703  1
  S  S13  1  0.754969  0.308483  0.998279  1
  S  S14  1  0.750576  0.811614  0.500297  1
  S  S15  1  0.245031  0.691517  0.001721  1
  O  O16  1  0.331430  0.094596  0.596620  1
  O  O17  1  0.841081  0.404387  0.904379  1
  O  O18  1  0.167344  0.095343  0.402379  1
  O  O19  1  0.674570  0.399700  0.097449  1
  O  O20  1  0.668570  0.905404  0.403380  1
  O  O21  1  0.158919  0.595613  0.095621  1
  O  O22  1  0.832656  0.904657  0.597621  1
  O  O23  1  0.325430  0.600300  0.902551  1
  O  O24  1  0.391292  0.293125  0.441770  1
  O  O25  1  0.894447  0.200075  0.058076  1
  O  O26  1  0.107878  0.292848  0.558228  1
  O  O27  1  0.615699  0.206689  0.937708  1
  O  O28  1  0.105553  0.799925  0.941924  1
  O  O29  1  0.892122  0.707152  0.441772  1
  O  O30  1  0.608708  0.706875  0.558230  1
  O  O31  1  0.384301  0.793311  0.062292  1
  F  F32  1  0.476229  0.939806  0.831067  1
  F  F33  1  0.978267  0.561594  0.668216  1
  F  F34  1  0.022277  0.941270  0.163314  1
  F  F35  1  0.521818  0.561038  0.331421  1
  F  F36  1  0.735239  0.889105  0.001912  1
  F  F37  1  0.250299  0.601481  0.499978  1
  F  F38  1  0.264761  0.110895  0.998088  1
  F  F39  1  0.749701  0.398519  0.500022  1
  F  F40  1  0.977723  0.058730  0.836686  1
  F  F41  1  0.523771  0.060194  0.168933  1
  F  F42  1  0.021733  0.438406  0.331784  1
  F  F43  1  0.478182  0.438962  0.668579  1
