# generated using pymatgen
data_La3Y5(HoBi)12
_symmetry_space_group_name_H-M   'P 1'
_cell_length_a   8.30554046
_cell_length_b   9.50548200
_cell_length_c   12.16443100
_cell_angle_alpha   90.00000000
_cell_angle_beta   89.98101532
_cell_angle_gamma   90.00000000
_symmetry_Int_Tables_number   1
_chemical_formula_structural   La3Y5(HoBi)12
_chemical_formula_sum   'La3 Y5 Ho12 Bi12'
_cell_volume   960.35945670
_cell_formula_units_Z   1
loop_
 _symmetry_equiv_pos_site_id
 _symmetry_equiv_pos_as_xyz
  1  'x, y, z'
loop_
 _atom_site_type_symbol
 _atom_site_label
 _atom_site_symmetry_multiplicity
 _atom_site_fract_x
 _atom_site_fract_y
 _atom_site_fract_z
 _atom_site_occupancy
  La  La0  1  0.182481  0.750000  0.721340  1
  La  La1  1  0.683373  0.750000  0.778488  1
  La  La2  1  0.816918  0.250000  0.278873  1
  Y  Y3  1  0.315059  0.250000  0.218481  1
  Y  Y4  1  0.351364  0.750000  0.217483  1
  Y  Y5  1  0.852576  0.750000  0.280854  1
  Y  Y6  1  0.648545  0.250000  0.784026  1
  Y  Y7  1  0.149848  0.250000  0.717114  1
  Ho  Ho8  1  0.024179  0.750000  0.989429  1
  Ho  Ho9  1  0.521510  0.750000  0.510791  1
  Ho  Ho10  1  0.977005  0.250000  0.013725  1
  Ho  Ho11  1  0.476833  0.250000  0.488097  1
  Ho  Ho12  1  0.307967  0.435241  0.940402  1
  Ho  Ho13  1  0.809572  0.065677  0.560391  1
  Ho  Ho14  1  0.692527  0.935403  0.060687  1
  Ho  Ho15  1  0.190142  0.564732  0.438167  1
  Ho  Ho16  1  0.692527  0.564597  0.060687  1
  Ho  Ho17  1  0.190142  0.935268  0.438167  1
  Ho  Ho18  1  0.307967  0.064759  0.940402  1
  Ho  Ho19  1  0.809572  0.434323  0.560391  1
  Bi  Bi20  1  0.434900  0.009873  0.670018  1
  Bi  Bi21  1  0.934621  0.489693  0.830802  1
  Bi  Bi22  1  0.561267  0.506713  0.328457  1
  Bi  Bi23  1  0.070534  0.993287  0.171324  1
  Bi  Bi24  1  0.561267  0.993287  0.328457  1
  Bi  Bi25  1  0.070534  0.506713  0.171324  1
  Bi  Bi26  1  0.434900  0.490127  0.670018  1
  Bi  Bi27  1  0.934621  0.010307  0.830802  1
  Bi  Bi28  1  0.404606  0.750000  0.964121  1
  Bi  Bi29  1  0.902887  0.750000  0.535201  1
  Bi  Bi30  1  0.591115  0.250000  0.039828  1
  Bi  Bi31  1  0.098644  0.250000  0.461657  1
