# generated using pymatgen
data_UAs(P2O7)2
_symmetry_space_group_name_H-M   'P 1'
_cell_length_a   8.70942383
_cell_length_b   5.17859700
_cell_length_c   7.34102152
_cell_angle_alpha   73.82846589
_cell_angle_beta   88.32438946
_cell_angle_gamma   90.96072626
_symmetry_Int_Tables_number   1
_chemical_formula_structural   UAs(P2O7)2
_chemical_formula_sum   'U1 As1 P4 O14'
_cell_volume   317.75525038
_cell_formula_units_Z   1
loop_
 _symmetry_equiv_pos_site_id
 _symmetry_equiv_pos_as_xyz
  1  'x, y, z'
loop_
 _atom_site_type_symbol
 _atom_site_label
 _atom_site_symmetry_multiplicity
 _atom_site_fract_x
 _atom_site_fract_y
 _atom_site_fract_z
 _atom_site_occupancy
  U  U0  1  0.047918  0.787261  0.719585  1
  As  As1  1  0.552553  0.237344  0.279073  1
  P  P2  1  0.383407  0.608364  0.515244  1
  P  P3  1  0.288468  0.248416  0.890965  1
  P  P4  1  0.853358  0.380134  0.476461  1
  P  P5  1  0.782479  0.766498  0.119521  1
  O  O6  1  0.153842  0.442624  0.900743  1
  O  O7  1  0.217082  0.026392  0.809304  1
  O  O8  1  0.757410  0.020955  0.173744  1
  O  O9  1  0.368974  0.141906  0.071000  1
  O  O10  1  0.967127  0.147750  0.513420  1
  O  O11  1  0.685621  0.283528  0.484872  1
  O  O12  1  0.387413  0.424066  0.382755  1
  O  O13  1  0.641620  0.592167  0.106285  1
  O  O14  1  0.500821  0.832947  0.481201  1
  O  O15  1  0.408463  0.418569  0.729429  1
  O  O16  1  0.897621  0.571866  0.270961  1
  O  O17  1  0.879335  0.541817  0.621329  1
  O  O18  1  0.213507  0.706716  0.521504  1
  O  O19  1  0.885070  0.820680  0.932604  1
