# generated using pymatgen
data_Tb5Y3(HgRh)2
_symmetry_space_group_name_H-M   'P 1'
_cell_length_a   9.63982669
_cell_length_b   9.63982682
_cell_length_c   9.63982800
_cell_angle_alpha   60.00000282
_cell_angle_beta   60.00000237
_cell_angle_gamma   60.00000401
_symmetry_Int_Tables_number   1
_chemical_formula_structural   Tb5Y3(HgRh)2
_chemical_formula_sum   'Tb10 Y6 Hg4 Rh4'
_cell_volume   633.42146333
_cell_formula_units_Z   2
loop_
 _symmetry_equiv_pos_site_id
 _symmetry_equiv_pos_as_xyz
  1  'x, y, z'
loop_
 _atom_site_type_symbol
 _atom_site_label
 _atom_site_symmetry_multiplicity
 _atom_site_fract_x
 _atom_site_fract_y
 _atom_site_fract_z
 _atom_site_occupancy
  Tb  Tb0  1  0.601344  0.601344  0.601344  1
  Tb  Tb1  1  0.601344  0.601344  0.195970  1
  Tb  Tb2  1  0.601344  0.195970  0.601344  1
  Tb  Tb3  1  0.195970  0.601344  0.601344  1
  Tb  Tb4  1  0.060600  0.439400  0.439400  1
  Tb  Tb5  1  0.439400  0.060600  0.060600  1
  Tb  Tb6  1  0.439400  0.060600  0.439400  1
  Tb  Tb7  1  0.060600  0.439400  0.060600  1
  Tb  Tb8  1  0.439400  0.439400  0.060600  1
  Tb  Tb9  1  0.060600  0.060600  0.439400  1
  Y  Y10  1  0.186542  0.813458  0.813458  1
  Y  Y11  1  0.813458  0.186542  0.186542  1
  Y  Y12  1  0.813458  0.186542  0.813458  1
  Y  Y13  1  0.186542  0.813458  0.186542  1
  Y  Y14  1  0.813458  0.813458  0.186542  1
  Y  Y15  1  0.186542  0.186542  0.813458  1
  Hg  Hg16  1  0.834566  0.834566  0.834566  1
  Hg  Hg17  1  0.834566  0.834566  0.496302  1
  Hg  Hg18  1  0.834566  0.496302  0.834566  1
  Hg  Hg19  1  0.496302  0.834566  0.834566  1
  Rh  Rh20  1  0.392800  0.392800  0.392800  1
  Rh  Rh21  1  0.392800  0.392800  0.821600  1
  Rh  Rh22  1  0.392800  0.821600  0.392800  1
  Rh  Rh23  1  0.821600  0.392800  0.392800  1
