# generated using pymatgen
data_Ho2Be2P4Pd20Au
_symmetry_space_group_name_H-M   'P 1'
_cell_length_a   8.63328866
_cell_length_b   8.54380617
_cell_length_c   8.54380412
_cell_angle_alpha   60.69413184
_cell_angle_beta   59.65293770
_cell_angle_gamma   59.65294306
_symmetry_Int_Tables_number   1
_chemical_formula_structural   Ho2Be2P4Pd20Au
_chemical_formula_sum   'Ho2 Be2 P4 Pd20 Au1'
_cell_volume   445.52048482
_cell_formula_units_Z   1
loop_
 _symmetry_equiv_pos_site_id
 _symmetry_equiv_pos_as_xyz
  1  'x, y, z'
loop_
 _atom_site_type_symbol
 _atom_site_label
 _atom_site_symmetry_multiplicity
 _atom_site_fract_x
 _atom_site_fract_y
 _atom_site_fract_z
 _atom_site_occupancy
  Ho  Ho0  1  0.250000  0.250000  0.250000  1
  Ho  Ho1  1  0.750000  0.750000  0.750000  1
  Be  Be2  1  0.733401  0.266599  0.266599  1
  Be  Be3  1  0.266599  0.733401  0.733401  1
  P  P4  1  0.267608  0.732392  0.267608  1
  P  P5  1  0.732392  0.267608  0.732392  1
  P  P6  1  0.267608  0.267608  0.732392  1
  P  P7  1  0.732392  0.732392  0.267608  1
  Pd  Pd8  1  0.387462  0.382276  0.382276  1
  Pd  Pd9  1  0.612538  0.617724  0.617724  1
  Pd  Pd10  1  0.382276  0.387462  0.847987  1
  Pd  Pd11  1  0.382276  0.847987  0.387462  1
  Pd  Pd12  1  0.617724  0.612538  0.152013  1
  Pd  Pd13  1  0.617724  0.152013  0.612538  1
  Pd  Pd14  1  0.847987  0.382276  0.382276  1
  Pd  Pd15  1  0.152013  0.617724  0.617724  1
  Pd  Pd16  1  0.343186  0.000000  0.000000  1
  Pd  Pd17  1  0.656814  0.000000  0.000000  1
  Pd  Pd18  1  0.000000  0.343186  0.656814  1
  Pd  Pd19  1  0.000000  0.656814  0.343186  1
  Pd  Pd20  1  0.997850  0.342115  0.002150  1
  Pd  Pd21  1  0.657885  0.002150  0.342115  1
  Pd  Pd22  1  0.002150  0.657885  0.997850  1
  Pd  Pd23  1  0.342115  0.997850  0.657885  1
  Pd  Pd24  1  0.997850  0.002150  0.342115  1
  Pd  Pd25  1  0.002150  0.997850  0.657885  1
  Pd  Pd26  1  0.657885  0.342115  0.002150  1
  Pd  Pd27  1  0.342115  0.657885  0.997850  1
  Au  Au28  1  0.000000  0.000000  0.000000  1
