# generated using pymatgen
data_TmLu(Fe4B)2
_symmetry_space_group_name_H-M   'P 1'
_cell_length_a   5.03071300
_cell_length_b   5.02956076
_cell_length_c   7.02135700
_cell_angle_alpha   90.00000000
_cell_angle_beta   90.00000000
_cell_angle_gamma   120.00757208
_symmetry_Int_Tables_number   1
_chemical_formula_structural   TmLu(Fe4B)2
_chemical_formula_sum   'Tm1 Lu1 Fe8 B2'
_cell_volume   153.84314345
_cell_formula_units_Z   1
loop_
 _symmetry_equiv_pos_site_id
 _symmetry_equiv_pos_as_xyz
  1  'x, y, z'
loop_
 _atom_site_type_symbol
 _atom_site_label
 _atom_site_symmetry_multiplicity
 _atom_site_fract_x
 _atom_site_fract_y
 _atom_site_fract_z
 _atom_site_occupancy
  Tm  Tm0  1  0.999977  0.000000  0.000000  1
  Lu  Lu1  1  0.999988  0.000000  0.500000  1
  Fe  Fe2  1  0.333261  0.666563  0.000000  1
  Fe  Fe3  1  0.666697  0.333437  0.000000  1
  Fe  Fe4  1  0.499985  0.000000  0.286268  1
  Fe  Fe5  1  0.499985  0.500002  0.286251  1
  Fe  Fe6  1  0.999983  0.499998  0.286251  1
  Fe  Fe7  1  0.499985  0.000000  0.713732  1
  Fe  Fe8  1  0.499985  0.500002  0.713749  1
  Fe  Fe9  1  0.999983  0.499998  0.713749  1
  B  B10  1  0.333386  0.666796  0.500000  1
  B  B11  1  0.666589  0.333204  0.500000  1
