# generated using pymatgen
data_Ti2MnCo4SiB2
_symmetry_space_group_name_H-M   'P 1'
_cell_length_a   8.44522314
_cell_length_b   8.44099213
_cell_length_c   2.92077000
_cell_angle_alpha   90.00000000
_cell_angle_beta   90.00000000
_cell_angle_gamma   89.97963504
_symmetry_Int_Tables_number   1
_chemical_formula_structural   Ti2MnCo4SiB2
_chemical_formula_sum   'Ti4 Mn2 Co8 Si2 B4'
_cell_volume   208.21017826
_cell_formula_units_Z   2
loop_
 _symmetry_equiv_pos_site_id
 _symmetry_equiv_pos_as_xyz
  1  'x, y, z'
loop_
 _atom_site_type_symbol
 _atom_site_label
 _atom_site_symmetry_multiplicity
 _atom_site_fract_x
 _atom_site_fract_y
 _atom_site_fract_z
 _atom_site_occupancy
  Ti  Ti0  1  0.833149  0.319253  0.000000  1
  Ti  Ti1  1  0.311851  0.167163  0.000000  1
  Ti  Ti2  1  0.674132  0.824158  0.000000  1
  Ti  Ti3  1  0.174295  0.683254  0.000000  1
  Mn  Mn4  1  0.065638  0.219948  0.500000  1
  Mn  Mn5  1  0.215791  0.924690  0.500000  1
  Co  Co6  1  0.502018  0.998792  0.500000  1
  Co  Co7  1  0.001923  0.506560  0.500000  1
  Co  Co8  1  0.782245  0.067195  0.500000  1
  Co  Co9  1  0.923049  0.786420  0.500000  1
  Co  Co10  1  0.438240  0.713253  0.500000  1
  Co  Co11  1  0.569632  0.284226  0.500000  1
  Co  Co12  1  0.716060  0.567023  0.500000  1
  Co  Co13  1  0.287409  0.434478  0.500000  1
  Si  Si14  1  0.000909  0.002258  0.000000  1
  Si  Si15  1  0.501148  0.499108  0.000000  1
  B  B16  1  0.621054  0.120756  0.000000  1
  B  B17  1  0.122867  0.381542  0.000000  1
  B  B18  1  0.879252  0.622453  0.000000  1
  B  B19  1  0.379337  0.877470  0.000000  1
