# generated using pymatgen
data_Ho3MgZrSnIr3
_symmetry_space_group_name_H-M   'P 1'
_cell_length_a   7.33710600
_cell_length_b   7.22890431
_cell_length_c   4.27609000
_cell_angle_alpha   90.00000000
_cell_angle_beta   90.00000000
_cell_angle_gamma   121.46632437
_symmetry_Int_Tables_number   1
_chemical_formula_structural   Ho3MgZrSnIr3
_chemical_formula_sum   'Ho3 Mg1 Zr1 Sn1 Ir3'
_cell_volume   193.44887658
_cell_formula_units_Z   1
loop_
 _symmetry_equiv_pos_site_id
 _symmetry_equiv_pos_as_xyz
  1  'x, y, z'
loop_
 _atom_site_type_symbol
 _atom_site_label
 _atom_site_symmetry_multiplicity
 _atom_site_fract_x
 _atom_site_fract_y
 _atom_site_fract_z
 _atom_site_occupancy
  Ho  Ho0  1  0.395409  0.399694  0.500000  1
  Ho  Ho1  1  0.590358  0.008444  0.500000  1
  Ho  Ho2  1  0.002585  0.583890  0.500000  1
  Mg  Mg3  1  0.247798  0.001489  0.000000  1
  Zr  Zr4  1  0.752781  0.748814  0.000000  1
  Sn  Sn5  1  0.005083  0.253435  0.000000  1
  Ir  Ir6  1  0.671526  0.342400  0.000000  1
  Ir  Ir7  1  0.353132  0.680532  0.000000  1
  Ir  Ir8  1  0.981328  0.981302  0.500000  1
