# generated using pymatgen
data_Nd2NbIr3
_symmetry_space_group_name_H-M   'P 1'
_cell_length_a   5.77012180
_cell_length_b   5.33092231
_cell_length_c   5.77012200
_cell_angle_alpha   57.23507107
_cell_angle_beta   59.99999883
_cell_angle_gamma   57.23506781
_symmetry_Int_Tables_number   1
_chemical_formula_structural   Nd2NbIr3
_chemical_formula_sum   'Nd2 Nb1 Ir3'
_cell_volume   120.00032843
_cell_formula_units_Z   1
loop_
 _symmetry_equiv_pos_site_id
 _symmetry_equiv_pos_as_xyz
  1  'x, y, z'
loop_
 _atom_site_type_symbol
 _atom_site_label
 _atom_site_symmetry_multiplicity
 _atom_site_fract_x
 _atom_site_fract_y
 _atom_site_fract_z
 _atom_site_occupancy
  Nd  Nd0  1  0.750148  0.749557  0.750148  1
  Nd  Nd1  1  0.499852  0.500443  0.499852  1
  Nb  Nb2  1  0.125000  0.625000  0.125000  1
  Ir  Ir3  1  0.125000  0.125000  0.625000  1
  Ir  Ir4  1  0.625000  0.125000  0.125000  1
  Ir  Ir5  1  0.125000  0.125000  0.125000  1
