# generated using pymatgen
data_Ho4Lu16InBi11
_symmetry_space_group_name_H-M   'P 1'
_cell_length_a   8.13993034
_cell_length_b   9.39772800
_cell_length_c   11.84988211
_cell_angle_alpha   90.00000000
_cell_angle_beta   90.22189731
_cell_angle_gamma   90.00000000
_symmetry_Int_Tables_number   1
_chemical_formula_structural   Ho4Lu16InBi11
_chemical_formula_sum   'Ho4 Lu16 In1 Bi11'
_cell_volume   906.47187074
_cell_formula_units_Z   1
loop_
 _symmetry_equiv_pos_site_id
 _symmetry_equiv_pos_as_xyz
  1  'x, y, z'
loop_
 _atom_site_type_symbol
 _atom_site_label
 _atom_site_symmetry_multiplicity
 _atom_site_fract_x
 _atom_site_fract_y
 _atom_site_fract_z
 _atom_site_occupancy
  Ho  Ho0  1  0.312920  0.250000  0.218167  1
  Ho  Ho1  1  0.810952  0.250000  0.283219  1
  Ho  Ho2  1  0.685100  0.750000  0.784400  1
  Ho  Ho3  1  0.188815  0.750000  0.719914  1
  Lu  Lu4  1  0.351481  0.750000  0.213953  1
  Lu  Lu5  1  0.853542  0.750000  0.283152  1
  Lu  Lu6  1  0.648540  0.250000  0.781165  1
  Lu  Lu7  1  0.149121  0.250000  0.717593  1
  Lu  Lu8  1  0.687938  0.570091  0.058652  1
  Lu  Lu9  1  0.191805  0.932602  0.439245  1
  Lu  Lu10  1  0.307304  0.060560  0.939892  1
  Lu  Lu11  1  0.808670  0.432477  0.560036  1
  Lu  Lu12  1  0.307304  0.439440  0.939892  1
  Lu  Lu13  1  0.808670  0.067523  0.560036  1
  Lu  Lu14  1  0.687938  0.929909  0.058652  1
  Lu  Lu15  1  0.191805  0.567398  0.439245  1
  Lu  Lu16  1  0.478341  0.250000  0.490461  1
  Lu  Lu17  1  0.978357  0.250000  0.010080  1
  Lu  Lu18  1  0.522563  0.750000  0.509601  1
  Lu  Lu19  1  0.029684  0.750000  0.990750  1
  In  In20  1  0.403403  0.750000  0.958848  1
  Bi  Bi21  1  0.902322  0.750000  0.542853  1
  Bi  Bi22  1  0.596924  0.250000  0.040595  1
  Bi  Bi23  1  0.098481  0.250000  0.458190  1
  Bi  Bi24  1  0.563510  0.994755  0.326092  1
  Bi  Bi25  1  0.062143  0.503260  0.175590  1
  Bi  Bi26  1  0.436415  0.495591  0.673728  1
  Bi  Bi27  1  0.936942  0.004698  0.825295  1
  Bi  Bi28  1  0.436415  0.004409  0.673728  1
  Bi  Bi29  1  0.936942  0.495302  0.825295  1
  Bi  Bi30  1  0.563510  0.505245  0.326092  1
  Bi  Bi31  1  0.062143  0.996740  0.175590  1
