# generated using pymatgen
data_Ho4Al24Pd7Au2
_symmetry_space_group_name_H-M   'P 1'
_cell_length_a   7.58376499
_cell_length_b   7.60313564
_cell_length_c   13.17242681
_cell_angle_alpha   84.53507312
_cell_angle_beta   78.98462770
_cell_angle_gamma   59.92437997
_symmetry_Int_Tables_number   1
_chemical_formula_structural   Ho4Al24Pd7Au2
_chemical_formula_sum   'Ho4 Al24 Pd7 Au2'
_cell_volume   645.15850183
_cell_formula_units_Z   1
loop_
 _symmetry_equiv_pos_site_id
 _symmetry_equiv_pos_as_xyz
  1  'x, y, z'
loop_
 _atom_site_type_symbol
 _atom_site_label
 _atom_site_symmetry_multiplicity
 _atom_site_fract_x
 _atom_site_fract_y
 _atom_site_fract_z
 _atom_site_occupancy
  Ho  Ho0  1  0.392434  0.169542  0.809041  1
  Ho  Ho1  1  0.607566  0.830458  0.190959  1
  Ho  Ho2  1  0.733832  0.498572  0.809614  1
  Ho  Ho3  1  0.266168  0.501428  0.190386  1
  Al  Al4  1  0.682641  0.834606  0.944867  1
  Al  Al5  1  0.317359  0.165394  0.055133  1
  Al  Al6  1  0.145235  0.838708  0.562519  1
  Al  Al7  1  0.854765  0.161292  0.437481  1
  Al  Al8  1  0.486830  0.160256  0.560105  1
  Al  Al9  1  0.513170  0.839744  0.439895  1
  Al  Al10  1  0.223552  0.160025  0.325675  1
  Al  Al11  1  0.776448  0.839975  0.674325  1
  Al  Al12  1  0.439772  0.507016  0.674731  1
  Al  Al13  1  0.560228  0.492984  0.325269  1
  Al  Al14  1  0.108854  0.153995  0.673102  1
  Al  Al15  1  0.891146  0.846005  0.326898  1
  Al  Al16  1  0.353580  0.498872  0.944468  1
  Al  Al17  1  0.646420  0.501128  0.055532  1
  Al  Al18  1  0.015408  0.167399  0.954231  1
  Al  Al19  1  0.984592  0.832601  0.045769  1
  Al  Al20  1  0.195045  0.499707  0.437022  1
  Al  Al21  1  0.804955  0.500293  0.562978  1
  Al  Al22  1  0.731597  0.164236  0.183363  1
  Al  Al23  1  0.268403  0.835764  0.816637  1
  Al  Al24  1  0.060149  0.634493  0.818110  1
  Al  Al25  1  0.939851  0.365507  0.181890  1
  Al  Al26  1  0.853542  0.043386  0.816288  1
  Al  Al27  1  0.146458  0.956614  0.183712  1
  Pd  Pd28  1  0.656858  0.171725  0.999721  1
  Pd  Pd29  1  0.343142  0.828275  0.000279  1
  Pd  Pd30  1  0.537335  0.166959  0.362483  1
  Pd  Pd31  1  0.462665  0.833041  0.637517  1
  Pd  Pd32  1  0.779114  0.175701  0.636844  1
  Pd  Pd33  1  0.220886  0.824299  0.363156  1
  Pd  Pd34  1  0.000000  0.500000  0.000000  1
  Au  Au35  1  0.119702  0.490961  0.637972  1
  Au  Au36  1  0.880298  0.509039  0.362028  1
