# generated using pymatgen
data_CaTh2(Si3Pd10)2
_symmetry_space_group_name_H-M   'P 1'
_cell_length_a   8.75446914
_cell_length_b   8.75446888
_cell_length_c   8.75446900
_cell_angle_alpha   60.00000334
_cell_angle_beta   60.00000430
_cell_angle_gamma   59.99999972
_symmetry_Int_Tables_number   1
_chemical_formula_structural   CaTh2(Si3Pd10)2
_chemical_formula_sum   'Ca1 Th2 Si6 Pd20'
_cell_volume   474.43252548
_cell_formula_units_Z   1
loop_
 _symmetry_equiv_pos_site_id
 _symmetry_equiv_pos_as_xyz
  1  'x, y, z'
loop_
 _atom_site_type_symbol
 _atom_site_label
 _atom_site_symmetry_multiplicity
 _atom_site_fract_x
 _atom_site_fract_y
 _atom_site_fract_z
 _atom_site_occupancy
  Ca  Ca0  1  0.000000  0.000000  0.000000  1
  Th  Th1  1  0.250000  0.250000  0.250000  1
  Th  Th2  1  0.750000  0.750000  0.750000  1
  Si  Si3  1  0.736018  0.263982  0.263982  1
  Si  Si4  1  0.263982  0.736018  0.736018  1
  Si  Si5  1  0.263982  0.736018  0.263982  1
  Si  Si6  1  0.736018  0.263982  0.736018  1
  Si  Si7  1  0.263982  0.263982  0.736018  1
  Si  Si8  1  0.736018  0.736018  0.263982  1
  Pd  Pd9  1  0.347866  0.000000  0.000000  1
  Pd  Pd10  1  0.652134  0.000000  0.000000  1
  Pd  Pd11  1  0.000000  0.347866  0.652134  1
  Pd  Pd12  1  0.000000  0.652134  0.347866  1
  Pd  Pd13  1  0.000000  0.347866  0.000000  1
  Pd  Pd14  1  0.652134  0.000000  0.347866  1
  Pd  Pd15  1  0.000000  0.652134  0.000000  1
  Pd  Pd16  1  0.347866  0.000000  0.652134  1
  Pd  Pd17  1  0.000000  0.000000  0.347866  1
  Pd  Pd18  1  0.000000  0.000000  0.652134  1
  Pd  Pd19  1  0.652134  0.347866  0.000000  1
  Pd  Pd20  1  0.347866  0.652134  0.000000  1
  Pd  Pd21  1  0.384411  0.384411  0.384411  1
  Pd  Pd22  1  0.615589  0.615589  0.615589  1
  Pd  Pd23  1  0.384411  0.384411  0.846769  1
  Pd  Pd24  1  0.384411  0.846769  0.384411  1
  Pd  Pd25  1  0.615589  0.615589  0.153231  1
  Pd  Pd26  1  0.615589  0.153231  0.615589  1
  Pd  Pd27  1  0.846769  0.384411  0.384411  1
  Pd  Pd28  1  0.153231  0.615589  0.615589  1
