# generated using pymatgen
data_Cs8SrEuI12
_symmetry_space_group_name_H-M   'P 1'
_cell_length_a   10.69302171
_cell_length_b   10.69302098
_cell_length_c   10.69302300
_cell_angle_alpha   89.36403344
_cell_angle_beta   89.36402812
_cell_angle_gamma   89.36403266
_symmetry_Int_Tables_number   1
_chemical_formula_structural   Cs8SrEuI12
_chemical_formula_sum   'Cs8 Sr1 Eu1 I12'
_cell_volume   1222.42350171
_cell_formula_units_Z   1
loop_
 _symmetry_equiv_pos_site_id
 _symmetry_equiv_pos_as_xyz
  1  'x, y, z'
loop_
 _atom_site_type_symbol
 _atom_site_label
 _atom_site_symmetry_multiplicity
 _atom_site_fract_x
 _atom_site_fract_y
 _atom_site_fract_z
 _atom_site_occupancy
  Cs  Cs0  1  0.249652  0.249652  0.249652  1
  Cs  Cs1  1  0.750348  0.750348  0.750348  1
  Cs  Cs2  1  0.870351  0.630354  0.250163  1
  Cs  Cs3  1  0.630354  0.250163  0.870351  1
  Cs  Cs4  1  0.250163  0.870351  0.630354  1
  Cs  Cs5  1  0.129649  0.369646  0.749837  1
  Cs  Cs6  1  0.369646  0.749837  0.129649  1
  Cs  Cs7  1  0.749837  0.129649  0.369646  1
  Sr  Sr8  1  0.000000  0.000000  0.000000  1
  Eu  Eu9  1  0.500000  0.500000  0.500000  1
  I  I10  1  0.206649  0.558170  0.430738  1
  I  I11  1  0.058498  0.705384  0.930763  1
  I  I12  1  0.930763  0.058498  0.705384  1
  I  I13  1  0.793351  0.441830  0.569262  1
  I  I14  1  0.705384  0.930763  0.058498  1
  I  I15  1  0.441830  0.569262  0.793351  1
  I  I16  1  0.569262  0.793351  0.441830  1
  I  I17  1  0.558170  0.430738  0.206649  1
  I  I18  1  0.069237  0.941502  0.294616  1
  I  I19  1  0.941502  0.294616  0.069237  1
  I  I20  1  0.294616  0.069237  0.941502  1
  I  I21  1  0.430738  0.206649  0.558170  1
