# generated using pymatgen
data_Pr8Si12IrAu3
_symmetry_space_group_name_H-M   'P 1'
_cell_length_a   8.31181300
_cell_length_b   8.31181307
_cell_length_c   8.70892200
_cell_angle_alpha   90.00000000
_cell_angle_beta   90.00000000
_cell_angle_gamma   120.00000371
_symmetry_Int_Tables_number   1
_chemical_formula_structural   Pr8Si12IrAu3
_chemical_formula_sum   'Pr8 Si12 Ir1 Au3'
_cell_volume   521.05857528
_cell_formula_units_Z   1
loop_
 _symmetry_equiv_pos_site_id
 _symmetry_equiv_pos_as_xyz
  1  'x, y, z'
loop_
 _atom_site_type_symbol
 _atom_site_label
 _atom_site_symmetry_multiplicity
 _atom_site_fract_x
 _atom_site_fract_y
 _atom_site_fract_z
 _atom_site_occupancy
  Pr  Pr0  1  0.502114  0.497886  0.746039  1
  Pr  Pr1  1  0.502465  0.497535  0.253940  1
  Pr  Pr2  1  0.995773  0.497886  0.746039  1
  Pr  Pr3  1  0.995069  0.497535  0.253940  1
  Pr  Pr4  1  0.502114  0.004227  0.746039  1
  Pr  Pr5  1  0.502465  0.004931  0.253940  1
  Pr  Pr6  1  0.000000  0.000000  0.749020  1
  Pr  Pr7  1  0.000000  0.000000  0.251089  1
  Si  Si8  1  0.836519  0.163481  0.000865  1
  Si  Si9  1  0.163699  0.836301  0.999154  1
  Si  Si10  1  0.326961  0.163481  0.000865  1
  Si  Si11  1  0.161811  0.838189  0.499721  1
  Si  Si12  1  0.672603  0.836301  0.999154  1
  Si  Si13  1  0.831001  0.168999  0.500418  1
  Si  Si14  1  0.836519  0.673039  0.000865  1
  Si  Si15  1  0.676377  0.838189  0.499721  1
  Si  Si16  1  0.163699  0.327397  0.999154  1
  Si  Si17  1  0.337998  0.168999  0.500418  1
  Si  Si18  1  0.161811  0.323623  0.499721  1
  Si  Si19  1  0.831001  0.662002  0.500418  1
  Ir  Ir20  1  0.666667  0.333333  0.500242  1
  Au  Au21  1  0.666667  0.333333  0.998870  1
  Au  Au22  1  0.333333  0.666667  0.000870  1
  Au  Au23  1  0.333333  0.666667  0.499494  1
