# generated using pymatgen
data_YNi6(BIr)6
_symmetry_space_group_name_H-M   'P 1'
_cell_length_a   6.30838041
_cell_length_b   6.30838043
_cell_length_c   6.30838111
_cell_angle_alpha   103.53924806
_cell_angle_beta   103.53924906
_cell_angle_gamma   103.53926535
_symmetry_Int_Tables_number   1
_chemical_formula_structural   YNi6(BIr)6
_chemical_formula_sum   'Y1 Ni6 B6 Ir6'
_cell_volume   225.92945240
_cell_formula_units_Z   1
loop_
 _symmetry_equiv_pos_site_id
 _symmetry_equiv_pos_as_xyz
  1  'x, y, z'
loop_
 _atom_site_type_symbol
 _atom_site_label
 _atom_site_symmetry_multiplicity
 _atom_site_fract_x
 _atom_site_fract_y
 _atom_site_fract_z
 _atom_site_occupancy
  Y  Y0  1  0.000000  0.000000  0.000000  1
  Ni  Ni1  1  0.800528  0.545959  0.545959  1
  Ni  Ni2  1  0.545959  0.545959  0.800528  1
  Ni  Ni3  1  0.545959  0.800528  0.545959  1
  Ni  Ni4  1  0.199472  0.454041  0.454041  1
  Ni  Ni5  1  0.454041  0.454041  0.199472  1
  Ni  Ni6  1  0.454041  0.199472  0.454041  1
  B  B7  1  0.346701  0.767815  0.767815  1
  B  B8  1  0.767815  0.767815  0.346701  1
  B  B9  1  0.767815  0.346701  0.767815  1
  B  B10  1  0.653299  0.232185  0.232185  1
  B  B11  1  0.232185  0.232185  0.653299  1
  B  B12  1  0.232185  0.653299  0.232185  1
  Ir  Ir13  1  0.861960  0.138040  0.500000  1
  Ir  Ir14  1  0.138040  0.500000  0.861960  1
  Ir  Ir15  1  0.500000  0.861960  0.138040  1
  Ir  Ir16  1  0.861960  0.500000  0.138040  1
  Ir  Ir17  1  0.500000  0.138040  0.861960  1
  Ir  Ir18  1  0.138040  0.861960  0.500000  1
