# generated using pymatgen
data_ZnHg(SeO4)2
_symmetry_space_group_name_H-M   'P 1'
_cell_length_a   5.08761310
_cell_length_b   5.08761223
_cell_length_c   7.21836066
_cell_angle_alpha   90.42290101
_cell_angle_beta   89.57710087
_cell_angle_gamma   112.55226500
_symmetry_Int_Tables_number   1
_chemical_formula_structural   ZnHg(SeO4)2
_chemical_formula_sum   'Zn1 Hg1 Se2 O8'
_cell_volume   172.54429079
_cell_formula_units_Z   1
loop_
 _symmetry_equiv_pos_site_id
 _symmetry_equiv_pos_as_xyz
  1  'x, y, z'
loop_
 _atom_site_type_symbol
 _atom_site_label
 _atom_site_symmetry_multiplicity
 _atom_site_fract_x
 _atom_site_fract_y
 _atom_site_fract_z
 _atom_site_occupancy
  Zn  Zn0  1  0.000000  0.000000  0.500000  1
  Hg  Hg1  1  0.000000  0.000000  0.000000  1
  Se  Se2  1  0.646331  0.353669  0.270496  1
  Se  Se3  1  0.353669  0.646331  0.729504  1
  O  O4  1  0.228681  0.285040  0.721392  1
  O  O5  1  0.285040  0.228681  0.278608  1
  O  O6  1  0.734660  0.265340  0.061966  1
  O  O7  1  0.762309  0.237691  0.453940  1
  O  O8  1  0.237691  0.762309  0.546060  1
  O  O9  1  0.265340  0.734660  0.938034  1
  O  O10  1  0.771319  0.714960  0.278608  1
  O  O11  1  0.714960  0.771319  0.721392  1
