# generated using pymatgen
data_La2Nd13Th(CdIr)4
_symmetry_space_group_name_H-M   'P 1'
_cell_length_a   9.98000980
_cell_length_b   9.98894339
_cell_length_c   9.98894398
_cell_angle_alpha   60.12376536
_cell_angle_beta   60.11396592
_cell_angle_gamma   60.11397293
_symmetry_Int_Tables_number   1
_chemical_formula_structural   La2Nd13Th(CdIr)4
_chemical_formula_sum   'La2 Nd13 Th1 Cd4 Ir4'
_cell_volume   706.00383870
_cell_formula_units_Z   1
loop_
 _symmetry_equiv_pos_site_id
 _symmetry_equiv_pos_as_xyz
  1  'x, y, z'
loop_
 _atom_site_type_symbol
 _atom_site_label
 _atom_site_symmetry_multiplicity
 _atom_site_fract_x
 _atom_site_fract_y
 _atom_site_fract_z
 _atom_site_occupancy
  La  La0  1  0.347736  0.348482  0.955519  1
  La  La1  1  0.347736  0.955519  0.348482  1
  Nd  Nd2  1  0.951359  0.349793  0.349793  1
  Nd  Nd3  1  0.810766  0.189621  0.189621  1
  Nd  Nd4  1  0.189385  0.810053  0.810053  1
  Nd  Nd5  1  0.189467  0.810411  0.189359  1
  Nd  Nd6  1  0.810410  0.189372  0.809420  1
  Nd  Nd7  1  0.189467  0.189359  0.810411  1
  Nd  Nd8  1  0.810410  0.809420  0.189372  1
  Nd  Nd9  1  0.940150  0.562064  0.562064  1
  Nd  Nd10  1  0.561358  0.937883  0.937883  1
  Nd  Nd11  1  0.562782  0.939673  0.562499  1
  Nd  Nd12  1  0.938233  0.560829  0.938601  1
  Nd  Nd13  1  0.562782  0.562499  0.939673  1
  Nd  Nd14  1  0.938233  0.938601  0.560829  1
  Th  Th15  1  0.344667  0.345531  0.345531  1
  Cd  Cd16  1  0.581019  0.579309  0.579309  1
  Cd  Cd17  1  0.579923  0.578304  0.258632  1
  Cd  Cd18  1  0.579923  0.258632  0.578304  1
  Cd  Cd19  1  0.258391  0.578904  0.578904  1
  Ir  Ir20  1  0.142055  0.142022  0.142022  1
  Ir  Ir21  1  0.146299  0.146335  0.570974  1
  Ir  Ir22  1  0.146299  0.570974  0.146335  1
  Ir  Ir23  1  0.571145  0.146407  0.146407  1
