# generated using pymatgen
data_ZrTa3(Be2Ir)2
_symmetry_space_group_name_H-M   'P 1'
_cell_length_a   6.22522300
_cell_length_b   6.22522300
_cell_length_c   3.48655000
_cell_angle_alpha   90.00000000
_cell_angle_beta   90.00000000
_cell_angle_gamma   89.68178701
_symmetry_Int_Tables_number   1
_chemical_formula_structural   ZrTa3(Be2Ir)2
_chemical_formula_sum   'Zr1 Ta3 Be4 Ir2'
_cell_volume   135.11358791
_cell_formula_units_Z   1
loop_
 _symmetry_equiv_pos_site_id
 _symmetry_equiv_pos_as_xyz
  1  'x, y, z'
loop_
 _atom_site_type_symbol
 _atom_site_label
 _atom_site_symmetry_multiplicity
 _atom_site_fract_x
 _atom_site_fract_y
 _atom_site_fract_z
 _atom_site_occupancy
  Zr  Zr0  1  0.675354  0.175354  0.500000  1
  Ta  Ta1  1  0.324637  0.824637  0.500000  1
  Ta  Ta2  1  0.174444  0.329209  0.500000  1
  Ta  Ta3  1  0.829209  0.674444  0.500000  1
  Be  Be4  1  0.123942  0.623942  0.000000  1
  Be  Be5  1  0.882436  0.382436  0.000000  1
  Be  Be6  1  0.620601  0.868875  0.000000  1
  Be  Be7  1  0.368875  0.120601  0.000000  1
  Ir  Ir8  1  0.497723  0.502779  0.000000  1
  Ir  Ir9  1  0.002779  0.997723  0.000000  1
