# generated using pymatgen
data_YbDyY5FeI12
_symmetry_space_group_name_H-M   'P 1'
_cell_length_a   9.82609136
_cell_length_b   9.76440085
_cell_length_c   9.74662441
_cell_angle_alpha   106.84050236
_cell_angle_beta   106.95852382
_cell_angle_gamma   107.05424766
_symmetry_Int_Tables_number   1
_chemical_formula_structural   YbDyY5FeI12
_chemical_formula_sum   'Yb1 Dy1 Y5 Fe1 I12'
_cell_volume   779.83532006
_cell_formula_units_Z   1
loop_
 _symmetry_equiv_pos_site_id
 _symmetry_equiv_pos_as_xyz
  1  'x, y, z'
loop_
 _atom_site_type_symbol
 _atom_site_label
 _atom_site_symmetry_multiplicity
 _atom_site_fract_x
 _atom_site_fract_y
 _atom_site_fract_z
 _atom_site_occupancy
  Yb  Yb0  1  0.500003  0.499989  0.499986  1
  Dy  Dy1  1  0.701285  0.975740  0.903836  1
  Y  Y2  1  0.976467  0.907042  0.712811  1
  Y  Y3  1  0.092081  0.286948  0.024077  1
  Y  Y4  1  0.300609  0.024380  0.096518  1
  Y  Y5  1  0.907571  0.713084  0.975819  1
  Y  Y6  1  0.023412  0.092988  0.287299  1
  Fe  Fe7  1  0.999892  0.000072  0.000087  1
  I  I8  1  0.072947  0.224414  0.682492  1
  I  I9  1  0.376414  0.149448  0.455460  1
  I  I10  1  0.623337  0.850546  0.544710  1
  I  I11  1  0.222795  0.680585  0.072513  1
  I  I12  1  0.776771  0.319027  0.927397  1
  I  I13  1  0.681511  0.073055  0.225667  1
  I  I14  1  0.545477  0.621557  0.850443  1
  I  I15  1  0.848335  0.543622  0.621091  1
  I  I16  1  0.927043  0.775618  0.317504  1
  I  I17  1  0.318019  0.926747  0.773887  1
  I  I18  1  0.454380  0.378824  0.149499  1
  I  I19  1  0.151651  0.456315  0.378904  1
