# generated using pymatgen
data_Be4AlV12Ga3N4
_symmetry_space_group_name_H-M   'P 1'
_cell_length_a   6.45557359
_cell_length_b   6.45557359
_cell_length_c   6.45557359
_cell_angle_alpha   89.96522092
_cell_angle_beta   90.03477908
_cell_angle_gamma   90.03477908
_symmetry_Int_Tables_number   1
_chemical_formula_structural   Be4AlV12Ga3N4
_chemical_formula_sum   'Be4 Al1 V12 Ga3 N4'
_cell_volume   269.03220404
_cell_formula_units_Z   1
loop_
 _symmetry_equiv_pos_site_id
 _symmetry_equiv_pos_as_xyz
  1  'x, y, z'
loop_
 _atom_site_type_symbol
 _atom_site_label
 _atom_site_symmetry_multiplicity
 _atom_site_fract_x
 _atom_site_fract_y
 _atom_site_fract_z
 _atom_site_occupancy
  Be  Be0  1  0.176443  0.823557  0.323557  1
  Be  Be1  1  0.322743  0.175713  0.822878  1
  Be  Be2  1  0.824287  0.322878  0.177257  1
  Be  Be3  1  0.677122  0.677257  0.675713  1
  Al  Al4  1  0.574704  0.425296  0.925296  1
  V  V5  1  0.794342  0.959099  0.373506  1
  V  V6  1  0.705284  0.040609  0.872519  1
  V  V7  1  0.205443  0.460005  0.126330  1
  V  V8  1  0.293845  0.539626  0.627708  1
  V  V9  1  0.959391  0.372519  0.794716  1
  V  V10  1  0.040901  0.873506  0.705658  1
  V  V11  1  0.460374  0.127708  0.206155  1
  V  V12  1  0.539995  0.626330  0.294557  1
  V  V13  1  0.373670  0.794557  0.960005  1
  V  V14  1  0.872292  0.706155  0.039626  1
  V  V15  1  0.126494  0.205658  0.459099  1
  V  V16  1  0.627481  0.294716  0.540609  1
  Ga  Ga17  1  0.425841  0.925741  0.574057  1
  Ga  Ga18  1  0.925943  0.574159  0.425741  1
  Ga  Ga19  1  0.074259  0.074057  0.074159  1
  N  N20  1  0.875865  0.124135  0.624135  1
  N  N21  1  0.624314  0.876223  0.124810  1
  N  N22  1  0.123777  0.624810  0.875686  1
  N  N23  1  0.375190  0.375686  0.376223  1
