# generated using pymatgen
data_Zr12Si12TcRh3
_symmetry_space_group_name_H-M   'P 1'
_cell_length_a   3.88742900
_cell_length_b   10.46919399
_cell_length_c   11.78827950
_cell_angle_alpha   90.14898658
_cell_angle_beta   90.00000000
_cell_angle_gamma   90.00000000
_symmetry_Int_Tables_number   1
_chemical_formula_structural   Zr12Si12TcRh3
_chemical_formula_sum   'Zr12 Si12 Tc1 Rh3'
_cell_volume   479.76070429
_cell_formula_units_Z   1
loop_
 _symmetry_equiv_pos_site_id
 _symmetry_equiv_pos_as_xyz
  1  'x, y, z'
loop_
 _atom_site_type_symbol
 _atom_site_label
 _atom_site_symmetry_multiplicity
 _atom_site_fract_x
 _atom_site_fract_y
 _atom_site_fract_z
 _atom_site_occupancy
  Zr  Zr0  1  0.250000  0.875920  0.022666  1
  Zr  Zr1  1  0.250000  0.624690  0.521645  1
  Zr  Zr2  1  0.750000  0.121997  0.978703  1
  Zr  Zr3  1  0.750000  0.377287  0.481537  1
  Zr  Zr4  1  0.250000  0.928071  0.595366  1
  Zr  Zr5  1  0.250000  0.572018  0.095687  1
  Zr  Zr6  1  0.750000  0.072578  0.403039  1
  Zr  Zr7  1  0.750000  0.427461  0.899575  1
  Zr  Zr8  1  0.250000  0.658649  0.800695  1
  Zr  Zr9  1  0.250000  0.842771  0.300282  1
  Zr  Zr10  1  0.750000  0.342069  0.199624  1
  Zr  Zr11  1  0.750000  0.157574  0.699973  1
  Si  Si12  1  0.250000  0.014747  0.825815  1
  Si  Si13  1  0.250000  0.483242  0.324882  1
  Si  Si14  1  0.750000  0.982455  0.175174  1
  Si  Si15  1  0.750000  0.520506  0.674679  1
  Si  Si16  1  0.250000  0.247271  0.844345  1
  Si  Si17  1  0.250000  0.250470  0.342877  1
  Si  Si18  1  0.750000  0.749220  0.156658  1
  Si  Si19  1  0.750000  0.752348  0.656148  1
  Si  Si20  1  0.250000  0.194246  0.541924  1
  Si  Si21  1  0.250000  0.306286  0.042191  1
  Si  Si22  1  0.750000  0.807024  0.457733  1
  Si  Si23  1  0.750000  0.692460  0.958040  1
  Tc  Tc24  1  0.250000  0.385488  0.679988  1
  Rh  Rh25  1  0.250000  0.114084  0.182084  1
  Rh  Rh26  1  0.750000  0.614455  0.318987  1
  Rh  Rh27  1  0.750000  0.884614  0.819682  1
