# generated using pymatgen
data_Ho2SiP(Ru2C)2
_symmetry_space_group_name_H-M   'P 1'
_cell_length_a   3.79046900
_cell_length_b   5.86712728
_cell_length_c   7.08242400
_cell_angle_alpha   90.00000000
_cell_angle_beta   90.00000000
_cell_angle_gamma   71.15397285
_symmetry_Int_Tables_number   1
_chemical_formula_structural   Ho2SiP(Ru2C)2
_chemical_formula_sum   'Ho2 Si1 P1 Ru4 C2'
_cell_volume   149.06324005
_cell_formula_units_Z   1
loop_
 _symmetry_equiv_pos_site_id
 _symmetry_equiv_pos_as_xyz
  1  'x, y, z'
loop_
 _atom_site_type_symbol
 _atom_site_label
 _atom_site_symmetry_multiplicity
 _atom_site_fract_x
 _atom_site_fract_y
 _atom_site_fract_z
 _atom_site_occupancy
  Ho  Ho0  1  0.954388  0.091224  0.250000  1
  Ho  Ho1  1  0.045867  0.908264  0.750000  1
  Si  Si2  1  0.768498  0.463004  0.750000  1
  P  P3  1  0.232095  0.535811  0.250000  1
  Ru  Ru4  1  0.663988  0.672024  0.058745  1
  Ru  Ru5  1  0.663988  0.672024  0.441255  1
  Ru  Ru6  1  0.335204  0.329594  0.551392  1
  Ru  Ru7  1  0.335204  0.329594  0.948608  1
  C  C8  1  0.500385  0.999230  0.998427  1
  C  C9  1  0.500385  0.999230  0.501573  1
