# generated using pymatgen
data_NaDySnI6
_symmetry_space_group_name_H-M   'P 1'
_cell_length_a   8.66823894
_cell_length_b   8.66839206
_cell_length_c   8.66827814
_cell_angle_alpha   54.25541023
_cell_angle_beta   54.25624233
_cell_angle_gamma   54.25634774
_symmetry_Int_Tables_number   1
_chemical_formula_structural   NaDySnI6
_chemical_formula_sum   'Na1 Dy1 Sn1 I6'
_cell_volume   398.82857192
_cell_formula_units_Z   1
loop_
 _symmetry_equiv_pos_site_id
 _symmetry_equiv_pos_as_xyz
  1  'x, y, z'
loop_
 _atom_site_type_symbol
 _atom_site_label
 _atom_site_symmetry_multiplicity
 _atom_site_fract_x
 _atom_site_fract_y
 _atom_site_fract_z
 _atom_site_occupancy
  Na  Na0  1  0.669705  0.669699  0.669705  1
  Dy  Dy1  1  0.999596  0.999596  0.999592  1
  Sn  Sn2  1  0.331252  0.331269  0.331245  1
  I  I3  1  0.235624  0.605490  0.918600  1
  I  I4  1  0.605494  0.918599  0.235618  1
  I  I5  1  0.918604  0.235620  0.605492  1
  I  I6  1  0.758764  0.389782  0.091187  1
  I  I7  1  0.389779  0.091182  0.758775  1
  I  I8  1  0.091185  0.758763  0.389785  1
