# generated using pymatgen
data_U8Fe3CoC12
_symmetry_space_group_name_H-M   'P 1'
_cell_length_a   3.54519800
_cell_length_b   6.38540508
_cell_length_c   13.01200317
_cell_angle_alpha   90.01817666
_cell_angle_beta   90.00000000
_cell_angle_gamma   90.00000000
_symmetry_Int_Tables_number   1
_chemical_formula_structural   U8Fe3CoC12
_chemical_formula_sum   'U8 Fe3 Co1 C12'
_cell_volume   294.55953626
_cell_formula_units_Z   1
loop_
 _symmetry_equiv_pos_site_id
 _symmetry_equiv_pos_as_xyz
  1  'x, y, z'
loop_
 _atom_site_type_symbol
 _atom_site_label
 _atom_site_symmetry_multiplicity
 _atom_site_fract_x
 _atom_site_fract_y
 _atom_site_fract_z
 _atom_site_occupancy
  U  U0  1  0.250000  0.748215  0.022261  1
  U  U1  1  0.750000  0.253980  0.978924  1
  U  U2  1  0.750000  0.754144  0.521478  1
  U  U3  1  0.250000  0.246649  0.478137  1
  U  U4  1  0.250000  0.621872  0.287715  1
  U  U5  1  0.750000  0.378374  0.711442  1
  U  U6  1  0.750000  0.876759  0.787912  1
  U  U7  1  0.250000  0.122405  0.212466  1
  Fe  Fe8  1  0.750000  0.482441  0.158074  1
  Fe  Fe9  1  0.750000  0.982276  0.341633  1
  Fe  Fe10  1  0.250000  0.019116  0.659888  1
  Co  Co11  1  0.250000  0.512802  0.843112  1
  C  C12  1  0.250000  0.688329  0.674864  1
  C  C13  1  0.750000  0.313884  0.323360  1
  C  C14  1  0.750000  0.814591  0.176956  1
  C  C15  1  0.250000  0.181402  0.820839  1
  C  C16  1  0.250000  0.527447  0.596436  1
  C  C17  1  0.750000  0.472080  0.403530  1
  C  C18  1  0.750000  0.972653  0.096611  1
  C  C19  1  0.250000  0.027127  0.903211  1
  C  C20  1  0.250000  0.902487  0.402026  1
  C  C21  1  0.750000  0.098070  0.598106  1
  C  C22  1  0.750000  0.600421  0.903693  1
  C  C23  1  0.250000  0.402475  0.097323  1
