# generated using pymatgen
data_Dy3Ho5(InAu2)4
_symmetry_space_group_name_H-M   'P 1'
_cell_length_a   8.00919700
_cell_length_b   8.00919756
_cell_length_c   7.30840900
_cell_angle_alpha   90.00000000
_cell_angle_beta   90.00000000
_cell_angle_gamma   90.09303453
_symmetry_Int_Tables_number   1
_chemical_formula_structural   Dy3Ho5(InAu2)4
_chemical_formula_sum   'Dy3 Ho5 In4 Au8'
_cell_volume   468.81365584
_cell_formula_units_Z   1
loop_
 _symmetry_equiv_pos_site_id
 _symmetry_equiv_pos_as_xyz
  1  'x, y, z'
loop_
 _atom_site_type_symbol
 _atom_site_label
 _atom_site_symmetry_multiplicity
 _atom_site_fract_x
 _atom_site_fract_y
 _atom_site_fract_z
 _atom_site_occupancy
  Dy  Dy0  1  0.838277  0.161599  0.500000  1
  Dy  Dy1  1  0.161599  0.838277  0.500000  1
  Dy  Dy2  1  0.676394  0.676394  0.500000  1
  Ho  Ho3  1  0.323829  0.323829  0.500000  1
  Ho  Ho4  1  0.176740  0.824492  0.000000  1
  Ho  Ho5  1  0.824492  0.176740  0.000000  1
  Ho  Ho6  1  0.338483  0.338483  0.000000  1
  Ho  Ho7  1  0.660694  0.660694  0.000000  1
  In  In8  1  0.500450  0.999854  0.248025  1
  In  In9  1  0.999854  0.500450  0.751975  1
  In  In10  1  0.500450  0.999854  0.751975  1
  In  In11  1  0.999854  0.500450  0.248025  1
  Au  Au12  1  0.628619  0.370341  0.263581  1
  Au  Au13  1  0.370341  0.628619  0.263581  1
  Au  Au14  1  0.129569  0.129569  0.765378  1
  Au  Au15  1  0.870911  0.870911  0.767609  1
  Au  Au16  1  0.370341  0.628619  0.736419  1
  Au  Au17  1  0.628619  0.370341  0.736419  1
  Au  Au18  1  0.870911  0.870911  0.232391  1
  Au  Au19  1  0.129569  0.129569  0.234622  1
