# generated using pymatgen
data_La5(AgC)2
_symmetry_space_group_name_H-M   'P 1'
_cell_length_a   8.90240300
_cell_length_b   13.49693900
_cell_length_c   4.08803100
_cell_angle_alpha   90.00000000
_cell_angle_beta   90.00000000
_cell_angle_gamma   90.00000000
_symmetry_Int_Tables_number   1
_chemical_formula_structural   La5(AgC)2
_chemical_formula_sum   'La10 Ag4 C4'
_cell_volume   491.19814253
_cell_formula_units_Z   2
loop_
 _symmetry_equiv_pos_site_id
 _symmetry_equiv_pos_as_xyz
  1  'x, y, z'
loop_
 _atom_site_type_symbol
 _atom_site_label
 _atom_site_symmetry_multiplicity
 _atom_site_fract_x
 _atom_site_fract_y
 _atom_site_fract_z
 _atom_site_occupancy
  La  La0  1  0.500000  0.000000  0.000000  1
  La  La1  1  0.168599  0.200687  0.000000  1
  La  La2  1  0.668600  0.299313  0.000000  1
  La  La3  1  0.000000  0.500000  0.000000  1
  La  La4  1  0.331401  0.700687  0.000000  1
  La  La5  1  0.831401  0.799313  0.000000  1
  La  La6  1  0.844295  0.060864  0.499998  1
  La  La7  1  0.344295  0.439136  0.499998  1
  La  La8  1  0.655706  0.560864  0.499998  1
  La  La9  1  0.155706  0.939136  0.499998  1
  Ag  Ag10  1  0.455605  0.174868  0.499998  1
  Ag  Ag11  1  0.955605  0.325132  0.499998  1
  Ag  Ag12  1  0.044394  0.674868  0.499998  1
  Ag  Ag13  1  0.544396  0.825132  0.499998  1
  C  C14  1  0.039595  0.044329  0.000000  1
  C  C15  1  0.539594  0.455671  0.000000  1
  C  C16  1  0.460405  0.544329  0.000000  1
  C  C17  1  0.960406  0.955671  0.000000  1
