# generated using pymatgen
data_Dy2Tm10TlCo5
_symmetry_space_group_name_H-M   'P 1'
_cell_length_a   8.19045533
_cell_length_b   8.19045616
_cell_length_c   8.18430800
_cell_angle_alpha   111.03783772
_cell_angle_beta   110.77307272
_cell_angle_gamma   106.67147879
_symmetry_Int_Tables_number   1
_chemical_formula_structural   Dy2Tm10TlCo5
_chemical_formula_sum   'Dy2 Tm10 Tl1 Co5'
_cell_volume   421.71516390
_cell_formula_units_Z   1
loop_
 _symmetry_equiv_pos_site_id
 _symmetry_equiv_pos_as_xyz
  1  'x, y, z'
loop_
 _atom_site_type_symbol
 _atom_site_label
 _atom_site_symmetry_multiplicity
 _atom_site_fract_x
 _atom_site_fract_y
 _atom_site_fract_z
 _atom_site_occupancy
  Dy  Dy0  1  0.288369  0.185212  0.473579  1
  Dy  Dy1  1  0.711631  0.814788  0.526421  1
  Tm  Tm2  1  0.287760  0.814308  0.102068  1
  Tm  Tm3  1  0.712240  0.185692  0.897932  1
  Tm  Tm4  1  0.620188  0.313569  0.305199  1
  Tm  Tm5  1  0.379812  0.686431  0.694801  1
  Tm  Tm6  1  0.008369  0.314989  0.694801  1
  Tm  Tm7  1  0.991631  0.685011  0.305199  1
  Tm  Tm8  1  0.211503  0.404728  0.191341  1
  Tm  Tm9  1  0.788497  0.595272  0.808659  1
  Tm  Tm10  1  0.213388  0.020164  0.808659  1
  Tm  Tm11  1  0.786612  0.979836  0.191341  1
  Tl  Tl12  1  0.500000  0.500000  0.000000  1
  Co  Co13  1  0.999276  0.376929  0.376207  1
  Co  Co14  1  0.000724  0.623071  0.623793  1
  Co  Co15  1  0.387100  0.887100  0.500000  1
  Co  Co16  1  0.612900  0.112900  0.500000  1
  Co  Co17  1  0.000000  0.000000  0.000000  1
