# generated using pymatgen
data_Zr3Ti3Sn5
_symmetry_space_group_name_H-M   'P 1'
_cell_length_a   9.59249200
_cell_length_b   9.59249221
_cell_length_c   5.83270800
_cell_angle_alpha   90.00000000
_cell_angle_beta   90.00000000
_cell_angle_gamma   119.99999928
_symmetry_Int_Tables_number   1
_chemical_formula_structural   Zr3Ti3Sn5
_chemical_formula_sum   'Zr6 Ti6 Sn10'
_cell_volume   464.79748648
_cell_formula_units_Z   2
loop_
 _symmetry_equiv_pos_site_id
 _symmetry_equiv_pos_as_xyz
  1  'x, y, z'
loop_
 _atom_site_type_symbol
 _atom_site_label
 _atom_site_symmetry_multiplicity
 _atom_site_fract_x
 _atom_site_fract_y
 _atom_site_fract_z
 _atom_site_occupancy
  Zr  Zr0  1  0.845750  0.691500  0.750000  1
  Zr  Zr1  1  0.154250  0.845750  0.250000  1
  Zr  Zr2  1  0.691500  0.845750  0.250000  1
  Zr  Zr3  1  0.308500  0.154250  0.750000  1
  Zr  Zr4  1  0.845750  0.154250  0.750000  1
  Zr  Zr5  1  0.154250  0.308500  0.250000  1
  Ti  Ti6  1  0.500000  0.000000  0.500000  1
  Ti  Ti7  1  0.500000  0.500000  0.000000  1
  Ti  Ti8  1  0.000000  0.500000  0.000000  1
  Ti  Ti9  1  0.000000  0.500000  0.500000  1
  Ti  Ti10  1  0.500000  0.000000  0.000000  1
  Ti  Ti11  1  0.500000  0.500000  0.500000  1
  Sn  Sn12  1  0.211152  0.422304  0.750000  1
  Sn  Sn13  1  0.788848  0.211152  0.250000  1
  Sn  Sn14  1  0.422304  0.211152  0.250000  1
  Sn  Sn15  1  0.577696  0.788848  0.750000  1
  Sn  Sn16  1  0.211152  0.788848  0.750000  1
  Sn  Sn17  1  0.788848  0.577696  0.250000  1
  Sn  Sn18  1  0.666667  0.333333  0.750000  1
  Sn  Sn19  1  0.333333  0.666667  0.250000  1
  Sn  Sn20  1  0.000000  0.000000  0.500000  1
  Sn  Sn21  1  0.000000  0.000000  0.000000  1
