# generated using pymatgen
data_La6Al24Os3Rh5
_symmetry_space_group_name_H-M   'P 1'
_cell_length_a   8.96395100
_cell_length_b   9.00229750
_cell_length_c   9.70429365
_cell_angle_alpha   90.15364719
_cell_angle_beta   90.00000000
_cell_angle_gamma   119.85919585
_symmetry_Int_Tables_number   1
_chemical_formula_structural   La6Al24Os3Rh5
_chemical_formula_sum   'La6 Al24 Os3 Rh5'
_cell_volume   679.14071187
_cell_formula_units_Z   1
loop_
 _symmetry_equiv_pos_site_id
 _symmetry_equiv_pos_as_xyz
  1  'x, y, z'
loop_
 _atom_site_type_symbol
 _atom_site_label
 _atom_site_symmetry_multiplicity
 _atom_site_fract_x
 _atom_site_fract_y
 _atom_site_fract_z
 _atom_site_occupancy
  La  La0  1  0.189859  0.379719  0.250840  1
  La  La1  1  0.810141  0.620281  0.749160  1
  La  La2  1  0.617865  0.811580  0.251135  1
  La  La3  1  0.382135  0.188420  0.748865  1
  La  La4  1  0.193716  0.811580  0.251135  1
  La  La5  1  0.806284  0.188420  0.748865  1
  Al  Al6  1  0.332976  0.665954  0.008503  1
  Al  Al7  1  0.667024  0.334046  0.991497  1
  Al  Al8  1  0.666299  0.332598  0.508724  1
  Al  Al9  1  0.333701  0.667402  0.491276  1
  Al  Al10  1  0.162790  0.325579  0.576218  1
  Al  Al11  1  0.837210  0.674421  0.423782  1
  Al  Al12  1  0.673246  0.837959  0.575469  1
  Al  Al13  1  0.837578  0.675159  0.076172  1
  Al  Al14  1  0.326754  0.162041  0.424531  1
  Al  Al15  1  0.162422  0.324841  0.923828  1
  Al  Al16  1  0.164714  0.837959  0.575469  1
  Al  Al17  1  0.326343  0.163825  0.076598  1
  Al  Al18  1  0.835286  0.162041  0.424531  1
  Al  Al19  1  0.673657  0.836175  0.923402  1
  Al  Al20  1  0.837480  0.163825  0.076598  1
  Al  Al21  1  0.162520  0.836175  0.923402  1
  Al  Al22  1  0.563761  0.127523  0.250756  1
  Al  Al23  1  0.436239  0.872477  0.749244  1
  Al  Al24  1  0.876071  0.438426  0.249784  1
  Al  Al25  1  0.123929  0.561574  0.750216  1
  Al  Al26  1  0.562355  0.438426  0.249784  1
  Al  Al27  1  0.437645  0.561574  0.750216  1
  Al  Al28  1  0.000644  0.001288  0.250090  1
  Al  Al29  1  0.999356  0.998712  0.749910  1
  Os  Os30  1  0.500000  0.000000  0.500000  1
  Os  Os31  1  0.000000  0.000000  0.000000  1
  Os  Os32  1  0.000000  0.000000  0.500000  1
  Rh  Rh33  1  0.500000  0.000000  0.000000  1
  Rh  Rh34  1  0.000000  0.500000  0.000000  1
  Rh  Rh35  1  0.500000  0.500000  0.000000  1
  Rh  Rh36  1  0.000000  0.500000  0.500000  1
  Rh  Rh37  1  0.500000  0.500000  0.500000  1
