# generated using pymatgen
data_Si8MoIrPt5W
_symmetry_space_group_name_H-M   'P 1'
_cell_length_a   3.53590600
_cell_length_b   5.52880400
_cell_length_c   24.58276000
_cell_angle_alpha   90.00000000
_cell_angle_beta   90.00000000
_cell_angle_gamma   90.00000000
_symmetry_Int_Tables_number   1
_chemical_formula_structural   Si8MoIrPt5W
_chemical_formula_sum   'Si16 Mo2 Ir2 Pt10 W2'
_cell_volume   480.57651795
_cell_formula_units_Z   2
loop_
 _symmetry_equiv_pos_site_id
 _symmetry_equiv_pos_as_xyz
  1  'x, y, z'
loop_
 _atom_site_type_symbol
 _atom_site_label
 _atom_site_symmetry_multiplicity
 _atom_site_fract_x
 _atom_site_fract_y
 _atom_site_fract_z
 _atom_site_occupancy
  Si  Si0  1  0.250000  0.173394  0.521149  1
  Si  Si1  1  0.750000  0.326606  0.021149  1
  Si  Si2  1  0.250000  0.673195  0.981826  1
  Si  Si3  1  0.750000  0.826805  0.481826  1
  Si  Si4  1  0.750000  0.318165  0.644306  1
  Si  Si5  1  0.250000  0.181835  0.144306  1
  Si  Si6  1  0.750000  0.819841  0.853984  1
  Si  Si7  1  0.250000  0.680159  0.353984  1
  Si  Si8  1  0.250000  0.668568  0.608781  1
  Si  Si9  1  0.750000  0.831432  0.108781  1
  Si  Si10  1  0.250000  0.161667  0.890534  1
  Si  Si11  1  0.750000  0.338333  0.390534  1
  Si  Si12  1  0.750000  0.829944  0.726067  1
  Si  Si13  1  0.250000  0.670056  0.226067  1
  Si  Si14  1  0.750000  0.330624  0.773988  1
  Si  Si15  1  0.250000  0.169376  0.273988  1
  Mo  Mo16  1  0.250000  0.005581  0.789496  1
  Mo  Mo17  1  0.750000  0.494419  0.289496  1
  Ir  Ir18  1  0.750000  0.000597  0.573481  1
  Ir  Ir19  1  0.250000  0.499403  0.073481  1
  Pt  Pt20  1  0.750000  0.503140  0.925359  1
  Pt  Pt21  1  0.250000  0.996860  0.425359  1
  Pt  Pt22  1  0.250000  0.005193  0.670501  1
  Pt  Pt23  1  0.750000  0.494807  0.170501  1
  Pt  Pt24  1  0.250000  0.504624  0.829894  1
  Pt  Pt25  1  0.750000  0.995376  0.329894  1
  Pt  Pt26  1  0.750000  0.502158  0.549297  1
  Pt  Pt27  1  0.250000  0.997842  0.049297  1
  Pt  Pt28  1  0.750000  0.004721  0.951565  1
  Pt  Pt29  1  0.250000  0.495279  0.451565  1
  W  W30  1  0.250000  0.501993  0.709771  1
  W  W31  1  0.750000  0.998007  0.209771  1
