# generated using pymatgen
data_Ho4As6Ru2Rh5
_symmetry_space_group_name_H-M   'P 1'
_cell_length_a   7.25303991
_cell_length_b   7.25243471
_cell_length_c   7.25303992
_cell_angle_alpha   109.48245477
_cell_angle_beta   109.43891224
_cell_angle_gamma   109.48245332
_symmetry_Int_Tables_number   1
_chemical_formula_structural   Ho4As6Ru2Rh5
_chemical_formula_sum   'Ho4 As6 Ru2 Rh5'
_cell_volume   293.73435647
_cell_formula_units_Z   1
loop_
 _symmetry_equiv_pos_site_id
 _symmetry_equiv_pos_as_xyz
  1  'x, y, z'
loop_
 _atom_site_type_symbol
 _atom_site_label
 _atom_site_symmetry_multiplicity
 _atom_site_fract_x
 _atom_site_fract_y
 _atom_site_fract_z
 _atom_site_occupancy
  Ho  Ho0  1  0.000089  0.000123  0.500070  1
  Ho  Ho1  1  0.499930  0.999877  0.999911  1
  Ho  Ho2  1  0.000057  0.500000  0.999943  1
  Ho  Ho3  1  0.499933  0.500000  0.500067  1
  As  As4  1  0.680855  0.683236  0.997535  1
  As  As5  1  0.314364  0.316695  0.997701  1
  As  As6  1  0.002299  0.683305  0.685636  1
  As  As7  1  0.002465  0.316764  0.319145  1
  As  As8  1  0.685081  0.999950  0.685096  1
  As  As9  1  0.314904  0.000050  0.314919  1
  Ru  Ru10  1  0.999988  0.000000  0.000012  1
  Ru  Ru11  1  0.250000  0.500000  0.750000  1
  Rh  Rh12  1  0.749383  0.249054  0.500298  1
  Rh  Rh13  1  0.499748  0.249075  0.748781  1
  Rh  Rh14  1  0.499702  0.750946  0.250617  1
  Rh  Rh15  1  0.749983  0.500000  0.250017  1
  Rh  Rh16  1  0.251219  0.750925  0.500252  1
