# generated using pymatgen
data_Zr8AlCd4Cu7
_symmetry_space_group_name_H-M   'P 1'
_cell_length_a   7.32284662
_cell_length_b   7.32284737
_cell_length_c   6.80745300
_cell_angle_alpha   89.93561424
_cell_angle_beta   89.93560641
_cell_angle_gamma   89.91134934
_symmetry_Int_Tables_number   1
_chemical_formula_structural   Zr8AlCd4Cu7
_chemical_formula_sum   'Zr8 Al1 Cd4 Cu7'
_cell_volume   365.04256269
_cell_formula_units_Z   1
loop_
 _symmetry_equiv_pos_site_id
 _symmetry_equiv_pos_as_xyz
  1  'x, y, z'
loop_
 _atom_site_type_symbol
 _atom_site_label
 _atom_site_symmetry_multiplicity
 _atom_site_fract_x
 _atom_site_fract_y
 _atom_site_fract_z
 _atom_site_occupancy
  Zr  Zr0  1  0.650949  0.650949  0.500817  1
  Zr  Zr1  1  0.796914  0.196453  0.491829  1
  Zr  Zr2  1  0.694774  0.694774  0.998524  1
  Zr  Zr3  1  0.845760  0.148411  0.003961  1
  Zr  Zr4  1  0.196453  0.796914  0.491829  1
  Zr  Zr5  1  0.308536  0.308536  0.005288  1
  Zr  Zr6  1  0.148411  0.845760  0.003961  1
  Zr  Zr7  1  0.354998  0.354998  0.495461  1
  Al  Al8  1  0.123584  0.123584  0.707612  1
  Cd  Cd9  1  0.998813  0.497084  0.248464  1
  Cd  Cd10  1  0.500761  0.999773  0.750338  1
  Cd  Cd11  1  0.497084  0.998813  0.248464  1
  Cd  Cd12  1  0.999773  0.500761  0.750338  1
  Cu  Cu13  1  0.624885  0.379658  0.198756  1
  Cu  Cu14  1  0.377756  0.623562  0.798396  1
  Cu  Cu15  1  0.878930  0.878930  0.699094  1
  Cu  Cu16  1  0.623562  0.377756  0.798396  1
  Cu  Cu17  1  0.379658  0.624885  0.198756  1
  Cu  Cu18  1  0.122647  0.122647  0.308508  1
  Cu  Cu19  1  0.875749  0.875749  0.301209  1
