# generated using pymatgen
data_Nd2Ho3Zr3(Co4P3)4
_symmetry_space_group_name_H-M   'P 1'
_cell_length_a   12.36860500
_cell_length_b   12.36860426
_cell_length_c   3.73005800
_cell_angle_alpha   90.00000000
_cell_angle_beta   90.00000000
_cell_angle_gamma   120.00000464
_symmetry_Int_Tables_number   1
_chemical_formula_structural   Nd2Ho3Zr3(Co4P3)4
_chemical_formula_sum   'Nd2 Ho3 Zr3 Co16 P12'
_cell_volume   494.18278306
_cell_formula_units_Z   1
loop_
 _symmetry_equiv_pos_site_id
 _symmetry_equiv_pos_as_xyz
  1  'x, y, z'
loop_
 _atom_site_type_symbol
 _atom_site_label
 _atom_site_symmetry_multiplicity
 _atom_site_fract_x
 _atom_site_fract_y
 _atom_site_fract_z
 _atom_site_occupancy
  Nd  Nd0  1  0.666667  0.333333  0.000000  1
  Nd  Nd1  1  0.333333  0.666667  0.000000  1
  Ho  Ho2  1  0.818010  0.818010  0.500000  1
  Ho  Ho3  1  0.181990  0.000000  0.500000  1
  Ho  Ho4  1  0.000000  0.181990  0.500000  1
  Zr  Zr5  1  0.441451  0.441451  0.000000  1
  Zr  Zr6  1  0.558549  0.000000  0.000000  1
  Zr  Zr7  1  0.000000  0.558549  0.000000  1
  Co  Co8  1  0.877902  0.353680  0.500000  1
  Co  Co9  1  0.646320  0.524222  0.500000  1
  Co  Co10  1  0.475778  0.122098  0.500000  1
  Co  Co11  1  0.353680  0.877902  0.500000  1
  Co  Co12  1  0.524222  0.646320  0.500000  1
  Co  Co13  1  0.122098  0.475778  0.500000  1
  Co  Co14  1  0.806918  0.177054  0.000000  1
  Co  Co15  1  0.822946  0.629863  0.000000  1
  Co  Co16  1  0.370137  0.193082  0.000000  1
  Co  Co17  1  0.177054  0.806918  0.000000  1
  Co  Co18  1  0.629863  0.822946  0.000000  1
  Co  Co19  1  0.193082  0.370137  0.000000  1
  Co  Co20  1  0.275537  0.275537  0.500000  1
  Co  Co21  1  0.724463  0.000000  0.500000  1
  Co  Co22  1  0.000000  0.724463  0.500000  1
  Co  Co23  1  0.000000  0.000000  0.000000  1
  P  P24  1  0.696375  0.169481  0.500000  1
  P  P25  1  0.830519  0.526895  0.500000  1
  P  P26  1  0.473105  0.303625  0.500000  1
  P  P27  1  0.169481  0.696375  0.500000  1
  P  P28  1  0.526895  0.830519  0.500000  1
  P  P29  1  0.303625  0.473105  0.500000  1
  P  P30  1  0.176784  0.176784  0.000000  1
  P  P31  1  0.823216  0.000000  0.000000  1
  P  P32  1  0.000000  0.823216  0.000000  1
  P  P33  1  0.649215  0.649215  0.000000  1
  P  P34  1  0.350785  0.000000  0.000000  1
  P  P35  1  0.000000  0.350785  0.000000  1
