# generated using pymatgen
data_HoPa3(FeB4)4
_symmetry_space_group_name_H-M   'P 1'
_cell_length_a   3.43573500
_cell_length_b   5.91188423
_cell_length_c   11.45638902
_cell_angle_alpha   89.93889844
_cell_angle_beta   90.00000000
_cell_angle_gamma   90.00000000
_symmetry_Int_Tables_number   1
_chemical_formula_structural   HoPa3(FeB4)4
_chemical_formula_sum   'Ho1 Pa3 Fe4 B16'
_cell_volume   232.69823284
_cell_formula_units_Z   1
loop_
 _symmetry_equiv_pos_site_id
 _symmetry_equiv_pos_as_xyz
  1  'x, y, z'
loop_
 _atom_site_type_symbol
 _atom_site_label
 _atom_site_symmetry_multiplicity
 _atom_site_fract_x
 _atom_site_fract_y
 _atom_site_fract_z
 _atom_site_occupancy
  Ho  Ho0  1  0.500000  0.872701  0.350458  1
  Pa  Pa1  1  0.500000  0.373066  0.151215  1
  Pa  Pa2  1  0.500000  0.626649  0.849730  1
  Pa  Pa3  1  0.500000  0.126309  0.649027  1
  Fe  Fe4  1  0.500000  0.364707  0.410978  1
  Fe  Fe5  1  0.500000  0.636219  0.592259  1
  Fe  Fe6  1  0.500000  0.135818  0.907708  1
  Fe  Fe7  1  0.500000  0.865721  0.089475  1
  B  B8  1  0.000000  0.110604  0.046129  1
  B  B9  1  0.000000  0.887691  0.954999  1
  B  B10  1  0.000000  0.388814  0.544193  1
  B  B11  1  0.000000  0.613052  0.453954  1
  B  B12  1  0.000000  0.139466  0.465849  1
  B  B13  1  0.000000  0.861043  0.532447  1
  B  B14  1  0.000000  0.360441  0.966168  1
  B  B15  1  0.000000  0.638405  0.034636  1
  B  B16  1  0.000000  0.023222  0.190280  1
  B  B17  1  0.000000  0.975890  0.810235  1
  B  B18  1  0.000000  0.475524  0.689200  1
  B  B19  1  0.000000  0.525377  0.311262  1
  B  B20  1  0.000000  0.217887  0.315388  1
  B  B21  1  0.000000  0.781234  0.684814  1
  B  B22  1  0.000000  0.281789  0.814295  1
  B  B23  1  0.000000  0.718369  0.185300  1
