# generated using pymatgen
data_Sm3Lu(Ta3Si4)2
_symmetry_space_group_name_H-M   'P 1'
_cell_length_a   7.06325100
_cell_length_b   7.06613301
_cell_length_c   13.02965700
_cell_angle_alpha   90.00000000
_cell_angle_beta   90.00000000
_cell_angle_gamma   90.00353531
_symmetry_Int_Tables_number   1
_chemical_formula_structural   Sm3Lu(Ta3Si4)2
_chemical_formula_sum   'Sm6 Lu2 Ta12 Si16'
_cell_volume   650.30849976
_cell_formula_units_Z   2
loop_
 _symmetry_equiv_pos_site_id
 _symmetry_equiv_pos_as_xyz
  1  'x, y, z'
loop_
 _atom_site_type_symbol
 _atom_site_label
 _atom_site_symmetry_multiplicity
 _atom_site_fract_x
 _atom_site_fract_y
 _atom_site_fract_z
 _atom_site_occupancy
  Sm  Sm0  1  0.996800  0.339784  0.218303  1
  Sm  Sm1  1  0.003200  0.660216  0.718303  1
  Sm  Sm2  1  0.159241  0.496430  0.467914  1
  Sm  Sm3  1  0.504080  0.840881  0.031998  1
  Sm  Sm4  1  0.840759  0.503570  0.967914  1
  Sm  Sm5  1  0.495920  0.159119  0.531998  1
  Lu  Lu6  1  0.341774  0.000358  0.781859  1
  Lu  Lu7  1  0.658226  0.999642  0.281859  1
  Ta  Ta8  1  0.172308  0.170459  0.999653  1
  Ta  Ta9  1  0.827692  0.829541  0.499653  1
  Ta  Ta10  1  0.329691  0.671443  0.250066  1
  Ta  Ta11  1  0.670309  0.328557  0.750066  1
  Ta  Ta12  1  0.153608  0.991795  0.376006  1
  Ta  Ta13  1  0.846392  0.008205  0.876006  1
  Ta  Ta14  1  0.506187  0.655480  0.626447  1
  Ta  Ta15  1  0.346345  0.492066  0.873877  1
  Ta  Ta16  1  0.493813  0.344520  0.126447  1
  Ta  Ta17  1  0.653655  0.507934  0.373877  1
  Ta  Ta18  1  0.990799  0.153525  0.624155  1
  Ta  Ta19  1  0.009201  0.846475  0.124155  1
  Si  Si20  1  0.296094  0.044292  0.187431  1
  Si  Si21  1  0.703906  0.955708  0.687431  1
  Si  Si22  1  0.456706  0.794040  0.435029  1
  Si  Si23  1  0.208842  0.544779  0.063756  1
  Si  Si24  1  0.543294  0.205960  0.935029  1
  Si  Si25  1  0.791158  0.455221  0.563756  1
  Si  Si26  1  0.047101  0.290412  0.813449  1
  Si  Si27  1  0.952899  0.709588  0.313449  1
  Si  Si28  1  0.371048  0.293290  0.316756  1
  Si  Si29  1  0.628952  0.706710  0.816756  1
  Si  Si30  1  0.203547  0.868647  0.567980  1
  Si  Si31  1  0.135499  0.799628  0.931170  1
  Si  Si32  1  0.796453  0.131353  0.067980  1
  Si  Si33  1  0.864501  0.200372  0.431170  1
  Si  Si34  1  0.296574  0.365688  0.684153  1
  Si  Si35  1  0.703426  0.634312  0.184153  1
