# generated using pymatgen
data_Pr2Tc6P7Rh6
_symmetry_space_group_name_H-M   'P 1'
_cell_length_a   9.57048800
_cell_length_b   9.57048736
_cell_length_c   3.98136200
_cell_angle_alpha   90.00000000
_cell_angle_beta   90.00000000
_cell_angle_gamma   120.00000220
_symmetry_Int_Tables_number   1
_chemical_formula_structural   Pr2Tc6P7Rh6
_chemical_formula_sum   'Pr2 Tc6 P7 Rh6'
_cell_volume   315.81330772
_cell_formula_units_Z   1
loop_
 _symmetry_equiv_pos_site_id
 _symmetry_equiv_pos_as_xyz
  1  'x, y, z'
loop_
 _atom_site_type_symbol
 _atom_site_label
 _atom_site_symmetry_multiplicity
 _atom_site_fract_x
 _atom_site_fract_y
 _atom_site_fract_z
 _atom_site_occupancy
  Pr  Pr0  1  0.000000  0.000000  0.739765  1
  Pr  Pr1  1  0.333333  0.666667  0.240167  1
  Tc  Tc2  1  0.824942  0.604328  0.739906  1
  Tc  Tc3  1  0.395672  0.220614  0.739906  1
  Tc  Tc4  1  0.779386  0.175058  0.739906  1
  Tc  Tc5  1  0.545158  0.116805  0.239918  1
  Tc  Tc6  1  0.883195  0.428353  0.239918  1
  Tc  Tc7  1  0.571647  0.454842  0.239918  1
  P  P8  1  0.666667  0.333333  0.740507  1
  P  P9  1  0.076283  0.629555  0.740269  1
  P  P10  1  0.370445  0.446729  0.740269  1
  P  P11  1  0.553271  0.923717  0.740269  1
  P  P12  1  0.271612  0.051262  0.239907  1
  P  P13  1  0.948738  0.220349  0.239907  1
  P  P14  1  0.779651  0.728388  0.239907  1
  Rh  Rh15  1  0.098857  0.398700  0.739881  1
  Rh  Rh16  1  0.601300  0.700157  0.739881  1
  Rh  Rh17  1  0.299843  0.901143  0.739881  1
  Rh  Rh18  1  0.225468  0.282366  0.239951  1
  Rh  Rh19  1  0.717634  0.943103  0.239951  1
  Rh  Rh20  1  0.056897  0.774532  0.239951  1
