# generated using pymatgen
data_Pr3SmF12
_symmetry_space_group_name_H-M   'P 1'
_cell_length_a   4.51840299
_cell_length_b   6.82635172
_cell_length_c   7.22778500
_cell_angle_alpha   90.00000000
_cell_angle_beta   90.00000000
_cell_angle_gamma   89.59801284
_symmetry_Int_Tables_number   1
_chemical_formula_structural   Pr3SmF12
_chemical_formula_sum   'Pr3 Sm1 F12'
_cell_volume   222.92981717
_cell_formula_units_Z   1
loop_
 _symmetry_equiv_pos_site_id
 _symmetry_equiv_pos_as_xyz
  1  'x, y, z'
loop_
 _atom_site_type_symbol
 _atom_site_label
 _atom_site_symmetry_multiplicity
 _atom_site_fract_x
 _atom_site_fract_y
 _atom_site_fract_z
 _atom_site_occupancy
  Pr  Pr0  1  0.936829  0.630818  0.750000  1
  Pr  Pr1  1  0.435362  0.868124  0.250000  1
  Pr  Pr2  1  0.564125  0.133855  0.750000  1
  Sm  Sm3  1  0.066040  0.368330  0.250000  1
  F  F4  1  0.076579  0.980634  0.750000  1
  F  F5  1  0.580959  0.514357  0.250000  1
  F  F6  1  0.425185  0.481452  0.750000  1
  F  F7  1  0.923378  0.024702  0.250000  1
  F  F8  1  0.383807  0.167596  0.065806  1
  F  F9  1  0.890050  0.335482  0.939328  1
  F  F10  1  0.111250  0.659625  0.432682  1
  F  F11  1  0.610666  0.836160  0.564182  1
  F  F12  1  0.610666  0.836160  0.935818  1
  F  F13  1  0.111250  0.659625  0.067318  1
  F  F14  1  0.890050  0.335482  0.560672  1
  F  F15  1  0.383807  0.167596  0.434194  1
