# generated using pymatgen
data_Ta3Ga2OsC
_symmetry_space_group_name_H-M   'P 1'
_cell_length_a   8.30593773
_cell_length_b   8.30593780
_cell_length_c   8.30593700
_cell_angle_alpha   59.99999918
_cell_angle_beta   59.99999893
_cell_angle_gamma   60.00000414
_symmetry_Int_Tables_number   1
_chemical_formula_structural   Ta3Ga2OsC
_chemical_formula_sum   'Ta12 Ga8 Os4 C4'
_cell_volume   405.18278710
_cell_formula_units_Z   4
loop_
 _symmetry_equiv_pos_site_id
 _symmetry_equiv_pos_as_xyz
  1  'x, y, z'
loop_
 _atom_site_type_symbol
 _atom_site_label
 _atom_site_symmetry_multiplicity
 _atom_site_fract_x
 _atom_site_fract_y
 _atom_site_fract_z
 _atom_site_occupancy
  Ta  Ta0  1  0.555984  0.944016  0.555984  1
  Ta  Ta1  1  0.305984  0.694016  0.694016  1
  Ta  Ta2  1  0.694016  0.305984  0.305984  1
  Ta  Ta3  1  0.305984  0.694016  0.305984  1
  Ta  Ta4  1  0.694016  0.694016  0.305984  1
  Ta  Ta5  1  0.305984  0.305984  0.694016  1
  Ta  Ta6  1  0.555984  0.555984  0.944016  1
  Ta  Ta7  1  0.944016  0.555984  0.555984  1
  Ta  Ta8  1  0.555984  0.944016  0.944016  1
  Ta  Ta9  1  0.944016  0.944016  0.555984  1
  Ta  Ta10  1  0.694016  0.305984  0.694016  1
  Ta  Ta11  1  0.944016  0.555984  0.944016  1
  Ga  Ga12  1  0.913279  0.913279  0.913279  1
  Ga  Ga13  1  0.989837  0.336721  0.336721  1
  Ga  Ga14  1  0.336721  0.989837  0.336721  1
  Ga  Ga15  1  0.336721  0.336721  0.989837  1
  Ga  Ga16  1  0.913279  0.260163  0.913279  1
  Ga  Ga17  1  0.913279  0.913279  0.260163  1
  Ga  Ga18  1  0.260163  0.913279  0.913279  1
  Ga  Ga19  1  0.336721  0.336721  0.336721  1
  Os  Os20  1  0.125000  0.125000  0.125000  1
  Os  Os21  1  0.625000  0.125000  0.125000  1
  Os  Os22  1  0.125000  0.625000  0.125000  1
  Os  Os23  1  0.125000  0.125000  0.625000  1
  C  C24  1  0.625000  0.625000  0.625000  1
  C  C25  1  0.125000  0.625000  0.625000  1
  C  C26  1  0.625000  0.125000  0.625000  1
  C  C27  1  0.625000  0.625000  0.125000  1
