# generated using pymatgen
data_Ho10CdFePd2
_symmetry_space_group_name_H-M   'P 1'
_cell_length_a   9.41568400
_cell_length_b   9.41568372
_cell_length_c   9.36637800
_cell_angle_alpha   90.00000000
_cell_angle_beta   90.00000000
_cell_angle_gamma   119.83600385
_symmetry_Int_Tables_number   1
_chemical_formula_structural   Ho10CdFePd2
_chemical_formula_sum   'Ho20 Cd2 Fe2 Pd4'
_cell_volume   720.31318718
_cell_formula_units_Z   2
loop_
 _symmetry_equiv_pos_site_id
 _symmetry_equiv_pos_as_xyz
  1  'x, y, z'
loop_
 _atom_site_type_symbol
 _atom_site_label
 _atom_site_symmetry_multiplicity
 _atom_site_fract_x
 _atom_site_fract_y
 _atom_site_fract_z
 _atom_site_occupancy
  Ho  Ho0  1  0.002957  0.997043  0.460117  1
  Ho  Ho1  1  0.002957  0.997043  0.039883  1
  Ho  Ho2  1  0.541286  0.458714  0.250000  1
  Ho  Ho3  1  0.541218  0.082624  0.250000  1
  Ho  Ho4  1  0.917376  0.458782  0.250000  1
  Ho  Ho5  1  0.455621  0.544379  0.750000  1
  Ho  Ho6  1  0.447731  0.918349  0.750000  1
  Ho  Ho7  1  0.081651  0.552269  0.750000  1
  Ho  Ho8  1  0.209718  0.790282  0.437457  1
  Ho  Ho9  1  0.210176  0.422823  0.437130  1
  Ho  Ho10  1  0.577177  0.789824  0.437130  1
  Ho  Ho11  1  0.791020  0.208980  0.561298  1
  Ho  Ho12  1  0.788471  0.580186  0.560788  1
  Ho  Ho13  1  0.419814  0.211529  0.560788  1
  Ho  Ho14  1  0.791020  0.208980  0.938702  1
  Ho  Ho15  1  0.788471  0.580186  0.939212  1
  Ho  Ho16  1  0.419814  0.211529  0.939212  1
  Ho  Ho17  1  0.209718  0.790282  0.062543  1
  Ho  Ho18  1  0.210176  0.422823  0.062870  1
  Ho  Ho19  1  0.577177  0.789824  0.062870  1
  Cd  Cd20  1  0.111102  0.214954  0.750000  1
  Cd  Cd21  1  0.785046  0.888898  0.750000  1
  Fe  Fe22  1  0.332318  0.667682  0.250000  1
  Fe  Fe23  1  0.668501  0.331499  0.750000  1
  Pd  Pd24  1  0.872661  0.127339  0.250000  1
  Pd  Pd25  1  0.869145  0.741323  0.250000  1
  Pd  Pd26  1  0.258677  0.130855  0.250000  1
  Pd  Pd27  1  0.119001  0.880999  0.750000  1
