# generated using pymatgen
data_NaHo7(Si3Pt)4
_symmetry_space_group_name_H-M   'P 1'
_cell_length_a   8.12948900
_cell_length_b   8.12686707
_cell_length_c   8.10125600
_cell_angle_alpha   90.00000000
_cell_angle_beta   90.00000000
_cell_angle_gamma   120.01067699
_symmetry_Int_Tables_number   1
_chemical_formula_structural   NaHo7(Si3Pt)4
_chemical_formula_sum   'Na1 Ho7 Si12 Pt4'
_cell_volume   463.47109788
_cell_formula_units_Z   1
loop_
 _symmetry_equiv_pos_site_id
 _symmetry_equiv_pos_as_xyz
  1  'x, y, z'
loop_
 _atom_site_type_symbol
 _atom_site_label
 _atom_site_symmetry_multiplicity
 _atom_site_fract_x
 _atom_site_fract_y
 _atom_site_fract_z
 _atom_site_occupancy
  Na  Na0  1  0.502311  0.004630  0.750000  1
  Ho  Ho1  1  0.999947  0.999887  0.250000  1
  Ho  Ho2  1  0.000013  0.000025  0.750000  1
  Ho  Ho3  1  0.497755  0.501985  0.250000  1
  Ho  Ho4  1  0.498361  0.996732  0.250000  1
  Ho  Ho5  1  0.004211  0.501969  0.250000  1
  Ho  Ho6  1  0.502381  0.497596  0.750000  1
  Ho  Ho7  1  0.995230  0.497597  0.750000  1
  Si  Si8  1  0.832916  0.164790  0.499687  1
  Si  Si9  1  0.836223  0.672447  0.501672  1
  Si  Si10  1  0.331878  0.164795  0.499700  1
  Si  Si11  1  0.832916  0.164790  0.000313  1
  Si  Si12  1  0.836223  0.672447  0.998328  1
  Si  Si13  1  0.331878  0.164795  0.000300  1
  Si  Si14  1  0.167101  0.835250  0.001195  1
  Si  Si15  1  0.668150  0.835249  0.001184  1
  Si  Si16  1  0.163615  0.327229  0.998773  1
  Si  Si17  1  0.167101  0.835250  0.498805  1
  Si  Si18  1  0.668150  0.835249  0.498816  1
  Si  Si19  1  0.163615  0.327229  0.501227  1
  Pt  Pt20  1  0.668730  0.337454  0.487438  1
  Pt  Pt21  1  0.668730  0.337454  0.012562  1
  Pt  Pt22  1  0.331283  0.662574  0.998026  1
  Pt  Pt23  1  0.331283  0.662574  0.501974  1
