# generated using pymatgen
data_CeDy7(CdRu)2
_symmetry_space_group_name_H-M   'P 1'
_cell_length_a   9.71658796
_cell_length_b   9.61211631
_cell_length_c   9.61211574
_cell_angle_alpha   59.58285791
_cell_angle_beta   59.63980733
_cell_angle_gamma   59.63980317
_symmetry_Int_Tables_number   1
_chemical_formula_structural   CeDy7(CdRu)2
_chemical_formula_sum   'Ce2 Dy14 Cd4 Ru4'
_cell_volume   629.32923371
_cell_formula_units_Z   2
loop_
 _symmetry_equiv_pos_site_id
 _symmetry_equiv_pos_as_xyz
  1  'x, y, z'
loop_
 _atom_site_type_symbol
 _atom_site_label
 _atom_site_symmetry_multiplicity
 _atom_site_fract_x
 _atom_site_fract_y
 _atom_site_fract_z
 _atom_site_occupancy
  Ce  Ce0  1  0.970609  0.341240  0.341240  1
  Ce  Ce1  1  0.346911  0.341240  0.341240  1
  Dy  Dy2  1  0.562782  0.561798  0.938213  1
  Dy  Dy3  1  0.937208  0.561798  0.938213  1
  Dy  Dy4  1  0.562157  0.937843  0.937843  1
  Dy  Dy5  1  0.937208  0.938213  0.561798  1
  Dy  Dy6  1  0.562782  0.938213  0.561798  1
  Dy  Dy7  1  0.938577  0.561423  0.561423  1
  Dy  Dy8  1  0.189874  0.188414  0.811866  1
  Dy  Dy9  1  0.809846  0.188414  0.811866  1
  Dy  Dy10  1  0.188838  0.811162  0.811161  1
  Dy  Dy11  1  0.809846  0.811867  0.188414  1
  Dy  Dy12  1  0.189873  0.811866  0.188413  1
  Dy  Dy13  1  0.810797  0.189203  0.189203  1
  Dy  Dy14  1  0.349315  0.348430  0.952940  1
  Dy  Dy15  1  0.349315  0.952940  0.348430  1
  Cd  Cd16  1  0.581536  0.579674  0.257254  1
  Cd  Cd17  1  0.581536  0.257254  0.579674  1
  Cd  Cd18  1  0.258998  0.580175  0.580175  1
  Cd  Cd19  1  0.580650  0.580175  0.580175  1
  Ru  Ru20  1  0.137887  0.152523  0.571703  1
  Ru  Ru21  1  0.137887  0.571703  0.152523  1
  Ru  Ru22  1  0.574144  0.147217  0.147217  1
  Ru  Ru23  1  0.131422  0.147217  0.147217  1
