# generated using pymatgen
data_CaY2S3
_symmetry_space_group_name_H-M   'P 1'
_cell_length_a   3.94206900
_cell_length_b   3.94206847
_cell_length_c   9.71959200
_cell_angle_alpha   90.00000000
_cell_angle_beta   90.00000000
_cell_angle_gamma   120.00001282
_symmetry_Int_Tables_number   1
_chemical_formula_structural   CaY2S3
_chemical_formula_sum   'Ca1 Y2 S3'
_cell_volume   130.80579835
_cell_formula_units_Z   1
loop_
 _symmetry_equiv_pos_site_id
 _symmetry_equiv_pos_as_xyz
  1  'x, y, z'
loop_
 _atom_site_type_symbol
 _atom_site_label
 _atom_site_symmetry_multiplicity
 _atom_site_fract_x
 _atom_site_fract_y
 _atom_site_fract_z
 _atom_site_occupancy
  Ca  Ca0  1  0.000000  0.000000  0.000000  1
  Y  Y1  1  0.333333  0.666667  0.657401  1
  Y  Y2  1  0.666667  0.333333  0.342599  1
  S  S3  1  0.333333  0.666667  0.171437  1
  S  S4  1  0.666667  0.333333  0.828563  1
  S  S5  1  0.000000  0.000000  0.500000  1
