# generated using pymatgen
data_Dy11In9(NiAu)2
_symmetry_space_group_name_H-M   'P 1'
_cell_length_a   3.65559600
_cell_length_b   13.12992259
_cell_length_c   13.12964014
_cell_angle_alpha   110.54829244
_cell_angle_beta   90.00000000
_cell_angle_gamma   90.00000000
_symmetry_Int_Tables_number   1
_chemical_formula_structural   Dy11In9(NiAu)2
_chemical_formula_sum   'Dy11 In9 Ni2 Au2'
_cell_volume   590.09749562
_cell_formula_units_Z   1
loop_
 _symmetry_equiv_pos_site_id
 _symmetry_equiv_pos_as_xyz
  1  'x, y, z'
loop_
 _atom_site_type_symbol
 _atom_site_label
 _atom_site_symmetry_multiplicity
 _atom_site_fract_x
 _atom_site_fract_y
 _atom_site_fract_z
 _atom_site_occupancy
  Dy  Dy0  1  0.000000  0.930628  0.581589  1
  Dy  Dy1  1  0.000000  0.069372  0.418411  1
  Dy  Dy2  1  0.000000  0.578740  0.922917  1
  Dy  Dy3  1  0.000000  0.421260  0.077083  1
  Dy  Dy4  1  0.000000  0.157870  0.843275  1
  Dy  Dy5  1  0.000000  0.842130  0.156725  1
  Dy  Dy6  1  0.000000  0.381923  0.639440  1
  Dy  Dy7  1  0.000000  0.618077  0.360560  1
  Dy  Dy8  1  0.000000  0.682676  0.697621  1
  Dy  Dy9  1  0.000000  0.317324  0.302379  1
  Dy  Dy10  1  0.000000  0.000000  0.000000  1
  In  In11  1  0.500000  0.157761  0.636090  1
  In  In12  1  0.500000  0.842239  0.363910  1
  In  In13  1  0.500000  0.633378  0.154874  1
  In  In14  1  0.500000  0.366622  0.845126  1
  In  In15  1  0.500000  0.928538  0.784284  1
  In  In16  1  0.500000  0.071462  0.215716  1
  In  In17  1  0.500000  0.780867  0.927219  1
  In  In18  1  0.500000  0.219133  0.072781  1
  In  In19  1  0.500000  0.500000  0.500000  1
  Ni  Ni20  1  0.500000  0.548721  0.755257  1
  Ni  Ni21  1  0.500000  0.451279  0.244743  1
  Au  Au22  1  0.500000  0.745451  0.546732  1
  Au  Au23  1  0.500000  0.254549  0.453268  1
