# generated using pymatgen
data_Zr5InSiSb2
_symmetry_space_group_name_H-M   'P 1'
_cell_length_a   8.69143383
_cell_length_b   8.69800536
_cell_length_c   5.87350200
_cell_angle_alpha   90.00000000
_cell_angle_beta   90.00000000
_cell_angle_gamma   120.02501226
_symmetry_Int_Tables_number   1
_chemical_formula_structural   Zr5InSiSb2
_chemical_formula_sum   'Zr10 In2 Si2 Sb4'
_cell_volume   384.44068020
_cell_formula_units_Z   2
loop_
 _symmetry_equiv_pos_site_id
 _symmetry_equiv_pos_as_xyz
  1  'x, y, z'
loop_
 _atom_site_type_symbol
 _atom_site_label
 _atom_site_symmetry_multiplicity
 _atom_site_fract_x
 _atom_site_fract_y
 _atom_site_fract_z
 _atom_site_occupancy
  Zr  Zr0  1  0.257797  0.000239  0.250000  1
  Zr  Zr1  1  0.257797  0.257558  0.750000  1
  Zr  Zr2  1  0.000999  0.740395  0.750000  1
  Zr  Zr3  1  0.000999  0.260604  0.250000  1
  Zr  Zr4  1  0.741556  0.740439  0.250000  1
  Zr  Zr5  1  0.741556  0.001117  0.750000  1
  Zr  Zr6  1  0.330286  0.665144  0.000000  1
  Zr  Zr7  1  0.667750  0.333875  0.500000  1
  Zr  Zr8  1  0.667750  0.333875  0.000000  1
  Zr  Zr9  1  0.330286  0.665144  0.500000  1
  In  In10  1  0.608180  0.999355  0.250000  1
  In  In11  1  0.608180  0.608825  0.750000  1
  Si  Si12  1  0.997357  0.998678  0.000000  1
  Si  Si13  1  0.997357  0.998678  0.500000  1
  Sb  Sb14  1  0.998674  0.393251  0.750000  1
  Sb  Sb15  1  0.998674  0.605422  0.250000  1
  Sb  Sb16  1  0.397400  0.397679  0.250000  1
  Sb  Sb17  1  0.397400  0.999721  0.750000  1
