# generated using pymatgen
data_Ca4SiAs4
_symmetry_space_group_name_H-M   'P 1'
_cell_length_a   12.30681600
_cell_length_b   12.30681600
_cell_length_c   12.30681600
_cell_angle_alpha   90.00000000
_cell_angle_beta   90.00000000
_cell_angle_gamma   90.00000000
_symmetry_Int_Tables_number   1
_chemical_formula_structural   Ca4SiAs4
_chemical_formula_sum   'Ca32 Si8 As32'
_cell_volume   1863.96229253
_cell_formula_units_Z   8
loop_
 _symmetry_equiv_pos_site_id
 _symmetry_equiv_pos_as_xyz
  1  'x, y, z'
loop_
 _atom_site_type_symbol
 _atom_site_label
 _atom_site_symmetry_multiplicity
 _atom_site_fract_x
 _atom_site_fract_y
 _atom_site_fract_z
 _atom_site_occupancy
  Ca  Ca0  1  0.132073  0.643869  0.096565  1
  Ca  Ca1  1  0.356131  0.903435  0.132073  1
  Ca  Ca2  1  0.096565  0.867927  0.356131  1
  Ca  Ca3  1  0.867927  0.356131  0.096565  1
  Ca  Ca4  1  0.643869  0.096565  0.132073  1
  Ca  Ca5  1  0.903435  0.132073  0.356131  1
  Ca  Ca6  1  0.132073  0.356131  0.903435  1
  Ca  Ca7  1  0.356131  0.096565  0.867927  1
  Ca  Ca8  1  0.096565  0.132073  0.643869  1
  Ca  Ca9  1  0.867927  0.643869  0.903435  1
  Ca  Ca10  1  0.643869  0.903435  0.867927  1
  Ca  Ca11  1  0.903435  0.867927  0.643869  1
  Ca  Ca12  1  0.632073  0.596565  0.143869  1
  Ca  Ca13  1  0.856131  0.632073  0.403435  1
  Ca  Ca14  1  0.596565  0.856131  0.367927  1
  Ca  Ca15  1  0.367927  0.596565  0.856131  1
  Ca  Ca16  1  0.143869  0.632073  0.596565  1
  Ca  Ca17  1  0.403435  0.856131  0.632073  1
  Ca  Ca18  1  0.632073  0.403435  0.856131  1
  Ca  Ca19  1  0.856131  0.367927  0.596565  1
  Ca  Ca20  1  0.596565  0.143869  0.632073  1
  Ca  Ca21  1  0.367927  0.403435  0.143869  1
  Ca  Ca22  1  0.143869  0.367927  0.403435  1
  Ca  Ca23  1  0.403435  0.143869  0.367927  1
  Ca  Ca24  1  0.855837  0.144163  0.855837  1
  Ca  Ca25  1  0.144163  0.855837  0.855837  1
  Ca  Ca26  1  0.855837  0.855837  0.144163  1
  Ca  Ca27  1  0.144163  0.144163  0.144163  1
  Ca  Ca28  1  0.355837  0.355837  0.644163  1
  Ca  Ca29  1  0.644163  0.355837  0.355837  1
  Ca  Ca30  1  0.355837  0.644163  0.355837  1
  Ca  Ca31  1  0.644163  0.644163  0.644163  1
  Si  Si32  1  0.000000  0.500000  0.250000  1
  Si  Si33  1  0.500000  0.750000  0.000000  1
  Si  Si34  1  0.250000  0.000000  0.500000  1
  Si  Si35  1  0.500000  0.250000  0.000000  1
  Si  Si36  1  0.750000  0.000000  0.500000  1
  Si  Si37  1  0.000000  0.500000  0.750000  1
  Si  Si38  1  0.500000  0.500000  0.500000  1
  Si  Si39  1  0.000000  0.000000  0.000000  1
  As  As40  1  0.109601  0.620615  0.354935  1
  As  As41  1  0.379385  0.645065  0.109601  1
  As  As42  1  0.354935  0.890399  0.379385  1
  As  As43  1  0.890399  0.379385  0.354935  1
  As  As44  1  0.620615  0.354935  0.109601  1
  As  As45  1  0.645065  0.109601  0.379385  1
  As  As46  1  0.109601  0.379385  0.645065  1
  As  As47  1  0.379385  0.354935  0.890399  1
  As  As48  1  0.354935  0.109601  0.620615  1
  As  As49  1  0.890399  0.620615  0.645065  1
  As  As50  1  0.620615  0.645065  0.890399  1
  As  As51  1  0.645065  0.890399  0.620615  1
  As  As52  1  0.609601  0.854935  0.120615  1
  As  As53  1  0.879385  0.609601  0.145065  1
  As  As54  1  0.854935  0.879385  0.390399  1
  As  As55  1  0.390399  0.854935  0.879385  1
  As  As56  1  0.120615  0.609601  0.854935  1
  As  As57  1  0.145065  0.879385  0.609601  1
  As  As58  1  0.609601  0.145065  0.879385  1
  As  As59  1  0.879385  0.390399  0.854935  1
  As  As60  1  0.854935  0.120615  0.609601  1
  As  As61  1  0.390399  0.145065  0.120615  1
  As  As62  1  0.120615  0.390399  0.145065  1
  As  As63  1  0.145065  0.120615  0.390399  1
  As  As64  1  0.111472  0.888528  0.111472  1
  As  As65  1  0.888528  0.111472  0.111472  1
  As  As66  1  0.111472  0.111472  0.888528  1
  As  As67  1  0.888528  0.888528  0.888528  1
  As  As68  1  0.611472  0.611472  0.388528  1
  As  As69  1  0.388528  0.611472  0.611472  1
  As  As70  1  0.611472  0.388528  0.611472  1
  As  As71  1  0.388528  0.388528  0.388528  1
