# generated using pymatgen
data_Yb8Si13Hg
_symmetry_space_group_name_H-M   'P 1'
_cell_length_a   8.00465067
_cell_length_b   7.80162017
_cell_length_c   8.76314700
_cell_angle_alpha   90.00000000
_cell_angle_beta   90.00000000
_cell_angle_gamma   121.25172145
_symmetry_Int_Tables_number   1
_chemical_formula_structural   Yb8Si13Hg
_chemical_formula_sum   'Yb8 Si13 Hg1'
_cell_volume   467.84362140
_cell_formula_units_Z   1
loop_
 _symmetry_equiv_pos_site_id
 _symmetry_equiv_pos_as_xyz
  1  'x, y, z'
loop_
 _atom_site_type_symbol
 _atom_site_label
 _atom_site_symmetry_multiplicity
 _atom_site_fract_x
 _atom_site_fract_y
 _atom_site_fract_z
 _atom_site_occupancy
  Yb  Yb0  1  0.263041  0.251005  0.989164  1
  Yb  Yb1  1  0.750045  0.755319  0.004161  1
  Yb  Yb2  1  0.750045  0.755319  0.495839  1
  Yb  Yb3  1  0.263041  0.251005  0.510836  1
  Yb  Yb4  1  0.253810  0.751395  0.494189  1
  Yb  Yb5  1  0.740321  0.259600  0.515058  1
  Yb  Yb6  1  0.740321  0.259600  0.984942  1
  Yb  Yb7  1  0.253810  0.751395  0.005811  1
  Si  Si8  1  0.951656  0.650697  0.750000  1
  Si  Si9  1  0.589769  0.427708  0.250000  1
  Si  Si10  1  0.414883  0.585643  0.750000  1
  Si  Si11  1  0.401847  0.580600  0.250000  1
  Si  Si12  1  0.598104  0.426786  0.750000  1
  Si  Si13  1  0.074894  0.936277  0.250000  1
  Si  Si14  1  0.931860  0.069514  0.750000  1
  Si  Si15  1  0.619007  0.944292  0.250000  1
  Si  Si16  1  0.384938  0.063389  0.750000  1
  Si  Si17  1  0.930096  0.575262  0.250000  1
  Si  Si18  1  0.071674  0.423216  0.750000  1
  Si  Si19  1  0.416864  0.081042  0.250000  1
  Si  Si20  1  0.591890  0.932557  0.750000  1
  Hg  Hg21  1  0.008085  0.268376  0.250000  1
