# generated using pymatgen
data_ErMnGa6Fe5
_symmetry_space_group_name_H-M   'P 1'
_cell_length_a   5.02276990
_cell_length_b   6.58724696
_cell_length_c   6.58724791
_cell_angle_alpha   80.21553539
_cell_angle_beta   67.58891081
_cell_angle_gamma   67.58890589
_symmetry_Int_Tables_number   1
_chemical_formula_structural   ErMnGa6Fe5
_chemical_formula_sum   'Er1 Mn1 Ga6 Fe5'
_cell_volume   186.19119472
_cell_formula_units_Z   1
loop_
 _symmetry_equiv_pos_site_id
 _symmetry_equiv_pos_as_xyz
  1  'x, y, z'
loop_
 _atom_site_type_symbol
 _atom_site_label
 _atom_site_symmetry_multiplicity
 _atom_site_fract_x
 _atom_site_fract_y
 _atom_site_fract_z
 _atom_site_occupancy
  Er  Er0  1  0.000000  0.999750  0.000250  1
  Mn  Mn1  1  0.500000  0.242222  0.757778  1
  Ga  Ga2  1  0.000000  0.668524  0.331476  1
  Ga  Ga3  1  0.000000  0.331292  0.668708  1
  Ga  Ga4  1  0.343633  0.656375  0.656358  1
  Ga  Ga5  1  0.656367  0.343642  0.343625  1
  Ga  Ga6  1  0.318232  0.181937  0.181600  1
  Ga  Ga7  1  0.681768  0.818400  0.818063  1
  Fe  Fe8  1  0.500000  0.757004  0.242996  1
  Fe  Fe9  1  0.998788  0.501286  0.000859  1
  Fe  Fe10  1  0.499067  0.501286  0.000859  1
  Fe  Fe11  1  0.001212  0.999141  0.498714  1
  Fe  Fe12  1  0.500933  0.999141  0.498714  1
