# generated using pymatgen
data_La9YIr4
_symmetry_space_group_name_H-M   'P 1'
_cell_length_a   6.76236581
_cell_length_b   7.37392943
_cell_length_c   9.16211380
_cell_angle_alpha   95.80195827
_cell_angle_beta   111.65640768
_cell_angle_gamma   89.99999428
_symmetry_Int_Tables_number   1
_chemical_formula_structural   La9YIr4
_chemical_formula_sum   'La9 Y1 Ir4'
_cell_volume   422.10265910
_cell_formula_units_Z   1
loop_
 _symmetry_equiv_pos_site_id
 _symmetry_equiv_pos_as_xyz
  1  'x, y, z'
loop_
 _atom_site_type_symbol
 _atom_site_label
 _atom_site_symmetry_multiplicity
 _atom_site_fract_x
 _atom_site_fract_y
 _atom_site_fract_z
 _atom_site_occupancy
  La  La0  1  0.978609  0.917897  0.182215  1
  La  La1  1  0.796393  0.582103  0.817785  1
  La  La2  1  0.016503  0.086242  0.818125  1
  La  La3  1  0.198379  0.413758  0.181875  1
  La  La4  1  0.648176  0.818526  0.432059  1
  La  La5  1  0.216115  0.681474  0.567941  1
  La  La6  1  0.358896  0.180586  0.572097  1
  La  La7  1  0.786800  0.319414  0.427903  1
  La  La8  1  0.425358  0.750000  0.000000  1
  Y  Y9  1  0.569029  0.250000  0.000000  1
  Ir  Ir10  1  0.815765  0.576228  0.217142  1
  Ir  Ir11  1  0.598622  0.923772  0.782858  1
  Ir  Ir12  1  0.185216  0.419685  0.779079  1
  Ir  Ir13  1  0.406138  0.080315  0.220921  1
