# generated using pymatgen
data_Se8I5Br3
_symmetry_space_group_name_H-M   'P 1'
_cell_length_a   15.91206362
_cell_length_b   5.43370438
_cell_length_c   7.89018117
_cell_angle_alpha   85.94123220
_cell_angle_beta   90.30731562
_cell_angle_gamma   89.36019590
_symmetry_Int_Tables_number   1
_chemical_formula_structural   Se8I5Br3
_chemical_formula_sum   'Se8 I5 Br3'
_cell_volume   680.43016099
_cell_formula_units_Z   1
loop_
 _symmetry_equiv_pos_site_id
 _symmetry_equiv_pos_as_xyz
  1  'x, y, z'
loop_
 _atom_site_type_symbol
 _atom_site_label
 _atom_site_symmetry_multiplicity
 _atom_site_fract_x
 _atom_site_fract_y
 _atom_site_fract_z
 _atom_site_occupancy
  Se  Se0  1  0.871838  0.929610  0.388425  1
  Se  Se1  1  0.368510  0.556326  0.609084  1
  Se  Se2  1  0.132771  0.055730  0.611952  1
  Se  Se3  1  0.630946  0.443987  0.392671  1
  Se  Se4  1  0.959342  0.154522  0.211837  1
  Se  Se5  1  0.457933  0.342210  0.790743  1
  Se  Se6  1  0.043144  0.845397  0.788448  1
  Se  Se7  1  0.541710  0.657337  0.210645  1
  I  I8  1  0.866315  0.160116  0.671988  1
  I  I9  1  0.369265  0.338341  0.322530  1
  I  I10  1  0.136545  0.834823  0.326909  1
  I  I11  1  0.630730  0.664114  0.678493  1
  I  I12  1  0.860454  0.487143  0.046251  1
  Br  Br13  1  0.370229  0.032204  0.946113  1
  Br  Br14  1  0.130117  0.530330  0.948720  1
  Br  Br15  1  0.630151  0.967811  0.055190  1
