# generated using pymatgen
data_DyLu7Mo2(OsC4)2
_symmetry_space_group_name_H-M   'P 1'
_cell_length_a   4.99313700
_cell_length_b   6.51319036
_cell_length_c   9.71964371
_cell_angle_alpha   88.93569636
_cell_angle_beta   90.00000000
_cell_angle_gamma   90.00000000
_symmetry_Int_Tables_number   1
_chemical_formula_structural   DyLu7Mo2(OsC4)2
_chemical_formula_sum   'Dy1 Lu7 Mo2 Os2 C8'
_cell_volume   316.04044705
_cell_formula_units_Z   1
loop_
 _symmetry_equiv_pos_site_id
 _symmetry_equiv_pos_as_xyz
  1  'x, y, z'
loop_
 _atom_site_type_symbol
 _atom_site_label
 _atom_site_symmetry_multiplicity
 _atom_site_fract_x
 _atom_site_fract_y
 _atom_site_fract_z
 _atom_site_occupancy
  Dy  Dy0  1  0.250000  0.032870  0.285374  1
  Lu  Lu1  1  0.250000  0.675666  0.559757  1
  Lu  Lu2  1  0.750000  0.325411  0.441240  1
  Lu  Lu3  1  0.750000  0.828257  0.059746  1
  Lu  Lu4  1  0.250000  0.170881  0.939630  1
  Lu  Lu5  1  0.250000  0.540934  0.219596  1
  Lu  Lu6  1  0.750000  0.458292  0.779436  1
  Lu  Lu7  1  0.750000  0.967372  0.716893  1
  Mo  Mo8  1  0.250000  0.711722  0.870586  1
  Mo  Mo9  1  0.750000  0.287746  0.128327  1
  Os  Os10  1  0.750000  0.781559  0.370001  1
  Os  Os11  1  0.250000  0.217987  0.630306  1
  C  C12  1  0.250000  0.445085  0.758049  1
  C  C13  1  0.750000  0.554242  0.242080  1
  C  C14  1  0.750000  0.050888  0.260015  1
  C  C15  1  0.250000  0.948924  0.739014  1
  C  C16  1  0.250000  0.826964  0.056493  1
  C  C17  1  0.750000  0.170827  0.941874  1
  C  C18  1  0.750000  0.671670  0.554642  1
  C  C19  1  0.250000  0.332704  0.446941  1
