# generated using pymatgen
data_Er4LuHf3Ir4
_symmetry_space_group_name_H-M   'P 1'
_cell_length_a   4.53584800
_cell_length_b   7.02682981
_cell_length_c   8.34939130
_cell_angle_alpha   90.54837115
_cell_angle_beta   90.00000000
_cell_angle_gamma   90.00000000
_symmetry_Int_Tables_number   1
_chemical_formula_structural   Er4LuHf3Ir4
_chemical_formula_sum   'Er4 Lu1 Hf3 Ir4'
_cell_volume   266.10488747
_cell_formula_units_Z   1
loop_
 _symmetry_equiv_pos_site_id
 _symmetry_equiv_pos_as_xyz
  1  'x, y, z'
loop_
 _atom_site_type_symbol
 _atom_site_label
 _atom_site_symmetry_multiplicity
 _atom_site_fract_x
 _atom_site_fract_y
 _atom_site_fract_z
 _atom_site_occupancy
  Er  Er0  1  0.250000  0.983014  0.330501  1
  Er  Er1  1  0.250000  0.489384  0.172477  1
  Er  Er2  1  0.750000  0.019168  0.678670  1
  Er  Er3  1  0.750000  0.514787  0.820613  1
  Lu  Lu4  1  0.750000  0.143716  0.076986  1
  Hf  Hf5  1  0.250000  0.362526  0.570727  1
  Hf  Hf6  1  0.250000  0.853018  0.928517  1
  Hf  Hf7  1  0.750000  0.645918  0.427236  1
  Ir  Ir8  1  0.250000  0.232771  0.890143  1
  Ir  Ir9  1  0.250000  0.736120  0.595273  1
  Ir  Ir10  1  0.750000  0.750736  0.093294  1
  Ir  Ir11  1  0.750000  0.268841  0.415564  1
