# generated using pymatgen
data_Li4Yb3DyPd4
_symmetry_space_group_name_H-M   'P 1'
_cell_length_a   4.16239700
_cell_length_b   6.96505649
_cell_length_c   8.36442400
_cell_angle_alpha   89.80462794
_cell_angle_beta   90.00000000
_cell_angle_gamma   90.00000000
_symmetry_Int_Tables_number   1
_chemical_formula_structural   Li4Yb3DyPd4
_chemical_formula_sum   'Li4 Yb3 Dy1 Pd4'
_cell_volume   242.49436874
_cell_formula_units_Z   1
loop_
 _symmetry_equiv_pos_site_id
 _symmetry_equiv_pos_as_xyz
  1  'x, y, z'
loop_
 _atom_site_type_symbol
 _atom_site_label
 _atom_site_symmetry_multiplicity
 _atom_site_fract_x
 _atom_site_fract_y
 _atom_site_fract_z
 _atom_site_occupancy
  Li  Li0  1  0.250000  0.126940  0.942552  1
  Li  Li1  1  0.250000  0.635528  0.558677  1
  Li  Li2  1  0.750000  0.864695  0.054484  1
  Li  Li3  1  0.750000  0.371954  0.443983  1
  Yb  Yb4  1  0.250000  0.537874  0.180638  1
  Yb  Yb5  1  0.750000  0.963624  0.679766  1
  Yb  Yb6  1  0.750000  0.460269  0.822054  1
  Dy  Dy7  1  0.250000  0.040288  0.320981  1
  Pd  Pd8  1  0.250000  0.255289  0.620117  1
  Pd  Pd9  1  0.250000  0.750334  0.873376  1
  Pd  Pd10  1  0.750000  0.755525  0.369290  1
  Pd  Pd11  1  0.750000  0.237680  0.134085  1
