# generated using pymatgen
data_NdEu2(CdPt)3
_symmetry_space_group_name_H-M   'P 1'
_cell_length_a   7.62270622
_cell_length_b   7.62270488
_cell_length_c   4.13745300
_cell_angle_alpha   90.00000000
_cell_angle_beta   90.00000000
_cell_angle_gamma   119.65456282
_symmetry_Int_Tables_number   1
_chemical_formula_structural   NdEu2(CdPt)3
_chemical_formula_sum   'Nd1 Eu2 Cd3 Pt3'
_cell_volume   208.92153556
_cell_formula_units_Z   1
loop_
 _symmetry_equiv_pos_site_id
 _symmetry_equiv_pos_as_xyz
  1  'x, y, z'
loop_
 _atom_site_type_symbol
 _atom_site_label
 _atom_site_symmetry_multiplicity
 _atom_site_fract_x
 _atom_site_fract_y
 _atom_site_fract_z
 _atom_site_occupancy
  Nd  Nd0  1  0.406415  0.406415  0.000000  1
  Eu  Eu1  1  0.594010  0.000364  0.000000  1
  Eu  Eu2  1  0.000364  0.594010  0.000000  1
  Cd  Cd3  1  0.252174  0.997025  0.500000  1
  Cd  Cd4  1  0.997025  0.252174  0.500000  1
  Cd  Cd5  1  0.750963  0.750963  0.500000  1
  Pt  Pt6  1  0.333905  0.660718  0.500000  1
  Pt  Pt7  1  0.660718  0.333905  0.500000  1
  Pt  Pt8  1  0.004425  0.004425  0.000000  1
