# generated using pymatgen
data_Hf18TaTi(Re3B)2
_symmetry_space_group_name_H-M   'P 1'
_cell_length_a   8.52345800
_cell_length_b   8.52345736
_cell_length_c   8.49538200
_cell_angle_alpha   90.00000000
_cell_angle_beta   90.00000000
_cell_angle_gamma   119.99999470
_symmetry_Int_Tables_number   1
_chemical_formula_structural   Hf18TaTi(Re3B)2
_chemical_formula_sum   'Hf18 Ta1 Ti1 Re6 B2'
_cell_volume   534.49689349
_cell_formula_units_Z   1
loop_
 _symmetry_equiv_pos_site_id
 _symmetry_equiv_pos_as_xyz
  1  'x, y, z'
loop_
 _atom_site_type_symbol
 _atom_site_label
 _atom_site_symmetry_multiplicity
 _atom_site_fract_x
 _atom_site_fract_y
 _atom_site_fract_z
 _atom_site_occupancy
  Hf  Hf0  1  0.202797  0.797203  0.443714  1
  Hf  Hf1  1  0.202797  0.405594  0.443714  1
  Hf  Hf2  1  0.594406  0.797203  0.443714  1
  Hf  Hf3  1  0.797203  0.202797  0.556286  1
  Hf  Hf4  1  0.797203  0.594406  0.556286  1
  Hf  Hf5  1  0.405594  0.202797  0.556286  1
  Hf  Hf6  1  0.798271  0.201729  0.943917  1
  Hf  Hf7  1  0.798271  0.596542  0.943917  1
  Hf  Hf8  1  0.403458  0.201729  0.943917  1
  Hf  Hf9  1  0.201729  0.798271  0.056083  1
  Hf  Hf10  1  0.201729  0.403458  0.056083  1
  Hf  Hf11  1  0.596542  0.798271  0.056083  1
  Hf  Hf12  1  0.541154  0.458846  0.249844  1
  Hf  Hf13  1  0.541154  0.082307  0.249844  1
  Hf  Hf14  1  0.917693  0.458846  0.249844  1
  Hf  Hf15  1  0.458846  0.541154  0.750156  1
  Hf  Hf16  1  0.458846  0.917693  0.750156  1
  Hf  Hf17  1  0.082307  0.541154  0.750156  1
  Ta  Ta18  1  0.000000  0.000000  0.500000  1
  Ti  Ti19  1  0.000000  0.000000  0.000000  1
  Re  Re20  1  0.886614  0.113386  0.248925  1
  Re  Re21  1  0.886614  0.773228  0.248925  1
  Re  Re22  1  0.226772  0.113386  0.248925  1
  Re  Re23  1  0.113386  0.886614  0.751075  1
  Re  Re24  1  0.113386  0.226772  0.751075  1
  Re  Re25  1  0.773228  0.886614  0.751075  1
  B  B26  1  0.333333  0.666667  0.250006  1
  B  B27  1  0.666667  0.333333  0.749994  1
