# generated using pymatgen
data_NaCaTmBr6
_symmetry_space_group_name_H-M   'P 1'
_cell_length_a   7.90012565
_cell_length_b   7.90016818
_cell_length_c   7.90015509
_cell_angle_alpha   55.31551417
_cell_angle_beta   55.31556715
_cell_angle_gamma   55.31532312
_symmetry_Int_Tables_number   1
_chemical_formula_structural   NaCaTmBr6
_chemical_formula_sum   'Na1 Ca1 Tm1 Br6'
_cell_volume   310.69965477
_cell_formula_units_Z   1
loop_
 _symmetry_equiv_pos_site_id
 _symmetry_equiv_pos_as_xyz
  1  'x, y, z'
loop_
 _atom_site_type_symbol
 _atom_site_label
 _atom_site_symmetry_multiplicity
 _atom_site_fract_x
 _atom_site_fract_y
 _atom_site_fract_z
 _atom_site_occupancy
  Na  Na0  1  0.669798  0.669805  0.669791  1
  Ca  Ca1  1  0.330791  0.330801  0.330798  1
  Tm  Tm2  1  0.999918  0.999932  0.999946  1
  Br  Br3  1  0.234285  0.605117  0.925534  1
  Br  Br4  1  0.605098  0.925532  0.234283  1
  Br  Br5  1  0.925551  0.234294  0.605095  1
  Br  Br6  1  0.756512  0.384931  0.093113  1
  Br  Br7  1  0.384943  0.093080  0.756503  1
  Br  Br8  1  0.093106  0.756507  0.384936  1
