# generated using pymatgen
data_Dy4Er8ZnCo4Bi
_symmetry_space_group_name_H-M   'P 1'
_cell_length_a   8.33091208
_cell_length_b   8.33091145
_cell_length_c   8.33091285
_cell_angle_alpha   109.66232744
_cell_angle_beta   111.40208964
_cell_angle_gamma   107.37432064
_symmetry_Int_Tables_number   1
_chemical_formula_structural   Dy4Er8ZnCo4Bi
_chemical_formula_sum   'Dy4 Er8 Zn1 Co4 Bi1'
_cell_volume   444.54644287
_cell_formula_units_Z   1
loop_
 _symmetry_equiv_pos_site_id
 _symmetry_equiv_pos_as_xyz
  1  'x, y, z'
loop_
 _atom_site_type_symbol
 _atom_site_label
 _atom_site_symmetry_multiplicity
 _atom_site_fract_x
 _atom_site_fract_y
 _atom_site_fract_z
 _atom_site_occupancy
  Dy  Dy0  1  0.285931  0.183233  0.469165  1
  Dy  Dy1  1  0.714069  0.816767  0.530835  1
  Dy  Dy2  1  0.285931  0.816767  0.102698  1
  Dy  Dy3  1  0.714069  0.183233  0.897302  1
  Er  Er4  1  0.622227  0.313950  0.308276  1
  Er  Er5  1  0.377773  0.686050  0.691724  1
  Er  Er6  1  0.005674  0.313950  0.691724  1
  Er  Er7  1  0.994326  0.686050  0.308276  1
  Er  Er8  1  0.218442  0.424630  0.206188  1
  Er  Er9  1  0.781558  0.575370  0.793812  1
  Er  Er10  1  0.218442  0.012254  0.793812  1
  Er  Er11  1  0.781558  0.987746  0.206188  1
  Zn  Zn12  1  0.000000  0.000000  0.000000  1
  Co  Co13  1  0.000000  0.376416  0.376416  1
  Co  Co14  1  0.000000  0.623584  0.623584  1
  Co  Co15  1  0.386975  0.886975  0.500000  1
  Co  Co16  1  0.613025  0.113025  0.500000  1
  Bi  Bi17  1  0.500000  0.500000  0.000000  1
