# generated using pymatgen
data_Pr4Cd2NiAu3
_symmetry_space_group_name_H-M   'P 1'
_cell_length_a   8.05924456
_cell_length_b   8.05924456
_cell_length_c   3.88911000
_cell_angle_alpha   90.00000000
_cell_angle_beta   90.00000000
_cell_angle_gamma   89.09458975
_symmetry_Int_Tables_number   1
_chemical_formula_structural   Pr4Cd2NiAu3
_chemical_formula_sum   'Pr4 Cd2 Ni1 Au3'
_cell_volume   252.57168963
_cell_formula_units_Z   1
loop_
 _symmetry_equiv_pos_site_id
 _symmetry_equiv_pos_as_xyz
  1  'x, y, z'
loop_
 _atom_site_type_symbol
 _atom_site_label
 _atom_site_symmetry_multiplicity
 _atom_site_fract_x
 _atom_site_fract_y
 _atom_site_fract_z
 _atom_site_occupancy
  Pr  Pr0  1  0.343766  0.821021  0.500000  1
  Pr  Pr1  1  0.810188  0.689812  0.500000  1
  Pr  Pr2  1  0.173014  0.326986  0.500000  1
  Pr  Pr3  1  0.678979  0.156234  0.500000  1
  Cd  Cd4  1  0.995798  0.996953  0.000000  1
  Cd  Cd5  1  0.503047  0.504202  0.000000  1
  Ni  Ni6  1  0.622108  0.877892  0.000000  1
  Au  Au7  1  0.380696  0.119304  0.000000  1
  Au  Au8  1  0.869845  0.377442  0.000000  1
  Au  Au9  1  0.122558  0.630155  0.000000  1
