# generated using pymatgen
data_Y4CCl6
_symmetry_space_group_name_H-M   'P 1'
_cell_length_a   3.79884600
_cell_length_b   12.45509300
_cell_length_c   12.98289600
_cell_angle_alpha   90.00000000
_cell_angle_beta   90.00000000
_cell_angle_gamma   90.00000000
_symmetry_Int_Tables_number   1
_chemical_formula_structural   Y4CCl6
_chemical_formula_sum   'Y8 C2 Cl12'
_cell_volume   614.28546747
_cell_formula_units_Z   2
loop_
 _symmetry_equiv_pos_site_id
 _symmetry_equiv_pos_as_xyz
  1  'x, y, z'
loop_
 _atom_site_type_symbol
 _atom_site_label
 _atom_site_symmetry_multiplicity
 _atom_site_fract_x
 _atom_site_fract_y
 _atom_site_fract_z
 _atom_site_occupancy
  Y  Y0  1  0.000000  0.104843  0.080290  1
  Y  Y1  1  0.000000  0.895157  0.919710  1
  Y  Y2  1  0.000000  0.604843  0.419710  1
  Y  Y3  1  0.000000  0.395157  0.580290  1
  Y  Y4  1  0.500000  0.123096  0.852082  1
  Y  Y5  1  0.500000  0.876904  0.147918  1
  Y  Y6  1  0.500000  0.623096  0.647918  1
  Y  Y7  1  0.500000  0.376904  0.352082  1
  C  C8  1  0.500000  0.000000  0.000000  1
  C  C9  1  0.500000  0.500000  0.500000  1
  Cl  Cl10  1  0.500000  0.264073  0.678784  1
  Cl  Cl11  1  0.500000  0.735927  0.321216  1
  Cl  Cl12  1  0.500000  0.764073  0.821216  1
  Cl  Cl13  1  0.500000  0.235927  0.178784  1
  Cl  Cl14  1  0.000000  0.258611  0.928068  1
  Cl  Cl15  1  0.000000  0.741389  0.071932  1
  Cl  Cl16  1  0.000000  0.484060  0.242244  1
  Cl  Cl17  1  0.000000  0.515940  0.757756  1
  Cl  Cl18  1  0.000000  0.984060  0.257756  1
  Cl  Cl19  1  0.000000  0.015940  0.742244  1
  Cl  Cl20  1  0.000000  0.241389  0.428068  1
  Cl  Cl21  1  0.000000  0.758611  0.571932  1
