# generated using pymatgen
data_LiTi5(ReP)6
_symmetry_space_group_name_H-M   'P 1'
_cell_length_a   7.36549098
_cell_length_b   7.44149397
_cell_length_c   7.36549173
_cell_angle_alpha   126.35331913
_cell_angle_beta   127.37530140
_cell_angle_gamma   78.24017075
_symmetry_Int_Tables_number   1
_chemical_formula_structural   LiTi5(ReP)6
_chemical_formula_sum   'Li1 Ti5 Re6 P6'
_cell_volume   250.58203906
_cell_formula_units_Z   1
loop_
 _symmetry_equiv_pos_site_id
 _symmetry_equiv_pos_as_xyz
  1  'x, y, z'
loop_
 _atom_site_type_symbol
 _atom_site_label
 _atom_site_symmetry_multiplicity
 _atom_site_fract_x
 _atom_site_fract_y
 _atom_site_fract_z
 _atom_site_occupancy
  Li  Li0  1  0.448158  0.247236  0.299077  1
  Ti  Ti1  1  0.550369  0.839310  0.788941  1
  Ti  Ti2  1  0.754771  0.653988  0.399215  1
  Ti  Ti3  1  0.250936  0.653328  0.902392  1
  Ti  Ti4  1  0.049949  0.839974  0.290025  1
  Ti  Ti5  1  0.950000  0.245053  0.795053  1
  Re  Re6  1  0.635094  0.504549  0.883327  1
  Re  Re7  1  0.362844  0.247202  0.868997  1
  Re  Re8  1  0.878205  0.247202  0.384357  1
  Re  Re9  1  0.121222  0.504549  0.369457  1
  Re  Re10  1  0.998308  0.988583  0.988327  1
  Re  Re11  1  0.500255  0.988583  0.490274  1
  P  P12  1  0.828775  0.576079  0.739825  1
  P  P13  1  0.172363  0.917256  0.753187  1
  P  P14  1  0.664069  0.917256  0.244895  1
  P  P15  1  0.336255  0.576079  0.247304  1
  P  P16  1  0.253708  0.250426  0.496719  1
  P  P17  1  0.744717  0.243742  0.999026  1
