# generated using pymatgen
data_Mn5Zn(MoO4)6
_symmetry_space_group_name_H-M   'P 1'
_cell_length_a   7.19071436
_cell_length_b   8.69595196
_cell_length_c   10.05707931
_cell_angle_alpha   96.85466228
_cell_angle_beta   106.50446352
_cell_angle_gamma   101.79816603
_symmetry_Int_Tables_number   1
_chemical_formula_structural   Mn5Zn(MoO4)6
_chemical_formula_sum   'Mn5 Zn1 Mo6 O24'
_cell_volume   579.57718120
_cell_formula_units_Z   1
loop_
 _symmetry_equiv_pos_site_id
 _symmetry_equiv_pos_as_xyz
  1  'x, y, z'
loop_
 _atom_site_type_symbol
 _atom_site_label
 _atom_site_symmetry_multiplicity
 _atom_site_fract_x
 _atom_site_fract_y
 _atom_site_fract_z
 _atom_site_occupancy
  Mn  Mn0  1  0.254053  0.690502  0.912109  1
  Mn  Mn1  1  0.748307  0.307293  0.091149  1
  Mn  Mn2  1  0.531443  0.696641  0.486177  1
  Mn  Mn3  1  0.465651  0.301934  0.512998  1
  Mn  Mn4  1  0.969315  0.888775  0.714338  1
  Zn  Zn5  1  0.029889  0.113669  0.288603  1
  Mo  Mo6  1  0.506138  0.989323  0.757473  1
  Mo  Mo7  1  0.495315  0.011136  0.242969  1
  Mo  Mo8  1  0.699901  0.602126  0.838847  1
  Mo  Mo9  1  0.298593  0.392445  0.163169  1
  Mo  Mo10  1  0.978131  0.711409  0.372701  1
  Mo  Mo11  1  0.021756  0.294404  0.622787  1
  O  O12  1  0.270151  0.869435  0.766567  1
  O  O13  1  0.733809  0.130014  0.235688  1
  O  O14  1  0.560435  0.707088  0.920410  1
  O  O15  1  0.440170  0.290267  0.081423  1
  O  O16  1  0.559848  0.526314  0.651877  1
  O  O17  1  0.440872  0.472917  0.348526  1
  O  O18  1  0.550052  0.871228  0.352809  1
  O  O19  1  0.448660  0.129034  0.647810  1
  O  O20  1  0.658572  0.096728  0.926051  1
  O  O21  1  0.344158  0.902724  0.074204  1
  O  O22  1  0.649302  0.867295  0.683965  1
  O  O23  1  0.351007  0.133206  0.314605  1
  O  O24  1  0.024026  0.129595  0.714079  1
  O  O25  1  0.979540  0.882196  0.287178  1
  O  O26  1  0.051948  0.264634  0.148746  1
  O  O27  1  0.947798  0.728202  0.856999  1
  O  O28  1  0.147914  0.476167  0.746503  1
  O  O29  1  0.853806  0.530628  0.247266  1
  O  O30  1  0.139363  0.264324  0.483048  1
  O  O31  1  0.857850  0.733477  0.510702  1
  O  O32  1  0.253577  0.552509  0.076015  1
  O  O33  1  0.740628  0.440103  0.924083  1
  O  O34  1  0.229909  0.707729  0.457874  1
  O  O35  1  0.768117  0.294529  0.540251  1
