# generated using pymatgen
data_Y4BeSi6Ir
_symmetry_space_group_name_H-M   'P 1'
_cell_length_a   8.03024500
_cell_length_b   8.03024684
_cell_length_c   8.16786500
_cell_angle_alpha   90.00000000
_cell_angle_beta   90.00000000
_cell_angle_gamma   119.99999656
_symmetry_Int_Tables_number   1
_chemical_formula_structural   Y4BeSi6Ir
_chemical_formula_sum   'Y8 Be2 Si12 Ir2'
_cell_volume   456.13866632
_cell_formula_units_Z   2
loop_
 _symmetry_equiv_pos_site_id
 _symmetry_equiv_pos_as_xyz
  1  'x, y, z'
loop_
 _atom_site_type_symbol
 _atom_site_label
 _atom_site_symmetry_multiplicity
 _atom_site_fract_x
 _atom_site_fract_y
 _atom_site_fract_z
 _atom_site_occupancy
  Y  Y0  1  0.000000  0.000000  0.248537  1
  Y  Y1  1  0.000000  0.000000  0.751463  1
  Y  Y2  1  0.500120  0.499880  0.252916  1
  Y  Y3  1  0.500120  0.000241  0.252916  1
  Y  Y4  1  0.999759  0.499880  0.252916  1
  Y  Y5  1  0.499880  0.500120  0.747084  1
  Y  Y6  1  0.499880  0.999759  0.747084  1
  Y  Y7  1  0.000241  0.500120  0.747084  1
  Be  Be8  1  0.666667  0.333333  0.000755  1
  Be  Be9  1  0.333333  0.666667  0.999245  1
  Si  Si10  1  0.166762  0.833238  0.499371  1
  Si  Si11  1  0.166762  0.333523  0.499371  1
  Si  Si12  1  0.666477  0.833238  0.499371  1
  Si  Si13  1  0.833238  0.166762  0.500629  1
  Si  Si14  1  0.833238  0.666477  0.500629  1
  Si  Si15  1  0.333523  0.166762  0.500629  1
  Si  Si16  1  0.827353  0.172647  0.001018  1
  Si  Si17  1  0.827353  0.654706  0.001018  1
  Si  Si18  1  0.345294  0.172647  0.001018  1
  Si  Si19  1  0.172647  0.827353  0.998982  1
  Si  Si20  1  0.172647  0.345294  0.998982  1
  Si  Si21  1  0.654706  0.827353  0.998982  1
  Ir  Ir22  1  0.333333  0.666667  0.499722  1
  Ir  Ir23  1  0.666667  0.333333  0.500278  1
