# generated using pymatgen
data_Tb16MgCd3(NiOs)2
_symmetry_space_group_name_H-M   'P 1'
_cell_length_a   9.64814798
_cell_length_b   9.64814820
_cell_length_c   9.71887427
_cell_angle_alpha   59.52732023
_cell_angle_beta   59.52731973
_cell_angle_gamma   59.38380933
_symmetry_Int_Tables_number   1
_chemical_formula_structural   Tb16MgCd3(NiOs)2
_chemical_formula_sum   'Tb16 Mg1 Cd3 Ni2 Os2'
_cell_volume   632.14188561
_cell_formula_units_Z   1
loop_
 _symmetry_equiv_pos_site_id
 _symmetry_equiv_pos_as_xyz
  1  'x, y, z'
loop_
 _atom_site_type_symbol
 _atom_site_label
 _atom_site_symmetry_multiplicity
 _atom_site_fract_x
 _atom_site_fract_y
 _atom_site_fract_z
 _atom_site_occupancy
  Tb  Tb0  1  0.350355  0.350355  0.343865  1
  Tb  Tb1  1  0.350137  0.350137  0.958956  1
  Tb  Tb2  1  0.350190  0.958323  0.345599  1
  Tb  Tb3  1  0.958323  0.350190  0.345599  1
  Tb  Tb4  1  0.810835  0.187299  0.189875  1
  Tb  Tb5  1  0.184686  0.812045  0.812569  1
  Tb  Tb6  1  0.187299  0.810835  0.189875  1
  Tb  Tb7  1  0.812045  0.184686  0.812569  1
  Tb  Tb8  1  0.188996  0.188996  0.810794  1
  Tb  Tb9  1  0.810481  0.810481  0.190011  1
  Tb  Tb10  1  0.939770  0.555843  0.567370  1
  Tb  Tb11  1  0.555494  0.939566  0.939199  1
  Tb  Tb12  1  0.555843  0.939770  0.567370  1
  Tb  Tb13  1  0.939566  0.555494  0.939199  1
  Tb  Tb14  1  0.566761  0.566761  0.935859  1
  Tb  Tb15  1  0.941499  0.941499  0.558987  1
  Mg  Mg16  1  0.574421  0.574421  0.576929  1
  Cd  Cd17  1  0.579569  0.579569  0.256408  1
  Cd  Cd18  1  0.580892  0.255150  0.580672  1
  Cd  Cd19  1  0.255150  0.580892  0.580672  1
  Ni  Ni20  1  0.142069  0.577015  0.141969  1
  Ni  Ni21  1  0.577015  0.142069  0.141969  1
  Os  Os22  1  0.143917  0.143917  0.138392  1
  Os  Os23  1  0.144685  0.144685  0.575293  1
