# generated using pymatgen
data_Zr2GaSnTe2
_symmetry_space_group_name_H-M   'P 1'
_cell_length_a   3.96651700
_cell_length_b   3.96651700
_cell_length_c   8.87536200
_cell_angle_alpha   90.00000000
_cell_angle_beta   90.00000000
_cell_angle_gamma   90.00000000
_symmetry_Int_Tables_number   1
_chemical_formula_structural   Zr2GaSnTe2
_chemical_formula_sum   'Zr2 Ga1 Sn1 Te2'
_cell_volume   139.63835230
_cell_formula_units_Z   1
loop_
 _symmetry_equiv_pos_site_id
 _symmetry_equiv_pos_as_xyz
  1  'x, y, z'
loop_
 _atom_site_type_symbol
 _atom_site_label
 _atom_site_symmetry_multiplicity
 _atom_site_fract_x
 _atom_site_fract_y
 _atom_site_fract_z
 _atom_site_occupancy
  Zr  Zr0  1  0.500000  0.000000  0.262307  1
  Zr  Zr1  1  0.000000  0.500000  0.737693  1
  Ga  Ga2  1  0.000000  0.000000  0.000000  1
  Sn  Sn3  1  0.500000  0.500000  0.000000  1
  Te  Te4  1  0.500000  0.000000  0.617372  1
  Te  Te5  1  0.000000  0.500000  0.382628  1
