# generated using pymatgen
data_CsHf2(AsO4)3
_symmetry_space_group_name_H-M   'P 1'
_cell_length_a   10.02793991
_cell_length_b   10.02794051
_cell_length_c   10.02793949
_cell_angle_alpha   53.64047395
_cell_angle_beta   53.64047023
_cell_angle_gamma   53.64046817
_symmetry_Int_Tables_number   1
_chemical_formula_structural   CsHf2(AsO4)3
_chemical_formula_sum   'Cs2 Hf4 As6 O24'
_cell_volume   606.99444289
_cell_formula_units_Z   2
loop_
 _symmetry_equiv_pos_site_id
 _symmetry_equiv_pos_as_xyz
  1  'x, y, z'
loop_
 _atom_site_type_symbol
 _atom_site_label
 _atom_site_symmetry_multiplicity
 _atom_site_fract_x
 _atom_site_fract_y
 _atom_site_fract_z
 _atom_site_occupancy
  Cs  Cs0  1  0.500000  0.500000  0.500000  1
  Cs  Cs1  1  0.000000  0.000000  0.000000  1
  Hf  Hf2  1  0.349433  0.349433  0.349433  1
  Hf  Hf3  1  0.849433  0.849433  0.849433  1
  Hf  Hf4  1  0.650567  0.650567  0.650567  1
  Hf  Hf5  1  0.150567  0.150567  0.150567  1
  As  As6  1  0.971005  0.528995  0.250000  1
  As  As7  1  0.250000  0.971005  0.528995  1
  As  As8  1  0.528995  0.250000  0.971005  1
  As  As9  1  0.750000  0.028995  0.471005  1
  As  As10  1  0.471005  0.750000  0.028995  1
  As  As11  1  0.028995  0.471005  0.750000  1
  O  O12  1  0.157644  0.512924  0.237023  1
  O  O13  1  0.237023  0.157644  0.512924  1
  O  O14  1  0.512924  0.237023  0.157644  1
  O  O15  1  0.737023  0.012924  0.657644  1
  O  O16  1  0.657644  0.737023  0.012924  1
  O  O17  1  0.012924  0.657644  0.737023  1
  O  O18  1  0.842356  0.487076  0.762977  1
  O  O19  1  0.762977  0.842356  0.487076  1
  O  O20  1  0.487076  0.762977  0.842356  1
  O  O21  1  0.262977  0.987076  0.342356  1
  O  O22  1  0.342356  0.262977  0.987076  1
  O  O23  1  0.987076  0.342356  0.262977  1
  O  O24  1  0.203264  0.428978  0.563253  1
  O  O25  1  0.563253  0.203264  0.428978  1
  O  O26  1  0.428978  0.563253  0.203264  1
  O  O27  1  0.063253  0.928978  0.703264  1
  O  O28  1  0.703264  0.063253  0.928978  1
  O  O29  1  0.928978  0.703264  0.063253  1
  O  O30  1  0.796736  0.571022  0.436747  1
  O  O31  1  0.436747  0.796736  0.571022  1
  O  O32  1  0.571022  0.436747  0.796736  1
  O  O33  1  0.936747  0.071022  0.296736  1
  O  O34  1  0.296736  0.936747  0.071022  1
  O  O35  1  0.071022  0.296736  0.936747  1
