# generated using pymatgen
data_Ho2NiSn5Rh2
_symmetry_space_group_name_H-M   'P 1'
_cell_length_a   13.32684080
_cell_length_b   13.32684214
_cell_length_c   7.22219600
_cell_angle_alpha   90.00000000
_cell_angle_beta   90.00000000
_cell_angle_gamma   160.99313590
_symmetry_Int_Tables_number   1
_chemical_formula_structural   Ho2NiSn5Rh2
_chemical_formula_sum   'Ho4 Ni2 Sn10 Rh4'
_cell_volume   417.75025615
_cell_formula_units_Z   2
loop_
 _symmetry_equiv_pos_site_id
 _symmetry_equiv_pos_as_xyz
  1  'x, y, z'
loop_
 _atom_site_type_symbol
 _atom_site_label
 _atom_site_symmetry_multiplicity
 _atom_site_fract_x
 _atom_site_fract_y
 _atom_site_fract_z
 _atom_site_occupancy
  Ho  Ho0  1  0.171644  0.828356  0.744815  1
  Ho  Ho1  1  0.828356  0.171644  0.244815  1
  Ho  Ho2  1  0.475867  0.524133  0.758610  1
  Ho  Ho3  1  0.524133  0.475867  0.258610  1
  Ni  Ni4  1  0.050047  0.949953  0.982643  1
  Ni  Ni5  1  0.949953  0.050047  0.482643  1
  Sn  Sn6  1  0.880976  0.119024  0.765787  1
  Sn  Sn7  1  0.119024  0.880976  0.265787  1
  Sn  Sn8  1  0.703840  0.296160  0.452535  1
  Sn  Sn9  1  0.296160  0.703840  0.952535  1
  Sn  Sn10  1  0.594289  0.405711  0.892011  1
  Sn  Sn11  1  0.405711  0.594289  0.392011  1
  Sn  Sn12  1  0.954338  0.045662  0.102691  1
  Sn  Sn13  1  0.045662  0.954338  0.602691  1
  Sn  Sn14  1  0.291324  0.708676  0.521046  1
  Sn  Sn15  1  0.708676  0.291324  0.021046  1
  Rh  Rh16  1  0.776745  0.223255  0.732983  1
  Rh  Rh17  1  0.223255  0.776745  0.232983  1
  Rh  Rh18  1  0.396159  0.603841  0.018881  1
  Rh  Rh19  1  0.603841  0.396159  0.518881  1
