# generated using pymatgen
data_CePr2(SnRh)3
_symmetry_space_group_name_H-M   'P 1'
_cell_length_a   7.63763900
_cell_length_b   7.55336307
_cell_length_c   4.08706900
_cell_angle_alpha   90.00000000
_cell_angle_beta   90.00000000
_cell_angle_gamma   120.36977987
_symmetry_Int_Tables_number   1
_chemical_formula_structural   CePr2(SnRh)3
_chemical_formula_sum   'Ce1 Pr2 Sn3 Rh3'
_cell_volume   203.42847997
_cell_formula_units_Z   1
loop_
 _symmetry_equiv_pos_site_id
 _symmetry_equiv_pos_as_xyz
  1  'x, y, z'
loop_
 _atom_site_type_symbol
 _atom_site_label
 _atom_site_symmetry_multiplicity
 _atom_site_fract_x
 _atom_site_fract_y
 _atom_site_fract_z
 _atom_site_occupancy
  Ce  Ce0  1  0.585171  0.000000  0.500000  1
  Pr  Pr1  1  0.412362  0.410761  0.500000  1
  Pr  Pr2  1  0.001601  0.589239  0.500000  1
  Sn  Sn3  1  0.246408  0.000000  0.000000  1
  Sn  Sn4  1  0.748023  0.744946  0.000000  1
  Sn  Sn5  1  0.003078  0.255054  0.000000  1
  Rh  Rh6  1  0.989868  0.000000  0.500000  1
  Rh  Rh7  1  0.351987  0.690485  0.000000  1
  Rh  Rh8  1  0.661503  0.309515  0.000000  1
