# generated using pymatgen
data_TbNd3(Si3Ni5)4
_symmetry_space_group_name_H-M   'P 1'
_cell_length_a   3.84312800
_cell_length_b   18.92782185
_cell_length_c   6.60958507
_cell_angle_alpha   90.14186002
_cell_angle_beta   90.00000000
_cell_angle_gamma   90.00000000
_symmetry_Int_Tables_number   1
_chemical_formula_structural   TbNd3(Si3Ni5)4
_chemical_formula_sum   'Tb1 Nd3 Si12 Ni20'
_cell_volume   480.79324198
_cell_formula_units_Z   1
loop_
 _symmetry_equiv_pos_site_id
 _symmetry_equiv_pos_as_xyz
  1  'x, y, z'
loop_
 _atom_site_type_symbol
 _atom_site_label
 _atom_site_symmetry_multiplicity
 _atom_site_fract_x
 _atom_site_fract_y
 _atom_site_fract_z
 _atom_site_occupancy
  Tb  Tb0  1  0.750000  0.143794  0.377075  1
  Nd  Nd1  1  0.750000  0.643270  0.123186  1
  Nd  Nd2  1  0.250000  0.355769  0.875501  1
  Nd  Nd3  1  0.250000  0.857670  0.625121  1
  Si  Si4  1  0.750000  0.736144  0.617582  1
  Si  Si5  1  0.250000  0.262149  0.383793  1
  Si  Si6  1  0.250000  0.765042  0.116478  1
  Si  Si7  1  0.750000  0.234553  0.883980  1
  Si  Si8  1  0.750000  0.928376  0.339604  1
  Si  Si9  1  0.250000  0.073097  0.655832  1
  Si  Si10  1  0.250000  0.570933  0.838719  1
  Si  Si11  1  0.750000  0.427547  0.160420  1
  Si  Si12  1  0.750000  0.915592  0.929214  1
  Si  Si13  1  0.250000  0.087911  0.077232  1
  Si  Si14  1  0.250000  0.586701  0.430983  1
  Si  Si15  1  0.750000  0.411693  0.567338  1
  Ni  Ni16  1  0.750000  0.801698  0.309672  1
  Ni  Ni17  1  0.250000  0.197555  0.688974  1
  Ni  Ni18  1  0.250000  0.698878  0.809769  1
  Ni  Ni19  1  0.750000  0.299777  0.191189  1
  Ni  Ni20  1  0.750000  0.995718  0.635250  1
  Ni  Ni21  1  0.250000  0.006783  0.362488  1
  Ni  Ni22  1  0.250000  0.504789  0.138265  1
  Ni  Ni23  1  0.750000  0.493695  0.860817  1
  Ni  Ni24  1  0.750000  0.516516  0.390993  1
  Ni  Ni25  1  0.250000  0.482066  0.607640  1
  Ni  Ni26  1  0.250000  0.986028  0.891008  1
  Ni  Ni27  1  0.750000  0.018678  0.114936  1
  Ni  Ni28  1  0.750000  0.793569  0.927137  1
  Ni  Ni29  1  0.250000  0.207239  0.074685  1
  Ni  Ni30  1  0.250000  0.708266  0.427057  1
  Ni  Ni31  1  0.750000  0.289946  0.572520  1
  Ni  Ni32  1  0.750000  0.615627  0.646209  1
  Ni  Ni33  1  0.250000  0.382698  0.352835  1
  Ni  Ni34  1  0.250000  0.885596  0.145042  1
  Ni  Ni35  1  0.750000  0.114637  0.851458  1
