# generated using pymatgen
data_NpZn(SO5)2
_symmetry_space_group_name_H-M   'P 1'
_cell_length_a   5.75625785
_cell_length_b   5.36178892
_cell_length_c   7.55675772
_cell_angle_alpha   105.17616139
_cell_angle_beta   109.50460002
_cell_angle_gamma   98.31847143
_symmetry_Int_Tables_number   1
_chemical_formula_structural   NpZn(SO5)2
_chemical_formula_sum   'Np1 Zn1 S2 O10'
_cell_volume   205.15908375
_cell_formula_units_Z   1
loop_
 _symmetry_equiv_pos_site_id
 _symmetry_equiv_pos_as_xyz
  1  'x, y, z'
loop_
 _atom_site_type_symbol
 _atom_site_label
 _atom_site_symmetry_multiplicity
 _atom_site_fract_x
 _atom_site_fract_y
 _atom_site_fract_z
 _atom_site_occupancy
  Np  Np0  1  0.000000  0.000000  0.500000  1
  Zn  Zn1  1  0.000000  0.000000  0.000000  1
  S  S2  1  0.672453  0.343814  0.763585  1
  S  S3  1  0.327547  0.656186  0.236415  1
  O  O4  1  0.071095  0.922307  0.728785  1
  O  O5  1  0.928905  0.077693  0.271215  1
  O  O6  1  0.700703  0.149657  0.870715  1
  O  O7  1  0.826656  0.317576  0.634554  1
  O  O8  1  0.299297  0.850343  0.129285  1
  O  O9  1  0.173344  0.682424  0.365446  1
  O  O10  1  0.397999  0.276094  0.622198  1
  O  O11  1  0.743975  0.620238  0.895601  1
  O  O12  1  0.602001  0.723906  0.377802  1
  O  O13  1  0.256025  0.379762  0.104399  1
