# generated using pymatgen
data_Al4CuPd3
_symmetry_space_group_name_H-M   'P 1'
_cell_length_a   4.87380016
_cell_length_b   4.87380016
_cell_length_c   4.87380016
_cell_angle_alpha   90.07627021
_cell_angle_beta   90.07627021
_cell_angle_gamma   90.07627021
_symmetry_Int_Tables_number   1
_chemical_formula_structural   Al4CuPd3
_chemical_formula_sum   'Al4 Cu1 Pd3'
_cell_volume   115.77159013
_cell_formula_units_Z   1
loop_
 _symmetry_equiv_pos_site_id
 _symmetry_equiv_pos_as_xyz
  1  'x, y, z'
loop_
 _atom_site_type_symbol
 _atom_site_label
 _atom_site_symmetry_multiplicity
 _atom_site_fract_x
 _atom_site_fract_y
 _atom_site_fract_z
 _atom_site_occupancy
  Al  Al0  1  0.845427  0.845427  0.845427  1
  Al  Al1  1  0.654581  0.154595  0.345641  1
  Al  Al2  1  0.345641  0.654581  0.154595  1
  Al  Al3  1  0.154595  0.345641  0.654581  1
  Cu  Cu4  1  0.148276  0.148276  0.148276  1
  Pd  Pd5  1  0.348051  0.855524  0.647906  1
  Pd  Pd6  1  0.647906  0.348051  0.855524  1
  Pd  Pd7  1  0.855524  0.647906  0.348051  1
