# generated using pymatgen
data_CaYEr2Ni13C4
_symmetry_space_group_name_H-M   'P 1'
_cell_length_a   8.37239024
_cell_length_b   8.37239030
_cell_length_c   3.85385800
_cell_angle_alpha   90.00000000
_cell_angle_beta   90.00000000
_cell_angle_gamma   90.84975636
_symmetry_Int_Tables_number   1
_chemical_formula_structural   CaYEr2Ni13C4
_chemical_formula_sum   'Ca1 Y1 Er2 Ni13 C4'
_cell_volume   270.11386136
_cell_formula_units_Z   1
loop_
 _symmetry_equiv_pos_site_id
 _symmetry_equiv_pos_as_xyz
  1  'x, y, z'
loop_
 _atom_site_type_symbol
 _atom_site_label
 _atom_site_symmetry_multiplicity
 _atom_site_fract_x
 _atom_site_fract_y
 _atom_site_fract_z
 _atom_site_occupancy
  Ca  Ca0  1  0.350370  0.350370  0.500000  1
  Y  Y1  1  0.649723  0.649723  0.500000  1
  Er  Er2  1  0.186963  0.813583  0.500000  1
  Er  Er3  1  0.813583  0.186963  0.500000  1
  Ni  Ni4  1  0.502243  0.995790  0.500000  1
  Ni  Ni5  1  0.995790  0.502243  0.500000  1
  Ni  Ni6  1  0.998829  0.998829  0.000000  1
  Ni  Ni7  1  0.429387  0.786459  0.000000  1
  Ni  Ni8  1  0.575017  0.216144  0.000000  1
  Ni  Ni9  1  0.786459  0.429387  0.000000  1
  Ni  Ni10  1  0.216144  0.575017  0.000000  1
  Ni  Ni11  1  0.708192  0.926630  0.000000  1
  Ni  Ni12  1  0.288452  0.068865  0.000000  1
  Ni  Ni13  1  0.926630  0.708192  0.000000  1
  Ni  Ni14  1  0.068865  0.288452  0.000000  1
  Ni  Ni15  1  0.876294  0.876294  0.500000  1
  Ni  Ni16  1  0.122232  0.122232  0.500000  1
  C  C17  1  0.003148  0.499206  0.000000  1
  C  C18  1  0.499206  0.003148  0.000000  1
  C  C19  1  0.558105  0.444368  0.000000  1
  C  C20  1  0.444368  0.558105  0.000000  1
