# generated using pymatgen
data_Tm4Lu6SiSb5
_symmetry_space_group_name_H-M   'P 1'
_cell_length_a   7.93667900
_cell_length_b   9.04917900
_cell_length_c   11.60240100
_cell_angle_alpha   90.00000000
_cell_angle_beta   90.00000000
_cell_angle_gamma   90.00000000
_symmetry_Int_Tables_number   1
_chemical_formula_structural   Tm4Lu6SiSb5
_chemical_formula_sum   'Tm8 Lu12 Si2 Sb10'
_cell_volume   833.28941651
_cell_formula_units_Z   2
loop_
 _symmetry_equiv_pos_site_id
 _symmetry_equiv_pos_as_xyz
  1  'x, y, z'
loop_
 _atom_site_type_symbol
 _atom_site_label
 _atom_site_symmetry_multiplicity
 _atom_site_fract_x
 _atom_site_fract_y
 _atom_site_fract_z
 _atom_site_occupancy
  Tm  Tm0  1  0.179798  0.750000  0.230733  1
  Tm  Tm1  1  0.679798  0.250000  0.269267  1
  Tm  Tm2  1  0.828648  0.250000  0.780715  1
  Tm  Tm3  1  0.328648  0.750000  0.719285  1
  Tm  Tm4  1  0.648574  0.750000  0.295885  1
  Tm  Tm5  1  0.148574  0.250000  0.204115  1
  Tm  Tm6  1  0.341329  0.250000  0.710066  1
  Tm  Tm7  1  0.841329  0.750000  0.789934  1
  Lu  Lu8  1  0.811273  0.951642  0.065368  1
  Lu  Lu9  1  0.311273  0.048358  0.434632  1
  Lu  Lu10  1  0.182936  0.433429  0.936761  1
  Lu  Lu11  1  0.682936  0.566571  0.563239  1
  Lu  Lu12  1  0.182936  0.066571  0.936761  1
  Lu  Lu13  1  0.682936  0.933429  0.563239  1
  Lu  Lu14  1  0.811273  0.548358  0.065368  1
  Lu  Lu15  1  0.311273  0.451642  0.434632  1
  Lu  Lu16  1  0.535519  0.250000  0.995815  1
  Lu  Lu17  1  0.035519  0.750000  0.504185  1
  Lu  Lu18  1  0.476492  0.750000  0.004384  1
  Lu  Lu19  1  0.976492  0.250000  0.495616  1
  Si  Si20  1  0.905862  0.250000  0.023006  1
  Si  Si21  1  0.405862  0.750000  0.476994  1
  Sb  Sb22  1  0.936436  0.990046  0.326006  1
  Sb  Sb23  1  0.436436  0.009954  0.173994  1
  Sb  Sb24  1  0.062583  0.491007  0.674559  1
  Sb  Sb25  1  0.562583  0.508993  0.825441  1
  Sb  Sb26  1  0.062583  0.008993  0.674559  1
  Sb  Sb27  1  0.562583  0.991007  0.825441  1
  Sb  Sb28  1  0.936436  0.509954  0.326006  1
  Sb  Sb29  1  0.436436  0.490046  0.173994  1
  Sb  Sb30  1  0.097322  0.750000  0.975728  1
  Sb  Sb31  1  0.597322  0.250000  0.524272  1
