# generated using pymatgen
data_CoCu5F18
_symmetry_space_group_name_H-M   'P 1'
_cell_length_a   4.95959471
_cell_length_b   4.96669810
_cell_length_c   13.30234674
_cell_angle_alpha   90.00959416
_cell_angle_beta   89.73509703
_cell_angle_gamma   59.77109517
_symmetry_Int_Tables_number   1
_chemical_formula_structural   CoCu5F18
_chemical_formula_sum   'Co1 Cu5 F18'
_cell_volume   283.11313798
_cell_formula_units_Z   1
loop_
 _symmetry_equiv_pos_site_id
 _symmetry_equiv_pos_as_xyz
  1  'x, y, z'
loop_
 _atom_site_type_symbol
 _atom_site_label
 _atom_site_symmetry_multiplicity
 _atom_site_fract_x
 _atom_site_fract_y
 _atom_site_fract_z
 _atom_site_occupancy
  Co  Co0  1  0.334055  0.333796  0.834243  1
  Cu  Cu1  1  0.000333  0.999448  0.002071  1
  Cu  Cu2  1  0.666330  0.665697  0.165457  1
  Cu  Cu3  1  0.332690  0.333403  0.333205  1
  Cu  Cu4  1  0.996919  0.000124  0.499840  1
  Cu  Cu5  1  0.668082  0.665500  0.665425  1
  F  F6  1  0.331139  0.975812  0.084406  1
  F  F7  1  0.689640  0.331948  0.084590  1
  F  F8  1  0.976190  0.690864  0.083543  1
  F  F9  1  0.999033  0.379630  0.249909  1
  F  F10  1  0.622933  0.997650  0.249947  1
  F  F11  1  0.378736  0.622268  0.250272  1
  F  F12  1  0.286558  0.043872  0.416132  1
  F  F13  1  0.665389  0.291495  0.415596  1
  F  F14  1  0.041136  0.667716  0.416786  1
  F  F15  1  0.330726  0.713613  0.582502  1
  F  F16  1  0.694337  0.974581  0.582423  1
  F  F17  1  0.960467  0.339754  0.581606  1
  F  F18  1  0.378788  0.989170  0.751390  1
  F  F19  1  0.634747  0.359812  0.747431  1
  F  F20  1  0.012291  0.611988  0.750094  1
  F  F21  1  0.033249  0.302622  0.920192  1
  F  F22  1  0.663636  0.037846  0.916747  1
  F  F23  1  0.302441  0.671414  0.916058  1
