# generated using pymatgen
data_Ho3Er3Pa2(NiB14)2
_symmetry_space_group_name_H-M   'P 1'
_cell_length_a   7.20824051
_cell_length_b   7.20932200
_cell_length_c   7.48814500
_cell_angle_alpha   90.00000000
_cell_angle_beta   90.00000000
_cell_angle_gamma   89.97932543
_symmetry_Int_Tables_number   1
_chemical_formula_structural   Ho3Er3Pa2(NiB14)2
_chemical_formula_sum   'Ho3 Er3 Pa2 Ni2 B28'
_cell_volume   389.13286326
_cell_formula_units_Z   1
loop_
 _symmetry_equiv_pos_site_id
 _symmetry_equiv_pos_as_xyz
  1  'x, y, z'
loop_
 _atom_site_type_symbol
 _atom_site_label
 _atom_site_symmetry_multiplicity
 _atom_site_fract_x
 _atom_site_fract_y
 _atom_site_fract_z
 _atom_site_occupancy
  Ho  Ho0  1  0.306363  0.833563  0.500000  1
  Ho  Ho1  1  0.833222  0.694087  0.500000  1
  Ho  Ho2  1  0.166707  0.306458  0.500000  1
  Er  Er3  1  0.334592  0.807640  0.000000  1
  Er  Er4  1  0.694095  0.167583  0.500000  1
  Er  Er5  1  0.808069  0.665244  0.000000  1
  Pa  Pa6  1  0.193848  0.329249  0.000000  1
  Pa  Pa7  1  0.670759  0.193538  0.000000  1
  Ni  Ni8  1  0.999341  0.996818  0.000000  1
  Ni  Ni9  1  0.499982  0.501178  0.500000  1
  B  B10  1  0.173935  0.038848  0.232043  1
  B  B11  1  0.960532  0.172833  0.233553  1
  B  B12  1  0.040094  0.823813  0.231057  1
  B  B13  1  0.675097  0.461701  0.268544  1
  B  B14  1  0.325207  0.541362  0.269069  1
  B  B15  1  0.824484  0.959815  0.232764  1
  B  B16  1  0.539931  0.675917  0.270656  1
  B  B17  1  0.460359  0.326499  0.267938  1
  B  B18  1  0.824484  0.959815  0.767236  1
  B  B19  1  0.040094  0.823813  0.768943  1
  B  B20  1  0.960532  0.172833  0.766447  1
  B  B21  1  0.325207  0.541362  0.730931  1
  B  B22  1  0.675097  0.461701  0.731456  1
  B  B23  1  0.173935  0.038848  0.767957  1
  B  B24  1  0.460359  0.326499  0.732062  1
  B  B25  1  0.539931  0.675917  0.729344  1
  B  B26  1  0.088564  0.588782  0.246314  1
  B  B27  1  0.410074  0.090234  0.243641  1
  B  B28  1  0.588021  0.912251  0.247720  1
  B  B29  1  0.910217  0.410405  0.244298  1
  B  B30  1  0.910217  0.410405  0.755702  1
  B  B31  1  0.588021  0.912251  0.752280  1
  B  B32  1  0.410074  0.090234  0.756359  1
  B  B33  1  0.088564  0.588782  0.753686  1
  B  B34  1  0.000030  0.997307  0.390715  1
  B  B35  1  0.499966  0.502557  0.110688  1
  B  B36  1  0.000030  0.997307  0.609285  1
  B  B37  1  0.499966  0.502557  0.889312  1
