# generated using pymatgen
data_Ti12BeAl7O4
_symmetry_space_group_name_H-M   'P 1'
_cell_length_a   6.88558082
_cell_length_b   6.88558082
_cell_length_c   6.88558082
_cell_angle_alpha   89.94103799
_cell_angle_beta   90.05896201
_cell_angle_gamma   90.05896201
_symmetry_Int_Tables_number   1
_chemical_formula_structural   Ti12BeAl7O4
_chemical_formula_sum   'Ti12 Be1 Al7 O4'
_cell_volume   326.45329139
_cell_formula_units_Z   1
loop_
 _symmetry_equiv_pos_site_id
 _symmetry_equiv_pos_as_xyz
  1  'x, y, z'
loop_
 _atom_site_type_symbol
 _atom_site_label
 _atom_site_symmetry_multiplicity
 _atom_site_fract_x
 _atom_site_fract_y
 _atom_site_fract_z
 _atom_site_occupancy
  Ti  Ti0  1  0.792459  0.958562  0.374077  1
  Ti  Ti1  1  0.709146  0.041595  0.875905  1
  Ti  Ti2  1  0.208678  0.460252  0.126476  1
  Ti  Ti3  1  0.291859  0.542372  0.624770  1
  Ti  Ti4  1  0.958405  0.375905  0.790854  1
  Ti  Ti5  1  0.041438  0.874077  0.707541  1
  Ti  Ti6  1  0.457628  0.124770  0.208141  1
  Ti  Ti7  1  0.539748  0.626476  0.291322  1
  Ti  Ti8  1  0.373524  0.791322  0.960252  1
  Ti  Ti9  1  0.875230  0.708141  0.042372  1
  Ti  Ti10  1  0.125923  0.207541  0.458562  1
  Ti  Ti11  1  0.624095  0.290854  0.541595  1
  Be  Be12  1  0.176747  0.823253  0.323253  1
  Al  Al13  1  0.320261  0.175904  0.821309  1
  Al  Al14  1  0.824096  0.321309  0.179739  1
  Al  Al15  1  0.678691  0.679739  0.675904  1
  Al  Al16  1  0.570982  0.429018  0.929018  1
  Al  Al17  1  0.417087  0.923761  0.560508  1
  Al  Al18  1  0.939492  0.582913  0.423761  1
  Al  Al19  1  0.076239  0.060508  0.082913  1
  O  O20  1  0.875872  0.124128  0.624128  1
  O  O21  1  0.623193  0.874919  0.125872  1
  O  O22  1  0.125081  0.625872  0.876807  1
  O  O23  1  0.374128  0.376807  0.374919  1
