# generated using pymatgen
data_Dy9Er8Lu3Pb16
_symmetry_space_group_name_H-M   'P 1'
_cell_length_a   8.15538733
_cell_length_b   8.23247896
_cell_length_c   15.55503213
_cell_angle_alpha   89.99861619
_cell_angle_beta   90.02029007
_cell_angle_gamma   90.08718496
_symmetry_Int_Tables_number   1
_chemical_formula_structural   Dy9Er8Lu3Pb16
_chemical_formula_sum   'Dy9 Er8 Lu3 Pb16'
_cell_volume   1044.34887594
_cell_formula_units_Z   1
loop_
 _symmetry_equiv_pos_site_id
 _symmetry_equiv_pos_as_xyz
  1  'x, y, z'
loop_
 _atom_site_type_symbol
 _atom_site_label
 _atom_site_symmetry_multiplicity
 _atom_site_fract_x
 _atom_site_fract_y
 _atom_site_fract_z
 _atom_site_occupancy
  Dy  Dy0  1  0.876292  0.659171  0.879139  1
  Dy  Dy1  1  0.536426  0.322932  0.900510  1
  Dy  Dy2  1  0.036454  0.176551  0.599349  1
  Dy  Dy3  1  0.463560  0.676742  0.400330  1
  Dy  Dy4  1  0.963496  0.823657  0.100078  1
  Dy  Dy5  1  0.463854  0.676545  0.099737  1
  Dy  Dy6  1  0.963496  0.823309  0.400374  1
  Dy  Dy7  1  0.536354  0.323019  0.599486  1
  Dy  Dy8  1  0.036367  0.176343  0.900357  1
  Er  Er9  1  0.376242  0.841404  0.878625  1
  Er  Er10  1  0.875885  0.658546  0.621169  1
  Er  Er11  1  0.623914  0.158378  0.378633  1
  Er  Er12  1  0.123711  0.341663  0.121362  1
  Er  Er13  1  0.623511  0.158397  0.121847  1
  Er  Er14  1  0.123773  0.341411  0.378561  1
  Er  Er15  1  0.376533  0.841688  0.621022  1
  Er  Er16  1  0.207991  0.504713  0.749799  1
  Lu  Lu17  1  0.707741  0.995142  0.749748  1
  Lu  Lu18  1  0.792061  0.494792  0.250219  1
  Lu  Lu19  1  0.291991  0.004859  0.250001  1
  Pb  Pb20  1  0.282442  0.034107  0.043135  1
  Pb  Pb21  1  0.782701  0.465953  0.456825  1
  Pb  Pb22  1  0.717357  0.965813  0.542857  1
  Pb  Pb23  1  0.219027  0.533526  0.957401  1
  Pb  Pb24  1  0.716592  0.967399  0.957111  1
  Pb  Pb25  1  0.217167  0.534157  0.542629  1
  Pb  Pb26  1  0.282579  0.034248  0.456795  1
  Pb  Pb27  1  0.782429  0.465417  0.043883  1
  Pb  Pb28  1  0.570985  0.627027  0.749610  1
  Pb  Pb29  1  0.070863  0.874502  0.749326  1
  Pb  Pb30  1  0.429342  0.373143  0.250151  1
  Pb  Pb31  1  0.929650  0.126794  0.250068  1
  Pb  Pb32  1  0.347548  0.153702  0.749975  1
  Pb  Pb33  1  0.847262  0.344819  0.749712  1
  Pb  Pb34  1  0.652151  0.845231  0.250079  1
  Pb  Pb35  1  0.152251  0.654900  0.250096  1
