# generated using pymatgen
data_Dy6Er2Ga12Ir3Au
_symmetry_space_group_name_H-M   'P 1'
_cell_length_a   7.10667200
_cell_length_b   8.88498362
_cell_length_c   8.86880992
_cell_angle_alpha   120.06034026
_cell_angle_beta   90.00111155
_cell_angle_gamma   90.00000114
_symmetry_Int_Tables_number   1
_chemical_formula_structural   Dy6Er2Ga12Ir3Au
_chemical_formula_sum   'Dy6 Er2 Ga12 Ir3 Au1'
_cell_volume   484.67932816
_cell_formula_units_Z   1
loop_
 _symmetry_equiv_pos_site_id
 _symmetry_equiv_pos_as_xyz
  1  'x, y, z'
loop_
 _atom_site_type_symbol
 _atom_site_label
 _atom_site_symmetry_multiplicity
 _atom_site_fract_x
 _atom_site_fract_y
 _atom_site_fract_z
 _atom_site_occupancy
  Dy  Dy0  1  0.757695  0.000019  0.000037  1
  Dy  Dy1  1  0.251294  0.999935  0.999869  1
  Dy  Dy2  1  0.748027  0.471877  0.528690  1
  Dy  Dy3  1  0.244432  0.518283  0.481514  1
  Dy  Dy4  1  0.748027  0.056814  0.528690  1
  Dy  Dy5  1  0.244432  0.963230  0.481514  1
  Er  Er6  1  0.748180  0.471123  0.942246  1
  Er  Er7  1  0.243765  0.518168  0.036336  1
  Ga  Ga8  1  0.948109  0.828565  0.170701  1
  Ga  Ga9  1  0.046920  0.169609  0.831217  1
  Ga  Ga10  1  0.948109  0.342137  0.170701  1
  Ga  Ga11  1  0.452033  0.169487  0.831619  1
  Ga  Ga12  1  0.046920  0.661606  0.831217  1
  Ga  Ga13  1  0.548478  0.835698  0.163727  1
  Ga  Ga14  1  0.948184  0.828840  0.657678  1
  Ga  Ga15  1  0.452033  0.662132  0.831619  1
  Ga  Ga16  1  0.046988  0.169299  0.338601  1
  Ga  Ga17  1  0.548478  0.328029  0.163727  1
  Ga  Ga18  1  0.452051  0.169038  0.338076  1
  Ga  Ga19  1  0.548457  0.835920  0.671840  1
  Ir  Ir20  1  0.981163  0.665891  0.331781  1
  Ir  Ir21  1  0.032466  0.334096  0.668192  1
  Ir  Ir22  1  0.467286  0.334148  0.668297  1
  Au  Au23  1  0.546470  0.666056  0.332110  1
