# generated using pymatgen
data_Nd2MgScSn2
_symmetry_space_group_name_H-M   'P 1'
_cell_length_a   8.78154375
_cell_length_b   8.78154387
_cell_length_c   8.78154367
_cell_angle_alpha   150.31952684
_cell_angle_beta   149.74648327
_cell_angle_gamma   42.89478487
_symmetry_Int_Tables_number   1
_chemical_formula_structural   Nd2MgScSn2
_chemical_formula_sum   'Nd2 Mg1 Sc1 Sn2'
_cell_volume   168.50973926
_cell_formula_units_Z   1
loop_
 _symmetry_equiv_pos_site_id
 _symmetry_equiv_pos_as_xyz
  1  'x, y, z'
loop_
 _atom_site_type_symbol
 _atom_site_label
 _atom_site_symmetry_multiplicity
 _atom_site_fract_x
 _atom_site_fract_y
 _atom_site_fract_z
 _atom_site_occupancy
  Nd  Nd0  1  0.669355  0.669355  0.000000  1
  Nd  Nd1  1  0.330645  0.330645  0.000000  1
  Mg  Mg2  1  0.500000  0.000000  0.500000  1
  Sc  Sc3  1  0.000000  0.500000  0.500000  1
  Sn  Sn4  1  0.871073  0.871073  0.000000  1
  Sn  Sn5  1  0.128927  0.128927  0.000000  1
