# generated using pymatgen
data_La5Nd3(YSn4)2
_symmetry_space_group_name_H-M   'P 1'
_cell_length_a   8.34909700
_cell_length_b   8.46573125
_cell_length_c   16.11036400
_cell_angle_alpha   90.06962885
_cell_angle_beta   90.00000000
_cell_angle_gamma   90.00000000
_symmetry_Int_Tables_number   1
_chemical_formula_structural   La5Nd3(YSn4)2
_chemical_formula_sum   'La10 Nd6 Y4 Sn16'
_cell_volume   1138.69920266
_cell_formula_units_Z   2
loop_
 _symmetry_equiv_pos_site_id
 _symmetry_equiv_pos_as_xyz
  1  'x, y, z'
loop_
 _atom_site_type_symbol
 _atom_site_label
 _atom_site_symmetry_multiplicity
 _atom_site_fract_x
 _atom_site_fract_y
 _atom_site_fract_z
 _atom_site_occupancy
  La  La0  1  0.367923  0.837703  0.619600  1
  La  La1  1  0.867923  0.662297  0.880400  1
  La  La2  1  0.519844  0.318839  0.902127  1
  La  La3  1  0.019844  0.181161  0.597873  1
  La  La4  1  0.480286  0.680931  0.401701  1
  La  La5  1  0.980286  0.819069  0.098299  1
  La  La6  1  0.480116  0.680817  0.098216  1
  La  La7  1  0.980116  0.819183  0.401784  1
  La  La8  1  0.519798  0.319238  0.597913  1
  La  La9  1  0.019798  0.180762  0.902087  1
  Nd  Nd10  1  0.366640  0.838323  0.879613  1
  Nd  Nd11  1  0.866640  0.661677  0.620387  1
  Nd  Nd12  1  0.632907  0.161296  0.379393  1
  Nd  Nd13  1  0.132907  0.338704  0.120607  1
  Nd  Nd14  1  0.632737  0.161612  0.121222  1
  Nd  Nd15  1  0.132737  0.338388  0.378778  1
  Y  Y16  1  0.200265  0.501918  0.750138  1
  Y  Y17  1  0.700265  0.998082  0.749862  1
  Y  Y18  1  0.799936  0.497646  0.250116  1
  Y  Y19  1  0.299936  0.002354  0.249884  1
  Sn  Sn20  1  0.292923  0.035487  0.044654  1
  Sn  Sn21  1  0.792923  0.464513  0.455346  1
  Sn  Sn22  1  0.710310  0.965806  0.544432  1
  Sn  Sn23  1  0.210310  0.534194  0.955568  1
  Sn  Sn24  1  0.704682  0.967386  0.955577  1
  Sn  Sn25  1  0.204682  0.532614  0.544423  1
  Sn  Sn26  1  0.292592  0.036472  0.453635  1
  Sn  Sn27  1  0.792592  0.463528  0.046365  1
  Sn  Sn28  1  0.565193  0.616560  0.749661  1
  Sn  Sn29  1  0.065193  0.883440  0.750339  1
  Sn  Sn30  1  0.434765  0.381599  0.249986  1
  Sn  Sn31  1  0.934765  0.118401  0.250014  1
  Sn  Sn32  1  0.324291  0.145341  0.750593  1
  Sn  Sn33  1  0.824291  0.354659  0.749407  1
  Sn  Sn34  1  0.674789  0.855838  0.250025  1
  Sn  Sn35  1  0.174789  0.644162  0.249975  1
