# generated using pymatgen
data_ThRe6AuO24
_symmetry_space_group_name_H-M   'P 1'
_cell_length_a   10.59481300
_cell_length_b   10.59481307
_cell_length_c   6.16068300
_cell_angle_alpha   90.00000000
_cell_angle_beta   90.00000000
_cell_angle_gamma   119.99999749
_symmetry_Int_Tables_number   1
_chemical_formula_structural   ThRe6AuO24
_chemical_formula_sum   'Th1 Re6 Au1 O24'
_cell_volume   598.88867370
_cell_formula_units_Z   1
loop_
 _symmetry_equiv_pos_site_id
 _symmetry_equiv_pos_as_xyz
  1  'x, y, z'
loop_
 _atom_site_type_symbol
 _atom_site_label
 _atom_site_symmetry_multiplicity
 _atom_site_fract_x
 _atom_site_fract_y
 _atom_site_fract_z
 _atom_site_occupancy
  Th  Th0  1  0.666667  0.333333  0.750000  1
  Re  Re1  1  0.092822  0.408704  0.750000  1
  Re  Re2  1  0.390561  0.287476  0.250000  1
  Re  Re3  1  0.591296  0.684116  0.750000  1
  Re  Re4  1  0.896914  0.609439  0.250000  1
  Re  Re5  1  0.315884  0.907178  0.750000  1
  Re  Re6  1  0.712524  0.103086  0.250000  1
  Au  Au7  1  0.333333  0.666667  0.250000  1
  O  O8  1  0.482430  0.640879  0.515218  1
  O  O9  1  0.359121  0.841552  0.515218  1
  O  O10  1  0.819699  0.719225  0.250000  1
  O  O11  1  0.131665  0.849792  0.750000  1
  O  O12  1  0.280775  0.100474  0.250000  1
  O  O13  1  0.150208  0.281873  0.750000  1
  O  O14  1  0.505064  0.342900  0.016249  1
  O  O15  1  0.899526  0.180301  0.250000  1
  O  O16  1  0.084104  0.718632  0.250000  1
  O  O17  1  0.158448  0.517570  0.984782  1
  O  O18  1  0.158448  0.517570  0.515218  1
  O  O19  1  0.899699  0.319331  0.750000  1
  O  O20  1  0.281368  0.365473  0.250000  1
  O  O21  1  0.680669  0.580369  0.750000  1
  O  O22  1  0.837837  0.494936  0.483751  1
  O  O23  1  0.419631  0.100301  0.750000  1
  O  O24  1  0.657100  0.162163  0.016249  1
  O  O25  1  0.482430  0.640879  0.984782  1
  O  O26  1  0.359121  0.841552  0.984782  1
  O  O27  1  0.657100  0.162163  0.483751  1
  O  O28  1  0.505064  0.342900  0.483751  1
  O  O29  1  0.837837  0.494936  0.016249  1
  O  O30  1  0.718127  0.868335  0.750000  1
  O  O31  1  0.634527  0.915896  0.250000  1
