# generated using pymatgen
data_Eu3Y(SiPd2)4
_symmetry_space_group_name_H-M   'P 1'
_cell_length_a   7.58174677
_cell_length_b   6.99194500
_cell_length_c   5.67774965
_cell_angle_alpha   90.00000000
_cell_angle_beta   89.94671156
_cell_angle_gamma   90.00000000
_symmetry_Int_Tables_number   1
_chemical_formula_structural   Eu3Y(SiPd2)4
_chemical_formula_sum   'Eu3 Y1 Si4 Pd8'
_cell_volume   300.98394476
_cell_formula_units_Z   1
loop_
 _symmetry_equiv_pos_site_id
 _symmetry_equiv_pos_as_xyz
  1  'x, y, z'
loop_
 _atom_site_type_symbol
 _atom_site_label
 _atom_site_symmetry_multiplicity
 _atom_site_fract_x
 _atom_site_fract_y
 _atom_site_fract_z
 _atom_site_occupancy
  Eu  Eu0  1  0.027891  0.249999  0.136310  1
  Eu  Eu1  1  0.471908  0.750001  0.634410  1
  Eu  Eu2  1  0.527386  0.249999  0.362967  1
  Y  Y3  1  0.972270  0.750001  0.859246  1
  Si  Si4  1  0.375525  0.249999  0.859760  1
  Si  Si5  1  0.123628  0.750001  0.358993  1
  Si  Si6  1  0.875063  0.249999  0.640956  1
  Si  Si7  1  0.629239  0.750001  0.138312  1
  Pd  Pd8  1  0.166381  0.052239  0.605087  1
  Pd  Pd9  1  0.325581  0.945186  0.090695  1
  Pd  Pd10  1  0.675356  0.448266  0.903526  1
  Pd  Pd11  1  0.831226  0.554845  0.405217  1
  Pd  Pd12  1  0.831226  0.945155  0.405217  1
  Pd  Pd13  1  0.675356  0.051734  0.903526  1
  Pd  Pd14  1  0.325581  0.554814  0.090695  1
  Pd  Pd15  1  0.166381  0.447761  0.605087  1
