# generated using pymatgen
data_Pr15Nd5(IrPt2)4
_symmetry_space_group_name_H-M   'P 1'
_cell_length_a   11.51277431
_cell_length_b   11.51402409
_cell_length_c   6.56853415
_cell_angle_alpha   90.00654777
_cell_angle_beta   89.97670125
_cell_angle_gamma   89.98682304
_symmetry_Int_Tables_number   1
_chemical_formula_structural   Pr15Nd5(IrPt2)4
_chemical_formula_sum   'Pr15 Nd5 Ir4 Pt8'
_cell_volume   870.71401895
_cell_formula_units_Z   1
loop_
 _symmetry_equiv_pos_site_id
 _symmetry_equiv_pos_as_xyz
  1  'x, y, z'
loop_
 _atom_site_type_symbol
 _atom_site_label
 _atom_site_symmetry_multiplicity
 _atom_site_fract_x
 _atom_site_fract_y
 _atom_site_fract_z
 _atom_site_occupancy
  Pr  Pr0  1  0.294575  0.911074  0.873584  1
  Pr  Pr1  1  0.705326  0.089302  0.873482  1
  Pr  Pr2  1  0.705350  0.910701  0.373526  1
  Pr  Pr3  1  0.589301  0.794618  0.873607  1
  Pr  Pr4  1  0.588884  0.205373  0.373501  1
  Pr  Pr5  1  0.410483  0.794948  0.373538  1
  Pr  Pr6  1  0.410306  0.205248  0.873530  1
  Pr  Pr7  1  0.205475  0.410487  0.626269  1
  Pr  Pr8  1  0.205384  0.589325  0.126471  1
  Pr  Pr9  1  0.794598  0.410681  0.126528  1
  Pr  Pr10  1  0.794542  0.589252  0.626485  1
  Pr  Pr11  1  0.910647  0.705462  0.126482  1
  Pr  Pr12  1  0.910662  0.294592  0.626515  1
  Pr  Pr13  1  0.089392  0.705409  0.626452  1
  Pr  Pr14  1  0.089637  0.294347  0.126667  1
  Nd  Nd15  1  0.295541  0.089205  0.374358  1
  Nd  Nd16  1  0.000415  0.000124  0.499789  1
  Nd  Nd17  1  0.000070  0.000044  0.000052  1
  Nd  Nd18  1  0.499924  0.499894  0.000008  1
  Nd  Nd19  1  0.499961  0.500023  0.499915  1
  Ir  Ir20  1  0.499463  0.000206  0.114682  1
  Ir  Ir21  1  0.499273  0.000355  0.613320  1
  Ir  Ir22  1  0.000024  0.499990  0.886027  1
  Ir  Ir23  1  0.000028  0.499958  0.386056  1
  Pt  Pt24  1  0.847727  0.152202  0.249936  1
  Pt  Pt25  1  0.847733  0.847836  0.749997  1
  Pt  Pt26  1  0.152841  0.151902  0.748438  1
  Pt  Pt27  1  0.152545  0.848277  0.250362  1
  Pt  Pt28  1  0.652239  0.347782  0.749956  1
  Pt  Pt29  1  0.652249  0.652257  0.249923  1
  Pt  Pt30  1  0.347608  0.346879  0.250431  1
  Pt  Pt31  1  0.347798  0.652246  0.750112  1
