# generated using pymatgen
data_GdScB6Mo
_symmetry_space_group_name_H-M   'P 1'
_cell_length_a   3.54140800
_cell_length_b   9.16926500
_cell_length_c   11.57441200
_cell_angle_alpha   90.00000000
_cell_angle_beta   90.00000000
_cell_angle_gamma   90.00000000
_symmetry_Int_Tables_number   1
_chemical_formula_structural   GdScB6Mo
_chemical_formula_sum   'Gd4 Sc4 B24 Mo4'
_cell_volume   375.84556142
_cell_formula_units_Z   4
loop_
 _symmetry_equiv_pos_site_id
 _symmetry_equiv_pos_as_xyz
  1  'x, y, z'
loop_
 _atom_site_type_symbol
 _atom_site_label
 _atom_site_symmetry_multiplicity
 _atom_site_fract_x
 _atom_site_fract_y
 _atom_site_fract_z
 _atom_site_occupancy
  Gd  Gd0  1  0.500000  0.320923  0.414838  1
  Gd  Gd1  1  0.500000  0.679077  0.585162  1
  Gd  Gd2  1  0.500000  0.179077  0.914838  1
  Gd  Gd3  1  0.500000  0.820923  0.085162  1
  Sc  Sc4  1  0.500000  0.445099  0.128650  1
  Sc  Sc5  1  0.500000  0.554901  0.871350  1
  Sc  Sc6  1  0.500000  0.054901  0.628650  1
  Sc  Sc7  1  0.500000  0.945099  0.371350  1
  B  B8  1  0.000000  0.094473  0.474266  1
  B  B9  1  0.000000  0.905527  0.525734  1
  B  B10  1  0.000000  0.405527  0.974266  1
  B  B11  1  0.000000  0.594473  0.025734  1
  B  B12  1  0.000000  0.129111  0.319371  1
  B  B13  1  0.000000  0.870889  0.680629  1
  B  B14  1  0.000000  0.370889  0.819371  1
  B  B15  1  0.000000  0.629111  0.180629  1
  B  B16  1  0.000000  0.053256  0.066507  1
  B  B17  1  0.000000  0.946744  0.933493  1
  B  B18  1  0.000000  0.446744  0.566507  1
  B  B19  1  0.000000  0.553256  0.433493  1
  B  B20  1  0.000000  0.479929  0.285109  1
  B  B21  1  0.000000  0.520071  0.714891  1
  B  B22  1  0.000000  0.020071  0.785109  1
  B  B23  1  0.000000  0.979929  0.214891  1
  B  B24  1  0.000000  0.257360  0.080410  1
  B  B25  1  0.000000  0.742640  0.919590  1
  B  B26  1  0.000000  0.242640  0.580410  1
  B  B27  1  0.000000  0.757360  0.419590  1
  B  B28  1  0.000000  0.297976  0.236008  1
  B  B29  1  0.000000  0.702024  0.763992  1
  B  B30  1  0.000000  0.202024  0.736008  1
  B  B31  1  0.000000  0.797976  0.263992  1
  Mo  Mo32  1  0.500000  0.142260  0.181980  1
  Mo  Mo33  1  0.500000  0.857740  0.818020  1
  Mo  Mo34  1  0.500000  0.357740  0.681980  1
  Mo  Mo35  1  0.500000  0.642260  0.318020  1
