# generated using pymatgen
data_Rb2CdGeO4
_symmetry_space_group_name_H-M   'P 1'
_cell_length_a   6.06883000
_cell_length_b   6.00711267
_cell_length_c   10.40762175
_cell_angle_alpha   54.56822473
_cell_angle_beta   90.00000000
_cell_angle_gamma   90.00000000
_symmetry_Int_Tables_number   1
_chemical_formula_structural   Rb2CdGeO4
_chemical_formula_sum   'Rb4 Cd2 Ge2 O8'
_cell_volume   309.15529373
_cell_formula_units_Z   2
loop_
 _symmetry_equiv_pos_site_id
 _symmetry_equiv_pos_as_xyz
  1  'x, y, z'
loop_
 _atom_site_type_symbol
 _atom_site_label
 _atom_site_symmetry_multiplicity
 _atom_site_fract_x
 _atom_site_fract_y
 _atom_site_fract_z
 _atom_site_occupancy
  Rb  Rb0  1  0.203834  0.493982  0.997028  1
  Rb  Rb1  1  0.699728  0.233384  0.251890  1
  Rb  Rb2  1  0.796166  0.493982  0.497028  1
  Rb  Rb3  1  0.300272  0.233384  0.751890  1
  Cd  Cd4  1  0.791011  0.998472  0.001959  1
  Cd  Cd5  1  0.208989  0.998472  0.501959  1
  Ge  Ge6  1  0.294481  0.756843  0.249753  1
  Ge  Ge7  1  0.705519  0.756843  0.749753  1
  O  O8  1  0.739802  0.006548  0.790413  1
  O  O9  1  0.260198  0.006548  0.290413  1
  O  O10  1  0.225002  0.430352  0.424146  1
  O  O11  1  0.774998  0.430352  0.924146  1
  O  O12  1  0.137698  0.865163  0.077158  1
  O  O13  1  0.421598  0.741256  0.707654  1
  O  O14  1  0.578402  0.741256  0.207654  1
  O  O15  1  0.862302  0.865163  0.577158  1
