# generated using pymatgen
data_Pr4Te7Pt
_symmetry_space_group_name_H-M   'P 1'
_cell_length_a   4.28639810
_cell_length_b   8.84175473
_cell_length_c   9.18328500
_cell_angle_alpha   90.03560187
_cell_angle_beta   89.98739503
_cell_angle_gamma   89.99604199
_symmetry_Int_Tables_number   1
_chemical_formula_structural   Pr4Te7Pt
_chemical_formula_sum   'Pr4 Te7 Pt1'
_cell_volume   348.03981952
_cell_formula_units_Z   1
loop_
 _symmetry_equiv_pos_site_id
 _symmetry_equiv_pos_as_xyz
  1  'x, y, z'
loop_
 _atom_site_type_symbol
 _atom_site_label
 _atom_site_symmetry_multiplicity
 _atom_site_fract_x
 _atom_site_fract_y
 _atom_site_fract_z
 _atom_site_occupancy
  Pr  Pr0  1  0.250434  0.125472  0.709643  1
  Pr  Pr1  1  0.250463  0.625622  0.744283  1
  Pr  Pr2  1  0.749865  0.872581  0.268963  1
  Pr  Pr3  1  0.749808  0.376891  0.269505  1
  Te  Te4  1  0.249462  0.320426  0.998800  1
  Te  Te5  1  0.750142  0.624542  0.005540  1
  Te  Te6  1  0.750401  0.871128  0.628747  1
  Te  Te7  1  0.249974  0.624916  0.378677  1
  Te  Te8  1  0.249597  0.929116  0.998218  1
  Te  Te9  1  0.750476  0.379804  0.629312  1
  Te  Te10  1  0.249955  0.124746  0.364583  1
  Pt  Pt11  1  0.749424  0.124757  0.003729  1
