# generated using pymatgen
data_Sn2Pd3Rh
_symmetry_space_group_name_H-M   'P 1'
_cell_length_a   4.26747900
_cell_length_b   5.83342400
_cell_length_c   8.22903200
_cell_angle_alpha   90.00000000
_cell_angle_beta   90.00000000
_cell_angle_gamma   90.00000000
_symmetry_Int_Tables_number   1
_chemical_formula_structural   Sn2Pd3Rh
_chemical_formula_sum   'Sn4 Pd6 Rh2'
_cell_volume   204.85364125
_cell_formula_units_Z   2
loop_
 _symmetry_equiv_pos_site_id
 _symmetry_equiv_pos_as_xyz
  1  'x, y, z'
loop_
 _atom_site_type_symbol
 _atom_site_label
 _atom_site_symmetry_multiplicity
 _atom_site_fract_x
 _atom_site_fract_y
 _atom_site_fract_z
 _atom_site_occupancy
  Sn  Sn0  1  0.750000  0.298501  0.612917  1
  Sn  Sn1  1  0.750000  0.798501  0.887083  1
  Sn  Sn2  1  0.250000  0.698667  0.397050  1
  Sn  Sn3  1  0.250000  0.198667  0.102950  1
  Pd  Pd4  1  0.250000  0.665134  0.067687  1
  Pd  Pd5  1  0.750000  0.947227  0.212988  1
  Pd  Pd6  1  0.750000  0.447227  0.287012  1
  Pd  Pd7  1  0.750000  0.341130  0.934853  1
  Pd  Pd8  1  0.750000  0.841130  0.565147  1
  Pd  Pd9  1  0.250000  0.165134  0.432313  1
  Rh  Rh10  1  0.250000  0.549342  0.709733  1
  Rh  Rh11  1  0.250000  0.049342  0.790267  1
