# generated using pymatgen
data_Dy20Bi8OsAu3
_symmetry_space_group_name_H-M   'P 1'
_cell_length_a   8.08005123
_cell_length_b   9.18904500
_cell_length_c   12.33124290
_cell_angle_alpha   90.00000000
_cell_angle_beta   90.11924072
_cell_angle_gamma   90.00000000
_symmetry_Int_Tables_number   1
_chemical_formula_structural   Dy20Bi8OsAu3
_chemical_formula_sum   'Dy20 Bi8 Os1 Au3'
_cell_volume   915.56757726
_cell_formula_units_Z   1
loop_
 _symmetry_equiv_pos_site_id
 _symmetry_equiv_pos_as_xyz
  1  'x, y, z'
loop_
 _atom_site_type_symbol
 _atom_site_label
 _atom_site_symmetry_multiplicity
 _atom_site_fract_x
 _atom_site_fract_y
 _atom_site_fract_z
 _atom_site_occupancy
  Dy  Dy0  1  0.840895  0.750000  0.793842  1
  Dy  Dy1  1  0.167413  0.250000  0.215299  1
  Dy  Dy2  1  0.334106  0.250000  0.715004  1
  Dy  Dy3  1  0.672353  0.750000  0.281588  1
  Dy  Dy4  1  0.366407  0.750000  0.700588  1
  Dy  Dy5  1  0.634922  0.250000  0.297254  1
  Dy  Dy6  1  0.864952  0.250000  0.795958  1
  Dy  Dy7  1  0.124093  0.750000  0.196232  1
  Dy  Dy8  1  0.957502  0.750000  0.500828  1
  Dy  Dy9  1  0.040709  0.250000  0.501924  1
  Dy  Dy10  1  0.458109  0.250000  0.001190  1
  Dy  Dy11  1  0.552167  0.750000  0.000117  1
  Dy  Dy12  1  0.681390  0.052844  0.566650  1
  Dy  Dy13  1  0.315412  0.948579  0.431941  1
  Dy  Dy14  1  0.176762  0.942210  0.936285  1
  Dy  Dy15  1  0.315412  0.551421  0.431941  1
  Dy  Dy16  1  0.820482  0.034875  0.065683  1
  Dy  Dy17  1  0.681390  0.447156  0.566650  1
  Dy  Dy18  1  0.820482  0.465125  0.065683  1
  Dy  Dy19  1  0.176762  0.557790  0.936285  1
  Bi  Bi20  1  0.567503  0.491024  0.826379  1
  Bi  Bi21  1  0.430995  0.509046  0.173689  1
  Bi  Bi22  1  0.070276  0.508709  0.673522  1
  Bi  Bi23  1  0.430995  0.990954  0.173689  1
  Bi  Bi24  1  0.930859  0.489828  0.328845  1
  Bi  Bi25  1  0.567503  0.008976  0.826379  1
  Bi  Bi26  1  0.930859  0.010172  0.328845  1
  Bi  Bi27  1  0.070276  0.991291  0.673522  1
  Os  Os28  1  0.919549  0.750000  0.014615  1
  Au  Au29  1  0.585083  0.750000  0.512830  1
  Au  Au30  1  0.411656  0.250000  0.482369  1
  Au  Au31  1  0.082725  0.250000  0.984376  1
