# generated using pymatgen
data_Ti5Be6SiRh12
_symmetry_space_group_name_H-M   'P 1'
_cell_length_a   4.16873400
_cell_length_b   5.91960400
_cell_length_c   12.47062100
_cell_angle_alpha   90.00001887
_cell_angle_beta   89.99749959
_cell_angle_gamma   90.00003310
_symmetry_Int_Tables_number   1
_chemical_formula_structural   Ti5Be6SiRh12
_chemical_formula_sum   'Ti5 Be6 Si1 Rh12'
_cell_volume   307.74068756
_cell_formula_units_Z   1
loop_
 _symmetry_equiv_pos_site_id
 _symmetry_equiv_pos_as_xyz
  1  'x, y, z'
loop_
 _atom_site_type_symbol
 _atom_site_label
 _atom_site_symmetry_multiplicity
 _atom_site_fract_x
 _atom_site_fract_y
 _atom_site_fract_z
 _atom_site_occupancy
  Ti  Ti0  1  0.000033  0.000000  0.996360  1
  Ti  Ti1  1  0.499722  0.500000  0.165302  1
  Ti  Ti2  1  0.999724  0.000000  0.333333  1
  Ti  Ti3  1  0.499991  0.500000  0.501362  1
  Ti  Ti4  1  0.000276  0.000001  0.670306  1
  Be  Be5  1  0.999955  0.499998  0.004529  1
  Be  Be6  1  0.499714  0.000001  0.163564  1
  Be  Be7  1  0.999743  0.500000  0.333331  1
  Be  Be8  1  0.499996  0.000000  0.503103  1
  Be  Be9  1  0.000296  0.500001  0.662146  1
  Be  Be10  1  0.500261  0.000000  0.833332  1
  Si  Si11  1  0.500257  0.500000  0.833333  1
  Rh  Rh12  1  0.500037  0.256642  0.993438  1
  Rh  Rh13  1  0.500038  0.743357  0.993437  1
  Rh  Rh14  1  0.999754  0.249002  0.165068  1
  Rh  Rh15  1  0.999754  0.750998  0.165069  1
  Rh  Rh16  1  0.499758  0.249949  0.333333  1
  Rh  Rh17  1  0.499758  0.750051  0.333333  1
  Rh  Rh18  1  0.999988  0.249004  0.501598  1
  Rh  Rh19  1  0.999988  0.750998  0.501598  1
  Rh  Rh20  1  0.500251  0.256642  0.673229  1
  Rh  Rh21  1  0.500252  0.743360  0.673229  1
  Rh  Rh22  1  0.000225  0.262705  0.833333  1
  Rh  Rh23  1  0.000228  0.737296  0.833333  1
