# generated using pymatgen
data_HfPd(SeO3)4
_symmetry_space_group_name_H-M   'P 1'
_cell_length_a   8.24514600
_cell_length_b   8.49238524
_cell_length_c   8.22572984
_cell_angle_alpha   91.83418147
_cell_angle_beta   90.00000000
_cell_angle_gamma   90.00000000
_symmetry_Int_Tables_number   1
_chemical_formula_structural   HfPd(SeO3)4
_chemical_formula_sum   'Hf2 Pd2 Se8 O24'
_cell_volume   575.67836489
_cell_formula_units_Z   2
loop_
 _symmetry_equiv_pos_site_id
 _symmetry_equiv_pos_as_xyz
  1  'x, y, z'
loop_
 _atom_site_type_symbol
 _atom_site_label
 _atom_site_symmetry_multiplicity
 _atom_site_fract_x
 _atom_site_fract_y
 _atom_site_fract_z
 _atom_site_occupancy
  Hf  Hf0  1  0.000000  0.500000  0.000000  1
  Hf  Hf1  1  0.500000  0.500000  0.500000  1
  Pd  Pd2  1  0.000000  0.000000  0.500000  1
  Pd  Pd3  1  0.500000  0.000000  0.000000  1
  Se  Se4  1  0.346185  0.699460  0.171653  1
  Se  Se5  1  0.846185  0.300540  0.328347  1
  Se  Se6  1  0.693395  0.849220  0.682624  1
  Se  Se7  1  0.193395  0.150780  0.817376  1
  Se  Se8  1  0.653815  0.300540  0.828347  1
  Se  Se9  1  0.153815  0.699460  0.671653  1
  Se  Se10  1  0.306605  0.150780  0.317376  1
  Se  Se11  1  0.806605  0.849220  0.182624  1
  O  O12  1  0.233552  0.576644  0.046047  1
  O  O13  1  0.733552  0.423356  0.453953  1
  O  O14  1  0.757126  0.986635  0.539534  1
  O  O15  1  0.257126  0.013365  0.960466  1
  O  O16  1  0.529785  0.964704  0.755940  1
  O  O17  1  0.469048  0.563189  0.260341  1
  O  O18  1  0.969048  0.436811  0.239659  1
  O  O19  1  0.029785  0.035296  0.744060  1
  O  O20  1  0.990223  0.235362  0.469743  1
  O  O21  1  0.586001  0.725122  0.554712  1
  O  O22  1  0.490223  0.764638  0.030257  1
  O  O23  1  0.086001  0.274878  0.945288  1
  O  O24  1  0.766448  0.423356  0.953953  1
  O  O25  1  0.266448  0.576644  0.546047  1
  O  O26  1  0.242874  0.013365  0.460466  1
  O  O27  1  0.742874  0.986635  0.039534  1
  O  O28  1  0.470215  0.035296  0.244060  1
  O  O29  1  0.530952  0.436811  0.739659  1
  O  O30  1  0.030952  0.563189  0.760341  1
  O  O31  1  0.970215  0.964704  0.255940  1
  O  O32  1  0.009777  0.764638  0.530257  1
  O  O33  1  0.413999  0.274878  0.445288  1
  O  O34  1  0.509777  0.235362  0.969743  1
  O  O35  1  0.913999  0.725122  0.054712  1
