# generated using pymatgen
data_LiCr(IO3)4
_symmetry_space_group_name_H-M   'P 1'
_cell_length_a   4.89548600
_cell_length_b   6.43087530
_cell_length_c   8.53840450
_cell_angle_alpha   84.81635805
_cell_angle_beta   89.75570865
_cell_angle_gamma   88.35476232
_symmetry_Int_Tables_number   1
_chemical_formula_structural   LiCr(IO3)4
_chemical_formula_sum   'Li1 Cr1 I4 O12'
_cell_volume   267.59817033
_cell_formula_units_Z   1
loop_
 _symmetry_equiv_pos_site_id
 _symmetry_equiv_pos_as_xyz
  1  'x, y, z'
loop_
 _atom_site_type_symbol
 _atom_site_label
 _atom_site_symmetry_multiplicity
 _atom_site_fract_x
 _atom_site_fract_y
 _atom_site_fract_z
 _atom_site_occupancy
  Li  Li0  1  0.500000  0.000000  0.500000  1
  Cr  Cr1  1  0.500000  0.500000  0.500000  1
  I  I2  1  0.515709  0.800570  0.161616  1
  I  I3  1  0.010475  0.289365  0.248451  1
  I  I4  1  0.989525  0.710635  0.751549  1
  I  I5  1  0.484291  0.199430  0.838384  1
  O  O6  1  0.751193  0.619098  0.073366  1
  O  O7  1  0.702277  0.044023  0.111689  1
  O  O8  1  0.237369  0.491041  0.318605  1
  O  O9  1  0.207715  0.058305  0.321616  1
  O  O10  1  0.641422  0.753447  0.370645  1
  O  O11  1  0.749441  0.285131  0.406116  1
  O  O12  1  0.250559  0.714869  0.593884  1
  O  O13  1  0.358578  0.246553  0.629355  1
  O  O14  1  0.792285  0.941695  0.678384  1
  O  O15  1  0.762631  0.508959  0.681395  1
  O  O16  1  0.297723  0.955977  0.888311  1
  O  O17  1  0.248807  0.380902  0.926634  1
