# generated using pymatgen
data_Li4ZnGe2Se7
_symmetry_space_group_name_H-M   'P 1'
_cell_length_a   9.66865245
_cell_length_b   9.66865146
_cell_length_c   10.73675035
_cell_angle_alpha   86.03159584
_cell_angle_beta   86.03159718
_cell_angle_gamma   42.67460804
_symmetry_Int_Tables_number   1
_chemical_formula_structural   Li4ZnGe2Se7
_chemical_formula_sum   'Li8 Zn2 Ge4 Se14'
_cell_volume   678.46265083
_cell_formula_units_Z   2
loop_
 _symmetry_equiv_pos_site_id
 _symmetry_equiv_pos_as_xyz
  1  'x, y, z'
loop_
 _atom_site_type_symbol
 _atom_site_label
 _atom_site_symmetry_multiplicity
 _atom_site_fract_x
 _atom_site_fract_y
 _atom_site_fract_z
 _atom_site_occupancy
  Li  Li0  1  0.562388  0.277442  0.293470  1
  Li  Li1  1  0.277442  0.562388  0.793470  1
  Li  Li2  1  0.025704  0.678501  0.137293  1
  Li  Li3  1  0.678501  0.025704  0.637293  1
  Li  Li4  1  0.978426  0.305141  0.219441  1
  Li  Li5  1  0.305141  0.978426  0.719441  1
  Li  Li6  1  0.896738  0.526561  0.855775  1
  Li  Li7  1  0.526561  0.896738  0.355775  1
  Zn  Zn8  1  0.814437  0.172762  0.941918  1
  Zn  Zn9  1  0.172762  0.814437  0.441918  1
  Ge  Ge10  1  0.453274  0.114479  0.019219  1
  Ge  Ge11  1  0.114479  0.453274  0.519219  1
  Ge  Ge12  1  0.394059  0.742688  0.080044  1
  Ge  Ge13  1  0.742688  0.394059  0.580044  1
  Se  Se14  1  0.511999  0.844236  0.927962  1
  Se  Se15  1  0.844236  0.511999  0.427962  1
  Se  Se16  1  0.681146  0.387025  0.127820  1
  Se  Se17  1  0.387025  0.681146  0.627820  1
  Se  Se18  1  0.270898  0.923185  0.268674  1
  Se  Se19  1  0.923185  0.270898  0.768674  1
  Se  Se20  1  0.137730  0.802333  0.984360  1
  Se  Se21  1  0.802333  0.137730  0.484360  1
  Se  Se22  1  0.655176  0.981908  0.193908  1
  Se  Se23  1  0.981908  0.655176  0.693908  1
  Se  Se24  1  0.099416  0.394391  0.050490  1
  Se  Se25  1  0.394391  0.099416  0.550490  1
  Se  Se26  1  0.578355  0.183319  0.852647  1
  Se  Se27  1  0.183319  0.578355  0.352647  1
