# generated using pymatgen
data_SrCe2Pa7O20
_symmetry_space_group_name_H-M   'P 1'
_cell_length_a   6.72806642
_cell_length_b   7.76299272
_cell_length_c   8.66471833
_cell_angle_alpha   103.10653907
_cell_angle_beta   97.14899059
_cell_angle_gamma   106.77850249
_symmetry_Int_Tables_number   1
_chemical_formula_structural   SrCe2Pa7O20
_chemical_formula_sum   'Sr1 Ce2 Pa7 O20'
_cell_volume   413.15962576
_cell_formula_units_Z   1
loop_
 _symmetry_equiv_pos_site_id
 _symmetry_equiv_pos_as_xyz
  1  'x, y, z'
loop_
 _atom_site_type_symbol
 _atom_site_label
 _atom_site_symmetry_multiplicity
 _atom_site_fract_x
 _atom_site_fract_y
 _atom_site_fract_z
 _atom_site_occupancy
  Sr  Sr0  1  0.003179  0.000781  0.001524  1
  Ce  Ce1  1  0.394702  0.297289  0.799065  1
  Ce  Ce2  1  0.201133  0.901495  0.399808  1
  Pa  Pa3  1  0.799771  0.601820  0.601742  1
  Pa  Pa4  1  0.598733  0.198150  0.198018  1
  Pa  Pa5  1  0.998720  0.500067  0.999316  1
  Pa  Pa6  1  0.797796  0.100199  0.601558  1
  Pa  Pa7  1  0.402046  0.801604  0.801414  1
  Pa  Pa8  1  0.200212  0.399706  0.399376  1
  Pa  Pa9  1  0.603814  0.700277  0.198593  1
  O  O10  1  0.843547  0.327010  0.451298  1
  O  O11  1  0.635412  0.918363  0.055126  1
  O  O12  1  0.941052  0.752347  0.150833  1
  O  O13  1  0.448159  0.529263  0.643796  1
  O  O14  1  0.842501  0.822520  0.452620  1
  O  O15  1  0.648649  0.424542  0.054395  1
  O  O16  1  0.749244  0.379121  0.745824  1
  O  O17  1  0.274167  0.145890  0.262947  1
  O  O18  1  0.945163  0.293290  0.162190  1
  O  O19  1  0.457980  0.019414  0.650272  1
  O  O20  1  0.564850  0.977786  0.350261  1
  O  O21  1  0.053961  0.707087  0.839423  1
  O  O22  1  0.738147  0.865853  0.738572  1
  O  O23  1  0.351554  0.582384  0.954754  1
  O  O24  1  0.260331  0.617440  0.247179  1
  O  O25  1  0.557872  0.480700  0.352071  1
  O  O26  1  0.133413  0.179896  0.544607  1
  O  O27  1  0.035078  0.239383  0.843792  1
  O  O28  1  0.372626  0.070602  0.950109  1
  O  O29  1  0.146189  0.665718  0.549520  1
