# generated using pymatgen
data_Y4Er8Tc3Os
_symmetry_space_group_name_H-M   'P 1'
_cell_length_a   6.26084308
_cell_length_b   7.45098553
_cell_length_c   9.03183700
_cell_angle_alpha   90.00000000
_cell_angle_beta   90.00000000
_cell_angle_gamma   90.10093158
_symmetry_Int_Tables_number   1
_chemical_formula_structural   Y4Er8Tc3Os
_chemical_formula_sum   'Y4 Er8 Tc3 Os1'
_cell_volume   421.32958599
_cell_formula_units_Z   1
loop_
 _symmetry_equiv_pos_site_id
 _symmetry_equiv_pos_as_xyz
  1  'x, y, z'
loop_
 _atom_site_type_symbol
 _atom_site_label
 _atom_site_symmetry_multiplicity
 _atom_site_fract_x
 _atom_site_fract_y
 _atom_site_fract_z
 _atom_site_occupancy
  Y  Y0  1  0.876444  0.540658  0.250000  1
  Y  Y1  1  0.625492  0.039160  0.250000  1
  Y  Y2  1  0.126177  0.458421  0.750000  1
  Y  Y3  1  0.375832  0.960150  0.750000  1
  Er  Er4  1  0.340144  0.674455  0.061346  1
  Er  Er5  1  0.156961  0.175289  0.437680  1
  Er  Er6  1  0.659119  0.326453  0.562854  1
  Er  Er7  1  0.840751  0.823656  0.936930  1
  Er  Er8  1  0.659119  0.326453  0.937146  1
  Er  Er9  1  0.840751  0.823656  0.563070  1
  Er  Er10  1  0.340144  0.674455  0.438654  1
  Er  Er11  1  0.156961  0.175289  0.062320  1
  Tc  Tc12  1  0.048114  0.884061  0.250000  1
  Tc  Tc13  1  0.455527  0.385226  0.250000  1
  Tc  Tc14  1  0.953463  0.115726  0.750000  1
  Os  Os15  1  0.545002  0.616890  0.750000  1
