# generated using pymatgen
data_Dy4Tm8In2FeTc2
_symmetry_space_group_name_H-M   'P 1'
_cell_length_a   8.35240076
_cell_length_b   8.35240195
_cell_length_c   8.35240033
_cell_angle_alpha   108.69188662
_cell_angle_beta   108.69188401
_cell_angle_gamma   111.04139172
_symmetry_Int_Tables_number   1
_chemical_formula_structural   Dy4Tm8In2FeTc2
_chemical_formula_sum   'Dy4 Tm8 In2 Fe1 Tc2'
_cell_volume   448.29787898
_cell_formula_units_Z   1
loop_
 _symmetry_equiv_pos_site_id
 _symmetry_equiv_pos_as_xyz
  1  'x, y, z'
loop_
 _atom_site_type_symbol
 _atom_site_label
 _atom_site_symmetry_multiplicity
 _atom_site_fract_x
 _atom_site_fract_y
 _atom_site_fract_z
 _atom_site_occupancy
  Dy  Dy0  1  0.302871  0.302871  0.608587  1
  Dy  Dy1  1  0.694284  0.694284  0.391413  1
  Dy  Dy2  1  0.694284  0.302871  0.000000  1
  Dy  Dy3  1  0.302871  0.694284  0.000000  1
  Tm  Tm4  1  0.189739  0.429542  0.239802  1
  Tm  Tm5  1  0.807402  0.570602  0.763200  1
  Tm  Tm6  1  0.189739  0.949936  0.760198  1
  Tm  Tm7  1  0.949936  0.189739  0.760198  1
  Tm  Tm8  1  0.807402  0.044202  0.236800  1
  Tm  Tm9  1  0.044202  0.807402  0.236800  1
  Tm  Tm10  1  0.429542  0.189739  0.239802  1
  Tm  Tm11  1  0.570602  0.807402  0.763200  1
  In  In12  1  0.998568  0.498568  0.500000  1
  In  In13  1  0.498568  0.998568  0.500000  1
  Fe  Fe14  1  0.631296  0.631296  0.000000  1
  Tc  Tc15  1  0.388115  0.388115  0.000000  1
  Tc  Tc16  1  0.000579  0.000579  0.000000  1
