# generated using pymatgen
data_Nd4Er2Al24Os7Pt
_symmetry_space_group_name_H-M   'P 1'
_cell_length_a   8.90623987
_cell_length_b   8.90623936
_cell_length_c   9.61684681
_cell_angle_alpha   89.75262722
_cell_angle_beta   90.24737096
_cell_angle_gamma   120.25910781
_symmetry_Int_Tables_number   1
_chemical_formula_structural   Nd4Er2Al24Os7Pt
_chemical_formula_sum   'Nd4 Er2 Al24 Os7 Pt1'
_cell_volume   658.88079380
_cell_formula_units_Z   1
loop_
 _symmetry_equiv_pos_site_id
 _symmetry_equiv_pos_as_xyz
  1  'x, y, z'
loop_
 _atom_site_type_symbol
 _atom_site_label
 _atom_site_symmetry_multiplicity
 _atom_site_fract_x
 _atom_site_fract_y
 _atom_site_fract_z
 _atom_site_occupancy
  Nd  Nd0  1  0.189601  0.381968  0.251017  1
  Nd  Nd1  1  0.810399  0.618032  0.748983  1
  Nd  Nd2  1  0.618032  0.810399  0.251017  1
  Nd  Nd3  1  0.381968  0.189601  0.748983  1
  Er  Er4  1  0.197668  0.802332  0.251605  1
  Er  Er5  1  0.802332  0.197668  0.748395  1
  Al  Al6  1  0.331432  0.668568  0.016954  1
  Al  Al7  1  0.668568  0.331432  0.983046  1
  Al  Al8  1  0.666344  0.333656  0.513416  1
  Al  Al9  1  0.333656  0.666344  0.486584  1
  Al  Al10  1  0.161882  0.325892  0.577106  1
  Al  Al11  1  0.838118  0.674108  0.422894  1
  Al  Al12  1  0.674108  0.838118  0.577106  1
  Al  Al13  1  0.843637  0.675386  0.077493  1
  Al  Al14  1  0.325892  0.161882  0.422894  1
  Al  Al15  1  0.156363  0.324614  0.922507  1
  Al  Al16  1  0.163625  0.836375  0.572620  1
  Al  Al17  1  0.324614  0.156363  0.077493  1
  Al  Al18  1  0.836375  0.163625  0.427380  1
  Al  Al19  1  0.675386  0.843637  0.922507  1
  Al  Al20  1  0.836605  0.163395  0.072060  1
  Al  Al21  1  0.163395  0.836605  0.927940  1
  Al  Al22  1  0.560184  0.122257  0.248917  1
  Al  Al23  1  0.439816  0.877743  0.751083  1
  Al  Al24  1  0.877743  0.439816  0.248917  1
  Al  Al25  1  0.122257  0.560184  0.751083  1
  Al  Al26  1  0.563270  0.436730  0.251896  1
  Al  Al27  1  0.436730  0.563270  0.748104  1
  Al  Al28  1  0.004631  0.995369  0.250104  1
  Al  Al29  1  0.995369  0.004631  0.749896  1
  Os  Os30  1  0.500000  0.000000  0.000000  1
  Os  Os31  1  0.000000  0.500000  0.000000  1
  Os  Os32  1  0.500000  0.000000  0.500000  1
  Os  Os33  1  0.000000  0.500000  0.500000  1
  Os  Os34  1  0.500000  0.500000  0.500000  1
  Os  Os35  1  0.000000  0.000000  0.000000  1
  Os  Os36  1  0.000000  0.000000  0.500000  1
  Pt  Pt37  1  0.500000  0.500000  0.000000  1
