# generated using pymatgen
data_MnCr8Cu3Se16
_symmetry_space_group_name_H-M   'P 1'
_cell_length_a   12.79242934
_cell_length_b   12.79242916
_cell_length_c   12.79242911
_cell_angle_alpha   33.65744587
_cell_angle_beta   33.65744879
_cell_angle_gamma   33.65744695
_symmetry_Int_Tables_number   1
_chemical_formula_structural   MnCr8Cu3Se16
_chemical_formula_sum   'Mn1 Cr8 Cu3 Se16'
_cell_volume   572.85936974
_cell_formula_units_Z   1
loop_
 _symmetry_equiv_pos_site_id
 _symmetry_equiv_pos_as_xyz
  1  'x, y, z'
loop_
 _atom_site_type_symbol
 _atom_site_label
 _atom_site_symmetry_multiplicity
 _atom_site_fract_x
 _atom_site_fract_y
 _atom_site_fract_z
 _atom_site_occupancy
  Mn  Mn0  1  0.062465  0.062465  0.062465  1
  Cr  Cr1  1  0.751806  0.751806  0.751806  1
  Cr  Cr2  1  0.249476  0.249476  0.249476  1
  Cr  Cr3  1  0.003137  0.496831  0.496831  1
  Cr  Cr4  1  0.503816  0.999042  0.999042  1
  Cr  Cr5  1  0.496831  0.003137  0.496831  1
  Cr  Cr6  1  0.999042  0.503816  0.999042  1
  Cr  Cr7  1  0.496831  0.496831  0.003137  1
  Cr  Cr8  1  0.999042  0.999042  0.503816  1
  Cu  Cu9  1  0.562443  0.562443  0.562443  1
  Cu  Cu10  1  0.437512  0.437512  0.437512  1
  Cu  Cu11  1  0.937651  0.937651  0.937651  1
  Se  Se12  1  0.129846  0.129846  0.129846  1
  Se  Se13  1  0.629008  0.629008  0.629008  1
  Se  Se14  1  0.399114  0.860595  0.860595  1
  Se  Se15  1  0.894320  0.363282  0.363282  1
  Se  Se16  1  0.860595  0.399114  0.860595  1
  Se  Se17  1  0.363282  0.894320  0.363282  1
  Se  Se18  1  0.860595  0.860595  0.399114  1
  Se  Se19  1  0.363282  0.363282  0.894320  1
  Se  Se20  1  0.370776  0.370776  0.370776  1
  Se  Se21  1  0.871355  0.871355  0.871355  1
  Se  Se22  1  0.106098  0.636935  0.636935  1
  Se  Se23  1  0.604843  0.136485  0.136485  1
  Se  Se24  1  0.636935  0.106098  0.636935  1
  Se  Se25  1  0.136485  0.604843  0.136485  1
  Se  Se26  1  0.636935  0.636935  0.106098  1
  Se  Se27  1  0.136485  0.136485  0.604843  1
