# generated using pymatgen
data_Pr2PuRu2
_symmetry_space_group_name_H-M   'P 1'
_cell_length_a   6.10229390
_cell_length_b   6.10229427
_cell_length_c   6.10229400
_cell_angle_alpha   139.72575093
_cell_angle_beta   120.52585933
_cell_angle_gamma   74.28299116
_symmetry_Int_Tables_number   1
_chemical_formula_structural   Pr2PuRu2
_chemical_formula_sum   'Pr2 Pu1 Ru2'
_cell_volume   123.72976774
_cell_formula_units_Z   1
loop_
 _symmetry_equiv_pos_site_id
 _symmetry_equiv_pos_as_xyz
  1  'x, y, z'
loop_
 _atom_site_type_symbol
 _atom_site_label
 _atom_site_symmetry_multiplicity
 _atom_site_fract_x
 _atom_site_fract_y
 _atom_site_fract_z
 _atom_site_occupancy
  Pr  Pr0  1  0.691541  0.191541  0.500000  1
  Pr  Pr1  1  0.308459  0.808458  0.500000  1
  Pu  Pu2  1  0.000000  0.000000  0.000000  1
  Ru  Ru3  1  0.766761  0.500000  0.266761  1
  Ru  Ru4  1  0.233239  0.500000  0.733238  1
