# generated using pymatgen
data_SmDy9Tl7InPd4
_symmetry_space_group_name_H-M   'P 1'
_cell_length_a   3.64757800
_cell_length_b   8.25182714
_cell_length_c   18.48915219
_cell_angle_alpha   90.03294341
_cell_angle_beta   90.00000000
_cell_angle_gamma   90.00000000
_symmetry_Int_Tables_number   1
_chemical_formula_structural   SmDy9Tl7InPd4
_chemical_formula_sum   'Sm1 Dy9 Tl7 In1 Pd4'
_cell_volume   556.50828590
_cell_formula_units_Z   1
loop_
 _symmetry_equiv_pos_site_id
 _symmetry_equiv_pos_as_xyz
  1  'x, y, z'
loop_
 _atom_site_type_symbol
 _atom_site_label
 _atom_site_symmetry_multiplicity
 _atom_site_fract_x
 _atom_site_fract_y
 _atom_site_fract_z
 _atom_site_occupancy
  Sm  Sm0  1  0.500000  0.998414  0.000248  1
  Dy  Dy1  1  0.500000  0.241902  0.781454  1
  Dy  Dy2  1  0.500000  0.758521  0.218432  1
  Dy  Dy3  1  0.500000  0.259066  0.281510  1
  Dy  Dy4  1  0.500000  0.740421  0.718188  1
  Dy  Dy5  1  0.500000  0.117139  0.585264  1
  Dy  Dy6  1  0.500000  0.882912  0.414681  1
  Dy  Dy7  1  0.500000  0.381099  0.085269  1
  Dy  Dy8  1  0.500000  0.619790  0.915698  1
  Dy  Dy9  1  0.500000  0.499975  0.499920  1
  Tl  Tl10  1  0.000000  0.080506  0.150759  1
  Tl  Tl11  1  0.000000  0.916528  0.848779  1
  Tl  Tl12  1  0.000000  0.417044  0.649743  1
  Tl  Tl13  1  0.000000  0.582597  0.350120  1
  Tl  Tl14  1  0.000000  0.206326  0.434173  1
  Tl  Tl15  1  0.000000  0.793859  0.565723  1
  Tl  Tl16  1  0.000000  0.297526  0.933453  1
  In  In17  1  0.000000  0.701640  0.067453  1
  Pd  Pd18  1  0.000000  0.026359  0.695989  1
  Pd  Pd19  1  0.000000  0.974659  0.304144  1
  Pd  Pd20  1  0.000000  0.476760  0.195596  1
  Pd  Pd21  1  0.000000  0.526959  0.803406  1
