# generated using pymatgen
data_TbCe2In3NiRh2
_symmetry_space_group_name_H-M   'P 1'
_cell_length_a   7.58124269
_cell_length_b   7.45845518
_cell_length_c   3.92884000
_cell_angle_alpha   90.00000000
_cell_angle_beta   90.00000000
_cell_angle_gamma   119.46565164
_symmetry_Int_Tables_number   1
_chemical_formula_structural   TbCe2In3NiRh2
_chemical_formula_sum   'Tb1 Ce2 In3 Ni1 Rh2'
_cell_volume   193.41831770
_cell_formula_units_Z   1
loop_
 _symmetry_equiv_pos_site_id
 _symmetry_equiv_pos_as_xyz
  1  'x, y, z'
loop_
 _atom_site_type_symbol
 _atom_site_label
 _atom_site_symmetry_multiplicity
 _atom_site_fract_x
 _atom_site_fract_y
 _atom_site_fract_z
 _atom_site_occupancy
  Tb  Tb0  1  0.000000  0.589762  0.000000  1
  Ce  Ce1  1  0.413171  0.415138  0.000000  1
  Ce  Ce2  1  0.586829  0.001967  0.000000  1
  In  In3  1  0.762527  0.754467  0.500000  1
  In  In4  1  0.000000  0.253004  0.500000  1
  In  In5  1  0.237473  0.991941  0.500000  1
  Ni  Ni6  1  0.000000  0.007974  0.000000  1
  Rh  Rh7  1  0.353388  0.669569  0.500000  1
  Rh  Rh8  1  0.646612  0.316180  0.500000  1
