# generated using pymatgen
data_K3Al3As4
_symmetry_space_group_name_H-M   'P 1'
_cell_length_a   6.67806900
_cell_length_b   10.72414100
_cell_length_c   15.26349000
_cell_angle_alpha   90.00000000
_cell_angle_beta   90.00000000
_cell_angle_gamma   90.00000000
_symmetry_Int_Tables_number   1
_chemical_formula_structural   K3Al3As4
_chemical_formula_sum   'K12 Al12 As16'
_cell_volume   1093.11854915
_cell_formula_units_Z   4
loop_
 _symmetry_equiv_pos_site_id
 _symmetry_equiv_pos_as_xyz
  1  'x, y, z'
loop_
 _atom_site_type_symbol
 _atom_site_label
 _atom_site_symmetry_multiplicity
 _atom_site_fract_x
 _atom_site_fract_y
 _atom_site_fract_z
 _atom_site_occupancy
  K  K0  1  0.061241  0.379506  0.406777  1
  K  K1  1  0.061241  0.120494  0.093223  1
  K  K2  1  0.561241  0.879506  0.093223  1
  K  K3  1  0.750000  0.079849  0.500000  1
  K  K4  1  0.938759  0.879506  0.906777  1
  K  K5  1  0.561241  0.620494  0.406777  1
  K  K6  1  0.938759  0.620494  0.593223  1
  K  K7  1  0.250000  0.579849  0.000000  1
  K  K8  1  0.750000  0.420151  0.000000  1
  K  K9  1  0.438759  0.379506  0.593223  1
  K  K10  1  0.438759  0.120494  0.906777  1
  K  K11  1  0.250000  0.920151  0.500000  1
  Al  Al12  1  0.403854  0.113681  0.283708  1
  Al  Al13  1  0.903854  0.613681  0.216292  1
  Al  Al14  1  0.096146  0.386319  0.783708  1
  Al  Al15  1  0.403854  0.386319  0.216292  1
  Al  Al16  1  0.302412  0.750000  0.250000  1
  Al  Al17  1  0.802412  0.250000  0.250000  1
  Al  Al18  1  0.596146  0.886319  0.716292  1
  Al  Al19  1  0.903854  0.886319  0.283708  1
  Al  Al20  1  0.197588  0.750000  0.750000  1
  Al  Al21  1  0.697588  0.250000  0.750000  1
  Al  Al22  1  0.596146  0.613681  0.783708  1
  Al  Al23  1  0.096146  0.113681  0.716292  1
  As  As24  1  0.039648  0.095413  0.321074  1
  As  As25  1  0.039874  0.807930  0.136816  1
  As  As26  1  0.460126  0.807930  0.863184  1
  As  As27  1  0.460352  0.404587  0.821074  1
  As  As28  1  0.539648  0.595413  0.178926  1
  As  As29  1  0.539648  0.904587  0.321074  1
  As  As30  1  0.039874  0.692070  0.363184  1
  As  As31  1  0.039648  0.404587  0.178926  1
  As  As32  1  0.960126  0.192070  0.863184  1
  As  As33  1  0.539874  0.192070  0.136816  1
  As  As34  1  0.960352  0.904587  0.678926  1
  As  As35  1  0.460352  0.095413  0.678926  1
  As  As36  1  0.960126  0.307930  0.636816  1
  As  As37  1  0.539874  0.307930  0.363184  1
  As  As38  1  0.460126  0.692070  0.636816  1
  As  As39  1  0.960352  0.595413  0.821074  1
