# generated using pymatgen
data_SrTb2Nd4CoI12
_symmetry_space_group_name_H-M   'P 1'
_cell_length_a   9.96825685
_cell_length_b   9.97255085
_cell_length_c   9.88245050
_cell_angle_alpha   106.42763751
_cell_angle_beta   106.08704566
_cell_angle_gamma   106.17195347
_symmetry_Int_Tables_number   1
_chemical_formula_structural   SrTb2Nd4CoI12
_chemical_formula_sum   'Sr1 Tb2 Nd4 Co1 I12'
_cell_volume   834.76173978
_cell_formula_units_Z   1
loop_
 _symmetry_equiv_pos_site_id
 _symmetry_equiv_pos_as_xyz
  1  'x, y, z'
loop_
 _atom_site_type_symbol
 _atom_site_label
 _atom_site_symmetry_multiplicity
 _atom_site_fract_x
 _atom_site_fract_y
 _atom_site_fract_z
 _atom_site_occupancy
  Sr  Sr0  1  0.499687  0.499821  0.500155  1
  Tb  Tb1  1  0.904808  0.707721  0.979027  1
  Tb  Tb2  1  0.707390  0.978492  0.906088  1
  Nd  Nd3  1  0.018997  0.089893  0.284467  1
  Nd  Nd4  1  0.093746  0.299728  0.019745  1
  Nd  Nd5  1  0.299841  0.020147  0.095603  1
  Nd  Nd6  1  0.979274  0.907233  0.714619  1
  Co  Co7  1  0.999331  0.999118  0.999243  1
  I  I8  1  0.141573  0.452921  0.374390  1
  I  I9  1  0.452848  0.371555  0.139706  1
  I  I10  1  0.372025  0.142704  0.455680  1
  I  I11  1  0.858837  0.547519  0.633645  1
  I  I12  1  0.555561  0.635372  0.864507  1
  I  I13  1  0.628068  0.860936  0.552844  1
  I  I14  1  0.676784  0.072126  0.219712  1
  I  I15  1  0.072834  0.223058  0.675066  1
  I  I16  1  0.216651  0.676025  0.071363  1
  I  I17  1  0.325907  0.925847  0.772845  1
  I  I18  1  0.925067  0.771271  0.316036  1
  I  I19  1  0.770771  0.318512  0.925258  1
