# generated using pymatgen
data_Lu2ZnGa7Ni2
_symmetry_space_group_name_H-M   'P 1'
_cell_length_a   7.79463260
_cell_length_b   7.79463462
_cell_length_c   6.55016491
_cell_angle_alpha   90.28599786
_cell_angle_beta   89.71400113
_cell_angle_gamma   149.55036567
_symmetry_Int_Tables_number   1
_chemical_formula_structural   Lu2ZnGa7Ni2
_chemical_formula_sum   'Lu2 Zn1 Ga7 Ni2'
_cell_volume   201.67773179
_cell_formula_units_Z   1
loop_
 _symmetry_equiv_pos_site_id
 _symmetry_equiv_pos_as_xyz
  1  'x, y, z'
loop_
 _atom_site_type_symbol
 _atom_site_label
 _atom_site_symmetry_multiplicity
 _atom_site_fract_x
 _atom_site_fract_y
 _atom_site_fract_z
 _atom_site_occupancy
  Lu  Lu0  1  0.875074  0.124926  0.744789  1
  Lu  Lu1  1  0.124926  0.875074  0.255211  1
  Zn  Zn2  1  0.500000  0.500000  0.000000  1
  Ga  Ga3  1  0.500000  0.500000  0.500000  1
  Ga  Ga4  1  0.066924  0.933076  0.759308  1
  Ga  Ga5  1  0.933076  0.066924  0.240692  1
  Ga  Ga6  1  0.682231  0.317769  0.953176  1
  Ga  Ga7  1  0.317769  0.682231  0.046824  1
  Ga  Ga8  1  0.683765  0.316235  0.553242  1
  Ga  Ga9  1  0.316235  0.683765  0.446758  1
  Ni  Ni10  1  0.223498  0.776502  0.748892  1
  Ni  Ni11  1  0.776502  0.223498  0.251108  1
