# generated using pymatgen
data_Si4Tc3Os
_symmetry_space_group_name_H-M   'P 1'
_cell_length_a   4.77617289
_cell_length_b   4.77617289
_cell_length_c   4.77617289
_cell_angle_alpha   90.11592024
_cell_angle_beta   90.11592024
_cell_angle_gamma   90.11592024
_symmetry_Int_Tables_number   1
_chemical_formula_structural   Si4Tc3Os
_chemical_formula_sum   'Si4 Tc3 Os1'
_cell_volume   108.95256226
_cell_formula_units_Z   1
loop_
 _symmetry_equiv_pos_site_id
 _symmetry_equiv_pos_as_xyz
  1  'x, y, z'
loop_
 _atom_site_type_symbol
 _atom_site_label
 _atom_site_symmetry_multiplicity
 _atom_site_fract_x
 _atom_site_fract_y
 _atom_site_fract_z
 _atom_site_occupancy
  Si  Si0  1  0.155338  0.342410  0.658862  1
  Si  Si1  1  0.342410  0.658862  0.155338  1
  Si  Si2  1  0.658862  0.155338  0.342410  1
  Si  Si3  1  0.843769  0.843769  0.843769  1
  Tc  Tc4  1  0.865172  0.633442  0.367211  1
  Tc  Tc5  1  0.633442  0.367211  0.865172  1
  Tc  Tc6  1  0.367211  0.865172  0.633442  1
  Os  Os7  1  0.133796  0.133796  0.133796  1
