# generated using pymatgen
data_Tm4MnAl3Os4
_symmetry_space_group_name_H-M   'P 1'
_cell_length_a   5.36224013
_cell_length_b   5.31270296
_cell_length_c   8.59674100
_cell_angle_alpha   90.00000192
_cell_angle_beta   90.87898344
_cell_angle_gamma   119.69487079
_symmetry_Int_Tables_number   1
_chemical_formula_structural   Tm4MnAl3Os4
_chemical_formula_sum   'Tm4 Mn1 Al3 Os4'
_cell_volume   212.70889915
_cell_formula_units_Z   1
loop_
 _symmetry_equiv_pos_site_id
 _symmetry_equiv_pos_as_xyz
  1  'x, y, z'
loop_
 _atom_site_type_symbol
 _atom_site_label
 _atom_site_symmetry_multiplicity
 _atom_site_fract_x
 _atom_site_fract_y
 _atom_site_fract_z
 _atom_site_occupancy
  Tm  Tm0  1  0.333408  0.672649  0.065288  1
  Tm  Tm1  1  0.665203  0.340620  0.562611  1
  Tm  Tm2  1  0.666592  0.339240  0.934712  1
  Tm  Tm3  1  0.334797  0.675419  0.437389  1
  Mn  Mn4  1  0.000000  0.981861  0.500000  1
  Al  Al5  1  0.000000  0.980258  0.000000  1
  Al  Al6  1  0.838021  0.168273  0.258419  1
  Al  Al7  1  0.161979  0.330250  0.741581  1
  Os  Os8  1  0.820269  0.658310  0.257185  1
  Os  Os9  1  0.179731  0.838040  0.742815  1
  Os  Os10  1  0.655505  0.835292  0.746783  1
  Os  Os11  1  0.344495  0.179788  0.253217  1
