# generated using pymatgen
data_Tb7DyTc(B8Ru)3
_symmetry_space_group_name_H-M   'P 1'
_cell_length_a   3.68620600
_cell_length_b   9.17114633
_cell_length_c   11.55318804
_cell_angle_alpha   89.91100706
_cell_angle_beta   90.00000000
_cell_angle_gamma   90.00000000
_symmetry_Int_Tables_number   1
_chemical_formula_structural   Tb7DyTc(B8Ru)3
_chemical_formula_sum   'Tb7 Dy1 Tc1 B24 Ru3'
_cell_volume   390.57509134
_cell_formula_units_Z   1
loop_
 _symmetry_equiv_pos_site_id
 _symmetry_equiv_pos_as_xyz
  1  'x, y, z'
loop_
 _atom_site_type_symbol
 _atom_site_label
 _atom_site_symmetry_multiplicity
 _atom_site_fract_x
 _atom_site_fract_y
 _atom_site_fract_z
 _atom_site_occupancy
  Tb  Tb0  1  0.000000  0.324852  0.413290  1
  Tb  Tb1  1  0.000000  0.676100  0.583741  1
  Tb  Tb2  1  0.000000  0.821387  0.087884  1
  Tb  Tb3  1  0.000000  0.176259  0.914883  1
  Tb  Tb4  1  0.000000  0.943526  0.372196  1
  Tb  Tb5  1  0.000000  0.057064  0.628572  1
  Tb  Tb6  1  0.000000  0.444250  0.128091  1
  Dy  Dy7  1  0.000000  0.556690  0.871051  1
  Tc  Tc8  1  0.000000  0.637870  0.321238  1
  B  B9  1  0.500000  0.553219  0.432874  1
  B  B10  1  0.500000  0.446091  0.567774  1
  B  B11  1  0.500000  0.054011  0.067460  1
  B  B12  1  0.500000  0.945747  0.932790  1
  B  B13  1  0.500000  0.747758  0.419285  1
  B  B14  1  0.500000  0.252552  0.580754  1
  B  B15  1  0.500000  0.247646  0.080477  1
  B  B16  1  0.500000  0.751919  0.919362  1
  B  B17  1  0.500000  0.791283  0.266375  1
  B  B18  1  0.500000  0.209494  0.733645  1
  B  B19  1  0.500000  0.290689  0.232890  1
  B  B20  1  0.500000  0.709502  0.766476  1
  B  B21  1  0.500000  0.632181  0.185893  1
  B  B22  1  0.500000  0.367756  0.814557  1
  B  B23  1  0.500000  0.132349  0.313873  1
  B  B24  1  0.500000  0.868051  0.685784  1
  B  B25  1  0.500000  0.984324  0.212538  1
  B  B26  1  0.500000  0.015561  0.787959  1
  B  B27  1  0.500000  0.483529  0.287483  1
  B  B28  1  0.500000  0.515547  0.712696  1
  B  B29  1  0.500000  0.608462  0.029123  1
  B  B30  1  0.500000  0.391281  0.969289  1
  B  B31  1  0.500000  0.109476  0.470114  1
  B  B32  1  0.500000  0.891970  0.530568  1
  Ru  Ru33  1  0.000000  0.361898  0.679446  1
  Ru  Ru34  1  0.000000  0.137904  0.178218  1
  Ru  Ru35  1  0.000000  0.861803  0.821349  1
