# generated using pymatgen
data_Li2CeNdRh2
_symmetry_space_group_name_H-M   'P 1'
_cell_length_a   3.91385800
_cell_length_b   7.13502517
_cell_length_c   8.68196632
_cell_angle_alpha   92.88743102
_cell_angle_beta   90.00000000
_cell_angle_gamma   90.00000000
_symmetry_Int_Tables_number   1
_chemical_formula_structural   Li2CeNdRh2
_chemical_formula_sum   'Li4 Ce2 Nd2 Rh4'
_cell_volume   242.14023222
_cell_formula_units_Z   2
loop_
 _symmetry_equiv_pos_site_id
 _symmetry_equiv_pos_as_xyz
  1  'x, y, z'
loop_
 _atom_site_type_symbol
 _atom_site_label
 _atom_site_symmetry_multiplicity
 _atom_site_fract_x
 _atom_site_fract_y
 _atom_site_fract_z
 _atom_site_occupancy
  Li  Li0  1  0.250000  0.619993  0.549785  1
  Li  Li1  1  0.750000  0.380007  0.450215  1
  Li  Li2  1  0.750000  0.873778  0.051865  1
  Li  Li3  1  0.250000  0.126222  0.948135  1
  Ce  Ce4  1  0.250000  0.547287  0.184386  1
  Ce  Ce5  1  0.750000  0.452713  0.815614  1
  Nd  Nd6  1  0.750000  0.947443  0.679438  1
  Nd  Nd7  1  0.250000  0.052557  0.320562  1
  Rh  Rh8  1  0.250000  0.715200  0.870264  1
  Rh  Rh9  1  0.750000  0.284800  0.129736  1
  Rh  Rh10  1  0.750000  0.747926  0.356344  1
  Rh  Rh11  1  0.250000  0.252074  0.643656  1
