# generated using pymatgen
data_DyRhF7
_symmetry_space_group_name_H-M   'P 1'
_cell_length_a   5.53994800
_cell_length_b   8.85353863
_cell_length_c   11.92614934
_cell_angle_alpha   62.56002606
_cell_angle_beta   90.00000000
_cell_angle_gamma   90.00000000
_symmetry_Int_Tables_number   1
_chemical_formula_structural   DyRhF7
_chemical_formula_sum   'Dy4 Rh4 F28'
_cell_volume   519.14454103
_cell_formula_units_Z   4
loop_
 _symmetry_equiv_pos_site_id
 _symmetry_equiv_pos_as_xyz
  1  'x, y, z'
loop_
 _atom_site_type_symbol
 _atom_site_label
 _atom_site_symmetry_multiplicity
 _atom_site_fract_x
 _atom_site_fract_y
 _atom_site_fract_z
 _atom_site_occupancy
  Dy  Dy0  1  0.761008  0.813023  0.765255  1
  Dy  Dy1  1  0.261008  0.186977  0.734745  1
  Dy  Dy2  1  0.238992  0.186977  0.234745  1
  Dy  Dy3  1  0.738992  0.813023  0.265255  1
  Rh  Rh4  1  0.758136  0.273267  0.956175  1
  Rh  Rh5  1  0.258136  0.726733  0.543825  1
  Rh  Rh6  1  0.241864  0.726733  0.043825  1
  Rh  Rh7  1  0.741864  0.273267  0.456175  1
  F  F8  1  0.436550  0.704943  0.915895  1
  F  F9  1  0.936550  0.295057  0.584105  1
  F  F10  1  0.563450  0.295057  0.084105  1
  F  F11  1  0.063450  0.704943  0.415895  1
  F  F12  1  0.442444  0.277767  0.542533  1
  F  F13  1  0.942444  0.722233  0.957467  1
  F  F14  1  0.557556  0.722233  0.457467  1
  F  F15  1  0.057556  0.277767  0.042533  1
  F  F16  1  0.773866  0.519249  0.859816  1
  F  F17  1  0.273866  0.480751  0.640184  1
  F  F18  1  0.226134  0.480751  0.140184  1
  F  F19  1  0.726134  0.519249  0.359816  1
  F  F20  1  0.755067  0.027354  0.049547  1
  F  F21  1  0.255067  0.972646  0.450453  1
  F  F22  1  0.244933  0.972646  0.950453  1
  F  F23  1  0.744933  0.027354  0.549547  1
  F  F24  1  0.966342  0.726648  0.635620  1
  F  F25  1  0.466342  0.273352  0.864380  1
  F  F26  1  0.033658  0.273352  0.364380  1
  F  F27  1  0.533658  0.726648  0.135620  1
  F  F28  1  0.051281  0.746088  0.174785  1
  F  F29  1  0.551281  0.253912  0.325215  1
  F  F30  1  0.948719  0.253912  0.825215  1
  F  F31  1  0.448719  0.746088  0.674785  1
  F  F32  1  0.414226  0.969517  0.231501  1
  F  F33  1  0.914226  0.030483  0.268499  1
  F  F34  1  0.585774  0.030483  0.768499  1
  F  F35  1  0.085774  0.969517  0.731501  1
