# generated using pymatgen
data_Ca2YAl3Si2Pd
_symmetry_space_group_name_H-M   'P 1'
_cell_length_a   6.93918637
_cell_length_b   6.93918603
_cell_length_c   4.33938700
_cell_angle_alpha   90.00000000
_cell_angle_beta   90.00000000
_cell_angle_gamma   120.27074393
_symmetry_Int_Tables_number   1
_chemical_formula_structural   Ca2YAl3Si2Pd
_chemical_formula_sum   'Ca2 Y1 Al3 Si2 Pd1'
_cell_volume   180.46159028
_cell_formula_units_Z   1
loop_
 _symmetry_equiv_pos_site_id
 _symmetry_equiv_pos_as_xyz
  1  'x, y, z'
loop_
 _atom_site_type_symbol
 _atom_site_label
 _atom_site_symmetry_multiplicity
 _atom_site_fract_x
 _atom_site_fract_y
 _atom_site_fract_z
 _atom_site_occupancy
  Ca  Ca0  1  0.422170  0.999975  0.000000  1
  Ca  Ca1  1  0.999975  0.422169  0.000000  1
  Y  Y2  1  0.578024  0.578024  0.000000  1
  Al  Al3  1  0.761743  0.997418  0.500000  1
  Al  Al4  1  0.238743  0.238744  0.500000  1
  Al  Al5  1  0.997418  0.761744  0.500000  1
  Si  Si6  1  0.665515  0.338780  0.500000  1
  Si  Si7  1  0.338780  0.665515  0.500000  1
  Pd  Pd8  1  0.997634  0.997634  0.000000  1
