# generated using pymatgen
data_Yb3Sm(W2C3)2
_symmetry_space_group_name_H-M   'P 1'
_cell_length_a   6.56829600
_cell_length_b   5.93532075
_cell_length_c   11.84105760
_cell_angle_alpha   67.27911579
_cell_angle_beta   90.00000000
_cell_angle_gamma   90.00000000
_symmetry_Int_Tables_number   1
_chemical_formula_structural   Yb3Sm(W2C3)2
_chemical_formula_sum   'Yb6 Sm2 W8 C12'
_cell_volume   425.79980447
_cell_formula_units_Z   2
loop_
 _symmetry_equiv_pos_site_id
 _symmetry_equiv_pos_as_xyz
  1  'x, y, z'
loop_
 _atom_site_type_symbol
 _atom_site_label
 _atom_site_symmetry_multiplicity
 _atom_site_fract_x
 _atom_site_fract_y
 _atom_site_fract_z
 _atom_site_occupancy
  Yb  Yb0  1  0.792401  0.672341  0.902327  1
  Yb  Yb1  1  0.292401  0.327659  0.597673  1
  Yb  Yb2  1  0.207714  0.312795  0.089935  1
  Yb  Yb3  1  0.707714  0.687205  0.410065  1
  Yb  Yb4  1  0.992987  0.730438  0.635200  1
  Yb  Yb5  1  0.492987  0.269562  0.864800  1
  Sm  Sm6  1  0.001105  0.271463  0.364710  1
  Sm  Sm7  1  0.501105  0.728537  0.135290  1
  W  W8  1  0.991969  0.827269  0.121753  1
  W  W9  1  0.491969  0.172731  0.378247  1
  W  W10  1  0.008694  0.177535  0.874896  1
  W  W11  1  0.508694  0.822465  0.625104  1
  W  W12  1  0.764890  0.184968  0.657650  1
  W  W13  1  0.233647  0.812526  0.342600  1
  W  W14  1  0.733647  0.187474  0.157400  1
  W  W15  1  0.264890  0.815032  0.842350  1
  C  C16  1  0.640535  0.508386  0.651135  1
  C  C17  1  0.140535  0.491614  0.848865  1
  C  C18  1  0.362945  0.487347  0.356114  1
  C  C19  1  0.862945  0.512653  0.143886  1
  C  C20  1  0.219002  0.926446  0.988532  1
  C  C21  1  0.719002  0.073554  0.511468  1
  C  C22  1  0.786565  0.095186  0.007521  1
  C  C23  1  0.286565  0.904814  0.492479  1
  C  C24  1  0.471372  0.025708  0.243479  1
  C  C25  1  0.026175  0.024936  0.742704  1
  C  C26  1  0.971372  0.974292  0.256521  1
  C  C27  1  0.526175  0.975064  0.757296  1
