# generated using pymatgen
data_Er16In2Hg2RuRh3
_symmetry_space_group_name_H-M   'P 1'
_cell_length_a   9.54851913
_cell_length_b   9.54207313
_cell_length_c   9.53443833
_cell_angle_alpha   59.97665677
_cell_angle_beta   59.95113433
_cell_angle_gamma   59.97765543
_symmetry_Int_Tables_number   1
_chemical_formula_structural   Er16In2Hg2RuRh3
_chemical_formula_sum   'Er16 In2 Hg2 Ru1 Rh3'
_cell_volume   613.83027650
_cell_formula_units_Z   1
loop_
 _symmetry_equiv_pos_site_id
 _symmetry_equiv_pos_as_xyz
  1  'x, y, z'
loop_
 _atom_site_type_symbol
 _atom_site_label
 _atom_site_symmetry_multiplicity
 _atom_site_fract_x
 _atom_site_fract_y
 _atom_site_fract_z
 _atom_site_occupancy
  Er  Er0  1  0.187838  0.191908  0.809774  1
  Er  Er1  1  0.438773  0.061133  0.061320  1
  Er  Er2  1  0.437622  0.060217  0.436048  1
  Er  Er3  1  0.064414  0.435741  0.059218  1
  Er  Er4  1  0.650418  0.051596  0.647568  1
  Er  Er5  1  0.189826  0.810245  0.810103  1
  Er  Er6  1  0.066112  0.060217  0.436048  1
  Er  Er7  1  0.808934  0.192905  0.189226  1
  Er  Er8  1  0.809998  0.809467  0.190910  1
  Er  Er9  1  0.650856  0.647109  0.051179  1
  Er  Er10  1  0.651871  0.648437  0.649901  1
  Er  Er11  1  0.063889  0.434511  0.437712  1
  Er  Er12  1  0.049791  0.648437  0.649901  1
  Er  Er13  1  0.810479  0.191908  0.809774  1
  Er  Er14  1  0.440627  0.435741  0.059218  1
  Er  Er15  1  0.189623  0.809467  0.190910  1
  In  In16  1  0.745082  0.419308  0.419597  1
  In  In17  1  0.416013  0.419308  0.419597  1
  Hg  Hg18  1  0.413766  0.757732  0.414737  1
  Hg  Hg19  1  0.413645  0.414673  0.758036  1
  Ru  Ru20  1  0.857720  0.426719  0.857840  1
  Rh  Rh21  1  0.857839  0.857994  0.426327  1
  Rh  Rh22  1  0.427511  0.857615  0.857527  1
  Rh  Rh23  1  0.857346  0.857615  0.857527  1
