# generated using pymatgen
data_Dy2Ho2CoB16Ir3
_symmetry_space_group_name_H-M   'P 1'
_cell_length_a   3.53506200
_cell_length_b   5.95501718
_cell_length_c   11.53850317
_cell_angle_alpha   89.87612807
_cell_angle_beta   90.00000000
_cell_angle_gamma   90.00000000
_symmetry_Int_Tables_number   1
_chemical_formula_structural   Dy2Ho2CoB16Ir3
_chemical_formula_sum   'Dy2 Ho2 Co1 B16 Ir3'
_cell_volume   242.90055798
_cell_formula_units_Z   1
loop_
 _symmetry_equiv_pos_site_id
 _symmetry_equiv_pos_as_xyz
  1  'x, y, z'
loop_
 _atom_site_type_symbol
 _atom_site_label
 _atom_site_symmetry_multiplicity
 _atom_site_fract_x
 _atom_site_fract_y
 _atom_site_fract_z
 _atom_site_occupancy
  Dy  Dy0  1  0.500000  0.131187  0.649941  1
  Dy  Dy1  1  0.500000  0.868937  0.346100  1
  Ho  Ho2  1  0.500000  0.372051  0.147277  1
  Ho  Ho3  1  0.500000  0.630014  0.854569  1
  Co  Co4  1  0.500000  0.856975  0.095386  1
  B  B5  1  0.000000  0.111592  0.046845  1
  B  B6  1  0.000000  0.886643  0.955115  1
  B  B7  1  0.000000  0.387910  0.546617  1
  B  B8  1  0.000000  0.612882  0.452060  1
  B  B9  1  0.000000  0.135937  0.468364  1
  B  B10  1  0.000000  0.864464  0.529910  1
  B  B11  1  0.000000  0.364788  0.969812  1
  B  B12  1  0.000000  0.638723  0.032832  1
  B  B13  1  0.000000  0.020064  0.189644  1
  B  B14  1  0.000000  0.976182  0.808938  1
  B  B15  1  0.000000  0.474556  0.693149  1
  B  B16  1  0.000000  0.525869  0.305597  1
  B  B17  1  0.000000  0.209307  0.310573  1
  B  B18  1  0.000000  0.790896  0.688664  1
  B  B19  1  0.000000  0.289861  0.814475  1
  B  B20  1  0.000000  0.713881  0.183687  1
  Ir  Ir21  1  0.500000  0.356996  0.404116  1
  Ir  Ir22  1  0.500000  0.644916  0.597051  1
  Ir  Ir23  1  0.500000  0.135369  0.909277  1
