# generated using pymatgen
data_Ca4Pr16Si15Os
_symmetry_space_group_name_H-M   'P 1'
_cell_length_a   7.96617114
_cell_length_b   7.90514092
_cell_length_c   15.11269500
_cell_angle_alpha   89.99899254
_cell_angle_beta   89.89998263
_cell_angle_gamma   90.20156283
_symmetry_Int_Tables_number   1
_chemical_formula_structural   Ca4Pr16Si15Os
_chemical_formula_sum   'Ca4 Pr16 Si15 Os1'
_cell_volume   951.69506373
_cell_formula_units_Z   1
loop_
 _symmetry_equiv_pos_site_id
 _symmetry_equiv_pos_as_xyz
  1  'x, y, z'
loop_
 _atom_site_type_symbol
 _atom_site_label
 _atom_site_symmetry_multiplicity
 _atom_site_fract_x
 _atom_site_fract_y
 _atom_site_fract_z
 _atom_site_occupancy
  Ca  Ca0  1  0.310590  0.309150  0.999460  1
  Ca  Ca1  1  0.190942  0.809511  0.250711  1
  Ca  Ca2  1  0.814592  0.192819  0.747609  1
  Ca  Ca3  1  0.692081  0.690482  0.502576  1
  Pr  Pr4  1  0.373179  0.009599  0.451485  1
  Pr  Pr5  1  0.484131  0.881345  0.697596  1
  Pr  Pr6  1  0.509592  0.125137  0.200611  1
  Pr  Pr7  1  0.876016  0.490465  0.301468  1
  Pr  Pr8  1  0.127287  0.497582  0.795162  1
  Pr  Pr9  1  0.625002  0.990620  0.948699  1
  Pr  Pr10  1  0.004959  0.374009  0.551224  1
  Pr  Pr11  1  0.992129  0.624805  0.049751  1
  Pr  Pr12  1  0.129153  0.990123  0.870498  1
  Pr  Pr13  1  0.513689  0.628273  0.125537  1
  Pr  Pr14  1  0.473165  0.362252  0.627975  1
  Pr  Pr15  1  0.626744  0.512935  0.874951  1
  Pr  Pr16  1  0.373217  0.486103  0.375435  1
  Pr  Pr17  1  0.875321  0.014317  0.376465  1
  Pr  Pr18  1  0.987521  0.123223  0.123615  1
  Pr  Pr19  1  0.024369  0.886959  0.627837  1
  Si  Si20  1  0.333047  0.698934  0.947779  1
  Si  Si21  1  0.661722  0.295431  0.448308  1
  Si  Si22  1  0.704788  0.335545  0.053640  1
  Si  Si23  1  0.298585  0.667744  0.549664  1
  Si  Si24  1  0.800338  0.832639  0.200544  1
  Si  Si25  1  0.165611  0.201176  0.299634  1
  Si  Si26  1  0.832366  0.799131  0.801055  1
  Si  Si27  1  0.287167  0.918117  0.058304  1
  Si  Si28  1  0.580668  0.787029  0.309619  1
  Si  Si29  1  0.425914  0.207111  0.814047  1
  Si  Si30  1  0.781693  0.584410  0.690804  1
  Si  Si31  1  0.211188  0.421513  0.190670  1
  Si  Si32  1  0.707960  0.077408  0.558243  1
  Si  Si33  1  0.919953  0.287636  0.941382  1
  Si  Si34  1  0.080856  0.715008  0.440921  1
  Os  Os35  1  0.204462  0.171461  0.696724  1
