# generated using pymatgen
data_Pr6Pd5Rh2Au
_symmetry_space_group_name_H-M   'P 1'
_cell_length_a   8.15815608
_cell_length_b   8.16778776
_cell_length_c   8.17630292
_cell_angle_alpha   114.20503066
_cell_angle_beta   114.32023686
_cell_angle_gamma   114.13861185
_symmetry_Int_Tables_number   1
_chemical_formula_structural   Pr6Pd5Rh2Au
_chemical_formula_sum   'Pr6 Pd5 Rh2 Au1'
_cell_volume   325.50350460
_cell_formula_units_Z   1
loop_
 _symmetry_equiv_pos_site_id
 _symmetry_equiv_pos_as_xyz
  1  'x, y, z'
loop_
 _atom_site_type_symbol
 _atom_site_label
 _atom_site_symmetry_multiplicity
 _atom_site_fract_x
 _atom_site_fract_y
 _atom_site_fract_z
 _atom_site_occupancy
  Pr  Pr0  1  0.405405  0.038361  0.278817  1
  Pr  Pr1  1  0.035375  0.284098  0.399795  1
  Pr  Pr2  1  0.283771  0.403721  0.040662  1
  Pr  Pr3  1  0.598016  0.960844  0.718351  1
  Pr  Pr4  1  0.956438  0.712875  0.599630  1
  Pr  Pr5  1  0.723480  0.605126  0.964481  1
  Pd  Pd6  1  0.054723  0.553358  0.220631  1
  Pd  Pd7  1  0.556508  0.222772  0.057321  1
  Pd  Pd8  1  0.776785  0.944771  0.444751  1
  Pd  Pd9  1  0.943577  0.443492  0.777100  1
  Pd  Pd10  1  0.444203  0.775661  0.942643  1
  Rh  Rh11  1  0.001974  0.002523  0.001772  1
  Rh  Rh12  1  0.498060  0.498726  0.498586  1
  Au  Au13  1  0.221684  0.053671  0.555459  1
