# generated using pymatgen
data_DyTm(Lu4Bi3)2
_symmetry_space_group_name_H-M   'P 1'
_cell_length_a   8.15655300
_cell_length_b   9.39294200
_cell_length_c   11.83170600
_cell_angle_alpha   90.00000000
_cell_angle_beta   90.00000000
_cell_angle_gamma   90.00000000
_symmetry_Int_Tables_number   1
_chemical_formula_structural   DyTm(Lu4Bi3)2
_chemical_formula_sum   'Dy2 Tm2 Lu16 Bi12'
_cell_volume   906.47466955
_cell_formula_units_Z   2
loop_
 _symmetry_equiv_pos_site_id
 _symmetry_equiv_pos_as_xyz
  1  'x, y, z'
loop_
 _atom_site_type_symbol
 _atom_site_label
 _atom_site_symmetry_multiplicity
 _atom_site_fract_x
 _atom_site_fract_y
 _atom_site_fract_z
 _atom_site_occupancy
  Dy  Dy0  1  0.687205  0.750000  0.782235  1
  Dy  Dy1  1  0.187205  0.750000  0.717765  1
  Tm  Tm2  1  0.312381  0.250000  0.217006  1
  Tm  Tm3  1  0.812381  0.250000  0.282994  1
  Lu  Lu4  1  0.352413  0.750000  0.218303  1
  Lu  Lu5  1  0.852413  0.750000  0.281697  1
  Lu  Lu6  1  0.647614  0.250000  0.781870  1
  Lu  Lu7  1  0.147614  0.250000  0.718130  1
  Lu  Lu8  1  0.692641  0.567257  0.059984  1
  Lu  Lu9  1  0.192641  0.932743  0.440016  1
  Lu  Lu10  1  0.307454  0.067249  0.940238  1
  Lu  Lu11  1  0.807454  0.432751  0.559762  1
  Lu  Lu12  1  0.307454  0.432751  0.940238  1
  Lu  Lu13  1  0.807454  0.067249  0.559762  1
  Lu  Lu14  1  0.692641  0.932743  0.059984  1
  Lu  Lu15  1  0.192641  0.567257  0.440016  1
  Lu  Lu16  1  0.476742  0.250000  0.488914  1
  Lu  Lu17  1  0.976742  0.250000  0.011086  1
  Lu  Lu18  1  0.523241  0.750000  0.510554  1
  Lu  Lu19  1  0.023241  0.750000  0.989446  1
  Bi  Bi20  1  0.403129  0.750000  0.959312  1
  Bi  Bi21  1  0.903129  0.750000  0.540688  1
  Bi  Bi22  1  0.596716  0.250000  0.041904  1
  Bi  Bi23  1  0.096716  0.250000  0.458096  1
  Bi  Bi24  1  0.565833  0.995589  0.325368  1
  Bi  Bi25  1  0.065833  0.504411  0.174632  1
  Bi  Bi26  1  0.434352  0.494352  0.674036  1
  Bi  Bi27  1  0.934352  0.005648  0.825964  1
  Bi  Bi28  1  0.434352  0.005648  0.674036  1
  Bi  Bi29  1  0.934352  0.494352  0.825964  1
  Bi  Bi30  1  0.565833  0.504411  0.325368  1
  Bi  Bi31  1  0.065833  0.995589  0.174632  1
