# generated using pymatgen
data_Dy20IrOsRh10
_symmetry_space_group_name_H-M   'P 1'
_cell_length_a   10.88855672
_cell_length_b   10.88892679
_cell_length_c   6.39402605
_cell_angle_alpha   89.98637229
_cell_angle_beta   89.99831823
_cell_angle_gamma   90.04153756
_symmetry_Int_Tables_number   1
_chemical_formula_structural   Dy20IrOsRh10
_chemical_formula_sum   'Dy20 Ir1 Os1 Rh10'
_cell_volume   758.10553950
_cell_formula_units_Z   1
loop_
 _symmetry_equiv_pos_site_id
 _symmetry_equiv_pos_as_xyz
  1  'x, y, z'
loop_
 _atom_site_type_symbol
 _atom_site_label
 _atom_site_symmetry_multiplicity
 _atom_site_fract_x
 _atom_site_fract_y
 _atom_site_fract_z
 _atom_site_occupancy
  Dy  Dy0  1  0.292676  0.087540  0.375525  1
  Dy  Dy1  1  0.293496  0.911185  0.881544  1
  Dy  Dy2  1  0.706783  0.087321  0.881751  1
  Dy  Dy3  1  0.707226  0.912385  0.375340  1
  Dy  Dy4  1  0.586018  0.792685  0.881417  1
  Dy  Dy5  1  0.587652  0.207376  0.375826  1
  Dy  Dy6  1  0.411956  0.791802  0.376723  1
  Dy  Dy7  1  0.412563  0.206588  0.881691  1
  Dy  Dy8  1  0.210018  0.412501  0.621761  1
  Dy  Dy9  1  0.209947  0.588827  0.119597  1
  Dy  Dy10  1  0.790825  0.411511  0.120254  1
  Dy  Dy11  1  0.790770  0.589044  0.621365  1
  Dy  Dy12  1  0.911527  0.709197  0.120610  1
  Dy  Dy13  1  0.911107  0.290558  0.621369  1
  Dy  Dy14  1  0.090450  0.709208  0.621577  1
  Dy  Dy15  1  0.088448  0.290854  0.120845  1
  Dy  Dy16  1  0.999882  0.999941  0.499307  1
  Dy  Dy17  1  0.000072  0.000168  0.998999  1
  Dy  Dy18  1  0.499705  0.500172  0.998976  1
  Dy  Dy19  1  0.499837  0.500237  0.499239  1
  Ir  Ir20  1  0.345775  0.652490  0.749902  1
  Os  Os21  1  0.500280  0.000534  0.127101  1
  Rh  Rh22  1  0.847820  0.154636  0.250592  1
  Rh  Rh23  1  0.847641  0.846027  0.750168  1
  Rh  Rh24  1  0.152167  0.154077  0.749992  1
  Rh  Rh25  1  0.151596  0.846043  0.250508  1
  Rh  Rh26  1  0.654131  0.347638  0.750022  1
  Rh  Rh27  1  0.655281  0.652331  0.250703  1
  Rh  Rh28  1  0.345250  0.347167  0.250339  1
  Rh  Rh29  1  0.500280  0.000555  0.624428  1
  Rh  Rh30  1  0.999336  0.499670  0.876321  1
  Rh  Rh31  1  0.999486  0.499730  0.376207  1
