# generated using pymatgen
data_HoEr3CdPd
_symmetry_space_group_name_H-M   'P 1'
_cell_length_a   9.63151727
_cell_length_b   9.63151686
_cell_length_c   9.63151800
_cell_angle_alpha   60.00000296
_cell_angle_beta   60.00000436
_cell_angle_gamma   60.00000547
_symmetry_Int_Tables_number   1
_chemical_formula_structural   HoEr3CdPd
_chemical_formula_sum   'Ho4 Er12 Cd4 Pd4'
_cell_volume   631.78481254
_cell_formula_units_Z   4
loop_
 _symmetry_equiv_pos_site_id
 _symmetry_equiv_pos_as_xyz
  1  'x, y, z'
loop_
 _atom_site_type_symbol
 _atom_site_label
 _atom_site_symmetry_multiplicity
 _atom_site_fract_x
 _atom_site_fract_y
 _atom_site_fract_z
 _atom_site_occupancy
  Ho  Ho0  1  0.353996  0.353996  0.353996  1
  Ho  Ho1  1  0.353996  0.353996  0.938012  1
  Ho  Ho2  1  0.353996  0.938012  0.353996  1
  Ho  Ho3  1  0.938012  0.353996  0.353996  1
  Er  Er4  1  0.810753  0.189247  0.189247  1
  Er  Er5  1  0.189247  0.810753  0.810753  1
  Er  Er6  1  0.189247  0.810753  0.189247  1
  Er  Er7  1  0.810753  0.189247  0.810753  1
  Er  Er8  1  0.189247  0.189247  0.810753  1
  Er  Er9  1  0.810753  0.810753  0.189247  1
  Er  Er10  1  0.933677  0.566323  0.566323  1
  Er  Er11  1  0.566323  0.933677  0.933677  1
  Er  Er12  1  0.566323  0.933677  0.566323  1
  Er  Er13  1  0.933677  0.566323  0.933677  1
  Er  Er14  1  0.566323  0.566323  0.933677  1
  Er  Er15  1  0.933677  0.933677  0.566323  1
  Cd  Cd16  1  0.582398  0.582398  0.582398  1
  Cd  Cd17  1  0.582398  0.582398  0.252804  1
  Cd  Cd18  1  0.582398  0.252804  0.582398  1
  Cd  Cd19  1  0.252804  0.582398  0.582398  1
  Pd  Pd20  1  0.144216  0.144216  0.144216  1
  Pd  Pd21  1  0.144216  0.144216  0.567352  1
  Pd  Pd22  1  0.144216  0.567352  0.144216  1
  Pd  Pd23  1  0.567352  0.144216  0.144216  1
