# generated using pymatgen
data_La7Nd9Cd3HgIr4
_symmetry_space_group_name_H-M   'P 1'
_cell_length_a   9.99047332
_cell_length_b   10.01625141
_cell_length_c   10.04487473
_cell_angle_alpha   59.76602879
_cell_angle_beta   60.11481045
_cell_angle_gamma   60.31852604
_symmetry_Int_Tables_number   1
_chemical_formula_structural   La7Nd9Cd3HgIr4
_chemical_formula_sum   'La7 Nd9 Cd3 Hg1 Ir4'
_cell_volume   711.79315749
_cell_formula_units_Z   1
loop_
 _symmetry_equiv_pos_site_id
 _symmetry_equiv_pos_as_xyz
  1  'x, y, z'
loop_
 _atom_site_type_symbol
 _atom_site_label
 _atom_site_symmetry_multiplicity
 _atom_site_fract_x
 _atom_site_fract_y
 _atom_site_fract_z
 _atom_site_occupancy
  La  La0  1  0.346251  0.346969  0.349416  1
  La  La1  1  0.349498  0.345497  0.955979  1
  La  La2  1  0.351268  0.954514  0.346630  1
  La  La3  1  0.956388  0.349191  0.349151  1
  La  La4  1  0.810588  0.189825  0.186904  1
  La  La5  1  0.186791  0.812009  0.810011  1
  La  La6  1  0.188748  0.810857  0.189014  1
  Nd  Nd7  1  0.807135  0.191662  0.807604  1
  Nd  Nd8  1  0.190105  0.193649  0.806649  1
  Nd  Nd9  1  0.804919  0.808127  0.190343  1
  Nd  Nd10  1  0.935410  0.564539  0.564483  1
  Nd  Nd11  1  0.563127  0.935674  0.935069  1
  Nd  Nd12  1  0.562334  0.937385  0.562999  1
  Nd  Nd13  1  0.937194  0.561911  0.937474  1
  Nd  Nd14  1  0.562044  0.561191  0.938091  1
  Nd  Nd15  1  0.937776  0.938792  0.561989  1
  Cd  Cd16  1  0.581867  0.580971  0.257619  1
  Cd  Cd17  1  0.579874  0.257670  0.582135  1
  Cd  Cd18  1  0.257519  0.578756  0.581851  1
  Hg  Hg19  1  0.585190  0.582611  0.582859  1
  Ir  Ir20  1  0.138872  0.139327  0.144815  1
  Ir  Ir21  1  0.145014  0.137097  0.575834  1
  Ir  Ir22  1  0.145611  0.577420  0.138741  1
  Ir  Ir23  1  0.576474  0.144353  0.144340  1
