# generated using pymatgen
data_ErNb3(PO4)6
_symmetry_space_group_name_H-M   'P 1'
_cell_length_a   8.89796467
_cell_length_b   9.16959535
_cell_length_c   8.89789900
_cell_angle_alpha   89.99766700
_cell_angle_beta   59.99931812
_cell_angle_gamma   119.02264177
_symmetry_Int_Tables_number   1
_chemical_formula_structural   ErNb3(PO4)6
_chemical_formula_sum   'Er1 Nb3 P6 O24'
_cell_volume   520.78783453
_cell_formula_units_Z   1
loop_
 _symmetry_equiv_pos_site_id
 _symmetry_equiv_pos_as_xyz
  1  'x, y, z'
loop_
 _atom_site_type_symbol
 _atom_site_label
 _atom_site_symmetry_multiplicity
 _atom_site_fract_x
 _atom_site_fract_y
 _atom_site_fract_z
 _atom_site_occupancy
  Er  Er0  1  0.722596  0.083835  0.638647  1
  Nb  Nb1  1  0.283875  0.925700  0.358053  1
  Nb  Nb2  1  0.285225  0.427724  0.857380  1
  Nb  Nb3  1  0.716339  0.574425  0.141778  1
  P  P4  1  0.785878  0.748817  0.748417  1
  P  P5  1  0.485263  0.250975  0.534778  1
  P  P6  1  0.497439  0.748886  0.465600  1
  P  P7  1  0.231042  0.251067  0.234183  1
  P  P8  1  0.785877  0.251012  0.979895  1
  P  P9  1  0.214617  0.748851  0.036893  1
  O  O10  1  0.651458  0.908971  0.478222  1
  O  O11  1  0.997629  0.708766  0.095156  1
  O  O12  1  0.220268  0.583939  0.005156  1
  O  O13  1  0.225652  0.779011  0.205630  1
  O  O14  1  0.986597  0.276627  0.951118  1
  O  O15  1  0.791618  0.416298  0.021594  1
  O  O16  1  0.788533  0.237132  0.810834  1
  O  O17  1  0.804180  0.708940  0.907121  1
  O  O18  1  0.984728  0.778896  0.568648  1
  O  O19  1  0.637972  0.237330  0.551218  1
  O  O20  1  0.779084  0.908787  0.742408  1
  O  O21  1  0.589189  0.583817  0.774658  1
  O  O22  1  0.591346  0.085585  0.150470  1
  O  O23  1  0.602886  0.416192  0.375229  1
  O  O24  1  0.227716  0.276490  0.062297  1
  O  O25  1  0.338885  0.276535  0.709910  1
  O  O26  1  0.616215  0.708895  0.288670  1
  O  O27  1  0.343877  0.085458  0.505734  1
  O  O28  1  0.387246  0.908848  0.870124  1
  O  O29  1  0.358759  0.583987  0.636142  1
  O  O30  1  0.236201  0.085669  0.258262  1
  O  O31  1  0.438090  0.416428  0.186525  1
  O  O32  1  0.347685  0.778848  0.446514  1
  O  O33  1  0.048167  0.237264  0.400604  1
