# generated using pymatgen
data_Cs4Li2DyInSb4
_symmetry_space_group_name_H-M   'P 1'
_cell_length_a   11.53661002
_cell_length_b   11.53660884
_cell_length_c   7.21421000
_cell_angle_alpha   90.00000000
_cell_angle_beta   90.00000000
_cell_angle_gamma   103.06424254
_symmetry_Int_Tables_number   1
_chemical_formula_structural   Cs4Li2DyInSb4
_chemical_formula_sum   'Cs8 Li4 Dy2 In2 Sb8'
_cell_volume   935.31173585
_cell_formula_units_Z   2
loop_
 _symmetry_equiv_pos_site_id
 _symmetry_equiv_pos_as_xyz
  1  'x, y, z'
loop_
 _atom_site_type_symbol
 _atom_site_label
 _atom_site_symmetry_multiplicity
 _atom_site_fract_x
 _atom_site_fract_y
 _atom_site_fract_z
 _atom_site_occupancy
  Cs  Cs0  1  0.572183  0.927817  0.750000  1
  Cs  Cs1  1  0.927817  0.572183  0.250000  1
  Cs  Cs2  1  0.422883  0.077117  0.250000  1
  Cs  Cs3  1  0.077117  0.422883  0.750000  1
  Cs  Cs4  1  0.669770  0.322891  0.775683  1
  Cs  Cs5  1  0.830230  0.177109  0.275683  1
  Cs  Cs6  1  0.322891  0.669770  0.224317  1
  Cs  Cs7  1  0.177109  0.830230  0.724317  1
  Li  Li8  1  0.618897  0.618897  0.000000  1
  Li  Li9  1  0.881103  0.881103  0.500000  1
  Li  Li10  1  0.377404  0.377404  0.000000  1
  Li  Li11  1  0.122596  0.122596  0.500000  1
  Dy  Dy12  1  0.874116  0.874116  0.000000  1
  Dy  Dy13  1  0.625884  0.625884  0.500000  1
  In  In14  1  0.130787  0.130787  0.000000  1
  In  In15  1  0.369213  0.369213  0.500000  1
  Sb  Sb16  1  0.339944  0.160056  0.750000  1
  Sb  Sb17  1  0.160056  0.339944  0.250000  1
  Sb  Sb18  1  0.659799  0.840201  0.250000  1
  Sb  Sb19  1  0.840201  0.659799  0.750000  1
  Sb  Sb20  1  0.914443  0.094665  0.762992  1
  Sb  Sb21  1  0.585557  0.405335  0.262992  1
  Sb  Sb22  1  0.094665  0.914443  0.237008  1
  Sb  Sb23  1  0.405335  0.585557  0.737008  1
