# generated using pymatgen
data_Ho3Lu13(NiAg)4
_symmetry_space_group_name_H-M   'P 1'
_cell_length_a   9.31666889
_cell_length_b   9.32677929
_cell_length_c   9.32677900
_cell_angle_alpha   59.99999747
_cell_angle_beta   59.96409303
_cell_angle_gamma   59.96409405
_symmetry_Int_Tables_number   1
_chemical_formula_structural   Ho3Lu13(NiAg)4
_chemical_formula_sum   'Ho3 Lu13 Ni4 Ag4'
_cell_volume   572.76058575
_cell_formula_units_Z   1
loop_
 _symmetry_equiv_pos_site_id
 _symmetry_equiv_pos_as_xyz
  1  'x, y, z'
loop_
 _atom_site_type_symbol
 _atom_site_label
 _atom_site_symmetry_multiplicity
 _atom_site_fract_x
 _atom_site_fract_y
 _atom_site_fract_z
 _atom_site_occupancy
  Ho  Ho0  1  0.350938  0.350557  0.350557  1
  Ho  Ho1  1  0.350938  0.350557  0.947947  1
  Ho  Ho2  1  0.350938  0.947947  0.350557  1
  Lu  Lu3  1  0.946658  0.351114  0.351114  1
  Lu  Lu4  1  0.811743  0.188248  0.188248  1
  Lu  Lu5  1  0.186920  0.812494  0.812494  1
  Lu  Lu6  1  0.186920  0.812494  0.188092  1
  Lu  Lu7  1  0.811743  0.188248  0.811761  1
  Lu  Lu8  1  0.186920  0.188092  0.812494  1
  Lu  Lu9  1  0.811743  0.811761  0.188248  1
  Lu  Lu10  1  0.936419  0.564053  0.564053  1
  Lu  Lu11  1  0.566002  0.934739  0.934739  1
  Lu  Lu12  1  0.566002  0.934739  0.564522  1
  Lu  Lu13  1  0.936419  0.564053  0.935478  1
  Lu  Lu14  1  0.566002  0.564522  0.934739  1
  Lu  Lu15  1  0.936419  0.935478  0.564053  1
  Ni  Ni16  1  0.140266  0.143813  0.143813  1
  Ni  Ni17  1  0.140266  0.143813  0.572110  1
  Ni  Ni18  1  0.140266  0.572110  0.143813  1
  Ni  Ni19  1  0.573373  0.142210  0.142210  1
  Ag  Ag20  1  0.583558  0.582576  0.582576  1
  Ag  Ag21  1  0.583558  0.582576  0.251289  1
  Ag  Ag22  1  0.583558  0.251289  0.582576  1
  Ag  Ag23  1  0.252435  0.582521  0.582521  1
