# generated using pymatgen
data_Zr3(MnIr2)2
_symmetry_space_group_name_H-M   'P 1'
_cell_length_a   5.10684379
_cell_length_b   5.06077034
_cell_length_c   12.94769332
_cell_angle_alpha   91.32674886
_cell_angle_beta   87.67369987
_cell_angle_gamma   117.35707246
_symmetry_Int_Tables_number   1
_chemical_formula_structural   Zr3(MnIr2)2
_chemical_formula_sum   'Zr6 Mn4 Ir8'
_cell_volume   296.95396794
_cell_formula_units_Z   2
loop_
 _symmetry_equiv_pos_site_id
 _symmetry_equiv_pos_as_xyz
  1  'x, y, z'
loop_
 _atom_site_type_symbol
 _atom_site_label
 _atom_site_symmetry_multiplicity
 _atom_site_fract_x
 _atom_site_fract_y
 _atom_site_fract_z
 _atom_site_occupancy
  Zr  Zr0  1  0.333418  0.661474  0.916128  1
  Zr  Zr1  1  0.007664  0.005524  0.249262  1
  Zr  Zr2  1  0.670796  0.333642  0.582383  1
  Zr  Zr3  1  0.329204  0.666358  0.667617  1
  Zr  Zr4  1  0.992336  0.994476  0.000738  1
  Zr  Zr5  1  0.666582  0.338526  0.333872  1
  Mn  Mn6  1  0.500000  0.500000  0.125000  1
  Mn  Mn7  1  0.166427  0.834031  0.458329  1
  Mn  Mn8  1  0.833573  0.165969  0.791671  1
  Mn  Mn9  1  0.500000  0.000000  0.125000  1
  Ir  Ir10  1  0.165420  0.334731  0.455013  1
  Ir  Ir11  1  0.834580  0.665269  0.794987  1
  Ir  Ir12  1  0.347807  0.687942  0.288754  1
  Ir  Ir13  1  0.000000  0.000000  0.625000  1
  Ir  Ir14  1  0.652193  0.312058  0.961246  1
  Ir  Ir15  1  0.000000  0.500000  0.125000  1
  Ir  Ir16  1  0.664759  0.833526  0.459874  1
  Ir  Ir17  1  0.335241  0.166474  0.790126  1
