# generated using pymatgen
data_La14Nd2Cd4IrPd3
_symmetry_space_group_name_H-M   'P 1'
_cell_length_a   10.19810837
_cell_length_b   10.15338708
_cell_length_c   10.15948200
_cell_angle_alpha   59.98059662
_cell_angle_beta   60.12530386
_cell_angle_gamma   60.21439569
_symmetry_Int_Tables_number   1
_chemical_formula_structural   La14Nd2Cd4IrPd3
_chemical_formula_sum   'La14 Nd2 Cd4 Ir1 Pd3'
_cell_volume   745.64610664
_cell_formula_units_Z   1
loop_
 _symmetry_equiv_pos_site_id
 _symmetry_equiv_pos_as_xyz
  1  'x, y, z'
loop_
 _atom_site_type_symbol
 _atom_site_label
 _atom_site_symmetry_multiplicity
 _atom_site_fract_x
 _atom_site_fract_y
 _atom_site_fract_z
 _atom_site_occupancy
  La  La0  1  0.352860  0.347263  0.346221  1
  La  La1  1  0.352865  0.347237  0.953670  1
  La  La2  1  0.352740  0.951835  0.347710  1
  La  La3  1  0.940900  0.352463  0.353315  1
  La  La4  1  0.804913  0.190520  0.191040  1
  La  La5  1  0.196264  0.806621  0.805116  1
  La  La6  1  0.196274  0.806627  0.192003  1
  La  La7  1  0.804917  0.190510  0.813529  1
  La  La8  1  0.195442  0.191430  0.806568  1
  La  La9  1  0.804216  0.814124  0.190830  1
  La  La10  1  0.937580  0.564458  0.565486  1
  La  La11  1  0.566938  0.936552  0.935176  1
  La  La12  1  0.566943  0.936557  0.561333  1
  La  La13  1  0.937585  0.564456  0.932447  1
  Nd  Nd14  1  0.565618  0.559525  0.937427  1
  Nd  Nd15  1  0.938775  0.935639  0.562794  1
  Cd  Cd16  1  0.578449  0.580439  0.581289  1
  Cd  Cd17  1  0.578451  0.580442  0.259816  1
  Cd  Cd18  1  0.579238  0.259727  0.580517  1
  Cd  Cd19  1  0.260994  0.580041  0.579486  1
  Ir  Ir20  1  0.572187  0.142598  0.142612  1
  Pd  Pd21  1  0.138370  0.144554  0.145779  1
  Pd  Pd22  1  0.138371  0.144556  0.571297  1
  Pd  Pd23  1  0.139105  0.571820  0.144536  1
