# generated using pymatgen
data_Er2Tm6B24Ir3Ru
_symmetry_space_group_name_H-M   'P 1'
_cell_length_a   3.61294900
_cell_length_b   9.12452848
_cell_length_c   11.44283200
_cell_angle_alpha   90.01844760
_cell_angle_beta   90.00000000
_cell_angle_gamma   90.00000000
_symmetry_Int_Tables_number   1
_chemical_formula_structural   Er2Tm6B24Ir3Ru
_chemical_formula_sum   'Er2 Tm6 B24 Ir3 Ru1'
_cell_volume   377.22959849
_cell_formula_units_Z   1
loop_
 _symmetry_equiv_pos_site_id
 _symmetry_equiv_pos_as_xyz
  1  'x, y, z'
loop_
 _atom_site_type_symbol
 _atom_site_label
 _atom_site_symmetry_multiplicity
 _atom_site_fract_x
 _atom_site_fract_y
 _atom_site_fract_z
 _atom_site_occupancy
  Er  Er0  1  0.000000  0.320275  0.413264  1
  Er  Er1  1  0.000000  0.680901  0.588046  1
  Tm  Tm2  1  0.000000  0.820416  0.084843  1
  Tm  Tm3  1  0.000000  0.177735  0.913007  1
  Tm  Tm4  1  0.000000  0.944082  0.373987  1
  Tm  Tm5  1  0.000000  0.054290  0.627023  1
  Tm  Tm6  1  0.000000  0.444123  0.125662  1
  Tm  Tm7  1  0.000000  0.557685  0.874326  1
  B  B8  1  0.500000  0.553739  0.434784  1
  B  B9  1  0.500000  0.446410  0.565472  1
  B  B10  1  0.500000  0.053204  0.065322  1
  B  B11  1  0.500000  0.946046  0.933877  1
  B  B12  1  0.500000  0.750284  0.421086  1
  B  B13  1  0.500000  0.249807  0.579102  1
  B  B14  1  0.500000  0.249719  0.078749  1
  B  B15  1  0.500000  0.751447  0.920270  1
  B  B16  1  0.500000  0.793536  0.264602  1
  B  B17  1  0.500000  0.206578  0.734778  1
  B  B18  1  0.500000  0.293822  0.235148  1
  B  B19  1  0.500000  0.707554  0.765776  1
  B  B20  1  0.500000  0.631848  0.183578  1
  B  B21  1  0.500000  0.368187  0.816336  1
  B  B22  1  0.500000  0.132131  0.316166  1
  B  B23  1  0.500000  0.868455  0.685000  1
  B  B24  1  0.500000  0.981089  0.213104  1
  B  B25  1  0.500000  0.017359  0.786633  1
  B  B26  1  0.500000  0.481497  0.286276  1
  B  B27  1  0.500000  0.518545  0.714074  1
  B  B28  1  0.500000  0.609292  0.030255  1
  B  B29  1  0.500000  0.390263  0.970058  1
  B  B30  1  0.500000  0.108924  0.470043  1
  B  B31  1  0.500000  0.891100  0.529611  1
  Ir  Ir32  1  0.000000  0.638411  0.321438  1
  Ir  Ir33  1  0.000000  0.361850  0.679022  1
  Ir  Ir34  1  0.000000  0.137417  0.178018  1
  Ru  Ru35  1  0.000000  0.861979  0.821268  1
