# generated using pymatgen
data_Nd3SmRe16Si7Ge
_symmetry_space_group_name_H-M   'P 1'
_cell_length_a   4.16731800
_cell_length_b   7.36009931
_cell_length_c   15.54958777
_cell_angle_alpha   89.96729978
_cell_angle_beta   90.00000000
_cell_angle_gamma   90.00000000
_symmetry_Int_Tables_number   1
_chemical_formula_structural   Nd3SmRe16Si7Ge
_chemical_formula_sum   'Nd3 Sm1 Re16 Si7 Ge1'
_cell_volume   476.93492432
_cell_formula_units_Z   1
loop_
 _symmetry_equiv_pos_site_id
 _symmetry_equiv_pos_as_xyz
  1  'x, y, z'
loop_
 _atom_site_type_symbol
 _atom_site_label
 _atom_site_symmetry_multiplicity
 _atom_site_fract_x
 _atom_site_fract_y
 _atom_site_fract_z
 _atom_site_occupancy
  Nd  Nd0  1  0.000000  0.419807  0.882071  1
  Nd  Nd1  1  0.500000  0.082377  0.380636  1
  Nd  Nd2  1  0.500000  0.922403  0.620287  1
  Sm  Sm3  1  0.000000  0.578733  0.118170  1
  Re  Re4  1  0.000000  0.137507  0.051955  1
  Re  Re5  1  0.000000  0.860647  0.948266  1
  Re  Re6  1  0.500000  0.634306  0.446450  1
  Re  Re7  1  0.500000  0.362897  0.552133  1
  Re  Re8  1  0.000000  0.731193  0.319865  1
  Re  Re9  1  0.000000  0.267619  0.679942  1
  Re  Re10  1  0.500000  0.232346  0.178151  1
  Re  Re11  1  0.500000  0.766260  0.821335  1
  Re  Re12  1  0.000000  0.431507  0.417774  1
  Re  Re13  1  0.000000  0.565892  0.581574  1
  Re  Re14  1  0.500000  0.931122  0.081630  1
  Re  Re15  1  0.500000  0.066181  0.918623  1
  Re  Re16  1  0.000000  0.988995  0.205842  1
  Re  Re17  1  0.000000  0.008041  0.793957  1
  Re  Re18  1  0.500000  0.489651  0.292350  1
  Re  Re19  1  0.500000  0.508399  0.706679  1
  Si  Si20  1  0.000000  0.178665  0.525453  1
  Si  Si21  1  0.500000  0.327485  0.024154  1
  Si  Si22  1  0.500000  0.670859  0.976172  1
  Si  Si23  1  0.000000  0.292677  0.272228  1
  Si  Si24  1  0.000000  0.705919  0.726799  1
  Si  Si25  1  0.500000  0.791075  0.226113  1
  Si  Si26  1  0.500000  0.206969  0.774052  1
  Ge  Ge27  1  0.000000  0.840467  0.477341  1
