# generated using pymatgen
data_Sc8In3PbAu8
_symmetry_space_group_name_H-M   'P 1'
_cell_length_a   7.77042500
_cell_length_b   7.77042500
_cell_length_c   6.94854800
_cell_angle_alpha   90.00000000
_cell_angle_beta   90.00000000
_cell_angle_gamma   90.00000000
_symmetry_Int_Tables_number   1
_chemical_formula_structural   Sc8In3PbAu8
_chemical_formula_sum   'Sc8 In3 Pb1 Au8'
_cell_volume   419.54988649
_cell_formula_units_Z   1
loop_
 _symmetry_equiv_pos_site_id
 _symmetry_equiv_pos_as_xyz
  1  'x, y, z'
loop_
 _atom_site_type_symbol
 _atom_site_label
 _atom_site_symmetry_multiplicity
 _atom_site_fract_x
 _atom_site_fract_y
 _atom_site_fract_z
 _atom_site_occupancy
  Sc  Sc0  1  0.153147  0.154877  0.998272  1
  Sc  Sc1  1  0.846853  0.845123  0.998272  1
  Sc  Sc2  1  0.654877  0.346853  0.501728  1
  Sc  Sc3  1  0.345123  0.653147  0.501728  1
  Sc  Sc4  1  0.680755  0.320955  0.998613  1
  Sc  Sc5  1  0.319245  0.679045  0.998613  1
  Sc  Sc6  1  0.820955  0.819245  0.501387  1
  Sc  Sc7  1  0.179045  0.180755  0.501387  1
  In  In8  1  0.500000  0.000000  0.750000  1
  In  In9  1  0.000000  0.500000  0.250000  1
  In  In10  1  0.000000  0.500000  0.750000  1
  Pb  Pb11  1  0.500000  0.000000  0.250000  1
  Au  Au12  1  0.366745  0.373985  0.223849  1
  Au  Au13  1  0.630584  0.630832  0.775344  1
  Au  Au14  1  0.633255  0.626015  0.223849  1
  Au  Au15  1  0.869168  0.130584  0.724656  1
  Au  Au16  1  0.873985  0.133255  0.276151  1
  Au  Au17  1  0.369416  0.369168  0.775344  1
  Au  Au18  1  0.126015  0.866745  0.276151  1
  Au  Au19  1  0.130832  0.869416  0.724656  1
