# generated using pymatgen
data_NaSrVS4
_symmetry_space_group_name_H-M   'P 1'
_cell_length_a   9.26868600
_cell_length_b   6.40638720
_cell_length_c   11.97802923
_cell_angle_alpha   70.88615066
_cell_angle_beta   90.00000000
_cell_angle_gamma   90.00000000
_symmetry_Int_Tables_number   1
_chemical_formula_structural   NaSrVS4
_chemical_formula_sum   'Na4 Sr4 V4 S16'
_cell_volume   672.03003850
_cell_formula_units_Z   4
loop_
 _symmetry_equiv_pos_site_id
 _symmetry_equiv_pos_as_xyz
  1  'x, y, z'
loop_
 _atom_site_type_symbol
 _atom_site_label
 _atom_site_symmetry_multiplicity
 _atom_site_fract_x
 _atom_site_fract_y
 _atom_site_fract_z
 _atom_site_occupancy
  Na  Na0  1  0.120317  0.222553  0.023949  1
  Na  Na1  1  0.379683  0.222553  0.523949  1
  Na  Na2  1  0.879683  0.777447  0.976051  1
  Na  Na3  1  0.620317  0.777447  0.476051  1
  Sr  Sr4  1  0.881978  0.385632  0.342271  1
  Sr  Sr5  1  0.618022  0.385632  0.842271  1
  Sr  Sr6  1  0.118022  0.614368  0.657729  1
  Sr  Sr7  1  0.381978  0.614368  0.157729  1
  V  V8  1  0.622710  0.124135  0.179608  1
  V  V9  1  0.877290  0.124135  0.679608  1
  V  V10  1  0.377290  0.875865  0.820392  1
  V  V11  1  0.122710  0.875865  0.320392  1
  S  S12  1  0.804991  0.316494  0.089836  1
  S  S13  1  0.695009  0.316494  0.589836  1
  S  S14  1  0.195009  0.683506  0.910164  1
  S  S15  1  0.304991  0.683506  0.410164  1
  S  S16  1  0.936807  0.803363  0.432323  1
  S  S17  1  0.563193  0.803363  0.932323  1
  S  S18  1  0.063193  0.196637  0.567677  1
  S  S19  1  0.436807  0.196637  0.067677  1
  S  S20  1  0.571895  0.222016  0.332502  1
  S  S21  1  0.928105  0.222016  0.832502  1
  S  S22  1  0.428105  0.777984  0.667498  1
  S  S23  1  0.071895  0.777984  0.167498  1
  S  S24  1  0.166636  0.224180  0.269997  1
  S  S25  1  0.333364  0.224180  0.769997  1
  S  S26  1  0.833364  0.775820  0.730003  1
  S  S27  1  0.666636  0.775820  0.230003  1
