# generated using pymatgen
data_LaYb11HgRu3
_symmetry_space_group_name_H-M   'P 1'
_cell_length_a   6.40429951
_cell_length_b   7.71866872
_cell_length_c   9.51126200
_cell_angle_alpha   90.00000000
_cell_angle_beta   90.00000000
_cell_angle_gamma   90.27722933
_symmetry_Int_Tables_number   1
_chemical_formula_structural   LaYb11HgRu3
_chemical_formula_sum   'La1 Yb11 Hg1 Ru3'
_cell_volume   470.16153726
_cell_formula_units_Z   1
loop_
 _symmetry_equiv_pos_site_id
 _symmetry_equiv_pos_as_xyz
  1  'x, y, z'
loop_
 _atom_site_type_symbol
 _atom_site_label
 _atom_site_symmetry_multiplicity
 _atom_site_fract_x
 _atom_site_fract_y
 _atom_site_fract_z
 _atom_site_occupancy
  La  La0  1  0.348881  0.943966  0.750000  1
  Yb  Yb1  1  0.355984  0.650341  0.061218  1
  Yb  Yb2  1  0.159778  0.190698  0.443367  1
  Yb  Yb3  1  0.661492  0.330595  0.571682  1
  Yb  Yb4  1  0.836977  0.833404  0.925366  1
  Yb  Yb5  1  0.661492  0.330595  0.928318  1
  Yb  Yb6  1  0.836977  0.833404  0.574634  1
  Yb  Yb7  1  0.355984  0.650341  0.438782  1
  Yb  Yb8  1  0.159778  0.190698  0.056633  1
  Yb  Yb9  1  0.856921  0.518008  0.250000  1
  Yb  Yb10  1  0.605702  0.050262  0.250000  1
  Yb  Yb11  1  0.136238  0.461583  0.750000  1
  Hg  Hg12  1  0.055980  0.881344  0.250000  1
  Ru  Ru13  1  0.454404  0.376379  0.250000  1
  Ru  Ru14  1  0.996798  0.113121  0.750000  1
  Ru  Ru15  1  0.516615  0.645258  0.750000  1
