# generated using pymatgen
data_TmLu3(CuSi3)2
_symmetry_space_group_name_H-M   'P 1'
_cell_length_a   7.92611647
_cell_length_b   7.91150648
_cell_length_c   5.58518945
_cell_angle_alpha   69.49060018
_cell_angle_beta   69.21014608
_cell_angle_gamma   41.29925158
_symmetry_Int_Tables_number   1
_chemical_formula_structural   TmLu3(CuSi3)2
_chemical_formula_sum   'Tm1 Lu3 Cu2 Si6'
_cell_volume   214.10291582
_cell_formula_units_Z   1
loop_
 _symmetry_equiv_pos_site_id
 _symmetry_equiv_pos_as_xyz
  1  'x, y, z'
loop_
 _atom_site_type_symbol
 _atom_site_label
 _atom_site_symmetry_multiplicity
 _atom_site_fract_x
 _atom_site_fract_y
 _atom_site_fract_z
 _atom_site_occupancy
  Tm  Tm0  1  0.750000  0.750000  0.750000  1
  Lu  Lu1  1  0.250000  0.250000  0.249999  1
  Lu  Lu2  1  0.743785  0.256215  0.256215  1
  Lu  Lu3  1  0.256216  0.743785  0.743784  1
  Cu  Cu4  1  0.833175  0.833175  0.166825  1
  Cu  Cu5  1  0.166824  0.166825  0.833176  1
  Si  Si6  1  0.328601  0.840124  0.159937  1
  Si  Si7  1  0.159936  0.671341  0.328601  1
  Si  Si8  1  0.668390  0.668390  0.331611  1
  Si  Si9  1  0.331610  0.331610  0.668391  1
  Si  Si10  1  0.840124  0.328601  0.671340  1
  Si  Si11  1  0.671340  0.159937  0.840124  1
