# generated using pymatgen
data_La7TbSc12Si15Au
_symmetry_space_group_name_H-M   'P 1'
_cell_length_a   7.31964235
_cell_length_b   7.57468941
_cell_length_c   14.37729143
_cell_angle_alpha   89.89559181
_cell_angle_beta   89.78016137
_cell_angle_gamma   90.32942155
_symmetry_Int_Tables_number   1
_chemical_formula_structural   La7TbSc12Si15Au
_chemical_formula_sum   'La7 Tb1 Sc12 Si15 Au1'
_cell_volume   797.11439779
_cell_formula_units_Z   1
loop_
 _symmetry_equiv_pos_site_id
 _symmetry_equiv_pos_as_xyz
  1  'x, y, z'
loop_
 _atom_site_type_symbol
 _atom_site_label
 _atom_site_symmetry_multiplicity
 _atom_site_fract_x
 _atom_site_fract_y
 _atom_site_fract_z
 _atom_site_occupancy
  La  La0  1  0.011908  0.171110  0.097926  1
  La  La1  1  0.988750  0.829477  0.901488  1
  La  La2  1  0.488141  0.671504  0.902812  1
  La  La3  1  0.990966  0.831223  0.596841  1
  La  La4  1  0.510823  0.328471  0.096413  1
  La  La5  1  0.010020  0.172096  0.401182  1
  La  La6  1  0.510480  0.326492  0.402332  1
  Tb  Tb7  1  0.493168  0.675755  0.603084  1
  Sc  Sc8  1  0.162027  0.498030  0.749699  1
  Sc  Sc9  1  0.838908  0.503924  0.251491  1
  Sc  Sc10  1  0.339279  0.992230  0.248829  1
  Sc  Sc11  1  0.664332  0.002229  0.750453  1
  Sc  Sc12  1  0.339794  0.176347  0.627355  1
  Sc  Sc13  1  0.666379  0.823637  0.374720  1
  Sc  Sc14  1  0.169330  0.672172  0.373707  1
  Sc  Sc15  1  0.670701  0.825960  0.124872  1
  Sc  Sc16  1  0.823031  0.327481  0.624975  1
  Sc  Sc17  1  0.329602  0.173136  0.873135  1
  Sc  Sc18  1  0.829563  0.325097  0.873846  1
  Sc  Sc19  1  0.168089  0.675855  0.125166  1
  Si  Si20  1  0.034209  0.132246  0.748863  1
  Si  Si21  1  0.965621  0.871793  0.250538  1
  Si  Si22  1  0.465870  0.625993  0.248771  1
  Si  Si23  1  0.535638  0.379502  0.750504  1
  Si  Si24  1  0.292143  0.882051  0.748501  1
  Si  Si25  1  0.708193  0.114858  0.249376  1
  Si  Si26  1  0.209671  0.384013  0.248852  1
  Si  Si27  1  0.789039  0.618714  0.749215  1
  Si  Si28  1  0.839256  0.541299  0.459878  1
  Si  Si29  1  0.349016  0.954531  0.463541  1
  Si  Si30  1  0.850933  0.537706  0.038604  1
  Si  Si31  1  0.647609  0.031399  0.540832  1
  Si  Si32  1  0.147881  0.461483  0.960464  1
  Si  Si33  1  0.650265  0.037984  0.959221  1
  Si  Si34  1  0.349263  0.962108  0.039080  1
  Au  Au35  1  0.160099  0.462094  0.543436  1
