# generated using pymatgen
data_Tb2SmZn2Co9B4
_symmetry_space_group_name_H-M   'P 1'
_cell_length_a   5.13287432
_cell_length_b   5.13274142
_cell_length_c   9.69571500
_cell_angle_alpha   89.99991540
_cell_angle_beta   90.00006236
_cell_angle_gamma   120.01902278
_symmetry_Int_Tables_number   1
_chemical_formula_structural   Tb2SmZn2Co9B4
_chemical_formula_sum   'Tb2 Sm1 Zn2 Co9 B4'
_cell_volume   221.17559725
_cell_formula_units_Z   1
loop_
 _symmetry_equiv_pos_site_id
 _symmetry_equiv_pos_as_xyz
  1  'x, y, z'
loop_
 _atom_site_type_symbol
 _atom_site_label
 _atom_site_symmetry_multiplicity
 _atom_site_fract_x
 _atom_site_fract_y
 _atom_site_fract_z
 _atom_site_occupancy
  Tb  Tb0  1  0.999995  0.000000  0.342655  1
  Tb  Tb1  1  0.999998  0.999999  0.657277  1
  Sm  Sm2  1  0.999991  0.000000  0.000055  1
  Zn  Zn3  1  0.333366  0.666856  0.000038  1
  Zn  Zn4  1  0.666616  0.333144  0.000039  1
  Co  Co5  1  0.499997  0.000000  0.499979  1
  Co  Co6  1  0.499997  0.500001  0.499995  1
  Co  Co7  1  0.999996  0.500000  0.499977  1
  Co  Co8  1  0.499994  0.000000  0.212194  1
  Co  Co9  1  0.499994  0.500001  0.212221  1
  Co  Co10  1  0.999990  0.500000  0.212212  1
  Co  Co11  1  0.499996  0.000000  0.787818  1
  Co  Co12  1  0.499997  0.500000  0.787760  1
  Co  Co13  1  0.999996  0.499999  0.787834  1
  B  B14  1  0.333356  0.666694  0.351628  1
  B  B15  1  0.666630  0.333306  0.351629  1
  B  B16  1  0.666773  0.333378  0.648346  1
  B  B17  1  0.333220  0.666621  0.648346  1
