# generated using pymatgen
data_Nd6Si3Sn7Au12
_symmetry_space_group_name_H-M   'P 1'
_cell_length_a   4.49321700
_cell_length_b   10.29562568
_cell_length_c   13.54686332
_cell_angle_alpha   90.02312949
_cell_angle_beta   90.00000000
_cell_angle_gamma   90.00000000
_symmetry_Int_Tables_number   1
_chemical_formula_structural   Nd6Si3Sn7Au12
_chemical_formula_sum   'Nd6 Si3 Sn7 Au12'
_cell_volume   626.68435289
_cell_formula_units_Z   1
loop_
 _symmetry_equiv_pos_site_id
 _symmetry_equiv_pos_as_xyz
  1  'x, y, z'
loop_
 _atom_site_type_symbol
 _atom_site_label
 _atom_site_symmetry_multiplicity
 _atom_site_fract_x
 _atom_site_fract_y
 _atom_site_fract_z
 _atom_site_occupancy
  Nd  Nd0  1  0.000000  0.735815  0.813911  1
  Nd  Nd1  1  0.000000  0.739772  0.182058  1
  Nd  Nd2  1  0.500000  0.262914  0.690151  1
  Nd  Nd3  1  0.500000  0.258619  0.310386  1
  Nd  Nd4  1  0.000000  0.736587  0.505833  1
  Nd  Nd5  1  0.500000  0.264894  0.997644  1
  Si  Si6  1  0.000000  0.380573  0.841202  1
  Si  Si7  1  0.000000  0.379689  0.158285  1
  Si  Si8  1  0.500000  0.620295  0.662572  1
  Sn  Sn9  1  0.500000  0.624105  0.342585  1
  Sn  Sn10  1  0.000000  0.028051  0.358533  1
  Sn  Sn11  1  0.000000  0.021277  0.644376  1
  Sn  Sn12  1  0.500000  0.980013  0.137009  1
  Sn  Sn13  1  0.500000  0.978738  0.857020  1
  Sn  Sn14  1  0.000000  0.288304  0.502469  1
  Sn  Sn15  1  0.500000  0.708305  0.998515  1
  Au  Au16  1  0.000000  0.143803  0.837653  1
  Au  Au17  1  0.000000  0.143749  0.157341  1
  Au  Au18  1  0.500000  0.856691  0.662472  1
  Au  Au19  1  0.500000  0.880770  0.334608  1
  Au  Au20  1  0.000000  0.508450  0.998854  1
  Au  Au21  1  0.500000  0.477890  0.512355  1
  Au  Au22  1  0.000000  0.469930  0.336780  1
  Au  Au23  1  0.000000  0.493773  0.665581  1
  Au  Au24  1  0.500000  0.502410  0.152228  1
  Au  Au25  1  0.500000  0.509186  0.837769  1
  Au  Au26  1  0.000000  0.944931  0.997293  1
  Au  Au27  1  0.500000  0.060460  0.504517  1
