# generated using pymatgen
data_Lu4FeRu7
_symmetry_space_group_name_H-M   'P 1'
_cell_length_a   5.17128874
_cell_length_b   5.27428361
_cell_length_c   8.79110600
_cell_angle_alpha   90.00000000
_cell_angle_beta   90.00000000
_cell_angle_gamma   120.66199221
_symmetry_Int_Tables_number   1
_chemical_formula_structural   Lu4FeRu7
_chemical_formula_sum   'Lu4 Fe1 Ru7'
_cell_volume   206.25313306
_cell_formula_units_Z   1
loop_
 _symmetry_equiv_pos_site_id
 _symmetry_equiv_pos_as_xyz
  1  'x, y, z'
loop_
 _atom_site_type_symbol
 _atom_site_label
 _atom_site_symmetry_multiplicity
 _atom_site_fract_x
 _atom_site_fract_y
 _atom_site_fract_z
 _atom_site_occupancy
  Lu  Lu0  1  0.335875  0.667933  0.066929  1
  Lu  Lu1  1  0.335875  0.667933  0.433071  1
  Lu  Lu2  1  0.664138  0.332071  0.566062  1
  Lu  Lu3  1  0.664138  0.332071  0.933938  1
  Fe  Fe4  1  0.334173  0.167083  0.250000  1
  Ru  Ru5  1  0.004629  0.002316  0.001982  1
  Ru  Ru6  1  0.826760  0.173639  0.250000  1
  Ru  Ru7  1  0.826774  0.653108  0.250000  1
  Ru  Ru8  1  0.004629  0.002316  0.498018  1
  Ru  Ru9  1  0.171154  0.343533  0.750000  1
  Ru  Ru10  1  0.171153  0.827640  0.750000  1
  Ru  Ru11  1  0.660704  0.830358  0.750000  1
