# generated using pymatgen
data_La12CdCoNi5
_symmetry_space_group_name_H-M   'P 1'
_cell_length_a   8.79540633
_cell_length_b   8.82533134
_cell_length_c   8.79540600
_cell_angle_alpha   110.00736439
_cell_angle_beta   109.30854939
_cell_angle_gamma   108.96159792
_symmetry_Int_Tables_number   1
_chemical_formula_structural   La12CdCoNi5
_chemical_formula_sum   'La12 Cd1 Co1 Ni5'
_cell_volume   526.40537598
_cell_formula_units_Z   1
loop_
 _symmetry_equiv_pos_site_id
 _symmetry_equiv_pos_as_xyz
  1  'x, y, z'
loop_
 _atom_site_type_symbol
 _atom_site_label
 _atom_site_symmetry_multiplicity
 _atom_site_fract_x
 _atom_site_fract_y
 _atom_site_fract_z
 _atom_site_occupancy
  La  La0  1  0.818022  0.688778  0.508346  1
  La  La1  1  0.180455  0.309469  0.491268  1
  La  La2  1  0.180429  0.688778  0.870757  1
  La  La3  1  0.818203  0.309469  0.129013  1
  La  La4  1  0.691281  0.506920  0.815640  1
  La  La5  1  0.308515  0.492527  0.184011  1
  La  La6  1  0.691618  0.876168  0.184550  1
  La  La7  1  0.307395  0.123929  0.816535  1
  La  La8  1  0.510387  0.818203  0.692411  1
  La  La9  1  0.501815  0.189362  0.312637  1
  La  La10  1  0.125791  0.818203  0.307815  1
  La  La11  1  0.876725  0.189362  0.687547  1
  Cd  Cd12  1  0.000442  0.000446  0.000003  1
  Co  Co13  1  0.865721  0.364950  0.499229  1
  Ni  Ni14  1  0.126718  0.626271  0.499553  1
  Ni  Ni15  1  0.375451  0.500128  0.875242  1
  Ni  Ni16  1  0.624886  0.500128  0.124677  1
  Ni  Ni17  1  0.497983  0.872210  0.374227  1
  Ni  Ni18  1  0.498162  0.124699  0.626537  1
