# generated using pymatgen
data_La8Yb(Ir2Rh)2
_symmetry_space_group_name_H-M   'P 1'
_cell_length_a   7.74142557
_cell_length_b   7.76107094
_cell_length_c   7.74782000
_cell_angle_alpha   69.75885243
_cell_angle_beta   69.74235901
_cell_angle_gamma   69.63522083
_symmetry_Int_Tables_number   1
_chemical_formula_structural   La8Yb(Ir2Rh)2
_chemical_formula_sum   'La8 Yb1 Ir4 Rh2'
_cell_volume   395.72965224
_cell_formula_units_Z   1
loop_
 _symmetry_equiv_pos_site_id
 _symmetry_equiv_pos_as_xyz
  1  'x, y, z'
loop_
 _atom_site_type_symbol
 _atom_site_label
 _atom_site_symmetry_multiplicity
 _atom_site_fract_x
 _atom_site_fract_y
 _atom_site_fract_z
 _atom_site_occupancy
  La  La0  1  0.806645  0.804416  0.806636  1
  La  La1  1  0.192372  0.192918  0.193841  1
  La  La2  1  0.146005  0.391950  0.676755  1
  La  La3  1  0.675020  0.145161  0.392469  1
  La  La4  1  0.390396  0.674381  0.145607  1
  La  La5  1  0.855403  0.610412  0.322263  1
  La  La6  1  0.325516  0.852036  0.610957  1
  La  La7  1  0.608000  0.326018  0.853034  1
  Yb  Yb8  1  0.000546  0.000107  0.000104  1
  Ir  Ir9  1  0.182812  0.581372  0.948410  1
  Ir  Ir10  1  0.050763  0.820087  0.417888  1
  Ir  Ir11  1  0.419075  0.051471  0.818872  1
  Ir  Ir12  1  0.817808  0.416957  0.052364  1
  Rh  Rh13  1  0.948403  0.183102  0.579561  1
  Rh  Rh14  1  0.581234  0.949615  0.181240  1
