# generated using pymatgen
data_Dy4Er7TmNi4
_symmetry_space_group_name_H-M   'P 1'
_cell_length_a   6.31467535
_cell_length_b   6.79598119
_cell_length_c   9.46777900
_cell_angle_alpha   89.96615864
_cell_angle_beta   90.09861011
_cell_angle_gamma   90.00200576
_symmetry_Int_Tables_number   1
_chemical_formula_structural   Dy4Er7TmNi4
_chemical_formula_sum   'Dy4 Er7 Tm1 Ni4'
_cell_volume   406.30352343
_cell_formula_units_Z   1
loop_
 _symmetry_equiv_pos_site_id
 _symmetry_equiv_pos_as_xyz
  1  'x, y, z'
loop_
 _atom_site_type_symbol
 _atom_site_label
 _atom_site_symmetry_multiplicity
 _atom_site_fract_x
 _atom_site_fract_y
 _atom_site_fract_z
 _atom_site_occupancy
  Dy  Dy0  1  0.862501  0.529845  0.249320  1
  Dy  Dy1  1  0.636965  0.029764  0.249357  1
  Dy  Dy2  1  0.137594  0.470537  0.750153  1
  Dy  Dy3  1  0.362731  0.970488  0.750364  1
  Er  Er4  1  0.179520  0.177647  0.434917  1
  Er  Er5  1  0.679456  0.322431  0.564527  1
  Er  Er6  1  0.820459  0.822180  0.933833  1
  Er  Er7  1  0.680306  0.322294  0.933353  1
  Er  Er8  1  0.820087  0.822493  0.564845  1
  Er  Er9  1  0.319786  0.678085  0.434729  1
  Er  Er10  1  0.180102  0.177584  0.066448  1
  Tm  Tm11  1  0.320858  0.676827  0.066739  1
  Ni  Ni12  1  0.056926  0.891690  0.250774  1
  Ni  Ni13  1  0.442344  0.391933  0.252584  1
  Ni  Ni14  1  0.942740  0.108113  0.749350  1
  Ni  Ni15  1  0.557625  0.608090  0.748705  1
