# generated using pymatgen
data_CeP2Se7
_symmetry_space_group_name_H-M   'P 1'
_cell_length_a   18.08709957
_cell_length_b   16.87833695
_cell_length_c   9.50016587
_cell_angle_alpha   81.39402004
_cell_angle_beta   67.31855870
_cell_angle_gamma   31.28741962
_symmetry_Int_Tables_number   1
_chemical_formula_structural   CeP2Se7
_chemical_formula_sum   'Ce4 P8 Se28'
_cell_volume   1288.03773814
_cell_formula_units_Z   4
loop_
 _symmetry_equiv_pos_site_id
 _symmetry_equiv_pos_as_xyz
  1  'x, y, z'
loop_
 _atom_site_type_symbol
 _atom_site_label
 _atom_site_symmetry_multiplicity
 _atom_site_fract_x
 _atom_site_fract_y
 _atom_site_fract_z
 _atom_site_occupancy
  Ce  Ce0  1  0.111308  0.111308  0.888692  1
  Ce  Ce1  1  0.888692  0.888692  0.111308  1
  Ce  Ce2  1  0.138692  0.138692  0.361308  1
  Ce  Ce3  1  0.361308  0.361308  0.138692  1
  P  P4  1  0.252488  0.860885  0.131467  1
  P  P5  1  0.755160  0.131467  0.860885  1
  P  P6  1  0.131467  0.755160  0.252488  1
  P  P7  1  0.860885  0.252488  0.755160  1
  P  P8  1  0.997512  0.389115  0.118533  1
  P  P9  1  0.494840  0.118533  0.389115  1
  P  P10  1  0.118533  0.494840  0.997512  1
  P  P11  1  0.389115  0.997512  0.494840  1
  Se  Se12  1  0.639526  0.998842  0.115844  1
  Se  Se13  1  0.245788  0.115844  0.998842  1
  Se  Se14  1  0.115844  0.245788  0.639526  1
  Se  Se15  1  0.998842  0.639526  0.245788  1
  Se  Se16  1  0.610474  0.251158  0.134156  1
  Se  Se17  1  0.004212  0.134156  0.251158  1
  Se  Se18  1  0.134156  0.004212  0.610474  1
  Se  Se19  1  0.251158  0.610474  0.004212  1
  Se  Se20  1  0.418657  0.793947  0.149473  1
  Se  Se21  1  0.637923  0.149473  0.793947  1
  Se  Se22  1  0.149473  0.637923  0.418657  1
  Se  Se23  1  0.793947  0.418657  0.637923  1
  Se  Se24  1  0.831343  0.456053  0.100527  1
  Se  Se25  1  0.612077  0.100527  0.456053  1
  Se  Se26  1  0.100527  0.612077  0.831343  1
  Se  Se27  1  0.456053  0.831343  0.612077  1
  Se  Se28  1  0.794054  0.307203  0.013057  1
  Se  Se29  1  0.885685  0.013057  0.307203  1
  Se  Se30  1  0.013057  0.885685  0.794054  1
  Se  Se31  1  0.307203  0.794054  0.885685  1
  Se  Se32  1  0.455946  0.942797  0.236943  1
  Se  Se33  1  0.364315  0.236943  0.942797  1
  Se  Se34  1  0.236943  0.364315  0.455946  1
  Se  Se35  1  0.942797  0.455946  0.364315  1
  Se  Se36  1  0.276853  0.723147  0.276853  1
  Se  Se37  1  0.723147  0.276853  0.723147  1
  Se  Se38  1  0.973147  0.526853  0.973147  1
  Se  Se39  1  0.526853  0.973147  0.526853  1
