# generated using pymatgen
data_Li3MgAs6Ir2Rh5
_symmetry_space_group_name_H-M   'P 1'
_cell_length_a   6.99786484
_cell_length_b   6.99848053
_cell_length_c   6.98052213
_cell_angle_alpha   109.38662839
_cell_angle_beta   109.48629147
_cell_angle_gamma   109.48702692
_symmetry_Int_Tables_number   1
_chemical_formula_structural   Li3MgAs6Ir2Rh5
_chemical_formula_sum   'Li3 Mg1 As6 Ir2 Rh5'
_cell_volume   263.34347570
_cell_formula_units_Z   1
loop_
 _symmetry_equiv_pos_site_id
 _symmetry_equiv_pos_as_xyz
  1  'x, y, z'
loop_
 _atom_site_type_symbol
 _atom_site_label
 _atom_site_symmetry_multiplicity
 _atom_site_fract_x
 _atom_site_fract_y
 _atom_site_fract_z
 _atom_site_occupancy
  Li  Li0  1  0.499844  0.999689  0.999844  1
  Li  Li1  1  0.000163  0.499984  0.999831  1
  Li  Li2  1  0.499821  0.499984  0.500153  1
  Mg  Mg3  1  0.000037  0.000074  0.500037  1
  As  As4  1  0.683796  0.683821  0.992591  1
  As  As5  1  0.316161  0.316223  0.007320  1
  As  As6  1  0.000025  0.683821  0.691231  1
  As  As7  1  0.000062  0.316223  0.308902  1
  As  As8  1  0.683726  0.000029  0.690890  1
  As  As9  1  0.316303  0.000029  0.309139  1
  Ir  Ir10  1  0.999997  0.999994  0.999997  1
  Ir  Ir11  1  0.248410  0.496821  0.748410  1
  Rh  Rh12  1  0.751206  0.248299  0.500051  1
  Rh  Rh13  1  0.497093  0.248299  0.748249  1
  Rh  Rh14  1  0.502957  0.751809  0.251556  1
  Rh  Rh15  1  0.751547  0.503093  0.251547  1
  Rh  Rh16  1  0.248852  0.751809  0.500253  1
