# generated using pymatgen
data_LaIn2CoIr8
_symmetry_space_group_name_H-M   'P 1'
_cell_length_a   5.23273900
_cell_length_b   8.81105700
_cell_length_c   8.81105700
_cell_angle_alpha   90.00000000
_cell_angle_beta   90.00000000
_cell_angle_gamma   90.00000000
_symmetry_Int_Tables_number   1
_chemical_formula_structural   LaIn2CoIr8
_chemical_formula_sum   'La2 In4 Co2 Ir16'
_cell_volume   406.24225565
_cell_formula_units_Z   2
loop_
 _symmetry_equiv_pos_site_id
 _symmetry_equiv_pos_as_xyz
  1  'x, y, z'
loop_
 _atom_site_type_symbol
 _atom_site_label
 _atom_site_symmetry_multiplicity
 _atom_site_fract_x
 _atom_site_fract_y
 _atom_site_fract_z
 _atom_site_occupancy
  La  La0  1  0.000000  0.500000  0.500000  1
  La  La1  1  0.000000  0.000000  0.000000  1
  In  In2  1  0.000000  0.623206  0.123206  1
  In  In3  1  0.000000  0.376794  0.876794  1
  In  In4  1  0.000000  0.876794  0.623206  1
  In  In5  1  0.000000  0.123206  0.376794  1
  Co  Co6  1  0.500000  0.000000  0.500000  1
  Co  Co7  1  0.500000  0.500000  0.000000  1
  Ir  Ir8  1  0.755659  0.172949  0.672949  1
  Ir  Ir9  1  0.755659  0.827051  0.327051  1
  Ir  Ir10  1  0.755659  0.327051  0.172949  1
  Ir  Ir11  1  0.755659  0.672949  0.827051  1
  Ir  Ir12  1  0.244341  0.827051  0.327051  1
  Ir  Ir13  1  0.244341  0.172949  0.672949  1
  Ir  Ir14  1  0.244341  0.672949  0.827051  1
  Ir  Ir15  1  0.244341  0.327051  0.172949  1
  Ir  Ir16  1  0.500000  0.708106  0.564123  1
  Ir  Ir17  1  0.500000  0.291894  0.435877  1
  Ir  Ir18  1  0.500000  0.791894  0.064123  1
  Ir  Ir19  1  0.500000  0.208106  0.935877  1
  Ir  Ir20  1  0.500000  0.564123  0.291894  1
  Ir  Ir21  1  0.500000  0.435877  0.708106  1
  Ir  Ir22  1  0.500000  0.064123  0.208106  1
  Ir  Ir23  1  0.500000  0.935877  0.791894  1
