# generated using pymatgen
data_K3V2Ag3S8
_symmetry_space_group_name_H-M   'P 1'
_cell_length_a   12.61530344
_cell_length_b   12.61530342
_cell_length_c   14.06911307
_cell_angle_alpha   61.44557591
_cell_angle_beta   61.44557511
_cell_angle_gamma   26.81287800
_symmetry_Int_Tables_number   1
_chemical_formula_structural   K3V2Ag3S8
_chemical_formula_sum   'K6 V4 Ag6 S16'
_cell_volume   879.63757206
_cell_formula_units_Z   2
loop_
 _symmetry_equiv_pos_site_id
 _symmetry_equiv_pos_as_xyz
  1  'x, y, z'
loop_
 _atom_site_type_symbol
 _atom_site_label
 _atom_site_symmetry_multiplicity
 _atom_site_fract_x
 _atom_site_fract_y
 _atom_site_fract_z
 _atom_site_occupancy
  K  K0  1  0.630632  0.762262  0.396778  1
  K  K1  1  0.000000  0.000000  0.000000  1
  K  K2  1  0.762262  0.630632  0.896778  1
  K  K3  1  0.000000  0.000000  0.500000  1
  K  K4  1  0.237738  0.369368  0.103222  1
  K  K5  1  0.369368  0.237738  0.603222  1
  V  V6  1  0.582126  0.162948  0.278330  1
  V  V7  1  0.162948  0.582126  0.778330  1
  V  V8  1  0.837052  0.417874  0.221670  1
  V  V9  1  0.417874  0.837052  0.721670  1
  Ag  Ag10  1  0.289796  0.710204  0.750000  1
  Ag  Ag11  1  0.336701  0.917826  0.213727  1
  Ag  Ag12  1  0.917826  0.336701  0.713727  1
  Ag  Ag13  1  0.082174  0.663299  0.286273  1
  Ag  Ag14  1  0.710204  0.289796  0.250000  1
  Ag  Ag15  1  0.663299  0.082174  0.786273  1
  S  S16  1  0.448996  0.452132  0.653765  1
  S  S17  1  0.234004  0.079834  0.815893  1
  S  S18  1  0.452132  0.448996  0.153765  1
  S  S19  1  0.765996  0.920166  0.184107  1
  S  S20  1  0.547868  0.551004  0.846235  1
  S  S21  1  0.282080  0.300473  0.886884  1
  S  S22  1  0.699527  0.717920  0.613116  1
  S  S23  1  0.300473  0.282080  0.386884  1
  S  S24  1  0.920166  0.765996  0.684107  1
  S  S25  1  0.195238  0.007139  0.614980  1
  S  S26  1  0.717920  0.699527  0.113116  1
  S  S27  1  0.551004  0.547868  0.346235  1
  S  S28  1  0.992861  0.804762  0.885020  1
  S  S29  1  0.079834  0.234004  0.315893  1
  S  S30  1  0.804762  0.992861  0.385020  1
  S  S31  1  0.007139  0.195238  0.114980  1
