# generated using pymatgen
data_Sr4InSnPd4
_symmetry_space_group_name_H-M   'P 1'
_cell_length_a   6.06771231
_cell_length_b   6.06771296
_cell_length_c   8.49099623
_cell_angle_alpha   78.46121409
_cell_angle_beta   78.46121224
_cell_angle_gamma   60.29005618
_symmetry_Int_Tables_number   1
_chemical_formula_structural   Sr4InSnPd4
_chemical_formula_sum   'Sr4 In1 Sn1 Pd4'
_cell_volume   264.15572582
_cell_formula_units_Z   1
loop_
 _symmetry_equiv_pos_site_id
 _symmetry_equiv_pos_as_xyz
  1  'x, y, z'
loop_
 _atom_site_type_symbol
 _atom_site_label
 _atom_site_symmetry_multiplicity
 _atom_site_fract_x
 _atom_site_fract_y
 _atom_site_fract_z
 _atom_site_occupancy
  Sr  Sr0  1  0.509706  0.787929  0.350554  1
  Sr  Sr1  1  0.212071  0.490294  0.149446  1
  Sr  Sr2  1  0.492837  0.209884  0.646725  1
  Sr  Sr3  1  0.790116  0.507163  0.853275  1
  In  In4  1  0.133261  0.866739  0.750000  1
  Sn  Sn5  1  0.864234  0.135766  0.250000  1
  Pd  Pd6  1  0.730132  0.003336  0.002103  1
  Pd  Pd7  1  0.996664  0.269868  0.497897  1
  Pd  Pd8  1  0.268775  0.997796  0.998454  1
  Pd  Pd9  1  0.002204  0.731225  0.501546  1
