# generated using pymatgen
data_Ho3Si2B4Rh9
_symmetry_space_group_name_H-M   'P 1'
_cell_length_a   5.48677200
_cell_length_b   5.48641700
_cell_length_c   9.84054600
_cell_angle_alpha   89.99994464
_cell_angle_beta   89.99978014
_cell_angle_gamma   120.00237038
_symmetry_Int_Tables_number   1
_chemical_formula_structural   Ho3Si2B4Rh9
_chemical_formula_sum   'Ho3 Si2 B4 Rh9'
_cell_volume   256.53414625
_cell_formula_units_Z   1
loop_
 _symmetry_equiv_pos_site_id
 _symmetry_equiv_pos_as_xyz
  1  'x, y, z'
loop_
 _atom_site_type_symbol
 _atom_site_label
 _atom_site_symmetry_multiplicity
 _atom_site_fract_x
 _atom_site_fract_y
 _atom_site_fract_z
 _atom_site_occupancy
  Ho  Ho0  1  0.999982  0.999999  0.000024  1
  Ho  Ho1  1  0.999991  0.999996  0.338213  1
  Ho  Ho2  1  0.000000  0.999996  0.661805  1
  Si  Si3  1  0.333366  0.666707  0.999999  1
  Si  Si4  1  0.666612  0.333292  0.999997  1
  B  B5  1  0.333309  0.666652  0.344864  1
  B  B6  1  0.666678  0.333343  0.344864  1
  B  B7  1  0.666676  0.333345  0.655129  1
  B  B8  1  0.333312  0.666650  0.655128  1
  Rh  Rh9  1  0.500013  0.000001  0.499992  1
  Rh  Rh10  1  0.499991  0.500008  0.499997  1
  Rh  Rh11  1  0.999995  0.500006  0.499997  1
  Rh  Rh12  1  0.499995  0.000004  0.194731  1
  Rh  Rh13  1  0.499994  0.500001  0.194720  1
  Rh  Rh14  1  0.999997  0.500000  0.194711  1
  Rh  Rh15  1  0.499999  0.999999  0.805266  1
  Rh  Rh16  1  0.500003  0.500009  0.805282  1
  Rh  Rh17  1  0.999990  0.499990  0.805280  1
