# generated using pymatgen
data_CaSc(NbSe2)8
_symmetry_space_group_name_H-M   'P 1'
_cell_length_a   7.02086100
_cell_length_b   7.02086077
_cell_length_c   14.28213800
_cell_angle_alpha   90.00000000
_cell_angle_beta   90.00000000
_cell_angle_gamma   119.99999639
_symmetry_Int_Tables_number   1
_chemical_formula_structural   CaSc(NbSe2)8
_chemical_formula_sum   'Ca1 Sc1 Nb8 Se16'
_cell_volume   609.68373313
_cell_formula_units_Z   1
loop_
 _symmetry_equiv_pos_site_id
 _symmetry_equiv_pos_as_xyz
  1  'x, y, z'
loop_
 _atom_site_type_symbol
 _atom_site_label
 _atom_site_symmetry_multiplicity
 _atom_site_fract_x
 _atom_site_fract_y
 _atom_site_fract_z
 _atom_site_occupancy
  Ca  Ca0  1  0.000000  0.000000  0.000000  1
  Sc  Sc1  1  0.000000  0.000000  0.500000  1
  Nb  Nb2  1  0.987228  0.493614  0.260108  1
  Nb  Nb3  1  0.012772  0.506386  0.739892  1
  Nb  Nb4  1  0.493614  0.506386  0.739892  1
  Nb  Nb5  1  0.506386  0.012772  0.260108  1
  Nb  Nb6  1  0.000000  0.000000  0.739697  1
  Nb  Nb7  1  0.000000  0.000000  0.260303  1
  Nb  Nb8  1  0.506386  0.493614  0.260108  1
  Nb  Nb9  1  0.493614  0.987228  0.739892  1
  Se  Se10  1  0.333333  0.666667  0.620098  1
  Se  Se11  1  0.666667  0.333333  0.139776  1
  Se  Se12  1  0.666667  0.333333  0.379902  1
  Se  Se13  1  0.333333  0.666667  0.860224  1
  Se  Se14  1  0.168501  0.337003  0.376473  1
  Se  Se15  1  0.831260  0.168740  0.855198  1
  Se  Se16  1  0.337481  0.168740  0.855198  1
  Se  Se17  1  0.662997  0.831499  0.376473  1
  Se  Se18  1  0.168501  0.831499  0.376473  1
  Se  Se19  1  0.831260  0.662519  0.855198  1
  Se  Se20  1  0.168740  0.337481  0.144802  1
  Se  Se21  1  0.831499  0.168501  0.623527  1
  Se  Se22  1  0.337003  0.168501  0.623527  1
  Se  Se23  1  0.662519  0.831260  0.144802  1
  Se  Se24  1  0.168740  0.831260  0.144802  1
  Se  Se25  1  0.831499  0.662997  0.623527  1
