# generated using pymatgen
data_YTm19In3Ru2Au3
_symmetry_space_group_name_H-M   'P 1'
_cell_length_a   9.44387700
_cell_length_b   9.44798979
_cell_length_c   9.50123900
_cell_angle_alpha   90.00000000
_cell_angle_beta   90.00000000
_cell_angle_gamma   120.01441992
_symmetry_Int_Tables_number   1
_chemical_formula_structural   YTm19In3Ru2Au3
_chemical_formula_sum   'Y1 Tm19 In3 Ru2 Au3'
_cell_volume   734.07002137
_cell_formula_units_Z   1
loop_
 _symmetry_equiv_pos_site_id
 _symmetry_equiv_pos_as_xyz
  1  'x, y, z'
loop_
 _atom_site_type_symbol
 _atom_site_label
 _atom_site_symmetry_multiplicity
 _atom_site_fract_x
 _atom_site_fract_y
 _atom_site_fract_z
 _atom_site_occupancy
  Y  Y0  1  0.081311  0.540656  0.750000  1
  Tm  Tm1  1  0.999915  0.999957  0.459775  1
  Tm  Tm2  1  0.999915  0.999957  0.040225  1
  Tm  Tm3  1  0.210566  0.790663  0.439652  1
  Tm  Tm4  1  0.210566  0.419904  0.439652  1
  Tm  Tm5  1  0.579606  0.789804  0.440312  1
  Tm  Tm6  1  0.790960  0.207662  0.557722  1
  Tm  Tm7  1  0.790960  0.583296  0.557722  1
  Tm  Tm8  1  0.416393  0.208196  0.558065  1
  Tm  Tm9  1  0.790960  0.207662  0.942278  1
  Tm  Tm10  1  0.790960  0.583296  0.942278  1
  Tm  Tm11  1  0.416393  0.208196  0.941935  1
  Tm  Tm12  1  0.210566  0.790663  0.060348  1
  Tm  Tm13  1  0.210566  0.419904  0.060348  1
  Tm  Tm14  1  0.579606  0.789804  0.059688  1
  Tm  Tm15  1  0.539566  0.460489  0.250000  1
  Tm  Tm16  1  0.539566  0.079077  0.250000  1
  Tm  Tm17  1  0.921173  0.460587  0.250000  1
  Tm  Tm18  1  0.460719  0.539768  0.750000  1
  Tm  Tm19  1  0.460719  0.920953  0.750000  1
  In  In20  1  0.109812  0.891197  0.750000  1
  In  In21  1  0.109812  0.218614  0.750000  1
  In  In22  1  0.780709  0.890355  0.750000  1
  Ru  Ru23  1  0.333179  0.666589  0.250000  1
  Ru  Ru24  1  0.665724  0.332862  0.750000  1
  Au  Au25  1  0.869764  0.130028  0.250000  1
  Au  Au26  1  0.869764  0.739736  0.250000  1
  Au  Au27  1  0.260252  0.130126  0.250000  1
