# generated using pymatgen
data_Tb9Cd5NiRu3
_symmetry_space_group_name_H-M   'P 1'
_cell_length_a   10.84873475
_cell_length_b   10.84873475
_cell_length_c   3.67672700
_cell_angle_alpha   90.00000000
_cell_angle_beta   90.00000000
_cell_angle_gamma   90.06515053
_symmetry_Int_Tables_number   1
_chemical_formula_structural   Tb9Cd5NiRu3
_chemical_formula_sum   'Tb9 Cd5 Ni1 Ru3'
_cell_volume   432.73227272
_cell_formula_units_Z   1
loop_
 _symmetry_equiv_pos_site_id
 _symmetry_equiv_pos_as_xyz
  1  'x, y, z'
loop_
 _atom_site_type_symbol
 _atom_site_label
 _atom_site_symmetry_multiplicity
 _atom_site_fract_x
 _atom_site_fract_y
 _atom_site_fract_z
 _atom_site_occupancy
  Tb  Tb0  1  0.323621  0.324912  0.500000  1
  Tb  Tb1  1  0.675088  0.676379  0.500000  1
  Tb  Tb2  1  0.325239  0.674761  0.500000  1
  Tb  Tb3  1  0.678154  0.321846  0.500000  1
  Tb  Tb4  1  0.000959  0.284364  0.500000  1
  Tb  Tb5  1  0.001281  0.714034  0.500000  1
  Tb  Tb6  1  0.285966  0.998719  0.500000  1
  Tb  Tb7  1  0.715636  0.999041  0.500000  1
  Tb  Tb8  1  0.998808  0.001192  0.000000  1
  Cd  Cd9  1  0.500770  0.145459  0.000000  1
  Cd  Cd10  1  0.500782  0.855180  0.000000  1
  Cd  Cd11  1  0.144820  0.499218  0.000000  1
  Cd  Cd12  1  0.854541  0.499230  0.000000  1
  Cd  Cd13  1  0.501537  0.498463  0.000000  1
  Ni  Ni14  1  0.809908  0.190092  0.000000  1
  Ru  Ru15  1  0.184247  0.185642  0.000000  1
  Ru  Ru16  1  0.814358  0.815753  0.000000  1
  Ru  Ru17  1  0.184285  0.815715  0.000000  1
