# generated using pymatgen
data_HfBi4Mo3O14
_symmetry_space_group_name_H-M   'P 1'
_cell_length_a   7.59350744
_cell_length_b   7.65926046
_cell_length_c   7.62310162
_cell_angle_alpha   59.99443034
_cell_angle_beta   60.00572139
_cell_angle_gamma   89.59180934
_symmetry_Int_Tables_number   1
_chemical_formula_structural   HfBi4Mo3O14
_chemical_formula_sum   'Hf1 Bi4 Mo3 O14'
_cell_volume   314.60569589
_cell_formula_units_Z   1
loop_
 _symmetry_equiv_pos_site_id
 _symmetry_equiv_pos_as_xyz
  1  'x, y, z'
loop_
 _atom_site_type_symbol
 _atom_site_label
 _atom_site_symmetry_multiplicity
 _atom_site_fract_x
 _atom_site_fract_y
 _atom_site_fract_z
 _atom_site_occupancy
  Hf  Hf0  1  0.121786  0.378344  0.750123  1
  Bi  Bi1  1  0.647289  0.435344  0.691209  1
  Bi  Bi2  1  0.121792  0.361552  0.214054  1
  Bi  Bi3  1  0.635696  0.876252  0.784327  1
  Bi  Bi4  1  0.579949  0.331951  0.290638  1
  Mo  Mo5  1  0.622994  0.884515  0.241603  1
  Mo  Mo6  1  0.127265  0.878814  0.750291  1
  Mo  Mo7  1  0.118690  0.870465  0.254624  1
  O  O8  1  0.799393  0.193229  0.019086  1
  O  O9  1  0.495385  0.505272  0.993592  1
  O  O10  1  0.214122  0.211221  0.590567  1
  O  O11  1  0.449189  0.921992  0.105244  1
  O  O12  1  0.192137  0.199772  0.014602  1
  O  O13  1  0.442570  0.973268  0.483273  1
  O  O14  1  0.457503  0.550011  0.500178  1
  O  O15  1  0.043299  0.956324  0.498759  1
  O  O16  1  0.744889  0.250121  0.498771  1
  O  O17  1  0.021066  0.557568  0.527862  1
  O  O18  1  0.803468  0.815343  0.978542  1
  O  O19  1  0.074196  0.553071  0.901207  1
  O  O20  1  0.785773  0.790959  0.410243  1
  O  O21  1  0.194549  0.811610  0.001205  1
