# generated using pymatgen
data_Er3AgSn3Rh2
_symmetry_space_group_name_H-M   'P 1'
_cell_length_a   7.73846600
_cell_length_b   7.73846574
_cell_length_c   3.75452000
_cell_angle_alpha   90.00000000
_cell_angle_beta   90.00000000
_cell_angle_gamma   119.99998400
_symmetry_Int_Tables_number   1
_chemical_formula_structural   Er3AgSn3Rh2
_chemical_formula_sum   'Er3 Ag1 Sn3 Rh2'
_cell_volume   194.71296363
_cell_formula_units_Z   1
loop_
 _symmetry_equiv_pos_site_id
 _symmetry_equiv_pos_as_xyz
  1  'x, y, z'
loop_
 _atom_site_type_symbol
 _atom_site_label
 _atom_site_symmetry_multiplicity
 _atom_site_fract_x
 _atom_site_fract_y
 _atom_site_fract_z
 _atom_site_occupancy
  Er  Er0  1  0.388468  0.409733  0.000000  1
  Er  Er1  1  0.021265  0.611532  0.000000  1
  Er  Er2  1  0.590267  0.978735  0.000000  1
  Ag  Ag3  1  0.666667  0.333333  0.500000  1
  Sn  Sn4  1  0.739991  0.738133  0.500000  1
  Sn  Sn5  1  0.998142  0.260009  0.500000  1
  Sn  Sn6  1  0.261867  0.001858  0.500000  1
  Rh  Rh7  1  0.000000  0.000000  0.000000  1
  Rh  Rh8  1  0.333333  0.666667  0.500000  1
