# generated using pymatgen
data_Nd5Ga4P8Ir19
_symmetry_space_group_name_H-M   'P 1'
_cell_length_a   12.98664859
_cell_length_b   12.95910415
_cell_length_c   4.01958900
_cell_angle_alpha   90.00000000
_cell_angle_beta   90.00000000
_cell_angle_gamma   120.06665529
_symmetry_Int_Tables_number   1
_chemical_formula_structural   Nd5Ga4P8Ir19
_chemical_formula_sum   'Nd5 Ga4 P8 Ir19'
_cell_volume   585.45330025
_cell_formula_units_Z   1
loop_
 _symmetry_equiv_pos_site_id
 _symmetry_equiv_pos_as_xyz
  1  'x, y, z'
loop_
 _atom_site_type_symbol
 _atom_site_label
 _atom_site_symmetry_multiplicity
 _atom_site_fract_x
 _atom_site_fract_y
 _atom_site_fract_z
 _atom_site_occupancy
  Nd  Nd0  1  0.336226  0.669638  0.500000  1
  Nd  Nd1  1  0.666184  0.331610  0.500000  1
  Nd  Nd2  1  0.183160  0.184241  0.000000  1
  Nd  Nd3  1  0.817095  0.999796  0.000000  1
  Nd  Nd4  1  0.000576  0.814300  0.000000  1
  Ga  Ga5  1  0.317754  0.834915  0.000000  1
  Ga  Ga6  1  0.359971  0.361055  0.500000  1
  Ga  Ga7  1  0.638476  0.001065  0.500000  1
  Ga  Ga8  1  0.997518  0.635990  0.500000  1
  P  P9  1  0.173981  0.483636  0.000000  1
  P  P10  1  0.521808  0.690990  0.000000  1
  P  P11  1  0.822762  0.304157  0.000000  1
  P  P12  1  0.480517  0.175530  0.000000  1
  P  P13  1  0.693956  0.516280  0.000000  1
  P  P14  1  0.820255  0.817014  0.500000  1
  P  P15  1  0.180876  0.000679  0.500000  1
  P  P16  1  0.000126  0.182055  0.500000  1
  Ir  Ir17  1  0.192730  0.824947  0.500000  1
  Ir  Ir18  1  0.173826  0.382395  0.500000  1
  Ir  Ir19  1  0.625363  0.794590  0.500000  1
  Ir  Ir20  1  0.826092  0.206610  0.500000  1
  Ir  Ir21  1  0.384618  0.177418  0.500000  1
  Ir  Ir22  1  0.789944  0.615200  0.500000  1
  Ir  Ir23  1  0.127025  0.632138  0.000000  1
  Ir  Ir24  1  0.363552  0.495669  0.000000  1
  Ir  Ir25  1  0.523006  0.872377  0.000000  1
  Ir  Ir26  1  0.631467  0.129262  0.000000  1
  Ir  Ir27  1  0.496530  0.367575  0.000000  1
  Ir  Ir28  1  0.868788  0.501852  0.000000  1
  Ir  Ir29  1  0.548808  0.552035  0.500000  1
  Ir  Ir30  1  0.442164  0.992154  0.500000  1
  Ir  Ir31  1  0.998620  0.446380  0.500000  1
  Ir  Ir32  1  0.714168  0.711271  0.000000  1
  Ir  Ir33  1  0.283113  0.008028  0.000000  1
  Ir  Ir34  1  0.999905  0.286798  0.000000  1
  Ir  Ir35  1  0.999040  0.000353  0.500000  1
