# generated using pymatgen
data_Dy3Y3OsO12
_symmetry_space_group_name_H-M   'P 1'
_cell_length_a   6.48692500
_cell_length_b   6.48751965
_cell_length_c   6.49060736
_cell_angle_alpha   98.64306738
_cell_angle_beta   98.68795912
_cell_angle_gamma   98.60354977
_symmetry_Int_Tables_number   1
_chemical_formula_structural   Dy3Y3OsO12
_chemical_formula_sum   'Dy3 Y3 Os1 O12'
_cell_volume   262.76912510
_cell_formula_units_Z   1
loop_
 _symmetry_equiv_pos_site_id
 _symmetry_equiv_pos_as_xyz
  1  'x, y, z'
loop_
 _atom_site_type_symbol
 _atom_site_label
 _atom_site_symmetry_multiplicity
 _atom_site_fract_x
 _atom_site_fract_y
 _atom_site_fract_z
 _atom_site_occupancy
  Dy  Dy0  1  0.855884  0.388801  0.685416  1
  Dy  Dy1  1  0.610960  0.314088  0.143783  1
  Dy  Dy2  1  0.314424  0.144055  0.610936  1
  Y  Y3  1  0.686285  0.856308  0.390197  1
  Y  Y4  1  0.389513  0.685357  0.856111  1
  Y  Y5  1  0.144098  0.610304  0.314503  1
  Os  Os6  1  0.000078  0.000490  0.999946  1
  O  O7  1  0.927268  0.036573  0.703562  1
  O  O8  1  0.964082  0.296246  0.072357  1
  O  O9  1  0.590845  0.177511  0.433270  1
  O  O10  1  0.822508  0.565867  0.408405  1
  O  O11  1  0.295885  0.073940  0.964596  1
  O  O12  1  0.566858  0.407512  0.822721  1
  O  O13  1  0.433378  0.590390  0.176878  1
  O  O14  1  0.704148  0.927302  0.035393  1
  O  O15  1  0.177070  0.432761  0.591763  1
  O  O16  1  0.408769  0.822799  0.567377  1
  O  O17  1  0.034274  0.704376  0.926494  1
  O  O18  1  0.073674  0.965320  0.296291  1
