# generated using pymatgen
data_Sm3Dy3Hf2(Co4P3)4
_symmetry_space_group_name_H-M   'P 1'
_cell_length_a   3.73152800
_cell_length_b   10.71397035
_cell_length_c   12.44151841
_cell_angle_alpha   90.02946901
_cell_angle_beta   90.00000000
_cell_angle_gamma   90.00000000
_symmetry_Int_Tables_number   1
_chemical_formula_structural   Sm3Dy3Hf2(Co4P3)4
_chemical_formula_sum   'Sm3 Dy3 Hf2 Co16 P12'
_cell_volume   497.40537529
_cell_formula_units_Z   1
loop_
 _symmetry_equiv_pos_site_id
 _symmetry_equiv_pos_as_xyz
  1  'x, y, z'
loop_
 _atom_site_type_symbol
 _atom_site_label
 _atom_site_symmetry_multiplicity
 _atom_site_fract_x
 _atom_site_fract_y
 _atom_site_fract_z
 _atom_site_occupancy
  Sm  Sm0  1  0.000000  0.499871  0.529143  1
  Sm  Sm1  1  0.500000  0.000244  0.471325  1
  Sm  Sm2  1  0.500000  0.821794  0.204627  1
  Dy  Dy3  1  0.500000  0.178864  0.204049  1
  Dy  Dy4  1  0.000000  0.678375  0.796042  1
  Dy  Dy5  1  0.000000  0.321555  0.795702  1
  Hf  Hf6  1  0.500000  0.499388  0.155937  1
  Hf  Hf7  1  0.000000  0.000158  0.843822  1
  Co  Co8  1  0.500000  0.499834  0.705182  1
  Co  Co9  1  0.000000  0.002147  0.295440  1
  Co  Co10  1  0.000000  0.499279  0.986393  1
  Co  Co11  1  0.500000  0.000797  0.012236  1
  Co  Co12  1  0.500000  0.331903  0.993256  1
  Co  Co13  1  0.500000  0.667374  0.992622  1
  Co  Co14  1  0.000000  0.168691  0.005919  1
  Co  Co15  1  0.000000  0.832089  0.005408  1
  Co  Co16  1  0.500000  0.295190  0.432573  1
  Co  Co17  1  0.500000  0.704532  0.433751  1
  Co  Co18  1  0.000000  0.205052  0.567692  1
  Co  Co19  1  0.000000  0.794978  0.568393  1
  Co  Co20  1  0.500000  0.878232  0.704332  1
  Co  Co21  1  0.500000  0.121723  0.704029  1
  Co  Co22  1  0.000000  0.620326  0.297217  1
  Co  Co23  1  0.000000  0.377905  0.295728  1
  P  P24  1  0.500000  0.499634  0.883935  1
  P  P25  1  0.000000  0.001714  0.114664  1
  P  P26  1  0.500000  0.500086  0.359462  1
  P  P27  1  0.000000  0.000073  0.640643  1
  P  P28  1  0.500000  0.307979  0.616310  1
  P  P29  1  0.500000  0.691708  0.616945  1
  P  P30  1  0.000000  0.192319  0.383810  1
  P  P31  1  0.000000  0.807406  0.385802  1
  P  P32  1  0.500000  0.838670  0.893512  1
  P  P33  1  0.500000  0.161665  0.893064  1
  P  P34  1  0.000000  0.659928  0.104676  1
  P  P35  1  0.000000  0.338517  0.106357  1
