# generated using pymatgen
data_Yb2Y2PdPt3O14
_symmetry_space_group_name_H-M   'P 1'
_cell_length_a   7.27212060
_cell_length_b   7.25744821
_cell_length_c   7.25289000
_cell_angle_alpha   60.02078343
_cell_angle_beta   60.08744760
_cell_angle_gamma   60.11354114
_symmetry_Int_Tables_number   1
_chemical_formula_structural   Yb2Y2PdPt3O14
_chemical_formula_sum   'Yb2 Y2 Pd1 Pt3 O14'
_cell_volume   271.12368255
_cell_formula_units_Z   1
loop_
 _symmetry_equiv_pos_site_id
 _symmetry_equiv_pos_as_xyz
  1  'x, y, z'
loop_
 _atom_site_type_symbol
 _atom_site_label
 _atom_site_symmetry_multiplicity
 _atom_site_fract_x
 _atom_site_fract_y
 _atom_site_fract_z
 _atom_site_occupancy
  Yb  Yb0  1  0.125000  0.625000  0.125000  1
  Yb  Yb1  1  0.625000  0.125000  0.125000  1
  Y  Y2  1  0.125000  0.125000  0.625000  1
  Y  Y3  1  0.125000  0.125000  0.125000  1
  Pd  Pd4  1  0.125000  0.625000  0.625000  1
  Pt  Pt5  1  0.625000  0.625000  0.625000  1
  Pt  Pt6  1  0.625000  0.625000  0.125000  1
  Pt  Pt7  1  0.625000  0.125000  0.625000  1
  O  O8  1  0.291015  0.713211  0.707872  1
  O  O9  1  0.538310  0.959495  0.959193  1
  O  O10  1  0.705385  0.708487  0.293063  1
  O  O11  1  0.288511  0.286483  0.712504  1
  O  O12  1  0.003634  0.005027  0.995670  1
  O  O13  1  0.291015  0.713211  0.287904  1
  O  O14  1  0.711690  0.290505  0.706997  1
  O  O15  1  0.958985  0.536789  0.962096  1
  O  O16  1  0.544615  0.541513  0.956937  1
  O  O17  1  0.961489  0.963517  0.537496  1
  O  O18  1  0.246366  0.244973  0.254330  1
  O  O19  1  0.538310  0.959495  0.543003  1
  O  O20  1  0.711690  0.290505  0.290807  1
  O  O21  1  0.958985  0.536789  0.542128  1
