# generated using pymatgen
data_Sc4Zn2AgOs
_symmetry_space_group_name_H-M   'P 1'
_cell_length_a   6.78141500
_cell_length_b   6.51136300
_cell_length_c   6.78256300
_cell_angle_alpha   89.99997431
_cell_angle_beta   89.99978034
_cell_angle_gamma   89.99993875
_symmetry_Int_Tables_number   1
_chemical_formula_structural   Sc4Zn2AgOs
_chemical_formula_sum   'Sc8 Zn4 Ag2 Os2'
_cell_volume   299.49257947
_cell_formula_units_Z   2
loop_
 _symmetry_equiv_pos_site_id
 _symmetry_equiv_pos_as_xyz
  1  'x, y, z'
loop_
 _atom_site_type_symbol
 _atom_site_label
 _atom_site_symmetry_multiplicity
 _atom_site_fract_x
 _atom_site_fract_y
 _atom_site_fract_z
 _atom_site_occupancy
  Sc  Sc0  1  0.236706  0.999998  0.263314  1
  Sc  Sc1  1  0.236704  0.500012  0.263316  1
  Sc  Sc2  1  0.763299  0.000005  0.263317  1
  Sc  Sc3  1  0.763302  0.499993  0.263320  1
  Sc  Sc4  1  0.236701  0.999995  0.736683  1
  Sc  Sc5  1  0.236698  0.500008  0.736680  1
  Sc  Sc6  1  0.763294  0.000002  0.736685  1
  Sc  Sc7  1  0.763296  0.499987  0.736683  1
  Zn  Zn8  1  0.000010  0.249999  0.000000  1
  Zn  Zn9  1  0.999990  0.750000  0.000000  1
  Zn  Zn10  1  0.499977  0.250000  0.499999  1
  Zn  Zn11  1  0.500023  0.749999  0.500001  1
  Ag  Ag12  1  0.499990  0.250000  0.000001  1
  Ag  Ag13  1  0.500010  0.749999  0.999999  1
  Os  Os14  1  0.999992  0.749998  0.500001  1
  Os  Os15  1  0.000008  0.250001  0.500000  1
