# generated using pymatgen
data_Y3Tm14Lu3Pt16
_symmetry_space_group_name_H-M   'P 1'
_cell_length_a   7.41127602
_cell_length_b   7.49907743
_cell_length_c   14.60017501
_cell_angle_alpha   90.00659111
_cell_angle_beta   90.00142456
_cell_angle_gamma   89.94845374
_symmetry_Int_Tables_number   1
_chemical_formula_structural   Y3Tm14Lu3Pt16
_chemical_formula_sum   'Y3 Tm14 Lu3 Pt16'
_cell_volume   811.44429098
_cell_formula_units_Z   1
loop_
 _symmetry_equiv_pos_site_id
 _symmetry_equiv_pos_as_xyz
  1  'x, y, z'
loop_
 _atom_site_type_symbol
 _atom_site_label
 _atom_site_symmetry_multiplicity
 _atom_site_fract_x
 _atom_site_fract_y
 _atom_site_fract_z
 _atom_site_occupancy
  Y  Y0  1  0.500996  0.320992  0.907364  1
  Y  Y1  1  0.498809  0.679189  0.407491  1
  Y  Y2  1  0.998956  0.820879  0.092566  1
  Tm  Tm3  1  0.318667  0.010512  0.749783  1
  Tm  Tm4  1  0.656735  0.832947  0.622410  1
  Tm  Tm5  1  0.156109  0.667358  0.877304  1
  Tm  Tm6  1  0.844394  0.332221  0.377665  1
  Tm  Tm7  1  0.343881  0.167405  0.122566  1
  Tm  Tm8  1  0.343812  0.167606  0.377827  1
  Tm  Tm9  1  0.843930  0.332232  0.122267  1
  Tm  Tm10  1  0.155942  0.667739  0.622170  1
  Tm  Tm11  1  0.656170  0.832185  0.877723  1
  Tm  Tm12  1  0.997789  0.820110  0.406940  1
  Tm  Tm13  1  0.497445  0.680444  0.093261  1
  Tm  Tm14  1  0.502564  0.319379  0.593211  1
  Tm  Tm15  1  0.002353  0.180610  0.906907  1
  Tm  Tm16  1  0.002103  0.180011  0.592855  1
  Lu  Lu17  1  0.681137  0.989580  0.250062  1
  Lu  Lu18  1  0.181136  0.510518  0.249995  1
  Lu  Lu19  1  0.818947  0.489199  0.749655  1
  Pt  Pt20  1  0.816841  0.642712  0.250706  1
  Pt  Pt21  1  0.316866  0.857189  0.249478  1
  Pt  Pt22  1  0.683898  0.142952  0.748966  1
  Pt  Pt23  1  0.181841  0.356510  0.749575  1
  Pt  Pt24  1  0.545993  0.385898  0.249572  1
  Pt  Pt25  1  0.045933  0.114072  0.250506  1
  Pt  Pt26  1  0.954106  0.886634  0.749953  1
  Pt  Pt27  1  0.453908  0.613811  0.749437  1
  Pt  Pt28  1  0.816524  0.531568  0.542526  1
  Pt  Pt29  1  0.315912  0.966582  0.958044  1
  Pt  Pt30  1  0.684618  0.033848  0.458455  1
  Pt  Pt31  1  0.184137  0.466654  0.042014  1
  Pt  Pt32  1  0.181962  0.466231  0.458348  1
  Pt  Pt33  1  0.682234  0.032874  0.042060  1
  Pt  Pt34  1  0.315522  0.968611  0.542432  1
  Pt  Pt35  1  0.817835  0.532740  0.957906  1
