# generated using pymatgen
data_ErLu9(InSb)3
_symmetry_space_group_name_H-M   'P 1'
_cell_length_a   6.38623202
_cell_length_b   8.78170334
_cell_length_c   8.79369507
_cell_angle_alpha   120.01864145
_cell_angle_beta   89.99533610
_cell_angle_gamma   90.00300572
_symmetry_Int_Tables_number   1
_chemical_formula_structural   ErLu9(InSb)3
_chemical_formula_sum   'Er1 Lu9 In3 Sb3'
_cell_volume   427.01573336
_cell_formula_units_Z   1
loop_
 _symmetry_equiv_pos_site_id
 _symmetry_equiv_pos_as_xyz
  1  'x, y, z'
loop_
 _atom_site_type_symbol
 _atom_site_label
 _atom_site_symmetry_multiplicity
 _atom_site_fract_x
 _atom_site_fract_y
 _atom_site_fract_z
 _atom_site_occupancy
  Er  Er0  1  0.750128  0.236682  0.000000  1
  Lu  Lu1  1  0.496122  0.333746  0.666985  1
  Lu  Lu2  1  0.496283  0.666424  0.333153  1
  Lu  Lu3  1  0.003672  0.666610  0.333178  1
  Lu  Lu4  1  0.003855  0.333484  0.666813  1
  Lu  Lu5  1  0.750018  0.763562  0.763551  1
  Lu  Lu6  1  0.750172  0.999953  0.236827  1
  Lu  Lu7  1  0.250025  0.762973  0.999806  1
  Lu  Lu8  1  0.249994  0.236681  0.236801  1
  Lu  Lu9  1  0.250042  0.999722  0.763124  1
  In  In10  1  0.249828  0.393512  0.000005  1
  In  In11  1  0.249781  0.605835  0.605411  1
  In  In12  1  0.250160  0.999921  0.393923  1
  Sb  Sb13  1  0.750038  0.604170  0.999811  1
  Sb  Sb14  1  0.749948  0.397019  0.396952  1
  Sb  Sb15  1  0.749937  0.999706  0.603659  1
