# generated using pymatgen
data_La4Pr4SnPd24
_symmetry_space_group_name_H-M   'P 1'
_cell_length_a   8.58886159
_cell_length_b   8.58772430
_cell_length_c   8.58772430
_cell_angle_alpha   90.00189086
_cell_angle_beta   90.03004765
_cell_angle_gamma   90.03004765
_symmetry_Int_Tables_number   1
_chemical_formula_structural   La4Pr4SnPd24
_chemical_formula_sum   'La4 Pr4 Sn1 Pd24'
_cell_volume   633.41985267
_cell_formula_units_Z   1
loop_
 _symmetry_equiv_pos_site_id
 _symmetry_equiv_pos_as_xyz
  1  'x, y, z'
loop_
 _atom_site_type_symbol
 _atom_site_label
 _atom_site_symmetry_multiplicity
 _atom_site_fract_x
 _atom_site_fract_y
 _atom_site_fract_z
 _atom_site_occupancy
  La  La0  1  0.252792  0.252687  0.747189  1
  La  La1  1  0.252792  0.747189  0.252687  1
  La  La2  1  0.252733  0.747426  0.747426  1
  La  La3  1  0.747046  0.253102  0.253102  1
  Pr  Pr4  1  0.251555  0.251608  0.251608  1
  Pr  Pr5  1  0.748037  0.747861  0.747861  1
  Pr  Pr6  1  0.748267  0.748326  0.251909  1
  Pr  Pr7  1  0.748267  0.251909  0.748326  1
  Sn  Sn8  1  0.999060  0.000017  0.000017  1
  Pd  Pd9  1  0.266500  0.500051  0.999855  1
  Pd  Pd10  1  0.733377  0.499945  0.000149  1
  Pd  Pd11  1  0.999834  0.266556  0.500015  1
  Pd  Pd12  1  0.500117  0.266569  0.000038  1
  Pd  Pd13  1  0.000120  0.733427  0.500008  1
  Pd  Pd14  1  0.499969  0.733426  0.999983  1
  Pd  Pd15  1  0.500117  0.000038  0.266569  1
  Pd  Pd16  1  0.266500  0.999855  0.500051  1
  Pd  Pd17  1  0.499969  0.999983  0.733426  1
  Pd  Pd18  1  0.733377  0.000149  0.499945  1
  Pd  Pd19  1  0.999834  0.500015  0.266556  1
  Pd  Pd20  1  0.000120  0.500008  0.733427  1
  Pd  Pd21  1  0.255221  0.499818  0.499818  1
  Pd  Pd22  1  0.744922  0.500117  0.500117  1
  Pd  Pd23  1  0.500015  0.255111  0.500003  1
  Pd  Pd24  1  0.500293  0.744884  0.499961  1
  Pd  Pd25  1  0.500015  0.500003  0.255111  1
  Pd  Pd26  1  0.500293  0.499961  0.744884  1
  Pd  Pd27  1  0.312383  0.000135  0.000135  1
  Pd  Pd28  1  0.687335  0.999862  0.999862  1
  Pd  Pd29  1  0.999934  0.312493  0.000004  1
  Pd  Pd30  1  0.999636  0.687494  0.999974  1
  Pd  Pd31  1  0.999934  0.000004  0.312493  1
  Pd  Pd32  1  0.999636  0.999974  0.687494  1
