# generated using pymatgen
data_Nd4Ga4IrPd3
_symmetry_space_group_name_H-M   'P 1'
_cell_length_a   4.52149800
_cell_length_b   7.12857723
_cell_length_c   7.84488029
_cell_angle_alpha   90.38262426
_cell_angle_beta   90.00000000
_cell_angle_gamma   90.00000000
_symmetry_Int_Tables_number   1
_chemical_formula_structural   Nd4Ga4IrPd3
_chemical_formula_sum   'Nd4 Ga4 Ir1 Pd3'
_cell_volume   252.84934861
_cell_formula_units_Z   1
loop_
 _symmetry_equiv_pos_site_id
 _symmetry_equiv_pos_as_xyz
  1  'x, y, z'
loop_
 _atom_site_type_symbol
 _atom_site_label
 _atom_site_symmetry_multiplicity
 _atom_site_fract_x
 _atom_site_fract_y
 _atom_site_fract_z
 _atom_site_occupancy
  Nd  Nd0  1  0.250000  0.028082  0.691528  1
  Nd  Nd1  1  0.250000  0.523897  0.804389  1
  Nd  Nd2  1  0.750000  0.984281  0.305515  1
  Nd  Nd3  1  0.750000  0.473979  0.198965  1
  Ga  Ga4  1  0.250000  0.170523  0.076081  1
  Ga  Ga5  1  0.250000  0.662748  0.427040  1
  Ga  Ga6  1  0.750000  0.832041  0.927719  1
  Ga  Ga7  1  0.750000  0.329905  0.570693  1
  Ir  Ir8  1  0.250000  0.277482  0.398824  1
  Pd  Pd9  1  0.250000  0.781944  0.100353  1
  Pd  Pd10  1  0.750000  0.717730  0.601047  1
  Pd  Pd11  1  0.750000  0.217389  0.897845  1
