# generated using pymatgen
data_TbPr4IrPt2
_symmetry_space_group_name_H-M   'P 1'
_cell_length_a   11.45582800
_cell_length_b   11.45582800
_cell_length_c   6.52024800
_cell_angle_alpha   90.00000000
_cell_angle_beta   90.00000000
_cell_angle_gamma   90.00000000
_symmetry_Int_Tables_number   1
_chemical_formula_structural   TbPr4IrPt2
_chemical_formula_sum   'Tb4 Pr16 Ir4 Pt8'
_cell_volume   855.69123501
_cell_formula_units_Z   4
loop_
 _symmetry_equiv_pos_site_id
 _symmetry_equiv_pos_as_xyz
  1  'x, y, z'
loop_
 _atom_site_type_symbol
 _atom_site_label
 _atom_site_symmetry_multiplicity
 _atom_site_fract_x
 _atom_site_fract_y
 _atom_site_fract_z
 _atom_site_occupancy
  Tb  Tb0  1  0.000000  0.000000  0.500000  1
  Tb  Tb1  1  0.000000  0.000000  0.000000  1
  Tb  Tb2  1  0.500000  0.500000  0.000000  1
  Tb  Tb3  1  0.500000  0.500000  0.500000  1
  Pr  Pr4  1  0.292086  0.087815  0.375168  1
  Pr  Pr5  1  0.292086  0.912185  0.875168  1
  Pr  Pr6  1  0.707914  0.087815  0.875168  1
  Pr  Pr7  1  0.707914  0.912185  0.375168  1
  Pr  Pr8  1  0.587815  0.792086  0.875168  1
  Pr  Pr9  1  0.587815  0.207914  0.375168  1
  Pr  Pr10  1  0.412185  0.792086  0.375168  1
  Pr  Pr11  1  0.412185  0.207914  0.875168  1
  Pr  Pr12  1  0.207914  0.412185  0.624832  1
  Pr  Pr13  1  0.207914  0.587815  0.124832  1
  Pr  Pr14  1  0.792086  0.412185  0.124832  1
  Pr  Pr15  1  0.792086  0.587815  0.624832  1
  Pr  Pr16  1  0.912185  0.707914  0.124832  1
  Pr  Pr17  1  0.912185  0.292086  0.624832  1
  Pr  Pr18  1  0.087815  0.707914  0.624832  1
  Pr  Pr19  1  0.087815  0.292086  0.124832  1
  Ir  Ir20  1  0.500000  0.000000  0.115436  1
  Ir  Ir21  1  0.500000  0.000000  0.615436  1
  Ir  Ir22  1  0.000000  0.500000  0.884564  1
  Ir  Ir23  1  0.000000  0.500000  0.384564  1
  Pt  Pt24  1  0.852567  0.147433  0.250000  1
  Pt  Pt25  1  0.852567  0.852567  0.750000  1
  Pt  Pt26  1  0.147433  0.147433  0.750000  1
  Pt  Pt27  1  0.147433  0.852567  0.250000  1
  Pt  Pt28  1  0.647433  0.352567  0.750000  1
  Pt  Pt29  1  0.647433  0.647433  0.250000  1
  Pt  Pt30  1  0.352567  0.352567  0.250000  1
  Pt  Pt31  1  0.352567  0.647433  0.750000  1
