# generated using pymatgen
data_TaNb2CrCo3B7
_symmetry_space_group_name_H-M   'P 1'
_cell_length_a   9.33158870
_cell_length_b   9.33158880
_cell_length_c   8.93123200
_cell_angle_alpha   90.00000000
_cell_angle_beta   90.00000000
_cell_angle_gamma   160.14327925
_symmetry_Int_Tables_number   1
_chemical_formula_structural   TaNb2CrCo3B7
_chemical_formula_sum   'Ta2 Nb4 Cr2 Co6 B14'
_cell_volume   264.16708912
_cell_formula_units_Z   2
loop_
 _symmetry_equiv_pos_site_id
 _symmetry_equiv_pos_as_xyz
  1  'x, y, z'
loop_
 _atom_site_type_symbol
 _atom_site_label
 _atom_site_symmetry_multiplicity
 _atom_site_fract_x
 _atom_site_fract_y
 _atom_site_fract_z
 _atom_site_occupancy
  Ta  Ta0  1  0.698824  0.301176  0.250000  1
  Ta  Ta1  1  0.301176  0.698824  0.750000  1
  Nb  Nb2  1  0.582608  0.417392  0.554377  1
  Nb  Nb3  1  0.417392  0.582608  0.445623  1
  Nb  Nb4  1  0.417392  0.582608  0.054377  1
  Nb  Nb5  1  0.582608  0.417392  0.945623  1
  Cr  Cr6  1  0.541645  0.458355  0.250000  1
  Cr  Cr7  1  0.458355  0.541645  0.750000  1
  Co  Co8  1  0.843392  0.156608  0.250000  1
  Co  Co9  1  0.156608  0.843392  0.750000  1
  Co  Co10  1  0.801118  0.198882  0.505727  1
  Co  Co11  1  0.198882  0.801118  0.494273  1
  Co  Co12  1  0.198882  0.801118  0.005727  1
  Co  Co13  1  0.801118  0.198882  0.994273  1
  B  B14  1  0.955522  0.044478  0.250000  1
  B  B15  1  0.044478  0.955522  0.750000  1
  B  B16  1  0.889198  0.110802  0.649083  1
  B  B17  1  0.110802  0.889198  0.350917  1
  B  B18  1  0.110802  0.889198  0.149083  1
  B  B19  1  0.889198  0.110802  0.850917  1
  B  B20  1  0.710663  0.289337  0.644717  1
  B  B21  1  0.289337  0.710663  0.355283  1
  B  B22  1  0.289337  0.710663  0.144717  1
  B  B23  1  0.710663  0.289337  0.855283  1
  B  B24  1  0.985072  0.014928  0.592009  1
  B  B25  1  0.014928  0.985072  0.407991  1
  B  B26  1  0.014928  0.985072  0.092009  1
  B  B27  1  0.985072  0.014928  0.907991  1
