# generated using pymatgen
data_La10Th4Ir5Rh
_symmetry_space_group_name_H-M   'P 1'
_cell_length_a   6.53174760
_cell_length_b   10.21785718
_cell_length_c   10.11928671
_cell_angle_alpha   120.22017414
_cell_angle_beta   89.62046203
_cell_angle_gamma   89.93101106
_symmetry_Int_Tables_number   1
_chemical_formula_structural   La10Th4Ir5Rh
_chemical_formula_sum   'La10 Th4 Ir5 Rh1'
_cell_volume   583.56121558
_cell_formula_units_Z   1
loop_
 _symmetry_equiv_pos_site_id
 _symmetry_equiv_pos_as_xyz
  1  'x, y, z'
loop_
 _atom_site_type_symbol
 _atom_site_label
 _atom_site_symmetry_multiplicity
 _atom_site_fract_x
 _atom_site_fract_y
 _atom_site_fract_z
 _atom_site_occupancy
  La  La0  1  0.247696  0.125170  0.247224  1
  La  La1  1  0.748870  0.873639  0.129301  1
  La  La2  1  0.745068  0.254080  0.127496  1
  La  La3  1  0.744517  0.873325  0.747834  1
  La  La4  1  0.439934  0.538249  0.462891  1
  La  La5  1  0.442072  0.926562  0.463122  1
  La  La6  1  0.443190  0.537669  0.071751  1
  La  La7  1  0.936843  0.464247  0.540344  1
  La  La8  1  0.940117  0.075356  0.542036  1
  La  La9  1  0.943613  0.459238  0.922889  1
  Th  Th10  1  0.468020  0.332905  0.665755  1
  Th  Th11  1  0.978127  0.666114  0.333978  1
  Th  Th12  1  0.255034  0.128437  0.872762  1
  Th  Th13  1  0.255884  0.746722  0.872896  1
  Ir  Ir14  1  0.188974  0.377750  0.183321  1
  Ir  Ir15  1  0.197182  0.814446  0.631193  1
  Ir  Ir16  1  0.673652  0.191471  0.811186  1
  Ir  Ir17  1  0.672236  0.620067  0.811227  1
  Ir  Ir18  1  0.689103  0.191037  0.381736  1
  Rh  Rh19  1  0.191870  0.803518  0.181056  1
