# generated using pymatgen
data_Sc3CoSi2Ge
_symmetry_space_group_name_H-M   'P 1'
_cell_length_a   5.35876950
_cell_length_b   5.35876967
_cell_length_c   12.85517247
_cell_angle_alpha   108.97005931
_cell_angle_beta   108.97006064
_cell_angle_gamma   43.58716300
_symmetry_Int_Tables_number   1
_chemical_formula_structural   Sc3CoSi2Ge
_chemical_formula_sum   'Sc6 Co2 Si4 Ge2'
_cell_volume   238.40881601
_cell_formula_units_Z   2
loop_
 _symmetry_equiv_pos_site_id
 _symmetry_equiv_pos_as_xyz
  1  'x, y, z'
loop_
 _atom_site_type_symbol
 _atom_site_label
 _atom_site_symmetry_multiplicity
 _atom_site_fract_x
 _atom_site_fract_y
 _atom_site_fract_z
 _atom_site_occupancy
  Sc  Sc0  1  0.402360  0.402360  0.077201  1
  Sc  Sc1  1  0.741471  0.741471  0.230234  1
  Sc  Sc2  1  0.526069  0.526069  0.384182  1
  Sc  Sc3  1  0.475340  0.475340  0.620910  1
  Sc  Sc4  1  0.256274  0.256274  0.771878  1
  Sc  Sc5  1  0.597197  0.597197  0.914854  1
  Co  Co6  1  0.249852  0.249852  0.419508  1
  Co  Co7  1  0.754628  0.754628  0.584507  1
  Si  Si8  1  0.867103  0.867103  0.454762  1
  Si  Si9  1  0.135700  0.135700  0.548120  1
  Si  Si10  1  0.951751  0.951751  0.757475  1
  Si  Si11  1  0.877264  0.877264  0.920769  1
  Ge  Ge12  1  0.126320  0.126320  0.072785  1
  Ge  Ge13  1  0.038672  0.038672  0.242816  1
