# generated using pymatgen
data_Er2Ge4(PRh4)3
_symmetry_space_group_name_H-M   'P 1'
_cell_length_a   9.85178000
_cell_length_b   9.85177885
_cell_length_c   3.84905600
_cell_angle_alpha   90.00000000
_cell_angle_beta   90.00000000
_cell_angle_gamma   119.99999715
_symmetry_Int_Tables_number   1
_chemical_formula_structural   Er2Ge4(PRh4)3
_chemical_formula_sum   'Er2 Ge4 P3 Rh12'
_cell_volume   323.52975822
_cell_formula_units_Z   1
loop_
 _symmetry_equiv_pos_site_id
 _symmetry_equiv_pos_as_xyz
  1  'x, y, z'
loop_
 _atom_site_type_symbol
 _atom_site_label
 _atom_site_symmetry_multiplicity
 _atom_site_fract_x
 _atom_site_fract_y
 _atom_site_fract_z
 _atom_site_occupancy
  Er  Er0  1  0.333333  0.666667  0.745716  1
  Er  Er1  1  0.666667  0.333333  0.242927  1
  Ge  Ge2  1  0.000000  0.000000  0.610222  1
  Ge  Ge3  1  0.405422  0.287160  0.745291  1
  Ge  Ge4  1  0.712840  0.118262  0.745291  1
  Ge  Ge5  1  0.881738  0.594578  0.745291  1
  P  P6  1  0.596279  0.710299  0.243742  1
  P  P7  1  0.289701  0.885980  0.243742  1
  P  P8  1  0.114020  0.403721  0.243742  1
  Rh  Rh9  1  0.440318  0.055036  0.744908  1
  Rh  Rh10  1  0.944964  0.385282  0.744908  1
  Rh  Rh11  1  0.614718  0.559682  0.744908  1
  Rh  Rh12  1  0.546466  0.926062  0.243602  1
  Rh  Rh13  1  0.073938  0.620405  0.243602  1
  Rh  Rh14  1  0.379595  0.453534  0.243602  1
  Rh  Rh15  1  0.151682  0.279293  0.744459  1
  Rh  Rh16  1  0.720707  0.872390  0.744459  1
  Rh  Rh17  1  0.127610  0.848318  0.744459  1
  Rh  Rh18  1  0.851175  0.742451  0.245044  1
  Rh  Rh19  1  0.257549  0.108722  0.245044  1
  Rh  Rh20  1  0.891278  0.148825  0.245044  1
