# generated using pymatgen
data_Ti9(In2Co)7
_symmetry_space_group_name_H-M   'P 1'
_cell_length_a   9.17231542
_cell_length_b   9.17231531
_cell_length_c   9.17231500
_cell_angle_alpha   59.99999750
_cell_angle_beta   59.99999792
_cell_angle_gamma   60.00000028
_symmetry_Int_Tables_number   1
_chemical_formula_structural   Ti9(In2Co)7
_chemical_formula_sum   'Ti9 In14 Co7'
_cell_volume   545.65973237
_cell_formula_units_Z   1
loop_
 _symmetry_equiv_pos_site_id
 _symmetry_equiv_pos_as_xyz
  1  'x, y, z'
loop_
 _atom_site_type_symbol
 _atom_site_label
 _atom_site_symmetry_multiplicity
 _atom_site_fract_x
 _atom_site_fract_y
 _atom_site_fract_z
 _atom_site_occupancy
  Ti  Ti0  1  0.116863  0.649413  0.116863  1
  Ti  Ti1  1  0.350587  0.883137  0.883137  1
  Ti  Ti2  1  0.883137  0.883137  0.883137  1
  Ti  Ti3  1  0.649413  0.116863  0.116863  1
  Ti  Ti4  1  0.500000  0.500000  0.500000  1
  Ti  Ti5  1  0.883137  0.883137  0.350587  1
  Ti  Ti6  1  0.116863  0.116863  0.116863  1
  Ti  Ti7  1  0.883137  0.350587  0.883137  1
  Ti  Ti8  1  0.116863  0.116863  0.649413  1
  In  In9  1  0.500000  0.843208  0.156792  1
  In  In10  1  0.500000  0.843208  0.500000  1
  In  In11  1  0.500000  0.156792  0.500000  1
  In  In12  1  0.500000  0.500000  0.843208  1
  In  In13  1  0.156792  0.500000  0.500000  1
  In  In14  1  0.843208  0.156792  0.500000  1
  In  In15  1  0.156792  0.843208  0.500000  1
  In  In16  1  0.500000  0.156792  0.843208  1
  In  In17  1  0.156792  0.500000  0.843208  1
  In  In18  1  0.500000  0.500000  0.156792  1
  In  In19  1  0.843208  0.500000  0.500000  1
  In  In20  1  0.843208  0.500000  0.156792  1
  In  In21  1  0.250000  0.250000  0.250000  1
  In  In22  1  0.750000  0.750000  0.750000  1
  Co  Co23  1  0.787472  0.787472  0.212528  1
  Co  Co24  1  0.000000  0.000000  0.000000  1
  Co  Co25  1  0.212528  0.787472  0.212528  1
  Co  Co26  1  0.212528  0.787472  0.787472  1
  Co  Co27  1  0.212528  0.212528  0.787472  1
  Co  Co28  1  0.787472  0.212528  0.787472  1
  Co  Co29  1  0.787472  0.212528  0.212528  1
