# generated using pymatgen
data_Tb11ThSi11Au
_symmetry_space_group_name_H-M   'P 1'
_cell_length_a   3.87853700
_cell_length_b   5.75246096
_cell_length_c   23.82968800
_cell_angle_alpha   82.73173239
_cell_angle_beta   90.00000000
_cell_angle_gamma   90.00000000
_symmetry_Int_Tables_number   1
_chemical_formula_structural   Tb11ThSi11Au
_chemical_formula_sum   'Tb11 Th1 Si11 Au1'
_cell_volume   527.39520461
_cell_formula_units_Z   1
loop_
 _symmetry_equiv_pos_site_id
 _symmetry_equiv_pos_as_xyz
  1  'x, y, z'
loop_
 _atom_site_type_symbol
 _atom_site_label
 _atom_site_symmetry_multiplicity
 _atom_site_fract_x
 _atom_site_fract_y
 _atom_site_fract_z
 _atom_site_occupancy
  Tb  Tb0  1  0.250000  0.659577  0.938723  1
  Tb  Tb1  1  0.750000  0.529422  0.227809  1
  Tb  Tb2  1  0.250000  0.469671  0.772997  1
  Tb  Tb3  1  0.750000  0.167892  0.394008  1
  Tb  Tb4  1  0.250000  0.825619  0.606872  1
  Tb  Tb5  1  0.750000  0.350634  0.559546  1
  Tb  Tb6  1  0.250000  0.641918  0.440956  1
  Tb  Tb7  1  0.750000  0.994121  0.726247  1
  Tb  Tb8  1  0.250000  0.995935  0.275749  1
  Tb  Tb9  1  0.750000  0.170730  0.891583  1
  Tb  Tb10  1  0.250000  0.842796  0.105637  1
  Th  Th11  1  0.750000  0.364672  0.058723  1
  Si  Si12  1  0.750000  0.881505  0.009379  1
  Si  Si13  1  0.250000  0.143782  0.984679  1
  Si  Si14  1  0.750000  0.023584  0.182113  1
  Si  Si15  1  0.250000  0.953810  0.820326  1
  Si  Si16  1  0.750000  0.703785  0.347201  1
  Si  Si17  1  0.250000  0.289927  0.654007  1
  Si  Si18  1  0.750000  0.863206  0.512649  1
  Si  Si19  1  0.250000  0.130056  0.487812  1
  Si  Si20  1  0.750000  0.530732  0.678694  1
  Si  Si21  1  0.250000  0.462003  0.322698  1
  Si  Si22  1  0.750000  0.686953  0.844737  1
  Au  Au23  1  0.250000  0.317670  0.156854  1
