# generated using pymatgen
data_CaPr3HgPb11
_symmetry_space_group_name_H-M   'P 1'
_cell_length_a   9.97249400
_cell_length_b   6.98210442
_cell_length_c   6.95176000
_cell_angle_alpha   90.17189323
_cell_angle_beta   90.00000000
_cell_angle_gamma   90.00000000
_symmetry_Int_Tables_number   1
_chemical_formula_structural   CaPr3HgPb11
_chemical_formula_sum   'Ca1 Pr3 Hg1 Pb11'
_cell_volume   484.04188012
_cell_formula_units_Z   1
loop_
 _symmetry_equiv_pos_site_id
 _symmetry_equiv_pos_as_xyz
  1  'x, y, z'
loop_
 _atom_site_type_symbol
 _atom_site_label
 _atom_site_symmetry_multiplicity
 _atom_site_fract_x
 _atom_site_fract_y
 _atom_site_fract_z
 _atom_site_occupancy
  Ca  Ca0  1  0.750000  0.501720  0.499532  1
  Pr  Pr1  1  0.250000  0.000876  0.000395  1
  Pr  Pr2  1  0.250000  0.500596  0.501708  1
  Pr  Pr3  1  0.750000  0.000316  0.998732  1
  Hg  Hg4  1  0.750000  0.496607  0.999236  1
  Pb  Pb5  1  0.997655  0.246729  0.748664  1
  Pb  Pb6  1  0.502494  0.251268  0.247021  1
  Pb  Pb7  1  0.502825  0.752539  0.249598  1
  Pb  Pb8  1  0.997285  0.748205  0.754488  1
  Pb  Pb9  1  0.997175  0.752539  0.249598  1
  Pb  Pb10  1  0.502715  0.748205  0.754488  1
  Pb  Pb11  1  0.502345  0.246729  0.748664  1
  Pb  Pb12  1  0.997506  0.251268  0.247021  1
  Pb  Pb13  1  0.250000  0.999931  0.500188  1
  Pb  Pb14  1  0.250000  0.501131  0.001612  1
  Pb  Pb15  1  0.750000  0.001340  0.499054  1
