# generated using pymatgen
data_Dy4Tc5Os3
_symmetry_space_group_name_H-M   'P 1'
_cell_length_a   5.32730789
_cell_length_b   5.32730764
_cell_length_c   9.07533700
_cell_angle_alpha   90.00000000
_cell_angle_beta   90.00000000
_cell_angle_gamma   121.11691612
_symmetry_Int_Tables_number   1
_chemical_formula_structural   Dy4Tc5Os3
_chemical_formula_sum   'Dy4 Tc5 Os3'
_cell_volume   220.50082131
_cell_formula_units_Z   1
loop_
 _symmetry_equiv_pos_site_id
 _symmetry_equiv_pos_as_xyz
  1  'x, y, z'
loop_
 _atom_site_type_symbol
 _atom_site_label
 _atom_site_symmetry_multiplicity
 _atom_site_fract_x
 _atom_site_fract_y
 _atom_site_fract_z
 _atom_site_occupancy
  Dy  Dy0  1  0.334420  0.665580  0.435494  1
  Dy  Dy1  1  0.666130  0.333870  0.563156  1
  Dy  Dy2  1  0.666130  0.333870  0.936844  1
  Dy  Dy3  1  0.334420  0.665580  0.064506  1
  Tc  Tc4  1  0.171551  0.342787  0.750000  1
  Tc  Tc5  1  0.170190  0.829810  0.750000  1
  Tc  Tc6  1  0.340489  0.170507  0.250000  1
  Tc  Tc7  1  0.829493  0.659511  0.250000  1
  Tc  Tc8  1  0.657213  0.828449  0.750000  1
  Os  Os9  1  0.001388  0.998612  0.000958  1
  Os  Os10  1  0.827188  0.172812  0.250000  1
  Os  Os11  1  0.001388  0.998612  0.499042  1
