# generated using pymatgen
data_Tm2NbIr3
_symmetry_space_group_name_H-M   'P 1'
_cell_length_a   5.59839140
_cell_length_b   5.24034194
_cell_length_c   5.59839200
_cell_angle_alpha   57.71284409
_cell_angle_beta   59.99999646
_cell_angle_gamma   57.71283791
_symmetry_Int_Tables_number   1
_chemical_formula_structural   Tm2NbIr3
_chemical_formula_sum   'Tm2 Nb1 Ir3'
_cell_volume   111.95886707
_cell_formula_units_Z   1
loop_
 _symmetry_equiv_pos_site_id
 _symmetry_equiv_pos_as_xyz
  1  'x, y, z'
loop_
 _atom_site_type_symbol
 _atom_site_label
 _atom_site_symmetry_multiplicity
 _atom_site_fract_x
 _atom_site_fract_y
 _atom_site_fract_z
 _atom_site_occupancy
  Tm  Tm0  1  0.751660  0.745021  0.751660  1
  Tm  Tm1  1  0.498340  0.504979  0.498340  1
  Nb  Nb2  1  0.125000  0.625000  0.125000  1
  Ir  Ir3  1  0.125000  0.125000  0.625000  1
  Ir  Ir4  1  0.625000  0.125000  0.125000  1
  Ir  Ir5  1  0.125000  0.125000  0.125000  1
