# generated using pymatgen
data_K4TaAlH11
_symmetry_space_group_name_H-M   'P 1'
_cell_length_a   6.06141073
_cell_length_b   8.98875750
_cell_length_c   10.84704152
_cell_angle_alpha   65.50745974
_cell_angle_beta   89.16670626
_cell_angle_gamma   89.10334098
_symmetry_Int_Tables_number   1
_chemical_formula_structural   K4TaAlH11
_chemical_formula_sum   'K8 Ta2 Al2 H22'
_cell_volume   537.72861529
_cell_formula_units_Z   2
loop_
 _symmetry_equiv_pos_site_id
 _symmetry_equiv_pos_as_xyz
  1  'x, y, z'
loop_
 _atom_site_type_symbol
 _atom_site_label
 _atom_site_symmetry_multiplicity
 _atom_site_fract_x
 _atom_site_fract_y
 _atom_site_fract_z
 _atom_site_occupancy
  K  K0  1  0.750124  0.365285  0.501887  1
  K  K1  1  0.249864  0.634727  0.498107  1
  K  K2  1  0.759590  0.331528  0.088652  1
  K  K3  1  0.240384  0.668524  0.911362  1
  K  K4  1  0.748092  0.960040  0.403540  1
  K  K5  1  0.251859  0.039927  0.596472  1
  K  K6  1  0.284658  0.268226  0.871665  1
  K  K7  1  0.715335  0.731826  0.128356  1
  Ta  Ta8  1  0.758814  0.584551  0.729324  1
  Ta  Ta9  1  0.241198  0.415445  0.270688  1
  Al  Al10  1  0.741923  0.877387  0.753259  1
  Al  Al11  1  0.258081  0.122598  0.246737  1
  H  H12  1  0.547211  0.762983  0.682343  1
  H  H13  1  0.452807  0.237013  0.317644  1
  H  H14  1  0.552255  0.477041  0.670517  1
  H  H15  1  0.447739  0.522955  0.329483  1
  H  H16  1  0.704621  0.048936  0.608709  1
  H  H17  1  0.295403  0.951052  0.391284  1
  H  H18  1  0.539694  0.500896  0.858432  1
  H  H19  1  0.460307  0.499127  0.141561  1
  H  H20  1  0.915738  0.786684  0.657811  1
  H  H21  1  0.084289  0.213305  0.342187  1
  H  H22  1  0.806592  0.642890  0.541377  1
  H  H23  1  0.193414  0.357108  0.458617  1
  H  H24  1  0.962147  0.939338  0.813136  1
  H  H25  1  0.037853  0.060647  0.186865  1
  H  H26  1  0.796195  0.656229  0.872276  1
  H  H27  1  0.203827  0.343762  0.127717  1
  H  H28  1  0.823721  0.362794  0.833928  1
  H  H29  1  0.176265  0.637203  0.166079  1
  H  H30  1  0.060366  0.551141  0.742810  1
  H  H31  1  0.939644  0.448852  0.257188  1
  H  H32  1  0.536185  0.911139  0.846950  1
  H  H33  1  0.463806  0.088842  0.153035  1
