# generated using pymatgen
data_Rb2CaP2O7
_symmetry_space_group_name_H-M   'P 1'
_cell_length_a   5.86718902
_cell_length_b   5.86718851
_cell_length_c   13.35870391
_cell_angle_alpha   75.89262035
_cell_angle_beta   75.89262217
_cell_angle_gamma   59.51595889
_symmetry_Int_Tables_number   1
_chemical_formula_structural   Rb2CaP2O7
_chemical_formula_sum   'Rb4 Ca2 P4 O14'
_cell_volume   380.35250284
_cell_formula_units_Z   2
loop_
 _symmetry_equiv_pos_site_id
 _symmetry_equiv_pos_as_xyz
  1  'x, y, z'
loop_
 _atom_site_type_symbol
 _atom_site_label
 _atom_site_symmetry_multiplicity
 _atom_site_fract_x
 _atom_site_fract_y
 _atom_site_fract_z
 _atom_site_occupancy
  Rb  Rb0  1  0.925868  0.367979  0.834980  1
  Rb  Rb1  1  0.074132  0.632021  0.165020  1
  Rb  Rb2  1  0.632021  0.074132  0.665020  1
  Rb  Rb3  1  0.367979  0.925868  0.334980  1
  Ca  Ca4  1  0.500000  0.000000  0.000000  1
  Ca  Ca5  1  0.000000  0.500000  0.500000  1
  P  P6  1  0.697315  0.240337  0.369316  1
  P  P7  1  0.240337  0.697315  0.869316  1
  P  P8  1  0.759663  0.302685  0.130684  1
  P  P9  1  0.302685  0.759663  0.630684  1
  O  O10  1  0.166205  0.833795  0.750000  1
  O  O11  1  0.590478  0.187097  0.113607  1
  O  O12  1  0.833795  0.166205  0.250000  1
  O  O13  1  0.409522  0.812903  0.886393  1
  O  O14  1  0.604808  0.607158  0.128083  1
  O  O15  1  0.037078  0.198918  0.065898  1
  O  O16  1  0.812903  0.409522  0.386393  1
  O  O17  1  0.198918  0.037078  0.565898  1
  O  O18  1  0.187097  0.590478  0.613607  1
  O  O19  1  0.392842  0.395192  0.371917  1
  O  O20  1  0.801082  0.962922  0.434102  1
  O  O21  1  0.395192  0.392842  0.871917  1
  O  O22  1  0.962922  0.801082  0.934102  1
  O  O23  1  0.607158  0.604808  0.628083  1
