# generated using pymatgen
data_Y5Ho3Re2(B12Ir)2
_symmetry_space_group_name_H-M   'P 1'
_cell_length_a   3.67165000
_cell_length_b   9.16700193
_cell_length_c   11.56108501
_cell_angle_alpha   90.33230046
_cell_angle_beta   90.00000000
_cell_angle_gamma   90.00000000
_symmetry_Int_Tables_number   1
_chemical_formula_structural   Y5Ho3Re2(B12Ir)2
_chemical_formula_sum   'Y5 Ho3 Re2 B24 Ir2'
_cell_volume   389.11671647
_cell_formula_units_Z   1
loop_
 _symmetry_equiv_pos_site_id
 _symmetry_equiv_pos_as_xyz
  1  'x, y, z'
loop_
 _atom_site_type_symbol
 _atom_site_label
 _atom_site_symmetry_multiplicity
 _atom_site_fract_x
 _atom_site_fract_y
 _atom_site_fract_z
 _atom_site_occupancy
  Y  Y0  1  0.000000  0.317198  0.409948  1
  Y  Y1  1  0.000000  0.682868  0.590138  1
  Y  Y2  1  0.000000  0.826395  0.082236  1
  Y  Y3  1  0.000000  0.173583  0.917685  1
  Y  Y4  1  0.000000  0.946185  0.372392  1
  Ho  Ho5  1  0.000000  0.053988  0.628041  1
  Ho  Ho6  1  0.000000  0.441736  0.125952  1
  Ho  Ho7  1  0.000000  0.558265  0.874020  1
  Re  Re8  1  0.000000  0.138724  0.179698  1
  Re  Re9  1  0.000000  0.861545  0.820011  1
  B  B10  1  0.500000  0.554261  0.433788  1
  B  B11  1  0.500000  0.445683  0.566240  1
  B  B12  1  0.500000  0.053497  0.067368  1
  B  B13  1  0.500000  0.946501  0.932572  1
  B  B14  1  0.500000  0.749076  0.421016  1
  B  B15  1  0.500000  0.250593  0.579115  1
  B  B16  1  0.500000  0.247952  0.080938  1
  B  B17  1  0.500000  0.752070  0.919037  1
  B  B18  1  0.500000  0.790513  0.265949  1
  B  B19  1  0.500000  0.209201  0.733862  1
  B  B20  1  0.500000  0.292282  0.234097  1
  B  B21  1  0.500000  0.707784  0.765892  1
  B  B22  1  0.500000  0.631580  0.184104  1
  B  B23  1  0.500000  0.368366  0.815860  1
  B  B24  1  0.500000  0.131881  0.314416  1
  B  B25  1  0.500000  0.868457  0.685509  1
  B  B26  1  0.500000  0.983316  0.212821  1
  B  B27  1  0.500000  0.016782  0.786878  1
  B  B28  1  0.500000  0.482733  0.287138  1
  B  B29  1  0.500000  0.517221  0.712840  1
  B  B30  1  0.500000  0.606785  0.029922  1
  B  B31  1  0.500000  0.393204  0.970060  1
  B  B32  1  0.500000  0.107963  0.471019  1
  B  B33  1  0.500000  0.892278  0.529495  1
  Ir  Ir34  1  0.000000  0.636354  0.322036  1
  Ir  Ir35  1  0.000000  0.363181  0.677906  1
