# generated using pymatgen
data_Eu10TlSi5
_symmetry_space_group_name_H-M   'P 1'
_cell_length_a   7.86074587
_cell_length_b   7.86087215
_cell_length_c   9.45712811
_cell_angle_alpha   114.55440012
_cell_angle_beta   114.55704695
_cell_angle_gamma   89.99999328
_symmetry_Int_Tables_number   1
_chemical_formula_structural   Eu10TlSi5
_chemical_formula_sum   'Eu10 Tl1 Si5'
_cell_volume   472.80100113
_cell_formula_units_Z   1
loop_
 _symmetry_equiv_pos_site_id
 _symmetry_equiv_pos_as_xyz
  1  'x, y, z'
loop_
 _atom_site_type_symbol
 _atom_site_label
 _atom_site_symmetry_multiplicity
 _atom_site_fract_x
 _atom_site_fract_y
 _atom_site_fract_z
 _atom_site_occupancy
  Eu  Eu0  1  0.508633  0.508551  0.017140  1
  Eu  Eu1  1  0.991495  0.991449  0.982860  1
  Eu  Eu2  1  0.975687  0.826693  0.283771  1
  Eu  Eu3  1  0.308013  0.457000  0.283662  1
  Eu  Eu4  1  0.826797  0.308052  0.283779  1
  Eu  Eu5  1  0.457119  0.975658  0.283657  1
  Eu  Eu6  1  0.043018  0.191948  0.716221  1
  Eu  Eu7  1  0.673462  0.524342  0.716343  1
  Eu  Eu8  1  0.191916  0.673307  0.716229  1
  Eu  Eu9  1  0.524351  0.043000  0.716338  1
  Tl  Tl10  1  0.749152  0.750000  0.500000  1
  Si  Si11  1  0.250029  0.250000  0.500000  1
  Si  Si12  1  0.610404  0.889740  0.000065  1
  Si  Si13  1  0.389763  0.110264  0.999941  1
  Si  Si14  1  0.889823  0.389736  0.000059  1
  Si  Si15  1  0.110339  0.610260  0.999935  1
