# generated using pymatgen
data_YHoPa(Co3P2)3
_symmetry_space_group_name_H-M   'P 1'
_cell_length_a   3.71682800
_cell_length_b   10.53879200
_cell_length_c   12.16826200
_cell_angle_alpha   90.00000000
_cell_angle_beta   90.00000000
_cell_angle_gamma   90.00000000
_symmetry_Int_Tables_number   1
_chemical_formula_structural   YHoPa(Co3P2)3
_chemical_formula_sum   'Y2 Ho2 Pa2 Co18 P12'
_cell_volume   476.64149644
_cell_formula_units_Z   2
loop_
 _symmetry_equiv_pos_site_id
 _symmetry_equiv_pos_as_xyz
  1  'x, y, z'
loop_
 _atom_site_type_symbol
 _atom_site_label
 _atom_site_symmetry_multiplicity
 _atom_site_fract_x
 _atom_site_fract_y
 _atom_site_fract_z
 _atom_site_occupancy
  Y  Y0  1  0.500000  0.814685  0.205167  1
  Y  Y1  1  0.500000  0.185315  0.205167  1
  Ho  Ho2  1  0.000000  0.684775  0.794771  1
  Ho  Ho3  1  0.000000  0.315225  0.794771  1
  Pa  Pa4  1  0.000000  0.500000  0.528979  1
  Pa  Pa5  1  0.500000  0.000000  0.471226  1
  Co  Co6  1  0.000000  0.500000  0.983679  1
  Co  Co7  1  0.500000  0.000000  0.014850  1
  Co  Co8  1  0.500000  0.301560  0.431991  1
  Co  Co9  1  0.500000  0.698440  0.431991  1
  Co  Co10  1  0.000000  0.198569  0.568758  1
  Co  Co11  1  0.000000  0.801431  0.568758  1
  Co  Co12  1  0.500000  0.880064  0.710993  1
  Co  Co13  1  0.500000  0.119936  0.710993  1
  Co  Co14  1  0.000000  0.619561  0.289490  1
  Co  Co15  1  0.000000  0.380439  0.289490  1
  Co  Co16  1  0.500000  0.334274  0.993161  1
  Co  Co17  1  0.500000  0.665726  0.993161  1
  Co  Co18  1  0.000000  0.166175  0.005961  1
  Co  Co19  1  0.000000  0.833825  0.005961  1
  Co  Co20  1  0.500000  0.500000  0.158519  1
  Co  Co21  1  0.000000  0.000000  0.841551  1
  Co  Co22  1  0.500000  0.500000  0.696586  1
  Co  Co23  1  0.000000  0.000000  0.303887  1
  P  P24  1  0.500000  0.306850  0.617428  1
  P  P25  1  0.500000  0.693150  0.617428  1
  P  P26  1  0.000000  0.193342  0.383480  1
  P  P27  1  0.000000  0.806658  0.383480  1
  P  P28  1  0.500000  0.500000  0.878541  1
  P  P29  1  0.000000  0.000000  0.120515  1
  P  P30  1  0.500000  0.847206  0.894678  1
  P  P31  1  0.500000  0.152794  0.894678  1
  P  P32  1  0.000000  0.651772  0.104855  1
  P  P33  1  0.000000  0.348228  0.104855  1
  P  P34  1  0.500000  0.500000  0.343382  1
  P  P35  1  0.000000  0.000000  0.656816  1
