# generated using pymatgen
data_Sc4AlNi3Os4
_symmetry_space_group_name_H-M   'P 1'
_cell_length_a   5.16237029
_cell_length_b   5.08786719
_cell_length_c   8.21120711
_cell_angle_alpha   90.00000119
_cell_angle_beta   89.77425809
_cell_angle_gamma   119.52373380
_symmetry_Int_Tables_number   1
_chemical_formula_structural   Sc4AlNi3Os4
_chemical_formula_sum   'Sc4 Al1 Ni3 Os4'
_cell_volume   187.66462613
_cell_formula_units_Z   1
loop_
 _symmetry_equiv_pos_site_id
 _symmetry_equiv_pos_as_xyz
  1  'x, y, z'
loop_
 _atom_site_type_symbol
 _atom_site_label
 _atom_site_symmetry_multiplicity
 _atom_site_fract_x
 _atom_site_fract_y
 _atom_site_fract_z
 _atom_site_occupancy
  Sc  Sc0  1  0.319851  0.659926  0.443475  1
  Sc  Sc1  1  0.653240  0.326619  0.561178  1
  Sc  Sc2  1  0.677246  0.338622  0.926819  1
  Sc  Sc3  1  0.345474  0.672738  0.071147  1
  Al  Al4  1  0.001659  0.000830  0.993773  1
  Ni  Ni5  1  0.175470  0.343641  0.755026  1
  Ni  Ni6  1  0.175470  0.831827  0.755026  1
  Ni  Ni7  1  0.338555  0.169279  0.241869  1
  Os  Os8  1  0.830686  0.655985  0.249599  1
  Os  Os9  1  0.655373  0.827686  0.748417  1
  Os  Os10  1  0.830686  0.174703  0.249599  1
  Os  Os11  1  0.996290  0.998145  0.504073  1
