# generated using pymatgen
data_Ta5Cr(GaRu2)6
_symmetry_space_group_name_H-M   'P 1'
_cell_length_a   4.36672800
_cell_length_b   6.17743400
_cell_length_c   13.09088400
_cell_angle_alpha   90.00000000
_cell_angle_beta   90.00062565
_cell_angle_gamma   90.00000000
_symmetry_Int_Tables_number   1
_chemical_formula_structural   Ta5Cr(GaRu2)6
_chemical_formula_sum   'Ta5 Cr1 Ga6 Ru12'
_cell_volume   353.12887391
_cell_formula_units_Z   1
loop_
 _symmetry_equiv_pos_site_id
 _symmetry_equiv_pos_as_xyz
  1  'x, y, z'
loop_
 _atom_site_type_symbol
 _atom_site_label
 _atom_site_symmetry_multiplicity
 _atom_site_fract_x
 _atom_site_fract_y
 _atom_site_fract_z
 _atom_site_occupancy
  Ta  Ta0  1  0.000009  0.000000  0.996635  1
  Ta  Ta1  1  0.499826  0.500000  0.164579  1
  Ta  Ta2  1  0.999844  0.000000  0.333383  1
  Ta  Ta3  1  0.500015  0.500000  0.502051  1
  Ta  Ta4  1  0.000198  0.000000  0.670060  1
  Cr  Cr5  1  0.500082  0.500000  0.833359  1
  Ga  Ga6  1  0.999984  0.500000  0.997670  1
  Ga  Ga7  1  0.499818  0.000000  0.164662  1
  Ga  Ga8  1  0.999760  0.500000  0.333242  1
  Ga  Ga9  1  0.500003  0.000000  0.501993  1
  Ga  Ga10  1  0.000156  0.500000  0.669072  1
  Ga  Ga11  1  0.500234  0.000000  0.833251  1
  Ru  Ru12  1  0.499996  0.252426  0.997944  1
  Ru  Ru13  1  0.499996  0.747575  0.997944  1
  Ru  Ru14  1  0.999802  0.249902  0.166113  1
  Ru  Ru15  1  0.999802  0.750099  0.166113  1
  Ru  Ru16  1  0.499851  0.249689  0.333311  1
  Ru  Ru17  1  0.499851  0.750310  0.333311  1
  Ru  Ru18  1  0.000015  0.249981  0.500599  1
  Ru  Ru19  1  0.000015  0.750018  0.500599  1
  Ru  Ru20  1  0.500196  0.252450  0.668728  1
  Ru  Ru21  1  0.500196  0.747549  0.668728  1
  Ru  Ru22  1  0.000176  0.255772  0.833326  1
  Ru  Ru23  1  0.000176  0.744229  0.833326  1
