# generated using pymatgen
data_Sm8C3SeBr6
_symmetry_space_group_name_H-M   'P 1'
_cell_length_a   3.87150500
_cell_length_b   11.28816450
_cell_length_c   21.22558004
_cell_angle_alpha   92.93410194
_cell_angle_beta   90.00000000
_cell_angle_gamma   90.00000000
_symmetry_Int_Tables_number   1
_chemical_formula_structural   Sm8C3SeBr6
_chemical_formula_sum   'Sm16 C6 Se2 Br12'
_cell_volume   926.38820559
_cell_formula_units_Z   2
loop_
 _symmetry_equiv_pos_site_id
 _symmetry_equiv_pos_as_xyz
  1  'x, y, z'
loop_
 _atom_site_type_symbol
 _atom_site_label
 _atom_site_symmetry_multiplicity
 _atom_site_fract_x
 _atom_site_fract_y
 _atom_site_fract_z
 _atom_site_occupancy
  Sm  Sm0  1  0.250000  0.877133  0.576485  1
  Sm  Sm1  1  0.750000  0.122867  0.423515  1
  Sm  Sm2  1  0.750000  0.643148  0.080101  1
  Sm  Sm3  1  0.250000  0.356852  0.919899  1
  Sm  Sm4  1  0.250000  0.890818  0.738957  1
  Sm  Sm5  1  0.750000  0.109182  0.261043  1
  Sm  Sm6  1  0.750000  0.656089  0.241037  1
  Sm  Sm7  1  0.250000  0.343911  0.758963  1
  Sm  Sm8  1  0.250000  0.872681  0.169484  1
  Sm  Sm9  1  0.750000  0.127319  0.830516  1
  Sm  Sm10  1  0.750000  0.653177  0.653337  1
  Sm  Sm11  1  0.250000  0.346823  0.346663  1
  Sm  Sm12  1  0.250000  0.893552  0.331610  1
  Sm  Sm13  1  0.750000  0.106448  0.668390  1
  Sm  Sm14  1  0.750000  0.580966  0.844189  1
  Sm  Sm15  1  0.250000  0.419034  0.155811  1
  C  C16  1  0.750000  0.883201  0.252152  1
  C  C17  1  0.250000  0.116799  0.747848  1
  C  C18  1  0.250000  0.636856  0.153867  1
  C  C19  1  0.750000  0.363144  0.846133  1
  C  C20  1  0.750000  0.870740  0.650964  1
  C  C21  1  0.250000  0.129260  0.349036  1
  Se  Se22  1  0.250000  0.616729  0.749097  1
  Se  Se23  1  0.750000  0.383271  0.250903  1
  Br  Br24  1  0.250000  0.622167  0.547664  1
  Br  Br25  1  0.750000  0.377833  0.452336  1
  Br  Br26  1  0.750000  0.888154  0.058732  1
  Br  Br27  1  0.250000  0.111846  0.941268  1
  Br  Br28  1  0.250000  0.622250  0.956545  1
  Br  Br29  1  0.750000  0.377750  0.043455  1
  Br  Br30  1  0.750000  0.870621  0.452401  1
  Br  Br31  1  0.250000  0.129379  0.547599  1
  Br  Br32  1  0.250000  0.632157  0.351076  1
  Br  Br33  1  0.750000  0.367843  0.648924  1
  Br  Br34  1  0.750000  0.863065  0.848754  1
  Br  Br35  1  0.250000  0.136935  0.151246  1
