# generated using pymatgen
data_TmZr2Sc(Al3Rh)6
_symmetry_space_group_name_H-M   'P 1'
_cell_length_a   7.48442200
_cell_length_b   7.47829117
_cell_length_c   9.29655400
_cell_angle_alpha   90.00000000
_cell_angle_beta   90.00000000
_cell_angle_gamma   119.64995462
_symmetry_Int_Tables_number   1
_chemical_formula_structural   TmZr2Sc(Al3Rh)6
_chemical_formula_sum   'Tm1 Zr2 Sc1 Al18 Rh6'
_cell_volume   452.20396520
_cell_formula_units_Z   1
loop_
 _symmetry_equiv_pos_site_id
 _symmetry_equiv_pos_as_xyz
  1  'x, y, z'
loop_
 _atom_site_type_symbol
 _atom_site_label
 _atom_site_symmetry_multiplicity
 _atom_site_fract_x
 _atom_site_fract_y
 _atom_site_fract_z
 _atom_site_occupancy
  Tm  Tm0  1  0.329301  0.006703  0.750000  1
  Zr  Zr1  1  0.994877  0.671791  0.250000  1
  Zr  Zr2  1  0.004828  0.327680  0.750000  1
  Sc  Sc3  1  0.671459  0.993877  0.250000  1
  Al  Al4  1  0.121163  0.121394  0.250000  1
  Al  Al5  1  0.873486  0.875973  0.750000  1
  Al  Al6  1  0.995913  0.334084  0.078909  1
  Al  Al7  1  0.000684  0.662965  0.925154  1
  Al  Al8  1  0.000684  0.662965  0.574846  1
  Al  Al9  1  0.335909  0.997959  0.418069  1
  Al  Al10  1  0.995913  0.334084  0.421091  1
  Al  Al11  1  0.667195  0.001665  0.574948  1
  Al  Al12  1  0.667195  0.001665  0.925052  1
  Al  Al13  1  0.335909  0.997959  0.081931  1
  Al  Al14  1  0.331286  0.333499  0.554145  1
  Al  Al15  1  0.669199  0.669441  0.440748  1
  Al  Al16  1  0.669199  0.669441  0.059252  1
  Al  Al17  1  0.331286  0.333499  0.945855  1
  Al  Al18  1  0.337437  0.554092  0.250000  1
  Al  Al19  1  0.664878  0.450838  0.750000  1
  Al  Al20  1  0.557591  0.341979  0.250000  1
  Al  Al21  1  0.444480  0.656903  0.750000  1
  Rh  Rh22  1  0.672465  0.327636  0.999430  1
  Rh  Rh23  1  0.327208  0.672533  0.000917  1
  Rh  Rh24  1  0.327208  0.672533  0.499083  1
  Rh  Rh25  1  0.672465  0.327636  0.500570  1
  Rh  Rh26  1  0.000391  0.999603  0.000076  1
  Rh  Rh27  1  0.000391  0.999603  0.499924  1
