# generated using pymatgen
data_SmCd(NiPt)2
_symmetry_space_group_name_H-M   'P 1'
_cell_length_a   5.10699303
_cell_length_b   5.20514793
_cell_length_c   5.20514731
_cell_angle_alpha   62.84924932
_cell_angle_beta   60.62186632
_cell_angle_gamma   60.62185278
_symmetry_Int_Tables_number   1
_chemical_formula_structural   SmCd(NiPt)2
_chemical_formula_sum   'Sm1 Cd1 Ni2 Pt2'
_cell_volume   100.74022332
_cell_formula_units_Z   1
loop_
 _symmetry_equiv_pos_site_id
 _symmetry_equiv_pos_as_xyz
  1  'x, y, z'
loop_
 _atom_site_type_symbol
 _atom_site_label
 _atom_site_symmetry_multiplicity
 _atom_site_fract_x
 _atom_site_fract_y
 _atom_site_fract_z
 _atom_site_occupancy
  Sm  Sm0  1  0.247395  0.252605  0.252605  1
  Cd  Cd1  1  0.007595  0.992405  0.992405  1
  Ni  Ni2  1  0.121690  0.627690  0.627690  1
  Ni  Ni3  1  0.622931  0.627690  0.627690  1
  Pt  Pt4  1  0.625195  0.626287  0.123324  1
  Pt  Pt5  1  0.625195  0.123324  0.626287  1
