# generated using pymatgen
data_Hf4MnSi4Ir3
_symmetry_space_group_name_H-M   'P 1'
_cell_length_a   3.97014200
_cell_length_b   6.43041550
_cell_length_c   7.39157097
_cell_angle_alpha   89.74784599
_cell_angle_beta   90.00000000
_cell_angle_gamma   90.00000000
_symmetry_Int_Tables_number   1
_chemical_formula_structural   Hf4MnSi4Ir3
_chemical_formula_sum   'Hf4 Mn1 Si4 Ir3'
_cell_volume   188.70248602
_cell_formula_units_Z   1
loop_
 _symmetry_equiv_pos_site_id
 _symmetry_equiv_pos_as_xyz
  1  'x, y, z'
loop_
 _atom_site_type_symbol
 _atom_site_label
 _atom_site_symmetry_multiplicity
 _atom_site_fract_x
 _atom_site_fract_y
 _atom_site_fract_z
 _atom_site_occupancy
  Hf  Hf0  1  0.250000  0.986332  0.312642  1
  Hf  Hf1  1  0.250000  0.476559  0.183900  1
  Hf  Hf2  1  0.750000  0.024541  0.682077  1
  Hf  Hf3  1  0.750000  0.508202  0.818156  1
  Mn  Mn4  1  0.750000  0.159583  0.060330  1
  Si  Si5  1  0.250000  0.723197  0.621171  1
  Si  Si6  1  0.250000  0.216080  0.890904  1
  Si  Si7  1  0.750000  0.275782  0.369423  1
  Si  Si8  1  0.750000  0.786528  0.118550  1
  Ir  Ir9  1  0.250000  0.342735  0.568563  1
  Ir  Ir10  1  0.250000  0.842045  0.938137  1
  Ir  Ir11  1  0.750000  0.658417  0.436148  1
