# generated using pymatgen
data_Lu4MgScRu4
_symmetry_space_group_name_H-M   'P 1'
_cell_length_a   3.31918900
_cell_length_b   3.31918900
_cell_length_c   17.91225200
_cell_angle_alpha   90.00000000
_cell_angle_beta   90.00000000
_cell_angle_gamma   90.00000000
_symmetry_Int_Tables_number   1
_chemical_formula_structural   Lu4MgScRu4
_chemical_formula_sum   'Lu4 Mg1 Sc1 Ru4'
_cell_volume   197.33956003
_cell_formula_units_Z   1
loop_
 _symmetry_equiv_pos_site_id
 _symmetry_equiv_pos_as_xyz
  1  'x, y, z'
loop_
 _atom_site_type_symbol
 _atom_site_label
 _atom_site_symmetry_multiplicity
 _atom_site_fract_x
 _atom_site_fract_y
 _atom_site_fract_z
 _atom_site_occupancy
  Lu  Lu0  1  0.000000  0.000000  0.862439  1
  Lu  Lu1  1  0.000000  0.000000  0.132741  1
  Lu  Lu2  1  0.000000  0.000000  0.315513  1
  Lu  Lu3  1  0.000000  0.000000  0.503422  1
  Mg  Mg4  1  0.500000  0.500000  0.997497  1
  Sc  Sc5  1  0.000000  0.000000  0.685424  1
  Ru  Ru6  1  0.500000  0.500000  0.219216  1
  Ru  Ru7  1  0.500000  0.500000  0.409151  1
  Ru  Ru8  1  0.500000  0.500000  0.598320  1
  Ru  Ru9  1  0.500000  0.500000  0.776277  1
