# generated using pymatgen
data_HfSc5(TiCo2)2
_symmetry_space_group_name_H-M   'P 1'
_cell_length_a   8.32148411
_cell_length_b   8.32148494
_cell_length_c   8.31875700
_cell_angle_alpha   60.01084754
_cell_angle_beta   60.01084424
_cell_angle_gamma   59.97832206
_symmetry_Int_Tables_number   1
_chemical_formula_structural   HfSc5(TiCo2)2
_chemical_formula_sum   'Hf2 Sc10 Ti4 Co8'
_cell_volume   407.32870108
_cell_formula_units_Z   2
loop_
 _symmetry_equiv_pos_site_id
 _symmetry_equiv_pos_as_xyz
  1  'x, y, z'
loop_
 _atom_site_type_symbol
 _atom_site_label
 _atom_site_symmetry_multiplicity
 _atom_site_fract_x
 _atom_site_fract_y
 _atom_site_fract_z
 _atom_site_occupancy
  Hf  Hf0  1  0.807694  0.807694  0.192306  1
  Hf  Hf1  1  0.192306  0.192306  0.807694  1
  Sc  Sc2  1  0.809879  0.190121  0.809879  1
  Sc  Sc3  1  0.190121  0.809879  0.190121  1
  Sc  Sc4  1  0.190121  0.809879  0.809879  1
  Sc  Sc5  1  0.809879  0.190121  0.190121  1
  Sc  Sc6  1  0.439246  0.439246  0.060754  1
  Sc  Sc7  1  0.060754  0.060754  0.439246  1
  Sc  Sc8  1  0.439574  0.060426  0.439574  1
  Sc  Sc9  1  0.060426  0.439574  0.060426  1
  Sc  Sc10  1  0.060426  0.439574  0.439574  1
  Sc  Sc11  1  0.439574  0.060426  0.060426  1
  Ti  Ti12  1  0.124894  0.627056  0.624025  1
  Ti  Ti13  1  0.627056  0.124894  0.624025  1
  Ti  Ti14  1  0.624025  0.624025  0.124894  1
  Ti  Ti15  1  0.624025  0.624025  0.627056  1
  Co  Co16  1  0.742008  0.422555  0.417718  1
  Co  Co17  1  0.422555  0.742008  0.417718  1
  Co  Co18  1  0.417718  0.417718  0.742008  1
  Co  Co19  1  0.417718  0.417718  0.422555  1
  Co  Co20  1  0.504470  0.835904  0.829812  1
  Co  Co21  1  0.835904  0.504470  0.829812  1
  Co  Co22  1  0.829812  0.829812  0.504470  1
  Co  Co23  1  0.829812  0.829812  0.835904  1
