# generated using pymatgen
data_DyEr3Lu(CoB3)2
_symmetry_space_group_name_H-M   'P 1'
_cell_length_a   5.38527742
_cell_length_b   5.38527721
_cell_length_c   8.22773602
_cell_angle_alpha   70.89723263
_cell_angle_beta   70.89722528
_cell_angle_gamma   60.00002747
_symmetry_Int_Tables_number   1
_chemical_formula_structural   DyEr3Lu(CoB3)2
_chemical_formula_sum   'Dy1 Er3 Lu1 Co2 B6'
_cell_volume   191.32328198
_cell_formula_units_Z   1
loop_
 _symmetry_equiv_pos_site_id
 _symmetry_equiv_pos_as_xyz
  1  'x, y, z'
loop_
 _atom_site_type_symbol
 _atom_site_label
 _atom_site_symmetry_multiplicity
 _atom_site_fract_x
 _atom_site_fract_y
 _atom_site_fract_z
 _atom_site_occupancy
  Dy  Dy0  1  0.252911  0.252911  0.241267  1
  Er  Er1  1  0.747728  0.747728  0.756815  1
  Er  Er2  1  0.415517  0.415517  0.753450  1
  Er  Er3  1  0.584486  0.584486  0.246542  1
  Lu  Lu4  1  0.000260  0.000260  0.999220  1
  Co  Co5  1  0.118883  0.118883  0.643352  1
  Co  Co6  1  0.881117  0.881117  0.356648  1
  B  B7  1  0.168608  0.830708  0.500451  1
  B  B8  1  0.830708  0.500233  0.500451  1
  B  B9  1  0.500233  0.168608  0.500451  1
  B  B10  1  0.168608  0.500233  0.500451  1
  B  B11  1  0.500233  0.830708  0.500451  1
  B  B12  1  0.830708  0.168608  0.500451  1
