# generated using pymatgen
data_Y4TmLu7Co5Bi
_symmetry_space_group_name_H-M   'P 1'
_cell_length_a   8.21669041
_cell_length_b   8.21535300
_cell_length_c   8.21668968
_cell_angle_alpha   111.05659379
_cell_angle_beta   110.47646506
_cell_angle_gamma   106.91743493
_symmetry_Int_Tables_number   1
_chemical_formula_structural   Y4TmLu7Co5Bi
_chemical_formula_sum   'Y4 Tm1 Lu7 Co5 Bi1'
_cell_volume   426.29172675
_cell_formula_units_Z   1
loop_
 _symmetry_equiv_pos_site_id
 _symmetry_equiv_pos_as_xyz
  1  'x, y, z'
loop_
 _atom_site_type_symbol
 _atom_site_label
 _atom_site_symmetry_multiplicity
 _atom_site_fract_x
 _atom_site_fract_y
 _atom_site_fract_z
 _atom_site_occupancy
  Y  Y0  1  0.285735  0.186142  0.471425  1
  Y  Y1  1  0.715137  0.814281  0.529792  1
  Y  Y2  1  0.284490  0.814281  0.099144  1
  Y  Y3  1  0.714716  0.186142  0.900407  1
  Tm  Tm4  1  0.790049  0.984809  0.194760  1
  Lu  Lu5  1  0.623472  0.312304  0.311803  1
  Lu  Lu6  1  0.375894  0.687689  0.687803  1
  Lu  Lu7  1  0.000502  0.312304  0.688832  1
  Lu  Lu8  1  0.999886  0.687689  0.311795  1
  Lu  Lu9  1  0.209767  0.404652  0.194884  1
  Lu  Lu10  1  0.790270  0.594889  0.804618  1
  Lu  Lu11  1  0.209739  0.014713  0.804974  1
  Co  Co12  1  0.000266  0.375528  0.375262  1
  Co  Co13  1  0.999770  0.624935  0.625165  1
  Co  Co14  1  0.387400  0.887295  0.499895  1
  Co  Co15  1  0.612508  0.113022  0.500514  1
  Co  Co16  1  0.000665  0.999902  0.999237  1
  Bi  Bi17  1  0.499731  0.499423  0.999691  1
