# generated using pymatgen
data_Ca7Ho(Si4Mo3)4
_symmetry_space_group_name_H-M   'P 1'
_cell_length_a   6.73982050
_cell_length_b   6.95804696
_cell_length_c   13.08378481
_cell_angle_alpha   89.93746295
_cell_angle_beta   90.03792712
_cell_angle_gamma   89.92218655
_symmetry_Int_Tables_number   1
_chemical_formula_structural   Ca7Ho(Si4Mo3)4
_chemical_formula_sum   'Ca7 Ho1 Si16 Mo12'
_cell_volume   613.57594358
_cell_formula_units_Z   1
loop_
 _symmetry_equiv_pos_site_id
 _symmetry_equiv_pos_as_xyz
  1  'x, y, z'
loop_
 _atom_site_type_symbol
 _atom_site_label
 _atom_site_symmetry_multiplicity
 _atom_site_fract_x
 _atom_site_fract_y
 _atom_site_fract_z
 _atom_site_occupancy
  Ca  Ca0  1  0.498259  0.333214  0.090879  1
  Ca  Ca1  1  0.998286  0.166964  0.408699  1
  Ca  Ca2  1  0.501488  0.667007  0.591637  1
  Ca  Ca3  1  0.001145  0.830916  0.907696  1
  Ca  Ca4  1  0.501024  0.668039  0.908419  1
  Ca  Ca5  1  0.001387  0.832378  0.591498  1
  Ca  Ca6  1  0.498355  0.333197  0.408690  1
  Ho  Ho7  1  0.999379  0.170106  0.094066  1
  Si  Si8  1  0.657246  0.043555  0.545962  1
  Si  Si9  1  0.158082  0.456397  0.954780  1
  Si  Si10  1  0.340873  0.957587  0.045805  1
  Si  Si11  1  0.842499  0.543807  0.453824  1
  Si  Si12  1  0.342871  0.956050  0.453803  1
  Si  Si13  1  0.841807  0.543323  0.045717  1
  Si  Si14  1  0.659302  0.042787  0.954794  1
  Si  Si15  1  0.157401  0.456404  0.546009  1
  Si  Si16  1  0.534963  0.372497  0.750585  1
  Si  Si17  1  0.034951  0.126357  0.749894  1
  Si  Si18  1  0.465035  0.629836  0.248861  1
  Si  Si19  1  0.965247  0.871695  0.249706  1
  Si  Si20  1  0.800976  0.628562  0.750159  1
  Si  Si21  1  0.301165  0.870376  0.750111  1
  Si  Si22  1  0.199334  0.370780  0.250485  1
  Si  Si23  1  0.697047  0.130461  0.250416  1
  Mo  Mo24  1  0.834917  0.330759  0.628399  1
  Mo  Mo25  1  0.333855  0.168423  0.872784  1
  Mo  Mo26  1  0.165128  0.668280  0.126938  1
  Mo  Mo27  1  0.665867  0.831063  0.371234  1
  Mo  Mo28  1  0.165378  0.668941  0.370943  1
  Mo  Mo29  1  0.668145  0.833720  0.126958  1
  Mo  Mo30  1  0.836045  0.329154  0.873204  1
  Mo  Mo31  1  0.334947  0.168559  0.628316  1
  Mo  Mo32  1  0.660825  0.010538  0.750501  1
  Mo  Mo33  1  0.161105  0.488742  0.750549  1
  Mo  Mo34  1  0.337512  0.991355  0.249096  1
  Mo  Mo35  1  0.838152  0.508172  0.248585  1
