# generated using pymatgen
data_Hf3Nb(SiIr)4
_symmetry_space_group_name_H-M   'P 1'
_cell_length_a   3.92409900
_cell_length_b   6.49286357
_cell_length_c   7.39395695
_cell_angle_alpha   89.79358007
_cell_angle_beta   90.00000000
_cell_angle_gamma   90.00000000
_symmetry_Int_Tables_number   1
_chemical_formula_structural   Hf3Nb(SiIr)4
_chemical_formula_sum   'Hf3 Nb1 Si4 Ir4'
_cell_volume   188.38674073
_cell_formula_units_Z   1
loop_
 _symmetry_equiv_pos_site_id
 _symmetry_equiv_pos_as_xyz
  1  'x, y, z'
loop_
 _atom_site_type_symbol
 _atom_site_label
 _atom_site_symmetry_multiplicity
 _atom_site_fract_x
 _atom_site_fract_y
 _atom_site_fract_z
 _atom_site_occupancy
  Hf  Hf0  1  0.750000  0.520653  0.823400  1
  Hf  Hf1  1  0.250000  0.979126  0.317215  1
  Hf  Hf2  1  0.750000  0.022825  0.681172  1
  Nb  Nb3  1  0.250000  0.479618  0.176355  1
  Si  Si4  1  0.250000  0.228033  0.884675  1
  Si  Si5  1  0.250000  0.724371  0.621163  1
  Si  Si6  1  0.750000  0.768567  0.122574  1
  Si  Si7  1  0.750000  0.281753  0.372731  1
  Ir  Ir8  1  0.250000  0.847567  0.934743  1
  Ir  Ir9  1  0.250000  0.345521  0.562427  1
  Ir  Ir10  1  0.750000  0.654270  0.439171  1
  Ir  Ir11  1  0.750000  0.147695  0.064374  1
