# generated using pymatgen
data_Sr7Pr(BeSi3)4
_symmetry_space_group_name_H-M   'P 1'
_cell_length_a   8.00293600
_cell_length_b   8.00293574
_cell_length_c   9.33258800
_cell_angle_alpha   90.00000000
_cell_angle_beta   90.00000000
_cell_angle_gamma   120.00000935
_symmetry_Int_Tables_number   1
_chemical_formula_structural   Sr7Pr(BeSi3)4
_chemical_formula_sum   'Sr7 Pr1 Be4 Si12'
_cell_volume   517.64420667
_cell_formula_units_Z   1
loop_
 _symmetry_equiv_pos_site_id
 _symmetry_equiv_pos_as_xyz
  1  'x, y, z'
loop_
 _atom_site_type_symbol
 _atom_site_label
 _atom_site_symmetry_multiplicity
 _atom_site_fract_x
 _atom_site_fract_y
 _atom_site_fract_z
 _atom_site_occupancy
  Sr  Sr0  1  0.499787  0.500213  0.750000  1
  Sr  Sr1  1  0.500217  0.499783  0.250000  1
  Sr  Sr2  1  0.000425  0.500213  0.750000  1
  Sr  Sr3  1  0.999567  0.499783  0.250000  1
  Sr  Sr4  1  0.499787  0.999575  0.750000  1
  Sr  Sr5  1  0.500217  0.000433  0.250000  1
  Sr  Sr6  1  0.000000  0.000000  0.750000  1
  Pr  Pr7  1  0.000000  0.000000  0.250000  1
  Be  Be8  1  0.666667  0.333333  0.999615  1
  Be  Be9  1  0.333333  0.666667  0.001534  1
  Be  Be10  1  0.333333  0.666667  0.498466  1
  Be  Be11  1  0.666667  0.333333  0.500385  1
  Si  Si12  1  0.828788  0.171212  0.002787  1
  Si  Si13  1  0.171202  0.828798  0.003230  1
  Si  Si14  1  0.342425  0.171212  0.002787  1
  Si  Si15  1  0.171202  0.828798  0.496770  1
  Si  Si16  1  0.657598  0.828798  0.003230  1
  Si  Si17  1  0.828788  0.171212  0.497213  1
  Si  Si18  1  0.828788  0.657575  0.002787  1
  Si  Si19  1  0.657598  0.828798  0.496770  1
  Si  Si20  1  0.171202  0.342402  0.003230  1
  Si  Si21  1  0.342425  0.171212  0.497213  1
  Si  Si22  1  0.171202  0.342402  0.496770  1
  Si  Si23  1  0.828788  0.657575  0.497213  1
