# generated using pymatgen
data_CoNiN8
_symmetry_space_group_name_H-M   'P 1'
_cell_length_a   6.68282517
_cell_length_b   4.42934417
_cell_length_c   6.40386876
_cell_angle_alpha   89.43709345
_cell_angle_beta   104.22870096
_cell_angle_gamma   110.66448924
_symmetry_Int_Tables_number   1
_chemical_formula_structural   CoNiN8
_chemical_formula_sum   'Co1 Ni1 N8'
_cell_volume   171.30192915
_cell_formula_units_Z   1
loop_
 _symmetry_equiv_pos_site_id
 _symmetry_equiv_pos_as_xyz
  1  'x, y, z'
loop_
 _atom_site_type_symbol
 _atom_site_label
 _atom_site_symmetry_multiplicity
 _atom_site_fract_x
 _atom_site_fract_y
 _atom_site_fract_z
 _atom_site_occupancy
  Co  Co0  1  0.545916  0.343045  0.329188  1
  Ni  Ni1  1  0.803797  0.568895  0.690299  1
  N  N2  1  0.660646  0.779157  0.482016  1
  N  N3  1  0.282845  0.757044  0.751808  1
  N  N4  1  0.633693  0.419279  0.078143  1
  N  N5  1  0.224319  0.345017  0.208848  1
  N  N6  1  0.207874  0.078895  0.221472  1
  N  N7  1  0.641146  0.028799  0.450891  1
  N  N8  1  0.697697  0.468826  0.926601  1
  N  N9  1  0.097756  0.679249  0.725594  1
