# generated using pymatgen
data_K3Mn(BrO3)6
_symmetry_space_group_name_H-M   'P 1'
_cell_length_a   7.21671877
_cell_length_b   7.31379742
_cell_length_c   10.65592017
_cell_angle_alpha   98.83577879
_cell_angle_beta   110.94271351
_cell_angle_gamma   103.97482010
_symmetry_Int_Tables_number   1
_chemical_formula_structural   K3Mn(BrO3)6
_chemical_formula_sum   'K3 Mn1 Br6 O18'
_cell_volume   491.54818415
_cell_formula_units_Z   1
loop_
 _symmetry_equiv_pos_site_id
 _symmetry_equiv_pos_as_xyz
  1  'x, y, z'
loop_
 _atom_site_type_symbol
 _atom_site_label
 _atom_site_symmetry_multiplicity
 _atom_site_fract_x
 _atom_site_fract_y
 _atom_site_fract_z
 _atom_site_occupancy
  K  K0  1  0.366777  0.550475  0.278093  1
  K  K1  1  0.633223  0.449525  0.721907  1
  K  K2  1  0.000000  0.500000  0.500000  1
  Mn  Mn3  1  0.000000  0.000000  0.000000  1
  Br  Br4  1  0.510794  0.047050  0.192069  1
  Br  Br5  1  0.489206  0.952950  0.807931  1
  Br  Br6  1  0.789908  0.571590  0.112420  1
  Br  Br7  1  0.210092  0.428410  0.887580  1
  Br  Br8  1  0.123435  0.091704  0.359752  1
  Br  Br9  1  0.876565  0.908296  0.640248  1
  O  O10  1  0.618883  0.674976  0.138294  1
  O  O11  1  0.381117  0.325024  0.861706  1
  O  O12  1  0.001756  0.357325  0.732471  1
  O  O13  1  0.998244  0.642675  0.267529  1
  O  O14  1  0.580839  0.289651  0.246059  1
  O  O15  1  0.419161  0.710349  0.753941  1
  O  O16  1  0.071421  0.139226  0.195923  1
  O  O17  1  0.928579  0.860774  0.804077  1
  O  O18  1  0.278586  0.972184  0.036929  1
  O  O19  1  0.721414  0.027816  0.963071  1
  O  O20  1  0.296137  0.309415  0.460055  1
  O  O21  1  0.703863  0.690585  0.539945  1
  O  O22  1  0.906071  0.091889  0.380962  1
  O  O23  1  0.093929  0.908111  0.619038  1
  O  O24  1  0.564039  0.041452  0.692465  1
  O  O25  1  0.435961  0.958548  0.307535  1
  O  O26  1  0.118744  0.312514  0.991903  1
  O  O27  1  0.881256  0.687486  0.008097  1
