# generated using pymatgen
data_CaPr5DyCoI12
_symmetry_space_group_name_H-M   'P 1'
_cell_length_a   9.95434558
_cell_length_b   10.09718038
_cell_length_c   10.06227908
_cell_angle_alpha   106.89937574
_cell_angle_beta   107.15136121
_cell_angle_gamma   107.06818523
_symmetry_Int_Tables_number   1
_chemical_formula_structural   CaPr5DyCoI12
_chemical_formula_sum   'Ca1 Pr5 Dy1 Co1 I12'
_cell_volume   841.36118143
_cell_formula_units_Z   1
loop_
 _symmetry_equiv_pos_site_id
 _symmetry_equiv_pos_as_xyz
  1  'x, y, z'
loop_
 _atom_site_type_symbol
 _atom_site_label
 _atom_site_symmetry_multiplicity
 _atom_site_fract_x
 _atom_site_fract_y
 _atom_site_fract_z
 _atom_site_occupancy
  Ca  Ca0  1  0.501275  0.500398  0.499513  1
  Pr  Pr1  1  0.025120  0.100093  0.305761  1
  Pr  Pr2  1  0.100241  0.303383  0.025133  1
  Pr  Pr3  1  0.288194  0.024819  0.092795  1
  Pr  Pr4  1  0.899587  0.696293  0.976424  1
  Pr  Pr5  1  0.710716  0.974128  0.903425  1
  Dy  Dy6  1  0.974728  0.902535  0.705973  1
  Co  Co7  1  0.999182  0.999560  0.999969  1
  I  I8  1  0.535214  0.617296  0.839124  1
  I  I9  1  0.464527  0.382804  0.159162  1
  I  I10  1  0.308562  0.924536  0.767611  1
  I  I11  1  0.385958  0.159421  0.460405  1
  I  I12  1  0.928166  0.775466  0.324792  1
  I  I13  1  0.677321  0.071784  0.222326  1
  I  I14  1  0.069151  0.214201  0.678500  1
  I  I15  1  0.770201  0.316594  0.924794  1
  I  I16  1  0.229589  0.683416  0.074308  1
  I  I17  1  0.849697  0.549667  0.618653  1
  I  I18  1  0.156771  0.461022  0.382077  1
  I  I19  1  0.625800  0.842586  0.539254  1
