# generated using pymatgen
data_Ho8Cd2IrRu
_symmetry_space_group_name_H-M   'P 1'
_cell_length_a   9.59984366
_cell_length_b   9.59984422
_cell_length_c   9.64399000
_cell_angle_alpha   59.84776279
_cell_angle_beta   59.84776086
_cell_angle_gamma   59.72435272
_symmetry_Int_Tables_number   1
_chemical_formula_structural   Ho8Cd2IrRu
_chemical_formula_sum   'Ho16 Cd4 Ir2 Ru2'
_cell_volume   625.68850936
_cell_formula_units_Z   2
loop_
 _symmetry_equiv_pos_site_id
 _symmetry_equiv_pos_as_xyz
  1  'x, y, z'
loop_
 _atom_site_type_symbol
 _atom_site_label
 _atom_site_symmetry_multiplicity
 _atom_site_fract_x
 _atom_site_fract_y
 _atom_site_fract_z
 _atom_site_occupancy
  Ho  Ho0  1  0.598037  0.598037  0.598002  1
  Ho  Ho1  1  0.598037  0.598037  0.205926  1
  Ho  Ho2  1  0.597294  0.208183  0.597262  1
  Ho  Ho3  1  0.208183  0.597294  0.597262  1
  Ho  Ho4  1  0.061706  0.438249  0.440091  1
  Ho  Ho5  1  0.438249  0.061706  0.059954  1
  Ho  Ho6  1  0.438249  0.061706  0.440091  1
  Ho  Ho7  1  0.061706  0.438249  0.059954  1
  Ho  Ho8  1  0.438298  0.438298  0.061702  1
  Ho  Ho9  1  0.059404  0.059404  0.440596  1
  Ho  Ho10  1  0.188273  0.810140  0.813056  1
  Ho  Ho11  1  0.810140  0.188273  0.188532  1
  Ho  Ho12  1  0.810140  0.188273  0.813056  1
  Ho  Ho13  1  0.188273  0.810140  0.188532  1
  Ho  Ho14  1  0.811776  0.811776  0.188224  1
  Ho  Ho15  1  0.188859  0.188859  0.811141  1
  Cd  Cd16  1  0.830583  0.830583  0.830893  1
  Cd  Cd17  1  0.830583  0.830583  0.507941  1
  Cd  Cd18  1  0.830623  0.507291  0.831042  1
  Cd  Cd19  1  0.507291  0.830623  0.831042  1
  Ir  Ir20  1  0.393884  0.827126  0.389495  1
  Ir  Ir21  1  0.827126  0.393884  0.389495  1
  Ru  Ru22  1  0.391644  0.391644  0.387961  1
  Ru  Ru23  1  0.391644  0.391644  0.828751  1
