# generated using pymatgen
data_Ac4Al14HgPt
_symmetry_space_group_name_H-M   'P 1'
_cell_length_a   6.33624748
_cell_length_b   6.34113084
_cell_length_c   11.92976600
_cell_angle_alpha   74.58732937
_cell_angle_beta   74.59948676
_cell_angle_gamma   89.99999877
_symmetry_Int_Tables_number   1
_chemical_formula_structural   Ac4Al14HgPt
_chemical_formula_sum   'Ac4 Al14 Hg1 Pt1'
_cell_volume   444.20906496
_cell_formula_units_Z   1
loop_
 _symmetry_equiv_pos_site_id
 _symmetry_equiv_pos_as_xyz
  1  'x, y, z'
loop_
 _atom_site_type_symbol
 _atom_site_label
 _atom_site_symmetry_multiplicity
 _atom_site_fract_x
 _atom_site_fract_y
 _atom_site_fract_z
 _atom_site_occupancy
  Ac  Ac0  1  0.002010  0.002010  0.995982  1
  Ac  Ac1  1  0.499760  0.499760  0.000479  1
  Ac  Ac2  1  0.749101  0.249101  0.501799  1
  Ac  Ac3  1  0.245974  0.745974  0.508053  1
  Al  Al4  1  0.190310  0.190310  0.619381  1
  Al  Al5  1  0.808107  0.808107  0.383785  1
  Al  Al6  1  0.626935  0.113952  0.245318  1
  Al  Al7  1  0.127746  0.640729  0.245318  1
  Al  Al8  1  0.626935  0.640729  0.245318  1
  Al  Al9  1  0.127746  0.113952  0.245318  1
  Al  Al10  1  0.862052  0.362551  0.754510  1
  Al  Al11  1  0.383438  0.882937  0.754510  1
  Al  Al12  1  0.862052  0.882937  0.754510  1
  Al  Al13  1  0.383438  0.362551  0.754510  1
  Al  Al14  1  0.691187  0.691187  0.617627  1
  Al  Al15  1  0.061616  0.561616  0.876767  1
  Al  Al16  1  0.450636  0.950636  0.098728  1
  Al  Al17  1  0.942510  0.442510  0.114979  1
  Hg  Hg18  1  0.310335  0.310335  0.379332  1
  Pt  Pt19  1  0.562945  0.062945  0.874111  1
