# generated using pymatgen
data_Tm8Tc3B24Ir
_symmetry_space_group_name_H-M   'P 1'
_cell_length_a   3.63760600
_cell_length_b   9.09371812
_cell_length_c   11.46391723
_cell_angle_alpha   89.89895513
_cell_angle_beta   90.00000000
_cell_angle_gamma   90.00000000
_symmetry_Int_Tables_number   1
_chemical_formula_structural   Tm8Tc3B24Ir
_chemical_formula_sum   'Tm8 Tc3 B24 Ir1'
_cell_volume   379.21849667
_cell_formula_units_Z   1
loop_
 _symmetry_equiv_pos_site_id
 _symmetry_equiv_pos_as_xyz
  1  'x, y, z'
loop_
 _atom_site_type_symbol
 _atom_site_label
 _atom_site_symmetry_multiplicity
 _atom_site_fract_x
 _atom_site_fract_y
 _atom_site_fract_z
 _atom_site_occupancy
  Tm  Tm0  1  0.000000  0.322734  0.412745  1
  Tm  Tm1  1  0.000000  0.673119  0.580754  1
  Tm  Tm2  1  0.000000  0.821246  0.091518  1
  Tm  Tm3  1  0.000000  0.182370  0.916305  1
  Tm  Tm4  1  0.000000  0.942834  0.370980  1
  Tm  Tm5  1  0.000000  0.059818  0.628166  1
  Tm  Tm6  1  0.000000  0.443557  0.129756  1
  Tm  Tm7  1  0.000000  0.555587  0.870254  1
  Tc  Tc8  1  0.000000  0.638413  0.320635  1
  Tc  Tc9  1  0.000000  0.361692  0.680110  1
  Tc  Tc10  1  0.000000  0.137126  0.177939  1
  B  B11  1  0.500000  0.552682  0.433016  1
  B  B12  1  0.500000  0.446883  0.566274  1
  B  B13  1  0.500000  0.053196  0.066118  1
  B  B14  1  0.500000  0.946339  0.934203  1
  B  B15  1  0.500000  0.748724  0.419294  1
  B  B16  1  0.500000  0.250785  0.580660  1
  B  B17  1  0.500000  0.249935  0.080667  1
  B  B18  1  0.500000  0.750322  0.920397  1
  B  B19  1  0.500000  0.791981  0.265311  1
  B  B20  1  0.500000  0.207831  0.735729  1
  B  B21  1  0.500000  0.291748  0.234778  1
  B  B22  1  0.500000  0.708251  0.764459  1
  B  B23  1  0.500000  0.631071  0.184869  1
  B  B24  1  0.500000  0.369394  0.815640  1
  B  B25  1  0.500000  0.130339  0.314766  1
  B  B26  1  0.500000  0.868875  0.683642  1
  B  B27  1  0.500000  0.981023  0.212134  1
  B  B28  1  0.500000  0.018202  0.787918  1
  B  B29  1  0.500000  0.481646  0.287323  1
  B  B30  1  0.500000  0.518226  0.711994  1
  B  B31  1  0.500000  0.603839  0.028184  1
  B  B32  1  0.500000  0.398418  0.971634  1
  B  B33  1  0.500000  0.102573  0.471718  1
  B  B34  1  0.500000  0.896930  0.529037  1
  Ir  Ir35  1  0.000000  0.862294  0.821075  1
