# generated using pymatgen
data_LaNd4Si2Sn
_symmetry_space_group_name_H-M   'P 1'
_cell_length_a   7.97052700
_cell_length_b   9.21569932
_cell_length_c   7.97052700
_cell_angle_alpha   115.62269470
_cell_angle_beta   90.00000000
_cell_angle_gamma   115.62269470
_symmetry_Int_Tables_number   1
_chemical_formula_structural   LaNd4Si2Sn
_chemical_formula_sum   'La2 Nd8 Si4 Sn2'
_cell_volume   463.21728870
_cell_formula_units_Z   2
loop_
 _symmetry_equiv_pos_site_id
 _symmetry_equiv_pos_as_xyz
  1  'x, y, z'
loop_
 _atom_site_type_symbol
 _atom_site_label
 _atom_site_symmetry_multiplicity
 _atom_site_fract_x
 _atom_site_fract_y
 _atom_site_fract_z
 _atom_site_occupancy
  La  La0  1  0.000000  0.000000  0.000000  1
  La  La1  1  0.500000  0.000000  0.500000  1
  Nd  Nd2  1  0.535414  0.721381  0.685969  1
  Nd  Nd3  1  0.185969  0.721381  0.035414  1
  Nd  Nd4  1  0.685969  0.721381  0.185969  1
  Nd  Nd5  1  0.035414  0.721381  0.535414  1
  Nd  Nd6  1  0.464586  0.278619  0.314031  1
  Nd  Nd7  1  0.814031  0.278619  0.964586  1
  Nd  Nd8  1  0.314031  0.278619  0.814031  1
  Nd  Nd9  1  0.964586  0.278619  0.464586  1
  Si  Si10  1  0.884104  0.000000  0.615896  1
  Si  Si11  1  0.115896  0.000000  0.384104  1
  Si  Si12  1  0.615896  0.000000  0.115896  1
  Si  Si13  1  0.384104  0.000000  0.884104  1
  Sn  Sn14  1  0.750000  0.500000  0.750000  1
  Sn  Sn15  1  0.250000  0.500000  0.250000  1
