# generated using pymatgen
data_Eu4P3
_symmetry_space_group_name_H-M   'P 1'
_cell_length_a   7.72903019
_cell_length_b   7.72788994
_cell_length_c   7.73201701
_cell_angle_alpha   109.47772628
_cell_angle_beta   109.48120800
_cell_angle_gamma   109.45957556
_symmetry_Int_Tables_number   1
_chemical_formula_structural   Eu4P3
_chemical_formula_sum   'Eu8 P6'
_cell_volume   355.49282697
_cell_formula_units_Z   2
loop_
 _symmetry_equiv_pos_site_id
 _symmetry_equiv_pos_as_xyz
  1  'x, y, z'
loop_
 _atom_site_type_symbol
 _atom_site_label
 _atom_site_symmetry_multiplicity
 _atom_site_fract_x
 _atom_site_fract_y
 _atom_site_fract_z
 _atom_site_occupancy
  Eu  Eu0  1  0.130931  0.999959  0.999939  1
  Eu  Eu1  1  0.631036  0.000102  0.000127  1
  Eu  Eu2  1  0.500060  0.499964  0.130681  1
  Eu  Eu3  1  0.368964  0.869065  0.369091  1
  Eu  Eu4  1  0.000027  0.130966  0.500144  1
  Eu  Eu5  1  0.999973  0.630939  0.500117  1
  Eu  Eu6  1  0.499940  0.499905  0.630621  1
  Eu  Eu7  1  0.869068  0.369028  0.869008  1
  P  P8  1  0.875017  0.750008  0.125035  1
  P  P9  1  0.124983  0.374990  0.250018  1
  P  P10  1  0.625011  0.250035  0.375068  1
  P  P11  1  0.750067  0.875040  0.625080  1
  P  P12  1  0.374989  0.125024  0.750057  1
  P  P13  1  0.249933  0.624973  0.875013  1
