# generated using pymatgen
data_Mg4In8CoIr3
_symmetry_space_group_name_H-M   'P 1'
_cell_length_a   7.08889945
_cell_length_b   7.08889906
_cell_length_c   6.97209400
_cell_angle_alpha   90.00000000
_cell_angle_beta   90.00000000
_cell_angle_gamma   90.45581990
_symmetry_Int_Tables_number   1
_chemical_formula_structural   Mg4In8CoIr3
_chemical_formula_sum   'Mg4 In8 Co1 Ir3'
_cell_volume   350.35401497
_cell_formula_units_Z   1
loop_
 _symmetry_equiv_pos_site_id
 _symmetry_equiv_pos_as_xyz
  1  'x, y, z'
loop_
 _atom_site_type_symbol
 _atom_site_label
 _atom_site_symmetry_multiplicity
 _atom_site_fract_x
 _atom_site_fract_y
 _atom_site_fract_z
 _atom_site_occupancy
  Mg  Mg0  1  0.003930  0.500351  0.000000  1
  Mg  Mg1  1  0.500351  0.003930  0.000000  1
  Mg  Mg2  1  0.999590  0.500101  0.500000  1
  Mg  Mg3  1  0.500101  0.999590  0.500000  1
  In  In4  1  0.331262  0.331262  0.254972  1
  In  In5  1  0.164925  0.846354  0.763162  1
  In  In6  1  0.164925  0.846354  0.236838  1
  In  In7  1  0.846354  0.164925  0.236838  1
  In  In8  1  0.846354  0.164925  0.763162  1
  In  In9  1  0.658265  0.658265  0.257760  1
  In  In10  1  0.658265  0.658265  0.742240  1
  In  In11  1  0.331262  0.331262  0.745028  1
  Co  Co12  1  0.144634  0.144634  0.000000  1
  Ir  Ir13  1  0.646570  0.349482  0.500000  1
  Ir  Ir14  1  0.349482  0.646570  0.500000  1
  Ir  Ir15  1  0.853730  0.853730  0.000000  1
