# generated using pymatgen
data_Ba8Y3Er(WO6)4
_symmetry_space_group_name_H-M   'P 1'
_cell_length_a   8.53256378
_cell_length_b   8.53256378
_cell_length_c   8.53256378
_cell_angle_alpha   90.10937463
_cell_angle_beta   90.10937463
_cell_angle_gamma   90.10937463
_symmetry_Int_Tables_number   1
_chemical_formula_structural   Ba8Y3Er(WO6)4
_chemical_formula_sum   'Ba8 Y3 Er1 W4 O24'
_cell_volume   621.20687452
_cell_formula_units_Z   1
loop_
 _symmetry_equiv_pos_site_id
 _symmetry_equiv_pos_as_xyz
  1  'x, y, z'
loop_
 _atom_site_type_symbol
 _atom_site_label
 _atom_site_symmetry_multiplicity
 _atom_site_fract_x
 _atom_site_fract_y
 _atom_site_fract_z
 _atom_site_occupancy
  Ba  Ba0  1  0.498344  0.498344  0.498344  1
  Ba  Ba1  1  0.001656  0.001656  0.001656  1
  Ba  Ba2  1  0.000479  0.001800  0.496325  1
  Ba  Ba3  1  0.001800  0.496325  0.000479  1
  Ba  Ba4  1  0.496325  0.000479  0.001800  1
  Ba  Ba5  1  0.499521  0.498200  0.003675  1
  Ba  Ba6  1  0.498200  0.003675  0.499521  1
  Ba  Ba7  1  0.003675  0.499521  0.498200  1
  Y  Y8  1  0.250000  0.750000  0.750000  1
  Y  Y9  1  0.750000  0.250000  0.750000  1
  Y  Y10  1  0.750000  0.750000  0.250000  1
  Er  Er11  1  0.250000  0.250000  0.250000  1
  W  W12  1  0.750000  0.750000  0.750000  1
  W  W13  1  0.750000  0.250000  0.250000  1
  W  W14  1  0.250000  0.750000  0.250000  1
  W  W15  1  0.250000  0.250000  0.750000  1
  O  O16  1  0.244387  0.256033  0.510840  1
  O  O17  1  0.244201  0.742717  0.489276  1
  O  O18  1  0.756305  0.257107  0.481212  1
  O  O19  1  0.761523  0.744814  0.513437  1
  O  O20  1  0.256033  0.510840  0.244387  1
  O  O21  1  0.742717  0.489276  0.244201  1
  O  O22  1  0.257107  0.481212  0.756305  1
  O  O23  1  0.744814  0.513437  0.761523  1
  O  O24  1  0.510840  0.244387  0.256033  1
  O  O25  1  0.489276  0.244201  0.742717  1
  O  O26  1  0.481212  0.756305  0.257107  1
  O  O27  1  0.513437  0.761523  0.744814  1
  O  O28  1  0.255613  0.243967  0.989160  1
  O  O29  1  0.255799  0.757283  0.010724  1
  O  O30  1  0.743695  0.242893  0.018788  1
  O  O31  1  0.738477  0.755186  0.986563  1
  O  O32  1  0.243967  0.989160  0.255613  1
  O  O33  1  0.757283  0.010724  0.255799  1
  O  O34  1  0.242893  0.018788  0.743695  1
  O  O35  1  0.755186  0.986563  0.738477  1
  O  O36  1  0.989160  0.255613  0.243967  1
  O  O37  1  0.010724  0.255799  0.757283  1
  O  O38  1  0.018788  0.743695  0.242893  1
  O  O39  1  0.986563  0.738477  0.755186  1
