# generated using pymatgen
data_Dy3Lu3(Zn3C)2
_symmetry_space_group_name_H-M   'P 1'
_cell_length_a   9.04657768
_cell_length_b   9.04657714
_cell_length_c   9.04657900
_cell_angle_alpha   59.99999687
_cell_angle_beta   59.99999884
_cell_angle_gamma   59.99999725
_symmetry_Int_Tables_number   1
_chemical_formula_structural   Dy3Lu3(Zn3C)2
_chemical_formula_sum   'Dy6 Lu6 Zn12 C4'
_cell_volume   523.52565270
_cell_formula_units_Z   2
loop_
 _symmetry_equiv_pos_site_id
 _symmetry_equiv_pos_as_xyz
  1  'x, y, z'
loop_
 _atom_site_type_symbol
 _atom_site_label
 _atom_site_symmetry_multiplicity
 _atom_site_fract_x
 _atom_site_fract_y
 _atom_site_fract_z
 _atom_site_occupancy
  Dy  Dy0  1  0.447730  0.447730  0.052270  1
  Dy  Dy1  1  0.052270  0.447730  0.052270  1
  Dy  Dy2  1  0.447730  0.052270  0.052270  1
  Dy  Dy3  1  0.052270  0.052270  0.447730  1
  Dy  Dy4  1  0.447730  0.052270  0.447730  1
  Dy  Dy5  1  0.052270  0.447730  0.447730  1
  Lu  Lu6  1  0.804279  0.804279  0.195721  1
  Lu  Lu7  1  0.195721  0.804279  0.195721  1
  Lu  Lu8  1  0.804279  0.195721  0.195721  1
  Lu  Lu9  1  0.195721  0.195721  0.804279  1
  Lu  Lu10  1  0.804279  0.195721  0.804279  1
  Lu  Lu11  1  0.195721  0.804279  0.804279  1
  Zn  Zn12  1  0.827404  0.827404  0.517789  1
  Zn  Zn13  1  0.827404  0.517789  0.827404  1
  Zn  Zn14  1  0.517789  0.827404  0.827404  1
  Zn  Zn15  1  0.827404  0.827404  0.827404  1
  Zn  Zn16  1  0.423520  0.423520  0.729440  1
  Zn  Zn17  1  0.423520  0.729440  0.423520  1
  Zn  Zn18  1  0.729440  0.423520  0.423520  1
  Zn  Zn19  1  0.423520  0.423520  0.423520  1
  Zn  Zn20  1  0.625236  0.625236  0.124293  1
  Zn  Zn21  1  0.625236  0.124293  0.625236  1
  Zn  Zn22  1  0.124293  0.625236  0.625236  1
  Zn  Zn23  1  0.625236  0.625236  0.625236  1
  C  C24  1  0.121244  0.121244  0.636269  1
  C  C25  1  0.121244  0.636269  0.121244  1
  C  C26  1  0.636269  0.121244  0.121244  1
  C  C27  1  0.121244  0.121244  0.121244  1
