# generated using pymatgen
data_CaY(NiH4)2
_symmetry_space_group_name_H-M   'P 1'
_cell_length_a   3.62170504
_cell_length_b   4.80177200
_cell_length_c   6.12828255
_cell_angle_alpha   90.00000000
_cell_angle_beta   107.12517591
_cell_angle_gamma   90.00000000
_symmetry_Int_Tables_number   1
_chemical_formula_structural   CaY(NiH4)2
_chemical_formula_sum   'Ca1 Y1 Ni2 H8'
_cell_volume   101.84940408
_cell_formula_units_Z   1
loop_
 _symmetry_equiv_pos_site_id
 _symmetry_equiv_pos_as_xyz
  1  'x, y, z'
loop_
 _atom_site_type_symbol
 _atom_site_label
 _atom_site_symmetry_multiplicity
 _atom_site_fract_x
 _atom_site_fract_y
 _atom_site_fract_z
 _atom_site_occupancy
  Ca  Ca0  1  0.133960  0.249999  0.267326  1
  Y  Y1  1  0.867991  0.750000  0.735848  1
  Ni  Ni2  1  0.595632  0.750000  0.188960  1
  Ni  Ni3  1  0.401624  0.249999  0.806775  1
  H  H4  1  0.499202  0.997055  0.998234  1
  H  H5  1  0.499202  0.502945  0.998234  1
  H  H6  1  0.082645  0.750000  0.165838  1
  H  H7  1  0.692410  0.983235  0.384981  1
  H  H8  1  0.692410  0.516765  0.384981  1
  H  H9  1  0.312488  0.504975  0.624824  1
  H  H10  1  0.312488  0.995027  0.624824  1
  H  H11  1  0.909949  0.249999  0.819172  1
