# generated using pymatgen
data_Zr8CoTc3Os4
_symmetry_space_group_name_H-M   'P 1'
_cell_length_a   6.54744700
_cell_length_b   4.64853800
_cell_length_c   9.28251600
_cell_angle_alpha   90.00000000
_cell_angle_beta   89.99893177
_cell_angle_gamma   90.00000000
_symmetry_Int_Tables_number   1
_chemical_formula_structural   Zr8CoTc3Os4
_chemical_formula_sum   'Zr8 Co1 Tc3 Os4'
_cell_volume   282.52317847
_cell_formula_units_Z   1
loop_
 _symmetry_equiv_pos_site_id
 _symmetry_equiv_pos_as_xyz
  1  'x, y, z'
loop_
 _atom_site_type_symbol
 _atom_site_label
 _atom_site_symmetry_multiplicity
 _atom_site_fract_x
 _atom_site_fract_y
 _atom_site_fract_z
 _atom_site_occupancy
  Zr  Zr0  1  0.000370  0.749999  0.125011  1
  Zr  Zr1  1  0.499719  0.749999  0.125016  1
  Zr  Zr2  1  0.000458  0.249999  0.374883  1
  Zr  Zr3  1  0.499667  0.249999  0.374889  1
  Zr  Zr4  1  0.499521  0.749999  0.625010  1
  Zr  Zr5  1  0.000350  0.749999  0.625015  1
  Zr  Zr6  1  0.499554  0.249999  0.875080  1
  Zr  Zr7  1  0.000347  0.249999  0.875086  1
  Co  Co8  1  0.750063  0.249999  0.124996  1
  Tc  Tc9  1  0.250055  0.749999  0.373678  1
  Tc  Tc10  1  0.749950  0.249999  0.625014  1
  Tc  Tc11  1  0.249947  0.749999  0.876318  1
  Os  Os12  1  0.250050  0.249999  0.124997  1
  Os  Os13  1  0.750055  0.749999  0.373162  1
  Os  Os14  1  0.249944  0.249999  0.624996  1
  Os  Os15  1  0.749951  0.749999  0.876849  1
