# generated using pymatgen
data_SrU(Al3Ir)3
_symmetry_space_group_name_H-M   'P 1'
_cell_length_a   7.62301632
_cell_length_b   7.65471513
_cell_length_c   9.47064300
_cell_angle_alpha   90.00000000
_cell_angle_beta   90.00000000
_cell_angle_gamma   119.51504258
_symmetry_Int_Tables_number   1
_chemical_formula_structural   SrU(Al3Ir)3
_chemical_formula_sum   'Sr2 U2 Al18 Ir6'
_cell_volume   480.91419332
_cell_formula_units_Z   2
loop_
 _symmetry_equiv_pos_site_id
 _symmetry_equiv_pos_as_xyz
  1  'x, y, z'
loop_
 _atom_site_type_symbol
 _atom_site_label
 _atom_site_symmetry_multiplicity
 _atom_site_fract_x
 _atom_site_fract_y
 _atom_site_fract_z
 _atom_site_occupancy
  Sr  Sr0  1  0.994885  0.669864  0.750000  1
  Sr  Sr1  1  0.005115  0.330136  0.250000  1
  U  U2  1  0.672413  0.999828  0.750000  1
  U  U3  1  0.327587  0.000172  0.250000  1
  Al  Al4  1  0.126946  0.132892  0.750000  1
  Al  Al5  1  0.873054  0.867108  0.250000  1
  Al  Al6  1  0.002999  0.335398  0.575948  1
  Al  Al7  1  0.997001  0.664602  0.424052  1
  Al  Al8  1  0.997001  0.664602  0.075948  1
  Al  Al9  1  0.335095  0.002331  0.925216  1
  Al  Al10  1  0.002999  0.335398  0.924052  1
  Al  Al11  1  0.664905  0.997669  0.074784  1
  Al  Al12  1  0.664905  0.997669  0.425216  1
  Al  Al13  1  0.335095  0.002331  0.574784  1
  Al  Al14  1  0.334708  0.334035  0.052092  1
  Al  Al15  1  0.665292  0.665965  0.947908  1
  Al  Al16  1  0.665292  0.665965  0.552092  1
  Al  Al17  1  0.334708  0.334035  0.447908  1
  Al  Al18  1  0.349164  0.551573  0.750000  1
  Al  Al19  1  0.650836  0.448427  0.250000  1
  Al  Al20  1  0.544714  0.333923  0.750000  1
  Al  Al21  1  0.455286  0.666077  0.250000  1
  Ir  Ir22  1  0.667481  0.323171  0.500549  1
  Ir  Ir23  1  0.332519  0.676829  0.499451  1
  Ir  Ir24  1  0.332519  0.676829  0.000549  1
  Ir  Ir25  1  0.667481  0.323171  0.999451  1
  Ir  Ir26  1  0.000000  0.000000  0.500000  1
  Ir  Ir27  1  0.000000  0.000000  0.000000  1
