# generated using pymatgen
data_Zr6Tl4BCl17
_symmetry_space_group_name_H-M   'P 1'
_cell_length_a   12.25076700
_cell_length_b   12.25076700
_cell_length_c   11.31418300
_cell_angle_alpha   90.00000000
_cell_angle_beta   90.00000000
_cell_angle_gamma   90.00000000
_symmetry_Int_Tables_number   1
_chemical_formula_structural   Zr6Tl4BCl17
_chemical_formula_sum   'Zr12 Tl8 B2 Cl34'
_cell_volume   1698.04720356
_cell_formula_units_Z   2
loop_
 _symmetry_equiv_pos_site_id
 _symmetry_equiv_pos_as_xyz
  1  'x, y, z'
loop_
 _atom_site_type_symbol
 _atom_site_label
 _atom_site_symmetry_multiplicity
 _atom_site_fract_x
 _atom_site_fract_y
 _atom_site_fract_z
 _atom_site_occupancy
  Zr  Zr0  1  0.095395  0.404605  0.013092  1
  Zr  Zr1  1  0.904605  0.595394  0.013092  1
  Zr  Zr2  1  0.866322  0.366322  0.155133  1
  Zr  Zr3  1  0.133679  0.633679  0.155133  1
  Zr  Zr4  1  0.094466  0.405533  0.302310  1
  Zr  Zr5  1  0.905533  0.594467  0.302310  1
  Zr  Zr6  1  0.594467  0.094466  0.697690  1
  Zr  Zr7  1  0.405533  0.905533  0.697690  1
  Zr  Zr8  1  0.366322  0.133679  0.844867  1
  Zr  Zr9  1  0.633679  0.866322  0.844867  1
  Zr  Zr10  1  0.595394  0.095395  0.986907  1
  Zr  Zr11  1  0.404605  0.904605  0.986907  1
  Tl  Tl12  1  0.217605  0.988207  0.367169  1
  Tl  Tl13  1  0.511793  0.282395  0.367169  1
  Tl  Tl14  1  0.488206  0.717605  0.367169  1
  Tl  Tl15  1  0.782395  0.011793  0.367169  1
  Tl  Tl16  1  0.011793  0.217605  0.632830  1
  Tl  Tl17  1  0.717605  0.511793  0.632830  1
  Tl  Tl18  1  0.282395  0.488206  0.632830  1
  Tl  Tl19  1  0.988207  0.782395  0.632830  1
  B  B20  1  0.000000  0.500000  0.156529  1
  B  B21  1  0.500000  0.000000  0.843472  1
  Cl  Cl22  1  0.246930  0.041035  0.001300  1
  Cl  Cl23  1  0.458965  0.253070  0.001300  1
  Cl  Cl24  1  0.541035  0.746930  0.001300  1
  Cl  Cl25  1  0.753069  0.958964  0.001300  1
  Cl  Cl26  1  0.705152  0.205152  0.166357  1
  Cl  Cl27  1  0.294848  0.794848  0.166357  1
  Cl  Cl28  1  0.207975  0.292026  0.160842  1
  Cl  Cl29  1  0.792025  0.707974  0.160842  1
  Cl  Cl30  1  0.500000  0.000000  0.164388  1
  Cl  Cl31  1  0.955547  0.248117  0.317707  1
  Cl  Cl32  1  0.748117  0.455547  0.317707  1
  Cl  Cl33  1  0.251883  0.544453  0.317707  1
  Cl  Cl34  1  0.044453  0.751883  0.317707  1
  Cl  Cl35  1  0.203060  0.296939  0.477249  1
  Cl  Cl36  1  0.796939  0.703061  0.477249  1
  Cl  Cl37  1  0.000000  0.500000  0.481307  1
  Cl  Cl38  1  0.000000  0.000000  0.500001  1
  Cl  Cl39  1  0.500000  0.500000  0.500001  1
  Cl  Cl40  1  0.500000  0.000000  0.518693  1
  Cl  Cl41  1  0.703061  0.203060  0.522752  1
  Cl  Cl42  1  0.296939  0.796939  0.522752  1
  Cl  Cl43  1  0.248117  0.044453  0.682293  1
  Cl  Cl44  1  0.455547  0.251883  0.682293  1
  Cl  Cl45  1  0.544453  0.748117  0.682293  1
  Cl  Cl46  1  0.751883  0.955547  0.682293  1
  Cl  Cl47  1  0.000000  0.500000  0.835613  1
  Cl  Cl48  1  0.707974  0.207975  0.839158  1
  Cl  Cl49  1  0.292026  0.792025  0.839158  1
  Cl  Cl50  1  0.205152  0.294848  0.833644  1
  Cl  Cl51  1  0.794848  0.705152  0.833644  1
  Cl  Cl52  1  0.958964  0.246930  0.998700  1
  Cl  Cl53  1  0.746930  0.458965  0.998700  1
  Cl  Cl54  1  0.253070  0.541035  0.998700  1
  Cl  Cl55  1  0.041035  0.753069  0.998700  1
