# generated using pymatgen
data_Pr16Mg3AlIr4
_symmetry_space_group_name_H-M   'P 1'
_cell_length_a   10.08200941
_cell_length_b   10.08200977
_cell_length_c   10.08200916
_cell_angle_alpha   59.75635938
_cell_angle_beta   59.75635658
_cell_angle_gamma   59.75636198
_symmetry_Int_Tables_number   1
_chemical_formula_structural   Pr16Mg3AlIr4
_chemical_formula_sum   'Pr16 Mg3 Al1 Ir4'
_cell_volume   720.63767508
_cell_formula_units_Z   1
loop_
 _symmetry_equiv_pos_site_id
 _symmetry_equiv_pos_as_xyz
  1  'x, y, z'
loop_
 _atom_site_type_symbol
 _atom_site_label
 _atom_site_symmetry_multiplicity
 _atom_site_fract_x
 _atom_site_fract_y
 _atom_site_fract_z
 _atom_site_occupancy
  Pr  Pr0  1  0.346146  0.346146  0.346146  1
  Pr  Pr1  1  0.349652  0.349652  0.955190  1
  Pr  Pr2  1  0.349652  0.955190  0.349652  1
  Pr  Pr3  1  0.955190  0.349652  0.349652  1
  Pr  Pr4  1  0.811443  0.188131  0.188131  1
  Pr  Pr5  1  0.191488  0.806971  0.806971  1
  Pr  Pr6  1  0.188131  0.811443  0.188131  1
  Pr  Pr7  1  0.806971  0.191488  0.806971  1
  Pr  Pr8  1  0.188131  0.188131  0.811443  1
  Pr  Pr9  1  0.806971  0.806971  0.191488  1
  Pr  Pr10  1  0.937436  0.561440  0.561440  1
  Pr  Pr11  1  0.559728  0.938980  0.938980  1
  Pr  Pr12  1  0.561440  0.937436  0.561440  1
  Pr  Pr13  1  0.938980  0.559728  0.938980  1
  Pr  Pr14  1  0.561440  0.561440  0.937436  1
  Pr  Pr15  1  0.938980  0.938980  0.559728  1
  Mg  Mg16  1  0.578178  0.578178  0.268597  1
  Mg  Mg17  1  0.578178  0.268597  0.578178  1
  Mg  Mg18  1  0.268597  0.578178  0.578178  1
  Al  Al19  1  0.581519  0.581519  0.581519  1
  Ir  Ir20  1  0.141934  0.141934  0.141934  1
  Ir  Ir21  1  0.142151  0.142151  0.575513  1
  Ir  Ir22  1  0.142151  0.575513  0.142151  1
  Ir  Ir23  1  0.575513  0.142151  0.142151  1
