# generated using pymatgen
data_Tb10(InSb)3
_symmetry_space_group_name_H-M   'P 1'
_cell_length_a   9.02497300
_cell_length_b   8.99861525
_cell_length_c   6.61511100
_cell_angle_alpha   90.00000000
_cell_angle_beta   90.00000000
_cell_angle_gamma   120.09693720
_symmetry_Int_Tables_number   1
_chemical_formula_structural   Tb10(InSb)3
_chemical_formula_sum   'Tb10 In3 Sb3'
_cell_volume   464.79806642
_cell_formula_units_Z   1
loop_
 _symmetry_equiv_pos_site_id
 _symmetry_equiv_pos_as_xyz
  1  'x, y, z'
loop_
 _atom_site_type_symbol
 _atom_site_label
 _atom_site_symmetry_multiplicity
 _atom_site_fract_x
 _atom_site_fract_y
 _atom_site_fract_z
 _atom_site_occupancy
  Tb  Tb0  1  0.002118  0.762517  0.750000  1
  Tb  Tb1  1  0.003063  0.240219  0.250000  1
  Tb  Tb2  1  0.762844  0.759781  0.250000  1
  Tb  Tb3  1  0.760855  0.000000  0.750000  1
  Tb  Tb4  1  0.239601  0.237483  0.750000  1
  Tb  Tb5  1  0.238153  0.000000  0.250000  1
  Tb  Tb6  1  0.330897  0.666120  0.499435  1
  Tb  Tb7  1  0.664778  0.333880  0.000565  1
  Tb  Tb8  1  0.664778  0.333880  0.499435  1
  Tb  Tb9  1  0.330897  0.666120  0.000565  1
  In  In10  1  0.396863  0.000000  0.750000  1
  In  In11  1  0.395293  0.396917  0.250000  1
  In  In12  1  0.998375  0.603083  0.250000  1
  Sb  Sb13  1  0.997693  0.391430  0.750000  1
  Sb  Sb14  1  0.606263  0.608570  0.750000  1
  Sb  Sb15  1  0.607530  0.000000  0.250000  1
