# generated using pymatgen
data_Ac3(BN2)2
_symmetry_space_group_name_H-M   'P 1'
_cell_length_a   6.82432898
_cell_length_b   6.82432836
_cell_length_c   6.82432814
_cell_angle_alpha   147.67899845
_cell_angle_beta   121.86864995
_cell_angle_gamma   68.09679313
_symmetry_Int_Tables_number   1
_chemical_formula_structural   Ac3(BN2)2
_chemical_formula_sum   'Ac3 B2 N4'
_cell_volume   142.42718583
_cell_formula_units_Z   1
loop_
 _symmetry_equiv_pos_site_id
 _symmetry_equiv_pos_as_xyz
  1  'x, y, z'
loop_
 _atom_site_type_symbol
 _atom_site_label
 _atom_site_symmetry_multiplicity
 _atom_site_fract_x
 _atom_site_fract_y
 _atom_site_fract_z
 _atom_site_occupancy
  Ac  Ac0  1  0.700044  0.200044  0.500000  1
  Ac  Ac1  1  0.000000  0.000000  0.000000  1
  Ac  Ac2  1  0.299956  0.799956  0.500000  1
  B  B3  1  0.358593  0.500000  0.858593  1
  B  B4  1  0.641407  0.500000  0.141407  1
  N  N5  1  0.363576  0.614704  0.748870  1
  N  N6  1  0.134166  0.385296  0.748870  1
  N  N7  1  0.636424  0.385296  0.251130  1
  N  N8  1  0.865834  0.614704  0.251130  1
