# generated using pymatgen
data_Sc6Co5Sn7
_symmetry_space_group_name_H-M   'P 1'
_cell_length_a   7.42565000
_cell_length_b   7.42564953
_cell_length_c   7.00198300
_cell_angle_alpha   90.00000000
_cell_angle_beta   90.00000000
_cell_angle_gamma   120.00000208
_symmetry_Int_Tables_number   1
_chemical_formula_structural   Sc6Co5Sn7
_chemical_formula_sum   'Sc6 Co5 Sn7'
_cell_volume   334.36483608
_cell_formula_units_Z   1
loop_
 _symmetry_equiv_pos_site_id
 _symmetry_equiv_pos_as_xyz
  1  'x, y, z'
loop_
 _atom_site_type_symbol
 _atom_site_label
 _atom_site_symmetry_multiplicity
 _atom_site_fract_x
 _atom_site_fract_y
 _atom_site_fract_z
 _atom_site_occupancy
  Sc  Sc0  1  0.383286  0.978501  0.233877  1
  Sc  Sc1  1  0.595214  0.616714  0.233877  1
  Sc  Sc2  1  0.021499  0.404786  0.233877  1
  Sc  Sc3  1  0.381894  0.976438  0.766636  1
  Sc  Sc4  1  0.594543  0.618106  0.766636  1
  Sc  Sc5  1  0.023562  0.405457  0.766636  1
  Co  Co6  1  0.000000  0.000000  0.771239  1
  Co  Co7  1  0.000000  0.000000  0.228466  1
  Co  Co8  1  0.666667  0.333333  0.995512  1
  Co  Co9  1  0.333333  0.666667  0.498830  1
  Co  Co10  1  0.333333  0.666667  0.001267  1
  Sn  Sn11  1  0.284919  0.270909  0.000017  1
  Sn  Sn12  1  0.985990  0.715081  0.000017  1
  Sn  Sn13  1  0.022808  0.761468  0.499610  1
  Sn  Sn14  1  0.738660  0.977192  0.499610  1
  Sn  Sn15  1  0.238532  0.261340  0.499610  1
  Sn  Sn16  1  0.729091  0.014010  0.000017  1
  Sn  Sn17  1  0.666667  0.333333  0.504265  1
