# generated using pymatgen
data_Hf7Sc2(In2Co)7
_symmetry_space_group_name_H-M   'P 1'
_cell_length_a   9.42817829
_cell_length_b   9.40748635
_cell_length_c   9.42817700
_cell_angle_alpha   59.92721482
_cell_angle_beta   60.00000103
_cell_angle_gamma   59.92721244
_symmetry_Int_Tables_number   1
_chemical_formula_structural   Hf7Sc2(In2Co)7
_chemical_formula_sum   'Hf7 Sc2 In14 Co7'
_cell_volume   590.65711991
_cell_formula_units_Z   1
loop_
 _symmetry_equiv_pos_site_id
 _symmetry_equiv_pos_as_xyz
  1  'x, y, z'
loop_
 _atom_site_type_symbol
 _atom_site_label
 _atom_site_symmetry_multiplicity
 _atom_site_fract_x
 _atom_site_fract_y
 _atom_site_fract_z
 _atom_site_occupancy
  Hf  Hf0  1  0.356693  0.879345  0.881981  1
  Hf  Hf1  1  0.881981  0.879345  0.881981  1
  Hf  Hf2  1  0.641028  0.118898  0.120037  1
  Hf  Hf3  1  0.881981  0.879345  0.356693  1
  Hf  Hf4  1  0.120037  0.118898  0.120037  1
  Hf  Hf5  1  0.880584  0.358248  0.880584  1
  Hf  Hf6  1  0.120037  0.118898  0.641028  1
  Sc  Sc7  1  0.121153  0.636541  0.121153  1
  Sc  Sc8  1  0.499570  0.501291  0.499570  1
  In  In9  1  0.500304  0.843638  0.155754  1
  In  In10  1  0.500304  0.843638  0.500304  1
  In  In11  1  0.500040  0.157174  0.500040  1
  In  In12  1  0.499443  0.500233  0.843349  1
  In  In13  1  0.156975  0.500233  0.499443  1
  In  In14  1  0.842747  0.157174  0.500040  1
  In  In15  1  0.155754  0.843638  0.500304  1
  In  In16  1  0.500040  0.157174  0.842747  1
  In  In17  1  0.156975  0.500233  0.843349  1
  In  In18  1  0.499443  0.500233  0.156975  1
  In  In19  1  0.843349  0.500233  0.499443  1
  In  In20  1  0.843349  0.500233  0.156975  1
  In  In21  1  0.250937  0.247188  0.250937  1
  In  In22  1  0.749467  0.751600  0.749467  1
  Co  Co23  1  0.775625  0.783156  0.220609  1
  Co  Co24  1  0.999675  0.000974  0.999675  1
  Co  Co25  1  0.220609  0.783156  0.220609  1
  Co  Co26  1  0.220609  0.783156  0.775625  1
  Co  Co27  1  0.218029  0.218709  0.781631  1
  Co  Co28  1  0.781631  0.218709  0.781631  1
  Co  Co29  1  0.781631  0.218709  0.218029  1
