# generated using pymatgen
data_Y3Ho9Tc3Rh
_symmetry_space_group_name_H-M   'P 1'
_cell_length_a   6.27815922
_cell_length_b   7.40019103
_cell_length_c   9.12350700
_cell_angle_alpha   90.00000000
_cell_angle_beta   90.00000000
_cell_angle_gamma   89.95906990
_symmetry_Int_Tables_number   1
_chemical_formula_structural   Y3Ho9Tc3Rh
_chemical_formula_sum   'Y3 Ho9 Tc3 Rh1'
_cell_volume   423.87417261
_cell_formula_units_Z   1
loop_
 _symmetry_equiv_pos_site_id
 _symmetry_equiv_pos_as_xyz
  1  'x, y, z'
loop_
 _atom_site_type_symbol
 _atom_site_label
 _atom_site_symmetry_multiplicity
 _atom_site_fract_x
 _atom_site_fract_y
 _atom_site_fract_z
 _atom_site_occupancy
  Y  Y0  1  0.629720  0.042448  0.250000  1
  Y  Y1  1  0.123211  0.462031  0.750000  1
  Y  Y2  1  0.873030  0.540173  0.250000  1
  Ho  Ho3  1  0.373193  0.958211  0.750000  1
  Ho  Ho4  1  0.162595  0.178064  0.061055  1
  Ho  Ho5  1  0.832673  0.823711  0.934613  1
  Ho  Ho6  1  0.661115  0.323386  0.936395  1
  Ho  Ho7  1  0.832673  0.823711  0.565387  1
  Ho  Ho8  1  0.338895  0.674397  0.061145  1
  Ho  Ho9  1  0.162595  0.178064  0.438945  1
  Ho  Ho10  1  0.338895  0.674397  0.438855  1
  Ho  Ho11  1  0.661115  0.323386  0.563605  1
  Tc  Tc12  1  0.455744  0.384281  0.250000  1
  Tc  Tc13  1  0.542802  0.616568  0.750000  1
  Tc  Tc14  1  0.962170  0.111497  0.750000  1
  Rh  Rh15  1  0.049575  0.885672  0.250000  1
