# generated using pymatgen
data_TmLu15(Tl3Pt)2
_symmetry_space_group_name_H-M   'P 1'
_cell_length_a   10.30596800
_cell_length_b   10.30497105
_cell_length_c   6.85669200
_cell_angle_alpha   90.01329399
_cell_angle_beta   90.00000000
_cell_angle_gamma   120.00320677
_symmetry_Int_Tables_number   1
_chemical_formula_structural   TmLu15(Tl3Pt)2
_chemical_formula_sum   'Tm1 Lu15 Tl6 Pt2'
_cell_volume   630.61861843
_cell_formula_units_Z   1
loop_
 _symmetry_equiv_pos_site_id
 _symmetry_equiv_pos_as_xyz
  1  'x, y, z'
loop_
 _atom_site_type_symbol
 _atom_site_label
 _atom_site_symmetry_multiplicity
 _atom_site_fract_x
 _atom_site_fract_y
 _atom_site_fract_z
 _atom_site_occupancy
  Tm  Tm0  1  0.530672  0.061344  0.525885  1
  Lu  Lu1  1  0.938111  0.469053  0.525889  1
  Lu  Lu2  1  0.530942  0.469053  0.525889  1
  Lu  Lu3  1  0.468975  0.937951  0.025844  1
  Lu  Lu4  1  0.061864  0.530911  0.025896  1
  Lu  Lu5  1  0.469047  0.530911  0.025896  1
  Lu  Lu6  1  0.175557  0.351114  0.731580  1
  Lu  Lu7  1  0.649112  0.824166  0.731781  1
  Lu  Lu8  1  0.175054  0.824166  0.731781  1
  Lu  Lu9  1  0.824509  0.649019  0.231541  1
  Lu  Lu10  1  0.350936  0.175702  0.231181  1
  Lu  Lu11  1  0.824764  0.175702  0.231181  1
  Lu  Lu12  1  0.666841  0.333681  0.899825  1
  Lu  Lu13  1  0.333126  0.666255  0.399566  1
  Lu  Lu14  1  0.999995  0.999988  0.504734  1
  Lu  Lu15  1  0.000012  0.000023  0.004833  1
  Tl  Tl16  1  0.837457  0.674914  0.767894  1
  Tl  Tl17  1  0.324841  0.162524  0.767973  1
  Tl  Tl18  1  0.837684  0.162524  0.767973  1
  Tl  Tl19  1  0.162519  0.325039  0.267964  1
  Tl  Tl20  1  0.674936  0.837554  0.267877  1
  Tl  Tl21  1  0.162617  0.837554  0.267877  1
  Pt  Pt22  1  0.667016  0.334030  0.297220  1
  Pt  Pt23  1  0.333411  0.666823  0.797601  1
