# generated using pymatgen
data_AcBiO4
_symmetry_space_group_name_H-M   'P 1'
_cell_length_a   5.91963300
_cell_length_b   8.13768489
_cell_length_c   8.28007823
_cell_angle_alpha   80.09835940
_cell_angle_beta   90.00000000
_cell_angle_gamma   90.00000000
_symmetry_Int_Tables_number   1
_chemical_formula_structural   AcBiO4
_chemical_formula_sum   'Ac4 Bi4 O16'
_cell_volume   392.92743363
_cell_formula_units_Z   4
loop_
 _symmetry_equiv_pos_site_id
 _symmetry_equiv_pos_as_xyz
  1  'x, y, z'
loop_
 _atom_site_type_symbol
 _atom_site_label
 _atom_site_symmetry_multiplicity
 _atom_site_fract_x
 _atom_site_fract_y
 _atom_site_fract_z
 _atom_site_occupancy
  Ac  Ac0  1  0.267118  0.851435  0.898280  1
  Ac  Ac1  1  0.232882  0.851435  0.398280  1
  Ac  Ac2  1  0.767118  0.148565  0.601720  1
  Ac  Ac3  1  0.732882  0.148565  0.101720  1
  Bi  Bi4  1  0.768057  0.663459  0.692276  1
  Bi  Bi5  1  0.731943  0.663459  0.192276  1
  Bi  Bi6  1  0.268057  0.336541  0.807724  1
  Bi  Bi7  1  0.231943  0.336541  0.307724  1
  O  O8  1  0.095361  0.568557  0.801043  1
  O  O9  1  0.634840  0.673102  0.937966  1
  O  O10  1  0.404639  0.568557  0.301043  1
  O  O11  1  0.505697  0.838479  0.631233  1
  O  O12  1  0.865160  0.673102  0.437966  1
  O  O13  1  0.994303  0.838479  0.131233  1
  O  O14  1  0.984076  0.880750  0.666243  1
  O  O15  1  0.484076  0.119250  0.833757  1
  O  O16  1  0.515924  0.880750  0.166243  1
  O  O17  1  0.015924  0.119250  0.333757  1
  O  O18  1  0.005697  0.161521  0.868767  1
  O  O19  1  0.134840  0.326898  0.562034  1
  O  O20  1  0.494303  0.161521  0.368767  1
  O  O21  1  0.595361  0.431443  0.698957  1
  O  O22  1  0.365160  0.326898  0.062034  1
  O  O23  1  0.904639  0.431443  0.198957  1
