# generated using pymatgen
data_Tb3TiReC6
_symmetry_space_group_name_H-M   'P 1'
_cell_length_a   8.43224600
_cell_length_b   8.43224515
_cell_length_c   5.08758400
_cell_angle_alpha   90.00000000
_cell_angle_beta   90.00000000
_cell_angle_gamma   119.99999338
_symmetry_Int_Tables_number   1
_chemical_formula_structural   Tb3TiReC6
_chemical_formula_sum   'Tb6 Ti2 Re2 C12'
_cell_volume   313.27716928
_cell_formula_units_Z   2
loop_
 _symmetry_equiv_pos_site_id
 _symmetry_equiv_pos_as_xyz
  1  'x, y, z'
loop_
 _atom_site_type_symbol
 _atom_site_label
 _atom_site_symmetry_multiplicity
 _atom_site_fract_x
 _atom_site_fract_y
 _atom_site_fract_z
 _atom_site_occupancy
  Tb  Tb0  1  0.623279  0.686945  0.750000  1
  Tb  Tb1  1  0.936336  0.623279  0.250000  1
  Tb  Tb2  1  0.686945  0.063664  0.250000  1
  Tb  Tb3  1  0.313055  0.936336  0.750000  1
  Tb  Tb4  1  0.063664  0.376721  0.750000  1
  Tb  Tb5  1  0.376721  0.313055  0.250000  1
  Ti  Ti6  1  0.000000  0.000000  0.500000  1
  Ti  Ti7  1  0.000000  0.000000  0.000000  1
  Re  Re8  1  0.666667  0.333333  0.750000  1
  Re  Re9  1  0.333333  0.666667  0.250000  1
  C  C10  1  0.965394  0.768990  0.750000  1
  C  C11  1  0.196404  0.965394  0.250000  1
  C  C12  1  0.768990  0.803596  0.250000  1
  C  C13  1  0.231010  0.196404  0.750000  1
  C  C14  1  0.803596  0.034606  0.750000  1
  C  C15  1  0.034606  0.231010  0.250000  1
  C  C16  1  0.866421  0.582368  0.750000  1
  C  C17  1  0.284053  0.866421  0.250000  1
  C  C18  1  0.582368  0.715947  0.250000  1
  C  C19  1  0.417632  0.284053  0.750000  1
  C  C20  1  0.133579  0.417632  0.250000  1
  C  C21  1  0.715947  0.133579  0.750000  1
