# generated using pymatgen
data_Y2Ho4TaCo17P12
_symmetry_space_group_name_H-M   'P 1'
_cell_length_a   3.68716200
_cell_length_b   10.54078400
_cell_length_c   12.23157500
_cell_angle_alpha   90.00000000
_cell_angle_beta   90.00000000
_cell_angle_gamma   90.00000000
_symmetry_Int_Tables_number   1
_chemical_formula_structural   Y2Ho4TaCo17P12
_chemical_formula_sum   'Y2 Ho4 Ta1 Co17 P12'
_cell_volume   475.38723486
_cell_formula_units_Z   1
loop_
 _symmetry_equiv_pos_site_id
 _symmetry_equiv_pos_as_xyz
  1  'x, y, z'
loop_
 _atom_site_type_symbol
 _atom_site_label
 _atom_site_symmetry_multiplicity
 _atom_site_fract_x
 _atom_site_fract_y
 _atom_site_fract_z
 _atom_site_occupancy
  Y  Y0  1  0.000000  0.500000  0.526814  1
  Y  Y1  1  0.500000  0.000000  0.477731  1
  Ho  Ho2  1  0.500000  0.819949  0.207055  1
  Ho  Ho3  1  0.500000  0.180051  0.207055  1
  Ho  Ho4  1  0.000000  0.682687  0.796133  1
  Ho  Ho5  1  0.000000  0.317313  0.796133  1
  Ta  Ta6  1  0.500000  0.500000  0.154254  1
  Co  Co7  1  0.000000  0.500000  0.985134  1
  Co  Co8  1  0.500000  0.000000  0.014328  1
  Co  Co9  1  0.500000  0.295171  0.432322  1
  Co  Co10  1  0.500000  0.704829  0.432322  1
  Co  Co11  1  0.000000  0.202771  0.569711  1
  Co  Co12  1  0.000000  0.797229  0.569711  1
  Co  Co13  1  0.500000  0.879446  0.708480  1
  Co  Co14  1  0.500000  0.120554  0.708480  1
  Co  Co15  1  0.000000  0.622526  0.293032  1
  Co  Co16  1  0.000000  0.377474  0.293032  1
  Co  Co17  1  0.500000  0.330261  0.989982  1
  Co  Co18  1  0.500000  0.669739  0.989982  1
  Co  Co19  1  0.000000  0.163929  0.004180  1
  Co  Co20  1  0.000000  0.836071  0.004180  1
  Co  Co21  1  0.000000  0.000000  0.838907  1
  Co  Co22  1  0.500000  0.500000  0.702388  1
  Co  Co23  1  0.000000  0.000000  0.296277  1
  P  P24  1  0.500000  0.309770  0.617471  1
  P  P25  1  0.500000  0.690230  0.617471  1
  P  P26  1  0.000000  0.188414  0.385159  1
  P  P27  1  0.000000  0.811586  0.385159  1
  P  P28  1  0.500000  0.500000  0.880580  1
  P  P29  1  0.000000  0.000000  0.117215  1
  P  P30  1  0.500000  0.850945  0.890034  1
  P  P31  1  0.500000  0.149055  0.890034  1
  P  P32  1  0.000000  0.661306  0.103578  1
  P  P33  1  0.000000  0.338694  0.103578  1
  P  P34  1  0.500000  0.500000  0.356016  1
  P  P35  1  0.000000  0.000000  0.656083  1
