# generated using pymatgen
data_La2Cu2PPt6
_symmetry_space_group_name_H-M   'P 1'
_cell_length_a   9.25058169
_cell_length_b   9.25058073
_cell_length_c   4.13055900
_cell_angle_alpha   90.00000000
_cell_angle_beta   90.00000000
_cell_angle_gamma   145.56244002
_symmetry_Int_Tables_number   1
_chemical_formula_structural   La2Cu2PPt6
_chemical_formula_sum   'La2 Cu2 P1 Pt6'
_cell_volume   199.88741666
_cell_formula_units_Z   1
loop_
 _symmetry_equiv_pos_site_id
 _symmetry_equiv_pos_as_xyz
  1  'x, y, z'
loop_
 _atom_site_type_symbol
 _atom_site_label
 _atom_site_symmetry_multiplicity
 _atom_site_fract_x
 _atom_site_fract_y
 _atom_site_fract_z
 _atom_site_occupancy
  La  La0  1  0.618960  0.374904  0.500000  1
  La  La1  1  0.374904  0.618960  0.500000  1
  Cu  Cu2  1  0.194572  0.791961  0.500000  1
  Cu  Cu3  1  0.791961  0.194572  0.500000  1
  P  P4  1  0.223456  0.223456  0.000000  1
  Pt  Pt5  1  0.112426  0.884795  0.000000  1
  Pt  Pt6  1  0.884795  0.112426  0.000000  1
  Pt  Pt7  1  0.490372  0.986377  0.000000  1
  Pt  Pt8  1  0.986377  0.490372  0.000000  1
  Pt  Pt9  1  0.999074  0.999074  0.500000  1
  Pt  Pt10  1  0.636700  0.636700  0.000000  1
