# generated using pymatgen
data_Nd3Dy5Cd2IrPt
_symmetry_space_group_name_H-M   'P 1'
_cell_length_a   9.76800665
_cell_length_b   9.76774765
_cell_length_c   9.74824617
_cell_angle_alpha   60.03239356
_cell_angle_beta   60.04044613
_cell_angle_gamma   60.34102335
_symmetry_Int_Tables_number   1
_chemical_formula_structural   Nd3Dy5Cd2IrPt
_chemical_formula_sum   'Nd6 Dy10 Cd4 Ir2 Pt2'
_cell_volume   659.71866033
_cell_formula_units_Z   2
loop_
 _symmetry_equiv_pos_site_id
 _symmetry_equiv_pos_as_xyz
  1  'x, y, z'
loop_
 _atom_site_type_symbol
 _atom_site_label
 _atom_site_symmetry_multiplicity
 _atom_site_fract_x
 _atom_site_fract_y
 _atom_site_fract_z
 _atom_site_occupancy
  Nd  Nd0  1  0.941159  0.562314  0.558991  1
  Nd  Nd1  1  0.559279  0.941584  0.940293  1
  Nd  Nd2  1  0.562244  0.941196  0.558945  1
  Nd  Nd3  1  0.941604  0.559254  0.940305  1
  Nd  Nd4  1  0.559972  0.559985  0.940702  1
  Nd  Nd5  1  0.940938  0.940892  0.558076  1
  Dy  Dy6  1  0.348628  0.348685  0.346226  1
  Dy  Dy7  1  0.350230  0.350162  0.954393  1
  Dy  Dy8  1  0.355152  0.947776  0.349686  1
  Dy  Dy9  1  0.947688  0.355171  0.349772  1
  Dy  Dy10  1  0.808407  0.189427  0.186875  1
  Dy  Dy11  1  0.186412  0.808571  0.814965  1
  Dy  Dy12  1  0.189482  0.808402  0.186829  1
  Dy  Dy13  1  0.808572  0.186396  0.814950  1
  Dy  Dy14  1  0.188424  0.188362  0.812137  1
  Dy  Dy15  1  0.813151  0.813131  0.183096  1
  Cd  Cd16  1  0.579837  0.579862  0.579630  1
  Cd  Cd17  1  0.579904  0.579896  0.259664  1
  Cd  Cd18  1  0.579499  0.260611  0.579834  1
  Cd  Cd19  1  0.260619  0.579488  0.579850  1
  Ir  Ir20  1  0.141181  0.573498  0.143654  1
  Ir  Ir21  1  0.573517  0.141206  0.143652  1
  Pt  Pt22  1  0.142469  0.142487  0.144941  1
  Pt  Pt23  1  0.141631  0.141645  0.572533  1
