# generated using pymatgen
data_YHo(CuP)3
_symmetry_space_group_name_H-M   'P 1'
_cell_length_a   3.85204600
_cell_length_b   10.68275600
_cell_length_c   12.95894900
_cell_angle_alpha   90.00000000
_cell_angle_beta   90.00000000
_cell_angle_gamma   90.00000000
_symmetry_Int_Tables_number   1
_chemical_formula_structural   YHo(CuP)3
_chemical_formula_sum   'Y4 Ho4 Cu12 P12'
_cell_volume   533.26680990
_cell_formula_units_Z   4
loop_
 _symmetry_equiv_pos_site_id
 _symmetry_equiv_pos_as_xyz
  1  'x, y, z'
loop_
 _atom_site_type_symbol
 _atom_site_label
 _atom_site_symmetry_multiplicity
 _atom_site_fract_x
 _atom_site_fract_y
 _atom_site_fract_z
 _atom_site_occupancy
  Y  Y0  1  0.250000  0.930057  0.792841  1
  Y  Y1  1  0.750000  0.430057  0.707159  1
  Y  Y2  1  0.250000  0.569943  0.292841  1
  Y  Y3  1  0.750000  0.069943  0.207159  1
  Ho  Ho4  1  0.250000  0.841323  0.503091  1
  Ho  Ho5  1  0.750000  0.341323  0.996909  1
  Ho  Ho6  1  0.250000  0.658677  0.003091  1
  Ho  Ho7  1  0.750000  0.158677  0.496909  1
  Cu  Cu8  1  0.250000  0.402775  0.513741  1
  Cu  Cu9  1  0.750000  0.902775  0.986259  1
  Cu  Cu10  1  0.250000  0.097225  0.013741  1
  Cu  Cu11  1  0.750000  0.597225  0.486259  1
  Cu  Cu12  1  0.250000  0.272865  0.332298  1
  Cu  Cu13  1  0.750000  0.772865  0.167702  1
  Cu  Cu14  1  0.250000  0.227135  0.832298  1
  Cu  Cu15  1  0.750000  0.727135  0.667702  1
  Cu  Cu16  1  0.250000  0.860516  0.280322  1
  Cu  Cu17  1  0.750000  0.360516  0.219678  1
  Cu  Cu18  1  0.250000  0.639484  0.780322  1
  Cu  Cu19  1  0.750000  0.139484  0.719678  1
  P  P20  1  0.250000  0.240444  0.642922  1
  P  P21  1  0.750000  0.740444  0.857078  1
  P  P22  1  0.250000  0.259556  0.142922  1
  P  P23  1  0.750000  0.759556  0.357078  1
  P  P24  1  0.250000  0.604527  0.600650  1
  P  P25  1  0.750000  0.104527  0.899350  1
  P  P26  1  0.250000  0.895473  0.100650  1
  P  P27  1  0.750000  0.395473  0.399350  1
  P  P28  1  0.250000  0.057207  0.369446  1
  P  P29  1  0.750000  0.557207  0.130554  1
  P  P30  1  0.250000  0.442793  0.869446  1
  P  P31  1  0.750000  0.942793  0.630554  1
