# generated using pymatgen
data_Na2Pd3Pb
_symmetry_space_group_name_H-M   'P 1'
_cell_length_a   5.74436800
_cell_length_b   5.74436833
_cell_length_c   8.64983900
_cell_angle_alpha   90.00000000
_cell_angle_beta   90.00000000
_cell_angle_gamma   119.99999809
_symmetry_Int_Tables_number   1
_chemical_formula_structural   Na2Pd3Pb
_chemical_formula_sum   'Na4 Pd6 Pb2'
_cell_volume   247.18561743
_cell_formula_units_Z   2
loop_
 _symmetry_equiv_pos_site_id
 _symmetry_equiv_pos_as_xyz
  1  'x, y, z'
loop_
 _atom_site_type_symbol
 _atom_site_label
 _atom_site_symmetry_multiplicity
 _atom_site_fract_x
 _atom_site_fract_y
 _atom_site_fract_z
 _atom_site_occupancy
  Na  Na0  1  0.333333  0.666666  0.071609  1
  Na  Na1  1  0.333333  0.666666  0.428391  1
  Na  Na2  1  0.666666  0.333333  0.571609  1
  Na  Na3  1  0.666666  0.333333  0.928391  1
  Pd  Pd4  1  0.349211  0.174605  0.250000  1
  Pd  Pd5  1  0.825395  0.174605  0.250000  1
  Pd  Pd6  1  0.825394  0.650788  0.250000  1
  Pd  Pd7  1  0.174605  0.349211  0.750000  1
  Pd  Pd8  1  0.174605  0.825395  0.750000  1
  Pd  Pd9  1  0.650789  0.825395  0.750000  1
  Pb  Pb10  1  0.000000  0.000000  0.000000  1
  Pb  Pb11  1  0.000000  0.000000  0.500000  1
