# generated using pymatgen
data_Ba6Sn8HgAs
_symmetry_space_group_name_H-M   'P 1'
_cell_length_a   9.24357898
_cell_length_b   9.24357864
_cell_length_c   9.31483001
_cell_angle_alpha   119.74729306
_cell_angle_beta   119.74728842
_cell_angle_gamma   90.00000198
_symmetry_Int_Tables_number   1
_chemical_formula_structural   Ba6Sn8HgAs
_chemical_formula_sum   'Ba6 Sn8 Hg1 As1'
_cell_volume   567.05413232
_cell_formula_units_Z   1
loop_
 _symmetry_equiv_pos_site_id
 _symmetry_equiv_pos_as_xyz
  1  'x, y, z'
loop_
 _atom_site_type_symbol
 _atom_site_label
 _atom_site_symmetry_multiplicity
 _atom_site_fract_x
 _atom_site_fract_y
 _atom_site_fract_z
 _atom_site_occupancy
  Ba  Ba0  1  0.235666  0.235666  0.471333  1
  Ba  Ba1  1  0.764334  0.764334  0.528667  1
  Ba  Ba2  1  0.679735  0.150095  0.000000  1
  Ba  Ba3  1  0.320265  0.849905  0.000000  1
  Ba  Ba4  1  0.849905  0.679735  0.000000  1
  Ba  Ba5  1  0.150095  0.320265  0.000000  1
  Sn  Sn6  1  0.341223  0.829624  0.387619  1
  Sn  Sn7  1  0.658777  0.170376  0.612381  1
  Sn  Sn8  1  0.046397  0.557996  0.387619  1
  Sn  Sn9  1  0.557996  0.341223  0.387619  1
  Sn  Sn10  1  0.170376  0.953603  0.612381  1
  Sn  Sn11  1  0.953603  0.442004  0.612381  1
  Sn  Sn12  1  0.442004  0.658777  0.612381  1
  Sn  Sn13  1  0.829624  0.046397  0.387619  1
  Hg  Hg14  1  0.500000  0.500000  0.000000  1
  As  As15  1  0.000000  0.000000  0.000000  1
