# generated using pymatgen
data_DyHo3(TmBi)6
_symmetry_space_group_name_H-M   'P 1'
_cell_length_a   8.21692700
_cell_length_b   9.44737500
_cell_length_c   12.01493900
_cell_angle_alpha   90.00000000
_cell_angle_beta   90.00000000
_cell_angle_gamma   90.00000000
_symmetry_Int_Tables_number   1
_chemical_formula_structural   DyHo3(TmBi)6
_chemical_formula_sum   'Dy2 Ho6 Tm12 Bi12'
_cell_volume   932.70037913
_cell_formula_units_Z   2
loop_
 _symmetry_equiv_pos_site_id
 _symmetry_equiv_pos_as_xyz
  1  'x, y, z'
loop_
 _atom_site_type_symbol
 _atom_site_label
 _atom_site_symmetry_multiplicity
 _atom_site_fract_x
 _atom_site_fract_y
 _atom_site_fract_z
 _atom_site_occupancy
  Dy  Dy0  1  0.186297  0.750000  0.718331  1
  Dy  Dy1  1  0.686297  0.750000  0.781669  1
  Ho  Ho2  1  0.813679  0.250000  0.281650  1
  Ho  Ho3  1  0.313679  0.250000  0.218350  1
  Ho  Ho4  1  0.353640  0.750000  0.216229  1
  Ho  Ho5  1  0.853640  0.750000  0.283771  1
  Ho  Ho6  1  0.646230  0.250000  0.783601  1
  Ho  Ho7  1  0.146230  0.250000  0.716399  1
  Tm  Tm8  1  0.024411  0.750000  0.988781  1
  Tm  Tm9  1  0.524411  0.750000  0.511219  1
  Tm  Tm10  1  0.975655  0.250000  0.010988  1
  Tm  Tm11  1  0.475655  0.250000  0.489012  1
  Tm  Tm12  1  0.307518  0.434331  0.940569  1
  Tm  Tm13  1  0.807518  0.065669  0.559431  1
  Tm  Tm14  1  0.692522  0.934286  0.059375  1
  Tm  Tm15  1  0.192522  0.565714  0.440625  1
  Tm  Tm16  1  0.692522  0.565714  0.059375  1
  Tm  Tm17  1  0.192522  0.934286  0.440625  1
  Tm  Tm18  1  0.307518  0.065669  0.940569  1
  Tm  Tm19  1  0.807518  0.434331  0.559431  1
  Bi  Bi20  1  0.433711  0.004445  0.672901  1
  Bi  Bi21  1  0.933711  0.495555  0.827099  1
  Bi  Bi22  1  0.566417  0.503929  0.327220  1
  Bi  Bi23  1  0.066417  0.996071  0.172780  1
  Bi  Bi24  1  0.566417  0.996071  0.327220  1
  Bi  Bi25  1  0.066417  0.503929  0.172780  1
  Bi  Bi26  1  0.433711  0.495555  0.672901  1
  Bi  Bi27  1  0.933711  0.004445  0.827099  1
  Bi  Bi28  1  0.405531  0.750000  0.957555  1
  Bi  Bi29  1  0.905531  0.750000  0.542445  1
  Bi  Bi30  1  0.594220  0.250000  0.042673  1
  Bi  Bi31  1  0.094220  0.250000  0.457327  1
