# generated using pymatgen
data_TbY2Al7CuPd
_symmetry_space_group_name_H-M   'P 1'
_cell_length_a   9.15848345
_cell_length_b   9.15848428
_cell_length_c   9.15848467
_cell_angle_alpha   34.97890938
_cell_angle_beta   34.97890204
_cell_angle_gamma   34.97890240
_symmetry_Int_Tables_number   1
_chemical_formula_structural   TbY2Al7CuPd
_chemical_formula_sum   'Tb1 Y2 Al7 Cu1 Pd1'
_cell_volume   225.41056643
_cell_formula_units_Z   1
loop_
 _symmetry_equiv_pos_site_id
 _symmetry_equiv_pos_as_xyz
  1  'x, y, z'
loop_
 _atom_site_type_symbol
 _atom_site_label
 _atom_site_symmetry_multiplicity
 _atom_site_fract_x
 _atom_site_fract_y
 _atom_site_fract_z
 _atom_site_occupancy
  Tb  Tb0  1  0.999826  0.999826  0.999826  1
  Y  Y1  1  0.857550  0.857550  0.857550  1
  Y  Y2  1  0.142737  0.142737  0.142737  1
  Al  Al3  1  0.416667  0.416667  0.928616  1
  Al  Al4  1  0.928616  0.416667  0.416667  1
  Al  Al5  1  0.416667  0.928616  0.416667  1
  Al  Al6  1  0.500078  0.500078  0.500078  1
  Al  Al7  1  0.581213  0.075442  0.581213  1
  Al  Al8  1  0.075442  0.581213  0.581213  1
  Al  Al9  1  0.581213  0.581213  0.075442  1
  Cu  Cu10  1  0.335270  0.335270  0.335270  1
  Pd  Pd11  1  0.664721  0.664721  0.664721  1
