# generated using pymatgen
data_Pr(ThTe2)6
_symmetry_space_group_name_H-M   'P 1'
_cell_length_a   12.57776731
_cell_length_b   12.62049787
_cell_length_c   4.35558500
_cell_angle_alpha   90.00000000
_cell_angle_beta   90.00000000
_cell_angle_gamma   119.77427325
_symmetry_Int_Tables_number   1
_chemical_formula_structural   Pr(ThTe2)6
_chemical_formula_sum   'Pr1 Th6 Te12'
_cell_volume   600.12333841
_cell_formula_units_Z   1
loop_
 _symmetry_equiv_pos_site_id
 _symmetry_equiv_pos_as_xyz
  1  'x, y, z'
loop_
 _atom_site_type_symbol
 _atom_site_label
 _atom_site_symmetry_multiplicity
 _atom_site_fract_x
 _atom_site_fract_y
 _atom_site_fract_z
 _atom_site_occupancy
  Pr  Pr0  1  0.723489  0.159936  0.000000  1
  Th  Th1  1  0.842702  0.565620  0.000000  1
  Th  Th2  1  0.434524  0.275767  0.000000  1
  Th  Th3  1  0.549686  0.712211  0.500000  1
  Th  Th4  1  0.289006  0.838224  0.500000  1
  Th  Th5  1  0.161751  0.450185  0.500000  1
  Th  Th6  1  0.996664  0.000209  0.000000  1
  Te  Te7  1  0.744823  0.751173  0.000000  1
  Te  Te8  1  0.245290  0.991810  0.000000  1
  Te  Te9  1  0.009215  0.256020  0.000000  1
  Te  Te10  1  0.490511  0.864901  0.000000  1
  Te  Te11  1  0.134224  0.625771  0.000000  1
  Te  Te12  1  0.375308  0.508706  0.000000  1
  Te  Te13  1  0.865144  0.389023  0.500000  1
  Te  Te14  1  0.216902  0.213155  0.500000  1
  Te  Te15  1  0.996973  0.783761  0.500000  1
  Te  Te16  1  0.790345  0.999757  0.500000  1
  Te  Te17  1  0.519083  0.136258  0.500000  1
  Te  Te18  1  0.614363  0.477511  0.500000  1
