# generated using pymatgen
data_Tb3DyAl2(ZnPt2)2
_symmetry_space_group_name_H-M   'P 1'
_cell_length_a   4.40119200
_cell_length_b   6.86701575
_cell_length_c   7.89832101
_cell_angle_alpha   90.04444701
_cell_angle_beta   90.00000000
_cell_angle_gamma   90.00000000
_symmetry_Int_Tables_number   1
_chemical_formula_structural   Tb3DyAl2(ZnPt2)2
_chemical_formula_sum   'Tb3 Dy1 Al2 Zn2 Pt4'
_cell_volume   238.71131703
_cell_formula_units_Z   1
loop_
 _symmetry_equiv_pos_site_id
 _symmetry_equiv_pos_as_xyz
  1  'x, y, z'
loop_
 _atom_site_type_symbol
 _atom_site_label
 _atom_site_symmetry_multiplicity
 _atom_site_fract_x
 _atom_site_fract_y
 _atom_site_fract_z
 _atom_site_occupancy
  Tb  Tb0  1  0.250000  0.468750  0.180909  1
  Tb  Tb1  1  0.750000  0.531273  0.819212  1
  Tb  Tb2  1  0.750000  0.027784  0.687884  1
  Dy  Dy3  1  0.250000  0.971974  0.311954  1
  Al  Al4  1  0.750000  0.645998  0.439498  1
  Al  Al5  1  0.250000  0.354026  0.560294  1
  Zn  Zn6  1  0.250000  0.850962  0.933384  1
  Zn  Zn7  1  0.750000  0.148968  0.066897  1
  Pt  Pt8  1  0.250000  0.727797  0.607574  1
  Pt  Pt9  1  0.750000  0.272083  0.392065  1
  Pt  Pt10  1  0.750000  0.761499  0.125100  1
  Pt  Pt11  1  0.250000  0.238888  0.875229  1
