# generated using pymatgen
data_Yb2EuZn11
_symmetry_space_group_name_H-M   'P 1'
_cell_length_a   4.37714089
_cell_length_b   8.28254237
_cell_length_c   8.28254300
_cell_angle_alpha   65.95515256
_cell_angle_beta   74.67825196
_cell_angle_gamma   74.67825662
_symmetry_Int_Tables_number   1
_chemical_formula_structural   Yb2EuZn11
_chemical_formula_sum   'Yb2 Eu1 Zn11'
_cell_volume   260.25937296
_cell_formula_units_Z   1
loop_
 _symmetry_equiv_pos_site_id
 _symmetry_equiv_pos_as_xyz
  1  'x, y, z'
loop_
 _atom_site_type_symbol
 _atom_site_label
 _atom_site_symmetry_multiplicity
 _atom_site_fract_x
 _atom_site_fract_y
 _atom_site_fract_z
 _atom_site_occupancy
  Yb  Yb0  1  0.703357  0.296643  0.296643  1
  Yb  Yb1  1  0.296643  0.703357  0.703357  1
  Eu  Eu2  1  0.000000  0.000000  0.000000  1
  Zn  Zn3  1  0.000000  0.500000  0.500000  1
  Zn  Zn4  1  0.500000  0.685299  0.314701  1
  Zn  Zn5  1  0.500000  0.314701  0.685299  1
  Zn  Zn6  1  0.664319  0.691493  0.979868  1
  Zn  Zn7  1  0.335681  0.308507  0.020132  1
  Zn  Zn8  1  0.664319  0.979868  0.691493  1
  Zn  Zn9  1  0.335681  0.020132  0.308507  1
  Zn  Zn10  1  0.864668  0.425358  0.845306  1
  Zn  Zn11  1  0.135332  0.574642  0.154694  1
  Zn  Zn12  1  0.864668  0.845306  0.425358  1
  Zn  Zn13  1  0.135332  0.154694  0.574642  1
