# generated using pymatgen
data_Sr(CuO2)2
_symmetry_space_group_name_H-M   'P 1'
_cell_length_a   6.41804521
_cell_length_b   6.41804556
_cell_length_c   6.41804636
_cell_angle_alpha   123.90028710
_cell_angle_beta   123.90029031
_cell_angle_gamma   83.36761589
_symmetry_Int_Tables_number   1
_chemical_formula_structural   Sr(CuO2)2
_chemical_formula_sum   'Sr2 Cu4 O8'
_cell_volume   174.63306125
_cell_formula_units_Z   2
loop_
 _symmetry_equiv_pos_site_id
 _symmetry_equiv_pos_as_xyz
  1  'x, y, z'
loop_
 _atom_site_type_symbol
 _atom_site_label
 _atom_site_symmetry_multiplicity
 _atom_site_fract_x
 _atom_site_fract_y
 _atom_site_fract_z
 _atom_site_occupancy
  Sr  Sr0  1  0.750000  0.250000  0.500000  1
  Sr  Sr1  1  0.000000  0.000000  0.000000  1
  Cu  Cu2  1  0.375000  0.625000  0.750000  1
  Cu  Cu3  1  0.375000  0.125000  0.750000  1
  Cu  Cu4  1  0.875000  0.625000  0.250000  1
  Cu  Cu5  1  0.375000  0.625000  0.250000  1
  O  O6  1  0.057294  0.442869  0.091579  1
  O  O7  1  0.715716  0.307294  0.114426  1
  O  O8  1  0.192869  0.601289  0.885574  1
  O  O9  1  0.351289  0.965716  0.908421  1
  O  O10  1  0.692706  0.807131  0.408421  1
  O  O11  1  0.034284  0.942706  0.385574  1
  O  O12  1  0.398711  0.284284  0.591579  1
  O  O13  1  0.557131  0.648711  0.614426  1
