# generated using pymatgen
data_Pr5Mg(P2Ru3)6
_symmetry_space_group_name_H-M   'P 1'
_cell_length_a   12.62794900
_cell_length_b   12.76329172
_cell_length_c   4.02907000
_cell_angle_alpha   90.00000000
_cell_angle_beta   90.00000000
_cell_angle_gamma   119.64983350
_symmetry_Int_Tables_number   1
_chemical_formula_structural   Pr5Mg(P2Ru3)6
_chemical_formula_sum   'Pr5 Mg1 P12 Ru18'
_cell_volume   564.35526743
_cell_formula_units_Z   1
loop_
 _symmetry_equiv_pos_site_id
 _symmetry_equiv_pos_as_xyz
  1  'x, y, z'
loop_
 _atom_site_type_symbol
 _atom_site_label
 _atom_site_symmetry_multiplicity
 _atom_site_fract_x
 _atom_site_fract_y
 _atom_site_fract_z
 _atom_site_occupancy
  Pr  Pr0  1  0.819197  0.000000  0.500000  1
  Pr  Pr1  1  0.999840  0.815807  0.500000  1
  Pr  Pr2  1  0.184033  0.184193  0.500000  1
  Pr  Pr3  1  0.331316  0.660997  0.000000  1
  Pr  Pr4  1  0.670320  0.339003  0.000000  1
  Mg  Mg5  1  0.437806  0.000000  0.000000  1
  P  P6  1  0.191494  0.000000  0.000000  1
  P  P7  1  0.999713  0.186755  0.000000  1
  P  P8  1  0.812958  0.813245  0.000000  1
  P  P9  1  0.521563  0.692278  0.500000  1
  P  P10  1  0.298112  0.819386  0.500000  1
  P  P11  1  0.167771  0.473393  0.500000  1
  P  P12  1  0.478726  0.180614  0.500000  1
  P  P13  1  0.694378  0.526607  0.500000  1
  P  P14  1  0.829285  0.307722  0.500000  1
  P  P15  1  0.637064  0.000000  0.000000  1
  P  P16  1  0.998895  0.622480  0.000000  1
  P  P17  1  0.376415  0.377520  0.000000  1
  Ru  Ru18  1  0.999412  0.444078  0.000000  1
  Ru  Ru19  1  0.555334  0.555922  0.000000  1
  Ru  Ru20  1  0.286536  0.000000  0.500000  1
  Ru  Ru21  1  0.998376  0.284107  0.500000  1
  Ru  Ru22  1  0.714269  0.715893  0.500000  1
  Ru  Ru23  1  0.619822  0.804141  0.000000  1
  Ru  Ru24  1  0.194648  0.813714  0.000000  1
  Ru  Ru25  1  0.183489  0.375678  0.000000  1
  Ru  Ru26  1  0.380934  0.186286  0.000000  1
  Ru  Ru27  1  0.807811  0.624322  0.000000  1
  Ru  Ru28  1  0.815681  0.195859  0.000000  1
  Ru  Ru29  1  0.510164  0.876719  0.500000  1
  Ru  Ru30  1  0.120142  0.630289  0.500000  1
  Ru  Ru31  1  0.364932  0.491319  0.500000  1
  Ru  Ru32  1  0.489852  0.369711  0.500000  1
  Ru  Ru33  1  0.873613  0.508681  0.500000  1
  Ru  Ru34  1  0.633446  0.123281  0.500000  1
  Ru  Ru35  1  0.002652  0.000000  0.000000  1
