# generated using pymatgen
data_PrTmPa2Al23ZnPt9
_symmetry_space_group_name_H-M   'P 1'
_cell_length_a   7.57663952
_cell_length_b   7.58335362
_cell_length_c   13.14173900
_cell_angle_alpha   84.49758043
_cell_angle_beta   78.91651835
_cell_angle_gamma   59.91137536
_symmetry_Int_Tables_number   1
_chemical_formula_structural   PrTmPa2Al23ZnPt9
_chemical_formula_sum   'Pr1 Tm1 Pa2 Al23 Zn1 Pt9'
_cell_volume   641.14445735
_cell_formula_units_Z   1
loop_
 _symmetry_equiv_pos_site_id
 _symmetry_equiv_pos_as_xyz
  1  'x, y, z'
loop_
 _atom_site_type_symbol
 _atom_site_label
 _atom_site_symmetry_multiplicity
 _atom_site_fract_x
 _atom_site_fract_y
 _atom_site_fract_z
 _atom_site_occupancy
  Pr  Pr0  1  0.732526  0.499284  0.811292  1
  Tm  Tm1  1  0.266047  0.501071  0.192778  1
  Pa  Pa2  1  0.395239  0.168526  0.804954  1
  Pa  Pa3  1  0.604764  0.831768  0.194144  1
  Al  Al4  1  0.320487  0.163238  0.054719  1
  Al  Al5  1  0.146244  0.832356  0.560375  1
  Al  Al6  1  0.854434  0.167284  0.438126  1
  Al  Al7  1  0.481021  0.167523  0.557416  1
  Al  Al8  1  0.519492  0.832384  0.441196  1
  Al  Al9  1  0.214674  0.168107  0.330221  1
  Al  Al10  1  0.787002  0.832268  0.666385  1
  Al  Al11  1  0.437702  0.509457  0.668071  1
  Al  Al12  1  0.562877  0.490499  0.328857  1
  Al  Al13  1  0.108746  0.159083  0.666171  1
  Al  Al14  1  0.892717  0.840243  0.330801  1
  Al  Al15  1  0.349735  0.500707  0.946350  1
  Al  Al16  1  0.645513  0.504298  0.058110  1
  Al  Al17  1  0.016361  0.165667  0.955942  1
  Al  Al18  1  0.981332  0.831635  0.047017  1
  Al  Al19  1  0.185983  0.500419  0.440578  1
  Al  Al20  1  0.814888  0.499523  0.558008  1
  Al  Al21  1  0.736584  0.162762  0.182928  1
  Al  Al22  1  0.258759  0.841653  0.817613  1
  Al  Al23  1  0.063263  0.631093  0.817448  1
  Al  Al24  1  0.939440  0.367716  0.184190  1
  Al  Al25  1  0.852294  0.035931  0.818629  1
  Al  Al26  1  0.144003  0.959403  0.183169  1
  Zn  Zn27  1  0.685976  0.835407  0.942364  1
  Pt  Pt28  1  0.123042  0.491064  0.638396  1
  Pt  Pt29  1  0.879655  0.509755  0.359798  1
  Pt  Pt30  1  0.655744  0.179263  0.002462  1
  Pt  Pt31  1  0.336261  0.827827  0.002616  1
  Pt  Pt32  1  0.536871  0.166248  0.359953  1
  Pt  Pt33  1  0.461421  0.835435  0.638169  1
  Pt  Pt34  1  0.779143  0.173425  0.637115  1
  Pt  Pt35  1  0.223066  0.823928  0.360697  1
  Pt  Pt36  1  0.006699  0.493749  0.002948  1
