# generated using pymatgen
data_TbDyHo3Pb4
_symmetry_space_group_name_H-M   'P 1'
_cell_length_a   8.19980300
_cell_length_b   8.28172800
_cell_length_c   15.62515700
_cell_angle_alpha   90.00000000
_cell_angle_beta   90.00000000
_cell_angle_gamma   90.00000000
_symmetry_Int_Tables_number   1
_chemical_formula_structural   TbDyHo3Pb4
_chemical_formula_sum   'Tb4 Dy4 Ho12 Pb16'
_cell_volume   1061.08156945
_cell_formula_units_Z   4
loop_
 _symmetry_equiv_pos_site_id
 _symmetry_equiv_pos_as_xyz
  1  'x, y, z'
loop_
 _atom_site_type_symbol
 _atom_site_label
 _atom_site_symmetry_multiplicity
 _atom_site_fract_x
 _atom_site_fract_y
 _atom_site_fract_z
 _atom_site_occupancy
  Tb  Tb0  1  0.465838  0.677090  0.100042  1
  Tb  Tb1  1  0.965838  0.822910  0.399958  1
  Tb  Tb2  1  0.534162  0.322910  0.600042  1
  Tb  Tb3  1  0.034162  0.177090  0.899958  1
  Dy  Dy4  1  0.534208  0.322955  0.899876  1
  Dy  Dy5  1  0.034208  0.177045  0.600124  1
  Dy  Dy6  1  0.465792  0.677045  0.399876  1
  Dy  Dy7  1  0.965792  0.822955  0.100124  1
  Ho  Ho8  1  0.376693  0.840746  0.879429  1
  Ho  Ho9  1  0.876693  0.659254  0.620571  1
  Ho  Ho10  1  0.623307  0.159254  0.379429  1
  Ho  Ho11  1  0.123307  0.340746  0.120571  1
  Ho  Ho12  1  0.623334  0.159243  0.120541  1
  Ho  Ho13  1  0.123334  0.340757  0.379459  1
  Ho  Ho14  1  0.376666  0.840757  0.620541  1
  Ho  Ho15  1  0.876666  0.659243  0.879459  1
  Ho  Ho16  1  0.208333  0.504096  0.750021  1
  Ho  Ho17  1  0.708333  0.995904  0.749979  1
  Ho  Ho18  1  0.791667  0.495904  0.250021  1
  Ho  Ho19  1  0.291667  0.004096  0.249979  1
  Pb  Pb20  1  0.281730  0.033478  0.042801  1
  Pb  Pb21  1  0.781730  0.466522  0.457199  1
  Pb  Pb22  1  0.718270  0.966522  0.542801  1
  Pb  Pb23  1  0.218270  0.533478  0.957199  1
  Pb  Pb24  1  0.718135  0.966402  0.957306  1
  Pb  Pb25  1  0.218135  0.533598  0.542694  1
  Pb  Pb26  1  0.281865  0.033598  0.457306  1
  Pb  Pb27  1  0.781865  0.466402  0.042694  1
  Pb  Pb28  1  0.571767  0.627148  0.749991  1
  Pb  Pb29  1  0.071767  0.872852  0.750009  1
  Pb  Pb30  1  0.428233  0.372852  0.249991  1
  Pb  Pb31  1  0.928233  0.127148  0.250009  1
  Pb  Pb32  1  0.345070  0.151811  0.750060  1
  Pb  Pb33  1  0.845070  0.348189  0.749940  1
  Pb  Pb34  1  0.654930  0.848189  0.250060  1
  Pb  Pb35  1  0.154930  0.651811  0.249940  1
