# generated using pymatgen
data_Na2ScSi4MoO12
_symmetry_space_group_name_H-M   'P 1'
_cell_length_a   6.80580444
_cell_length_b   6.80580477
_cell_length_c   5.42202500
_cell_angle_alpha   77.35294129
_cell_angle_beta   77.35294066
_cell_angle_gamma   85.13256804
_symmetry_Int_Tables_number   1
_chemical_formula_structural   Na2ScSi4MoO12
_chemical_formula_sum   'Na2 Sc1 Si4 Mo1 O12'
_cell_volume   238.92388542
_cell_formula_units_Z   1
loop_
 _symmetry_equiv_pos_site_id
 _symmetry_equiv_pos_as_xyz
  1  'x, y, z'
loop_
 _atom_site_type_symbol
 _atom_site_label
 _atom_site_symmetry_multiplicity
 _atom_site_fract_x
 _atom_site_fract_y
 _atom_site_fract_z
 _atom_site_occupancy
  Na  Na0  1  0.300809  0.699191  0.500000  1
  Na  Na1  1  0.696488  0.303512  0.000000  1
  Sc  Sc2  1  0.894201  0.105799  0.500000  1
  Si  Si3  1  0.796387  0.620407  0.495431  1
  Si  Si4  1  0.379593  0.203613  0.504569  1
  Si  Si5  1  0.206001  0.379203  0.004444  1
  Si  Si6  1  0.620797  0.793999  0.995556  1
  Mo  Mo7  1  0.097646  0.902354  0.000000  1
  O  O8  1  0.883585  0.390507  0.558841  1
  O  O9  1  0.609493  0.116415  0.441159  1
  O  O10  1  0.115303  0.605128  0.935251  1
  O  O11  1  0.394872  0.884697  0.064749  1
  O  O12  1  0.661644  0.642136  0.268300  1
  O  O13  1  0.357864  0.338356  0.731700  1
  O  O14  1  0.342857  0.356543  0.230295  1
  O  O15  1  0.643457  0.657143  0.769705  1
  O  O16  1  0.960608  0.799278  0.403503  1
  O  O17  1  0.200722  0.039392  0.596497  1
  O  O18  1  0.038948  0.201272  0.103956  1
  O  O19  1  0.798728  0.961052  0.896044  1
