# generated using pymatgen
data_Ca2SnSbPd2
_symmetry_space_group_name_H-M   'P 1'
_cell_length_a   4.68619500
_cell_length_b   7.43949241
_cell_length_c   8.00264032
_cell_angle_alpha   91.42535633
_cell_angle_beta   90.00000000
_cell_angle_gamma   90.00000000
_symmetry_Int_Tables_number   1
_chemical_formula_structural   Ca2SnSbPd2
_chemical_formula_sum   'Ca4 Sn2 Sb2 Pd4'
_cell_volume   278.90901967
_cell_formula_units_Z   2
loop_
 _symmetry_equiv_pos_site_id
 _symmetry_equiv_pos_as_xyz
  1  'x, y, z'
loop_
 _atom_site_type_symbol
 _atom_site_label
 _atom_site_symmetry_multiplicity
 _atom_site_fract_x
 _atom_site_fract_y
 _atom_site_fract_z
 _atom_site_occupancy
  Ca  Ca0  1  0.250000  0.486347  0.205236  1
  Ca  Ca1  1  0.750000  0.513653  0.794764  1
  Ca  Ca2  1  0.750000  0.009032  0.694546  1
  Ca  Ca3  1  0.250000  0.990968  0.305454  1
  Sn  Sn4  1  0.250000  0.812622  0.912372  1
  Sn  Sn5  1  0.750000  0.187378  0.087628  1
  Sb  Sb6  1  0.750000  0.693041  0.404847  1
  Sb  Sb7  1  0.250000  0.306959  0.595153  1
  Pd  Pd8  1  0.250000  0.693610  0.584282  1
  Pd  Pd9  1  0.750000  0.306390  0.415718  1
  Pd  Pd10  1  0.750000  0.806482  0.083654  1
  Pd  Pd11  1  0.250000  0.193518  0.916346  1
