# generated using pymatgen
data_Tb6Zn20Pd3C
_symmetry_space_group_name_H-M   'P 1'
_cell_length_a   8.97333450
_cell_length_b   8.97333338
_cell_length_c   8.95738000
_cell_angle_alpha   60.05880864
_cell_angle_beta   60.05881278
_cell_angle_gamma   59.88239382
_symmetry_Int_Tables_number   1
_chemical_formula_structural   Tb6Zn20Pd3C
_chemical_formula_sum   'Tb6 Zn20 Pd3 C1'
_cell_volume   510.00093186
_cell_formula_units_Z   1
loop_
 _symmetry_equiv_pos_site_id
 _symmetry_equiv_pos_as_xyz
  1  'x, y, z'
loop_
 _atom_site_type_symbol
 _atom_site_label
 _atom_site_symmetry_multiplicity
 _atom_site_fract_x
 _atom_site_fract_y
 _atom_site_fract_z
 _atom_site_occupancy
  Tb  Tb0  1  0.696425  0.303575  0.303575  1
  Tb  Tb1  1  0.303575  0.696425  0.696425  1
  Tb  Tb2  1  0.303575  0.696425  0.303575  1
  Tb  Tb3  1  0.696425  0.303575  0.696425  1
  Tb  Tb4  1  0.299137  0.299137  0.700863  1
  Tb  Tb5  1  0.700863  0.700863  0.299137  1
  Zn  Zn6  1  0.117438  0.117438  0.124742  1
  Zn  Zn7  1  0.882562  0.882562  0.875258  1
  Zn  Zn8  1  0.117438  0.117438  0.640382  1
  Zn  Zn9  1  0.124742  0.640382  0.117438  1
  Zn  Zn10  1  0.882562  0.882562  0.359618  1
  Zn  Zn11  1  0.875258  0.359618  0.882562  1
  Zn  Zn12  1  0.640382  0.124742  0.117438  1
  Zn  Zn13  1  0.359618  0.875258  0.882562  1
  Zn  Zn14  1  0.500000  0.000000  0.000000  1
  Zn  Zn15  1  0.000000  0.500000  0.500000  1
  Zn  Zn16  1  0.000000  0.500000  0.000000  1
  Zn  Zn17  1  0.500000  0.000000  0.500000  1
  Zn  Zn18  1  0.325689  0.325689  0.329502  1
  Zn  Zn19  1  0.674311  0.674311  0.670498  1
  Zn  Zn20  1  0.325689  0.325689  0.019122  1
  Zn  Zn21  1  0.329502  0.019122  0.325689  1
  Zn  Zn22  1  0.674311  0.674311  0.980878  1
  Zn  Zn23  1  0.670498  0.980878  0.674311  1
  Zn  Zn24  1  0.019122  0.329502  0.325689  1
  Zn  Zn25  1  0.980878  0.670498  0.674311  1
  Pd  Pd26  1  0.000000  0.000000  0.500000  1
  Pd  Pd27  1  0.500000  0.500000  0.000000  1
  Pd  Pd28  1  0.000000  0.000000  0.000000  1
  C  C29  1  0.500000  0.500000  0.500000  1
