# generated using pymatgen
data_Li3La3Ir2Pd
_symmetry_space_group_name_H-M   'P 1'
_cell_length_a   7.41529300
_cell_length_b   7.41529265
_cell_length_c   4.08251000
_cell_angle_alpha   90.00000000
_cell_angle_beta   90.00000000
_cell_angle_gamma   119.99999710
_symmetry_Int_Tables_number   1
_chemical_formula_structural   Li3La3Ir2Pd
_chemical_formula_sum   'Li3 La3 Ir2 Pd1'
_cell_volume   194.40817039
_cell_formula_units_Z   1
loop_
 _symmetry_equiv_pos_site_id
 _symmetry_equiv_pos_as_xyz
  1  'x, y, z'
loop_
 _atom_site_type_symbol
 _atom_site_label
 _atom_site_symmetry_multiplicity
 _atom_site_fract_x
 _atom_site_fract_y
 _atom_site_fract_z
 _atom_site_occupancy
  Li  Li0  1  0.764458  0.764458  0.000000  1
  Li  Li1  1  0.235542  0.000000  0.000000  1
  Li  Li2  1  0.000000  0.235542  0.000000  1
  La  La3  1  0.421601  0.421601  0.500000  1
  La  La4  1  0.578399  0.000000  0.500000  1
  La  La5  1  0.000000  0.578399  0.500000  1
  Ir  Ir6  1  0.666667  0.333333  0.000000  1
  Ir  Ir7  1  0.333333  0.666667  0.000000  1
  Pd  Pd8  1  0.000000  0.000000  0.500000  1
