# generated using pymatgen
data_LaInSn5Ir4
_symmetry_space_group_name_H-M   'P 1'
_cell_length_a   7.07622785
_cell_length_b   6.98155349
_cell_length_c   7.01382440
_cell_angle_alpha   119.38824911
_cell_angle_beta   119.83919586
_cell_angle_gamma   90.79218902
_symmetry_Int_Tables_number   1
_chemical_formula_structural   LaInSn5Ir4
_chemical_formula_sum   'La1 In1 Sn5 Ir4'
_cell_volume   246.15783234
_cell_formula_units_Z   1
loop_
 _symmetry_equiv_pos_site_id
 _symmetry_equiv_pos_as_xyz
  1  'x, y, z'
loop_
 _atom_site_type_symbol
 _atom_site_label
 _atom_site_symmetry_multiplicity
 _atom_site_fract_x
 _atom_site_fract_y
 _atom_site_fract_z
 _atom_site_occupancy
  La  La0  1  0.999384  0.999371  0.000000  1
  In  In1  1  0.874644  0.531609  0.000000  1
  Sn  Sn2  1  0.534975  0.868065  0.000000  1
  Sn  Sn3  1  0.467827  0.467593  0.337961  1
  Sn  Sn4  1  0.499981  0.001725  0.502511  1
  Sn  Sn5  1  0.997470  0.499214  0.497489  1
  Sn  Sn6  1  0.129866  0.129632  0.662040  1
  Ir  Ir7  1  0.599162  0.238307  0.000000  1
  Ir  Ir8  1  0.245117  0.605604  0.000000  1
  Ir  Ir9  1  0.760585  0.764236  0.369593  1
  Ir  Ir10  1  0.390990  0.394642  0.630407  1
