# generated using pymatgen
data_Ho5Tm11In4Ir3Rh
_symmetry_space_group_name_H-M   'P 1'
_cell_length_a   9.58224920
_cell_length_b   9.56396655
_cell_length_c   9.58437903
_cell_angle_alpha   59.85662744
_cell_angle_beta   59.83086926
_cell_angle_gamma   59.79134786
_symmetry_Int_Tables_number   1
_chemical_formula_structural   Ho5Tm11In4Ir3Rh
_chemical_formula_sum   'Ho5 Tm11 In4 Ir3 Rh1'
_cell_volume   618.64062145
_cell_formula_units_Z   1
loop_
 _symmetry_equiv_pos_site_id
 _symmetry_equiv_pos_as_xyz
  1  'x, y, z'
loop_
 _atom_site_type_symbol
 _atom_site_label
 _atom_site_symmetry_multiplicity
 _atom_site_fract_x
 _atom_site_fract_y
 _atom_site_fract_z
 _atom_site_occupancy
  Ho  Ho0  1  0.060080  0.060700  0.438565  1
  Ho  Ho1  1  0.439098  0.060726  0.439028  1
  Ho  Ho2  1  0.060981  0.438809  0.061297  1
  Ho  Ho3  1  0.049612  0.649410  0.649172  1
  Ho  Ho4  1  0.437384  0.439201  0.061441  1
  Tm  Tm5  1  0.649506  0.048459  0.649096  1
  Tm  Tm6  1  0.190008  0.811495  0.189819  1
  Tm  Tm7  1  0.189933  0.189181  0.811664  1
  Tm  Tm8  1  0.809759  0.810394  0.191191  1
  Tm  Tm9  1  0.440368  0.058520  0.058308  1
  Tm  Tm10  1  0.811571  0.189318  0.189868  1
  Tm  Tm11  1  0.059927  0.440605  0.438613  1
  Tm  Tm12  1  0.810053  0.190830  0.810328  1
  Tm  Tm13  1  0.190918  0.810850  0.810462  1
  Tm  Tm14  1  0.649297  0.649226  0.048786  1
  Tm  Tm15  1  0.650773  0.652404  0.651496  1
  In  In16  1  0.416984  0.416812  0.416640  1
  In  In17  1  0.748862  0.417433  0.417487  1
  In  In18  1  0.418118  0.748965  0.416015  1
  In  In19  1  0.418203  0.416175  0.748918  1
  Ir  Ir20  1  0.858243  0.858170  0.424549  1
  Ir  Ir21  1  0.856990  0.859340  0.859614  1
  Ir  Ir22  1  0.425150  0.858542  0.859060  1
  Rh  Rh23  1  0.858179  0.424437  0.858580  1
