# generated using pymatgen
data_LaIn2Pd3
_symmetry_space_group_name_H-M   'P 1'
_cell_length_a   4.70909400
_cell_length_b   10.08764000
_cell_length_c   10.42149700
_cell_angle_alpha   90.00000000
_cell_angle_beta   90.00000000
_cell_angle_gamma   90.00000000
_symmetry_Int_Tables_number   1
_chemical_formula_structural   LaIn2Pd3
_chemical_formula_sum   'La4 In8 Pd12'
_cell_volume   495.05909384
_cell_formula_units_Z   4
loop_
 _symmetry_equiv_pos_site_id
 _symmetry_equiv_pos_as_xyz
  1  'x, y, z'
loop_
 _atom_site_type_symbol
 _atom_site_label
 _atom_site_symmetry_multiplicity
 _atom_site_fract_x
 _atom_site_fract_y
 _atom_site_fract_z
 _atom_site_occupancy
  La  La0  1  0.250000  0.442822  0.730281  1
  La  La1  1  0.250000  0.057178  0.230281  1
  La  La2  1  0.750000  0.557178  0.269719  1
  La  La3  1  0.750000  0.942822  0.769719  1
  In  In4  1  0.250000  0.882832  0.516032  1
  In  In5  1  0.250000  0.617168  0.016032  1
  In  In6  1  0.750000  0.117168  0.483968  1
  In  In7  1  0.750000  0.382832  0.983968  1
  In  In8  1  0.250000  0.158216  0.895433  1
  In  In9  1  0.250000  0.341784  0.395433  1
  In  In10  1  0.750000  0.841784  0.104567  1
  In  In11  1  0.750000  0.658216  0.604567  1
  Pd  Pd12  1  0.250000  0.145096  0.618612  1
  Pd  Pd13  1  0.250000  0.354904  0.118612  1
  Pd  Pd14  1  0.750000  0.854904  0.381388  1
  Pd  Pd15  1  0.750000  0.645096  0.881388  1
  Pd  Pd16  1  0.250000  0.736509  0.742311  1
  Pd  Pd17  1  0.250000  0.763491  0.242311  1
  Pd  Pd18  1  0.750000  0.263491  0.257689  1
  Pd  Pd19  1  0.750000  0.236509  0.757689  1
  Pd  Pd20  1  0.250000  0.894043  0.974409  1
  Pd  Pd21  1  0.250000  0.605957  0.474409  1
  Pd  Pd22  1  0.750000  0.105957  0.025591  1
  Pd  Pd23  1  0.750000  0.394043  0.525591  1
