# generated using pymatgen
data_La4Tb5LuSn8
_symmetry_space_group_name_H-M   'P 1'
_cell_length_a   8.18591100
_cell_length_b   8.39200200
_cell_length_c   15.88953600
_cell_angle_alpha   90.00000000
_cell_angle_beta   90.00000000
_cell_angle_gamma   90.00000000
_symmetry_Int_Tables_number   1
_chemical_formula_structural   La4Tb5LuSn8
_chemical_formula_sum   'La8 Tb10 Lu2 Sn16'
_cell_volume   1091.55044875
_cell_formula_units_Z   2
loop_
 _symmetry_equiv_pos_site_id
 _symmetry_equiv_pos_as_xyz
  1  'x, y, z'
loop_
 _atom_site_type_symbol
 _atom_site_label
 _atom_site_symmetry_multiplicity
 _atom_site_fract_x
 _atom_site_fract_y
 _atom_site_fract_z
 _atom_site_occupancy
  La  La0  1  0.507718  0.322047  0.903367  1
  La  La1  1  0.007718  0.177953  0.596633  1
  La  La2  1  0.492861  0.677446  0.403091  1
  La  La3  1  0.992861  0.822554  0.096909  1
  La  La4  1  0.492861  0.677446  0.096909  1
  La  La5  1  0.992861  0.822554  0.403091  1
  La  La6  1  0.507718  0.322047  0.596633  1
  La  La7  1  0.007718  0.177953  0.903367  1
  Tb  Tb8  1  0.349043  0.835367  0.876445  1
  Tb  Tb9  1  0.849043  0.664633  0.623555  1
  Tb  Tb10  1  0.651192  0.164410  0.375375  1
  Tb  Tb11  1  0.151192  0.335590  0.124625  1
  Tb  Tb12  1  0.651192  0.164410  0.124625  1
  Tb  Tb13  1  0.151192  0.335590  0.375375  1
  Tb  Tb14  1  0.349043  0.835367  0.623555  1
  Tb  Tb15  1  0.849043  0.664633  0.876445  1
  Tb  Tb16  1  0.181986  0.502064  0.750000  1
  Tb  Tb17  1  0.681986  0.997936  0.750000  1
  Lu  Lu18  1  0.816983  0.497986  0.250000  1
  Lu  Lu19  1  0.316983  0.002014  0.250000  1
  Sn  Sn20  1  0.312649  0.039994  0.043508  1
  Sn  Sn21  1  0.812649  0.460006  0.456492  1
  Sn  Sn22  1  0.687101  0.959482  0.541420  1
  Sn  Sn23  1  0.187101  0.540518  0.958580  1
  Sn  Sn24  1  0.687101  0.959482  0.958580  1
  Sn  Sn25  1  0.187101  0.540518  0.541420  1
  Sn  Sn26  1  0.312649  0.039994  0.456492  1
  Sn  Sn27  1  0.812649  0.460006  0.043508  1
  Sn  Sn28  1  0.546575  0.623154  0.750000  1
  Sn  Sn29  1  0.046575  0.876846  0.750000  1
  Sn  Sn30  1  0.454883  0.377374  0.250000  1
  Sn  Sn31  1  0.954883  0.122626  0.250000  1
  Sn  Sn32  1  0.313211  0.142839  0.750000  1
  Sn  Sn33  1  0.813211  0.357161  0.750000  1
  Sn  Sn34  1  0.685237  0.855022  0.250000  1
  Sn  Sn35  1  0.185237  0.644978  0.250000  1
