# generated using pymatgen
data_Sc2Ni2P3Ru
_symmetry_space_group_name_H-M   'P 1'
_cell_length_a   3.69677000
_cell_length_b   10.14889600
_cell_length_c   12.34001500
_cell_angle_alpha   90.00000000
_cell_angle_beta   90.00000000
_cell_angle_gamma   90.00000000
_symmetry_Int_Tables_number   1
_chemical_formula_structural   Sc2Ni2P3Ru
_chemical_formula_sum   'Sc8 Ni8 P12 Ru4'
_cell_volume   462.97433961
_cell_formula_units_Z   4
loop_
 _symmetry_equiv_pos_site_id
 _symmetry_equiv_pos_as_xyz
  1  'x, y, z'
loop_
 _atom_site_type_symbol
 _atom_site_label
 _atom_site_symmetry_multiplicity
 _atom_site_fract_x
 _atom_site_fract_y
 _atom_site_fract_z
 _atom_site_occupancy
  Sc  Sc0  1  0.250000  0.345734  0.994410  1
  Sc  Sc1  1  0.250000  0.154266  0.494410  1
  Sc  Sc2  1  0.750000  0.654266  0.005590  1
  Sc  Sc3  1  0.750000  0.845734  0.505590  1
  Sc  Sc4  1  0.250000  0.428962  0.711409  1
  Sc  Sc5  1  0.250000  0.071038  0.211409  1
  Sc  Sc6  1  0.750000  0.571038  0.288591  1
  Sc  Sc7  1  0.750000  0.928962  0.788591  1
  Ni  Ni8  1  0.250000  0.134123  0.716591  1
  Ni  Ni9  1  0.250000  0.365877  0.216591  1
  Ni  Ni10  1  0.750000  0.865877  0.283409  1
  Ni  Ni11  1  0.750000  0.634123  0.783409  1
  Ni  Ni12  1  0.250000  0.768614  0.169380  1
  Ni  Ni13  1  0.250000  0.731386  0.669380  1
  Ni  Ni14  1  0.750000  0.231386  0.830620  1
  Ni  Ni15  1  0.750000  0.268614  0.330620  1
  P  P16  1  0.250000  0.105473  0.896795  1
  P  P17  1  0.250000  0.394527  0.396795  1
  P  P18  1  0.750000  0.894527  0.103205  1
  P  P19  1  0.750000  0.605473  0.603205  1
  P  P20  1  0.250000  0.735530  0.850663  1
  P  P21  1  0.250000  0.764470  0.350663  1
  P  P22  1  0.750000  0.264470  0.149337  1
  P  P23  1  0.750000  0.235530  0.649337  1
  P  P24  1  0.250000  0.554218  0.128619  1
  P  P25  1  0.250000  0.945782  0.628619  1
  P  P26  1  0.750000  0.445782  0.871381  1
  P  P27  1  0.750000  0.054218  0.371381  1
  Ru  Ru28  1  0.250000  0.897490  0.981703  1
  Ru  Ru29  1  0.250000  0.602510  0.481703  1
  Ru  Ru30  1  0.750000  0.102510  0.018297  1
  Ru  Ru31  1  0.750000  0.397490  0.518297  1
