# generated using pymatgen
data_Ce2Ga12Co
_symmetry_space_group_name_H-M   'P 1'
_cell_length_a   6.02571700
_cell_length_b   6.02571700
_cell_length_c   15.59554600
_cell_angle_alpha   90.00000000
_cell_angle_beta   90.00000000
_cell_angle_gamma   90.00000000
_symmetry_Int_Tables_number   1
_chemical_formula_structural   Ce2Ga12Co
_chemical_formula_sum   'Ce4 Ga24 Co2'
_cell_volume   566.26281821
_cell_formula_units_Z   2
loop_
 _symmetry_equiv_pos_site_id
 _symmetry_equiv_pos_as_xyz
  1  'x, y, z'
loop_
 _atom_site_type_symbol
 _atom_site_label
 _atom_site_symmetry_multiplicity
 _atom_site_fract_x
 _atom_site_fract_y
 _atom_site_fract_z
 _atom_site_occupancy
  Ce  Ce0  1  0.000000  0.500000  0.759163  1
  Ce  Ce1  1  0.000000  0.500000  0.240837  1
  Ce  Ce2  1  0.500000  0.000000  0.240837  1
  Ce  Ce3  1  0.500000  0.000000  0.759163  1
  Ga  Ga4  1  0.672621  0.172621  0.429091  1
  Ga  Ga5  1  0.172621  0.672621  0.570909  1
  Ga  Ga6  1  0.000000  0.000000  0.340347  1
  Ga  Ga7  1  0.749756  0.750244  0.082627  1
  Ga  Ga8  1  0.749756  0.249756  0.917373  1
  Ga  Ga9  1  0.750244  0.250244  0.082627  1
  Ga  Ga10  1  0.249756  0.250244  0.917373  1
  Ga  Ga11  1  0.500000  0.500000  0.815924  1
  Ga  Ga12  1  0.827379  0.327379  0.570909  1
  Ga  Ga13  1  0.250244  0.750244  0.917373  1
  Ga  Ga14  1  0.000000  0.000000  0.815924  1
  Ga  Ga15  1  0.827379  0.672621  0.429091  1
  Ga  Ga16  1  0.327379  0.827379  0.429091  1
  Ga  Ga17  1  0.500000  0.500000  0.340347  1
  Ga  Ga18  1  0.500000  0.500000  0.184076  1
  Ga  Ga19  1  0.249756  0.749756  0.082627  1
  Ga  Ga20  1  0.672621  0.827379  0.570909  1
  Ga  Ga21  1  0.750244  0.749756  0.917373  1
  Ga  Ga22  1  0.327379  0.172621  0.570909  1
  Ga  Ga23  1  0.250244  0.249756  0.082627  1
  Ga  Ga24  1  0.500000  0.500000  0.659653  1
  Ga  Ga25  1  0.172621  0.327379  0.429091  1
  Ga  Ga26  1  0.000000  0.000000  0.184076  1
  Ga  Ga27  1  0.000000  0.000000  0.659653  1
  Co  Co28  1  0.000000  0.500000  0.000000  1
  Co  Co29  1  0.500000  0.000000  0.000000  1
