# generated using pymatgen
data_CeAs3Rh5
_symmetry_space_group_name_H-M   'P 1'
_cell_length_a   4.03575700
_cell_length_b   12.94523700
_cell_length_c   11.37591300
_cell_angle_alpha   90.00000000
_cell_angle_beta   90.00000000
_cell_angle_gamma   90.00000000
_symmetry_Int_Tables_number   1
_chemical_formula_structural   CeAs3Rh5
_chemical_formula_sum   'Ce4 As12 Rh20'
_cell_volume   594.32127442
_cell_formula_units_Z   4
loop_
 _symmetry_equiv_pos_site_id
 _symmetry_equiv_pos_as_xyz
  1  'x, y, z'
loop_
 _atom_site_type_symbol
 _atom_site_label
 _atom_site_symmetry_multiplicity
 _atom_site_fract_x
 _atom_site_fract_y
 _atom_site_fract_z
 _atom_site_occupancy
  Ce  Ce0  1  0.750000  0.701383  0.080747  1
  Ce  Ce1  1  0.250000  0.298617  0.919253  1
  Ce  Ce2  1  0.250000  0.798617  0.580747  1
  Ce  Ce3  1  0.750000  0.201383  0.419253  1
  As  As4  1  0.750000  0.614019  0.583576  1
  As  As5  1  0.250000  0.385981  0.416424  1
  As  As6  1  0.250000  0.885981  0.083576  1
  As  As7  1  0.750000  0.114019  0.916424  1
  As  As8  1  0.750000  0.890072  0.397324  1
  As  As9  1  0.250000  0.109928  0.602676  1
  As  As10  1  0.250000  0.609928  0.897324  1
  As  As11  1  0.750000  0.390072  0.102676  1
  As  As12  1  0.750000  0.869917  0.768605  1
  As  As13  1  0.250000  0.130083  0.231395  1
  As  As14  1  0.250000  0.630083  0.268605  1
  As  As15  1  0.750000  0.369917  0.731395  1
  Rh  Rh16  1  0.750000  0.700644  0.383942  1
  Rh  Rh17  1  0.250000  0.299356  0.616058  1
  Rh  Rh18  1  0.250000  0.799356  0.883942  1
  Rh  Rh19  1  0.750000  0.200644  0.116058  1
  Rh  Rh20  1  0.750000  0.995246  0.220860  1
  Rh  Rh21  1  0.250000  0.004754  0.779140  1
  Rh  Rh22  1  0.250000  0.504754  0.720860  1
  Rh  Rh23  1  0.750000  0.495246  0.279140  1
  Rh  Rh24  1  0.750000  0.676261  0.781172  1
  Rh  Rh25  1  0.250000  0.323739  0.218828  1
  Rh  Rh26  1  0.250000  0.823739  0.281172  1
  Rh  Rh27  1  0.750000  0.176261  0.718828  1
  Rh  Rh28  1  0.750000  0.929118  0.969175  1
  Rh  Rh29  1  0.250000  0.070882  0.030825  1
  Rh  Rh30  1  0.250000  0.570882  0.469175  1
  Rh  Rh31  1  0.750000  0.429118  0.530825  1
  Rh  Rh32  1  0.750000  0.978969  0.589250  1
  Rh  Rh33  1  0.250000  0.021031  0.410750  1
  Rh  Rh34  1  0.250000  0.521031  0.089250  1
  Rh  Rh35  1  0.750000  0.478968  0.910750  1
