# generated using pymatgen
data_Nd2Ta3Si7Pt9
_symmetry_space_group_name_H-M   'P 1'
_cell_length_a   9.91294100
_cell_length_b   9.91294012
_cell_length_c   4.06383500
_cell_angle_alpha   90.00000000
_cell_angle_beta   90.00000000
_cell_angle_gamma   119.99999961
_symmetry_Int_Tables_number   1
_chemical_formula_structural   Nd2Ta3Si7Pt9
_chemical_formula_sum   'Nd2 Ta3 Si7 Pt9'
_cell_volume   345.83719791
_cell_formula_units_Z   1
loop_
 _symmetry_equiv_pos_site_id
 _symmetry_equiv_pos_as_xyz
  1  'x, y, z'
loop_
 _atom_site_type_symbol
 _atom_site_label
 _atom_site_symmetry_multiplicity
 _atom_site_fract_x
 _atom_site_fract_y
 _atom_site_fract_z
 _atom_site_occupancy
  Nd  Nd0  1  0.000000  0.000000  0.000000  1
  Nd  Nd1  1  0.333333  0.666667  0.500000  1
  Ta  Ta2  1  0.879110  0.452613  0.500000  1
  Ta  Ta3  1  0.573503  0.120890  0.500000  1
  Ta  Ta4  1  0.547387  0.426497  0.500000  1
  Si  Si5  1  0.259465  0.216497  0.500000  1
  Si  Si6  1  0.783503  0.042969  0.500000  1
  Si  Si7  1  0.957031  0.740535  0.500000  1
  Si  Si8  1  0.556354  0.637428  0.000000  1
  Si  Si9  1  0.362572  0.918925  0.000000  1
  Si  Si10  1  0.081075  0.443646  0.000000  1
  Si  Si11  1  0.666667  0.333333  0.000000  1
  Pt  Pt12  1  0.228843  0.944554  0.500000  1
  Pt  Pt13  1  0.055446  0.284289  0.500000  1
  Pt  Pt14  1  0.715711  0.771157  0.500000  1
  Pt  Pt15  1  0.307324  0.406895  0.000000  1
  Pt  Pt16  1  0.593105  0.900429  0.000000  1
  Pt  Pt17  1  0.099571  0.692676  0.000000  1
  Pt  Pt18  1  0.389718  0.175985  0.000000  1
  Pt  Pt19  1  0.824015  0.213734  0.000000  1
  Pt  Pt20  1  0.786266  0.610282  0.000000  1
