# generated using pymatgen
data_ErTm5(Si2Ni)2
_symmetry_space_group_name_H-M   'P 1'
_cell_length_a   4.08898700
_cell_length_b   11.08576203
_cell_length_c   11.11544003
_cell_angle_alpha   90.00801606
_cell_angle_beta   90.00000000
_cell_angle_gamma   90.00000000
_symmetry_Int_Tables_number   1
_chemical_formula_structural   ErTm5(Si2Ni)2
_chemical_formula_sum   'Er2 Tm10 Si8 Ni4'
_cell_volume   503.85774299
_cell_formula_units_Z   2
loop_
 _symmetry_equiv_pos_site_id
 _symmetry_equiv_pos_as_xyz
  1  'x, y, z'
loop_
 _atom_site_type_symbol
 _atom_site_label
 _atom_site_symmetry_multiplicity
 _atom_site_fract_x
 _atom_site_fract_y
 _atom_site_fract_z
 _atom_site_occupancy
  Er  Er0  1  0.250000  0.374436  0.057594  1
  Er  Er1  1  0.750000  0.625564  0.942406  1
  Tm  Tm2  1  0.750000  0.875414  0.442905  1
  Tm  Tm3  1  0.250000  0.124586  0.557095  1
  Tm  Tm4  1  0.250000  0.696290  0.215289  1
  Tm  Tm5  1  0.750000  0.303710  0.784711  1
  Tm  Tm6  1  0.750000  0.195527  0.284688  1
  Tm  Tm7  1  0.250000  0.804473  0.715312  1
  Tm  Tm8  1  0.250000  0.440964  0.382788  1
  Tm  Tm9  1  0.750000  0.559036  0.617212  1
  Tm  Tm10  1  0.750000  0.940087  0.118666  1
  Tm  Tm11  1  0.250000  0.059913  0.881334  1
  Si  Si12  1  0.250000  0.687233  0.476702  1
  Si  Si13  1  0.750000  0.312767  0.523298  1
  Si  Si14  1  0.750000  0.185492  0.023319  1
  Si  Si15  1  0.250000  0.814508  0.976681  1
  Si  Si16  1  0.250000  0.003259  0.304384  1
  Si  Si17  1  0.750000  0.996741  0.695616  1
  Si  Si18  1  0.750000  0.503763  0.196560  1
  Si  Si19  1  0.250000  0.496237  0.803440  1
  Ni  Ni20  1  0.250000  0.132475  0.129321  1
  Ni  Ni21  1  0.750000  0.867525  0.870679  1
  Ni  Ni22  1  0.750000  0.635254  0.369682  1
  Ni  Ni23  1  0.250000  0.364746  0.630318  1
