# generated using pymatgen
data_Tb5SiSn3
_symmetry_space_group_name_H-M   'P 1'
_cell_length_a   9.27149400
_cell_length_b   9.27149371
_cell_length_c   6.48796400
_cell_angle_alpha   90.00000000
_cell_angle_beta   90.00000000
_cell_angle_gamma   120.00000104
_symmetry_Int_Tables_number   1
_chemical_formula_structural   Tb5SiSn3
_chemical_formula_sum   'Tb10 Si2 Sn6'
_cell_volume   482.99038828
_cell_formula_units_Z   2
loop_
 _symmetry_equiv_pos_site_id
 _symmetry_equiv_pos_as_xyz
  1  'x, y, z'
loop_
 _atom_site_type_symbol
 _atom_site_label
 _atom_site_symmetry_multiplicity
 _atom_site_fract_x
 _atom_site_fract_y
 _atom_site_fract_z
 _atom_site_occupancy
  Tb  Tb0  1  0.666667  0.333333  0.000000  1
  Tb  Tb1  1  0.333333  0.666667  0.000000  1
  Tb  Tb2  1  0.333333  0.666667  0.500000  1
  Tb  Tb3  1  0.666667  0.333333  0.500000  1
  Tb  Tb4  1  0.747306  0.747306  0.750000  1
  Tb  Tb5  1  0.252694  0.000000  0.750000  1
  Tb  Tb6  1  0.000000  0.252694  0.750000  1
  Tb  Tb7  1  0.252694  0.252694  0.250000  1
  Tb  Tb8  1  0.747306  0.000000  0.250000  1
  Tb  Tb9  1  0.000000  0.747306  0.250000  1
  Si  Si10  1  0.000000  0.000000  0.000000  1
  Si  Si11  1  0.000000  0.000000  0.500000  1
  Sn  Sn12  1  0.391642  0.391642  0.750000  1
  Sn  Sn13  1  0.608358  0.000000  0.750000  1
  Sn  Sn14  1  0.000000  0.608358  0.750000  1
  Sn  Sn15  1  0.608358  0.608358  0.250000  1
  Sn  Sn16  1  0.391642  0.000000  0.250000  1
  Sn  Sn17  1  0.000000  0.391642  0.250000  1
