# generated using pymatgen
data_Rb4Li2GdInSb4
_symmetry_space_group_name_H-M   'P 1'
_cell_length_a   11.18577601
_cell_length_b   11.18577467
_cell_length_c   7.14695500
_cell_angle_alpha   90.00000000
_cell_angle_beta   90.00000000
_cell_angle_gamma   101.18056834
_symmetry_Int_Tables_number   1
_chemical_formula_structural   Rb4Li2GdInSb4
_chemical_formula_sum   'Rb8 Li4 Gd2 In2 Sb8'
_cell_volume   877.26645806
_cell_formula_units_Z   2
loop_
 _symmetry_equiv_pos_site_id
 _symmetry_equiv_pos_as_xyz
  1  'x, y, z'
loop_
 _atom_site_type_symbol
 _atom_site_label
 _atom_site_symmetry_multiplicity
 _atom_site_fract_x
 _atom_site_fract_y
 _atom_site_fract_z
 _atom_site_occupancy
  Rb  Rb0  1  0.573167  0.926833  0.750000  1
  Rb  Rb1  1  0.926833  0.573167  0.250000  1
  Rb  Rb2  1  0.422057  0.077943  0.250000  1
  Rb  Rb3  1  0.077943  0.422057  0.750000  1
  Rb  Rb4  1  0.668492  0.323522  0.774597  1
  Rb  Rb5  1  0.831508  0.176478  0.274597  1
  Rb  Rb6  1  0.323522  0.668492  0.225403  1
  Rb  Rb7  1  0.176478  0.831508  0.725403  1
  Li  Li8  1  0.618144  0.618144  0.000000  1
  Li  Li9  1  0.881856  0.881856  0.500000  1
  Li  Li10  1  0.375743  0.375743  0.000000  1
  Li  Li11  1  0.124257  0.124257  0.500000  1
  Gd  Gd12  1  0.875031  0.875031  0.000000  1
  Gd  Gd13  1  0.624969  0.624969  0.500000  1
  In  In14  1  0.130556  0.130556  0.000000  1
  In  In15  1  0.369444  0.369444  0.500000  1
  Sb  Sb16  1  0.345809  0.154191  0.750000  1
  Sb  Sb17  1  0.154191  0.345809  0.250000  1
  Sb  Sb18  1  0.652234  0.847766  0.250000  1
  Sb  Sb19  1  0.847766  0.652234  0.750000  1
  Sb  Sb20  1  0.909870  0.101709  0.759261  1
  Sb  Sb21  1  0.590130  0.398291  0.259261  1
  Sb  Sb22  1  0.101709  0.909870  0.240739  1
  Sb  Sb23  1  0.398291  0.590130  0.740739  1
