# generated using pymatgen
data_PrSc2ZnPt2
_symmetry_space_group_name_H-M   'P 1'
_cell_length_a   4.68453750
_cell_length_b   4.68453753
_cell_length_c   6.60265762
_cell_angle_alpha   89.95499560
_cell_angle_beta   90.04500242
_cell_angle_gamma   120.18940822
_symmetry_Int_Tables_number   1
_chemical_formula_structural   PrSc2ZnPt2
_chemical_formula_sum   'Pr1 Sc2 Zn1 Pt2'
_cell_volume   125.24217734
_cell_formula_units_Z   1
loop_
 _symmetry_equiv_pos_site_id
 _symmetry_equiv_pos_as_xyz
  1  'x, y, z'
loop_
 _atom_site_type_symbol
 _atom_site_label
 _atom_site_symmetry_multiplicity
 _atom_site_fract_x
 _atom_site_fract_y
 _atom_site_fract_z
 _atom_site_occupancy
  Pr  Pr0  1  0.000000  0.000000  0.500000  1
  Sc  Sc1  1  0.667352  0.332648  0.159486  1
  Sc  Sc2  1  0.332648  0.667352  0.840514  1
  Zn  Zn3  1  0.000000  0.000000  0.000000  1
  Pt  Pt4  1  0.334828  0.665172  0.243244  1
  Pt  Pt5  1  0.665172  0.334828  0.756756  1
