# generated using pymatgen
data_ErLu2In3Rh2Pb
_symmetry_space_group_name_H-M   'P 1'
_cell_length_a   7.80839761
_cell_length_b   7.81837370
_cell_length_c   3.84439600
_cell_angle_alpha   90.00000000
_cell_angle_beta   90.00000000
_cell_angle_gamma   119.91266726
_symmetry_Int_Tables_number   1
_chemical_formula_structural   ErLu2In3Rh2Pb
_chemical_formula_sum   'Er1 Lu2 In3 Rh2 Pb1'
_cell_volume   203.43169110
_cell_formula_units_Z   1
loop_
 _symmetry_equiv_pos_site_id
 _symmetry_equiv_pos_as_xyz
  1  'x, y, z'
loop_
 _atom_site_type_symbol
 _atom_site_label
 _atom_site_symmetry_multiplicity
 _atom_site_fract_x
 _atom_site_fract_y
 _atom_site_fract_z
 _atom_site_occupancy
  Er  Er0  1  0.579815  0.965581  0.500000  1
  Lu  Lu1  1  0.035772  0.615200  0.500000  1
  Lu  Lu2  1  0.384500  0.420456  0.500000  1
  In  In3  1  0.244657  0.986610  0.000000  1
  In  In4  1  0.742245  0.754325  0.000000  1
  In  In5  1  0.013460  0.258455  0.000000  1
  Rh  Rh6  1  0.332024  0.665048  0.000000  1
  Rh  Rh7  1  0.000626  0.999972  0.500000  1
  Pb  Pb8  1  0.666902  0.334353  0.000000  1
