# generated using pymatgen
data_TbY4Ni16(As4Pd)3
_symmetry_space_group_name_H-M   'P 1'
_cell_length_a   12.64268200
_cell_length_b   12.64268182
_cell_length_c   3.91162600
_cell_angle_alpha   90.00000000
_cell_angle_beta   90.00000000
_cell_angle_gamma   120.00000570
_symmetry_Int_Tables_number   1
_chemical_formula_structural   TbY4Ni16(As4Pd)3
_chemical_formula_sum   'Tb1 Y4 Ni16 As12 Pd3'
_cell_volume   541.45996815
_cell_formula_units_Z   1
loop_
 _symmetry_equiv_pos_site_id
 _symmetry_equiv_pos_as_xyz
  1  'x, y, z'
loop_
 _atom_site_type_symbol
 _atom_site_label
 _atom_site_symmetry_multiplicity
 _atom_site_fract_x
 _atom_site_fract_y
 _atom_site_fract_z
 _atom_site_occupancy
  Tb  Tb0  1  0.333333  0.666667  0.000000  1
  Y  Y1  1  0.185474  0.185471  0.500000  1
  Y  Y2  1  0.814529  0.000003  0.500000  1
  Y  Y3  1  0.999997  0.814526  0.500000  1
  Y  Y4  1  0.666667  0.333333  0.000000  1
  Ni  Ni5  1  0.716715  0.716716  0.500000  1
  Ni  Ni6  1  0.283284  0.999999  0.500000  1
  Ni  Ni7  1  0.000001  0.283285  0.500000  1
  Ni  Ni8  1  0.183062  0.378103  0.000000  1
  Ni  Ni9  1  0.621897  0.804960  0.000000  1
  Ni  Ni10  1  0.195040  0.816938  0.000000  1
  Ni  Ni11  1  0.804958  0.621898  0.000000  1
  Ni  Ni12  1  0.816941  0.195042  0.000000  1
  Ni  Ni13  1  0.378102  0.183059  0.000000  1
  Ni  Ni14  1  0.360010  0.483381  0.500000  1
  Ni  Ni15  1  0.516619  0.876629  0.500000  1
  Ni  Ni16  1  0.123371  0.639990  0.500000  1
  Ni  Ni17  1  0.876630  0.516613  0.500000  1
  Ni  Ni18  1  0.639983  0.123370  0.500000  1
  Ni  Ni19  1  0.483387  0.360017  0.500000  1
  Ni  Ni20  1  0.000000  0.000000  0.000000  1
  As  As21  1  0.821784  0.821785  0.000000  1
  As  As22  1  0.178215  0.999999  0.000000  1
  As  As23  1  0.000001  0.178216  0.000000  1
  As  As24  1  0.171179  0.480254  0.500000  1
  As  As25  1  0.519746  0.690926  0.500000  1
  As  As26  1  0.309074  0.828821  0.500000  1
  As  As27  1  0.690919  0.519720  0.500000  1
  As  As28  1  0.828802  0.309081  0.500000  1
  As  As29  1  0.480280  0.171198  0.500000  1
  As  As30  1  0.361123  0.361126  0.000000  1
  As  As31  1  0.638874  0.999997  0.000000  1
  As  As32  1  0.000003  0.638877  0.000000  1
  Pd  Pd33  1  0.557097  0.557107  0.000000  1
  Pd  Pd34  1  0.442893  0.999990  0.000000  1
  Pd  Pd35  1  0.000010  0.442903  0.000000  1
