# generated using pymatgen
data_LiDy3Co7P6Rh
_symmetry_space_group_name_H-M   'P 1'
_cell_length_a   3.72073100
_cell_length_b   10.69899100
_cell_length_c   12.33160100
_cell_angle_alpha   90.00000000
_cell_angle_beta   90.00000000
_cell_angle_gamma   90.00000000
_symmetry_Int_Tables_number   1
_chemical_formula_structural   LiDy3Co7P6Rh
_chemical_formula_sum   'Li2 Dy6 Co14 P12 Rh2'
_cell_volume   490.89720477
_cell_formula_units_Z   2
loop_
 _symmetry_equiv_pos_site_id
 _symmetry_equiv_pos_as_xyz
  1  'x, y, z'
loop_
 _atom_site_type_symbol
 _atom_site_label
 _atom_site_symmetry_multiplicity
 _atom_site_fract_x
 _atom_site_fract_y
 _atom_site_fract_z
 _atom_site_occupancy
  Li  Li0  1  0.500000  0.500000  0.152443  1
  Li  Li1  1  0.000000  0.000000  0.847557  1
  Dy  Dy2  1  0.000000  0.500000  0.519302  1
  Dy  Dy3  1  0.500000  0.000000  0.480698  1
  Dy  Dy4  1  0.500000  0.816802  0.204239  1
  Dy  Dy5  1  0.500000  0.183198  0.204239  1
  Dy  Dy6  1  0.000000  0.683198  0.795761  1
  Dy  Dy7  1  0.000000  0.316802  0.795761  1
  Co  Co8  1  0.000000  0.500000  0.989874  1
  Co  Co9  1  0.500000  0.000000  0.010126  1
  Co  Co10  1  0.500000  0.331728  0.997678  1
  Co  Co11  1  0.500000  0.668272  0.997678  1
  Co  Co12  1  0.000000  0.168272  0.002322  1
  Co  Co13  1  0.000000  0.831728  0.002322  1
  Co  Co14  1  0.500000  0.298387  0.431491  1
  Co  Co15  1  0.500000  0.701613  0.431491  1
  Co  Co16  1  0.000000  0.201613  0.568509  1
  Co  Co17  1  0.000000  0.798387  0.568509  1
  Co  Co18  1  0.500000  0.879877  0.707316  1
  Co  Co19  1  0.500000  0.120123  0.707316  1
  Co  Co20  1  0.000000  0.620123  0.292684  1
  Co  Co21  1  0.000000  0.379877  0.292684  1
  P  P22  1  0.500000  0.500000  0.892554  1
  P  P23  1  0.000000  0.000000  0.107446  1
  P  P24  1  0.500000  0.500000  0.344863  1
  P  P25  1  0.000000  0.000000  0.655137  1
  P  P26  1  0.500000  0.301709  0.613994  1
  P  P27  1  0.500000  0.698291  0.613994  1
  P  P28  1  0.000000  0.198291  0.386006  1
  P  P29  1  0.000000  0.801709  0.386006  1
  P  P30  1  0.500000  0.843396  0.893249  1
  P  P31  1  0.500000  0.156604  0.893249  1
  P  P32  1  0.000000  0.656604  0.106751  1
  P  P33  1  0.000000  0.343396  0.106751  1
  Rh  Rh34  1  0.500000  0.500000  0.703388  1
  Rh  Rh35  1  0.000000  0.000000  0.296612  1
