# generated using pymatgen
data_Tb4ZnGa11Au
_symmetry_space_group_name_H-M   'P 1'
_cell_length_a   7.53894101
_cell_length_b   7.53894042
_cell_length_c   7.53894111
_cell_angle_alpha   109.46134315
_cell_angle_beta   109.49095725
_cell_angle_gamma   109.46135872
_symmetry_Int_Tables_number   1
_chemical_formula_structural   Tb4ZnGa11Au
_chemical_formula_sum   'Tb4 Zn1 Ga11 Au1'
_cell_volume   329.84439014
_cell_formula_units_Z   1
loop_
 _symmetry_equiv_pos_site_id
 _symmetry_equiv_pos_as_xyz
  1  'x, y, z'
loop_
 _atom_site_type_symbol
 _atom_site_label
 _atom_site_symmetry_multiplicity
 _atom_site_fract_x
 _atom_site_fract_y
 _atom_site_fract_z
 _atom_site_occupancy
  Tb  Tb0  1  0.500864  0.000000  0.999805  1
  Tb  Tb1  1  0.999805  0.000000  0.500864  1
  Tb  Tb2  1  0.500864  0.501059  0.500864  1
  Tb  Tb3  1  0.999805  0.498941  0.999805  1
  Zn  Zn4  1  0.305893  0.000000  0.305893  1
  Ga  Ga5  1  0.000890  0.696283  0.697173  1
  Ga  Ga6  1  0.249644  0.751481  0.498162  1
  Ga  Ga7  1  0.750003  0.500000  0.250003  1
  Ga  Ga8  1  0.498162  0.248519  0.746681  1
  Ga  Ga9  1  0.746681  0.248519  0.498162  1
  Ga  Ga10  1  0.697173  0.696283  0.000890  1
  Ga  Ga11  1  0.696330  0.000000  0.696330  1
  Ga  Ga12  1  0.250003  0.500000  0.750003  1
  Ga  Ga13  1  0.498162  0.751481  0.249644  1
  Ga  Ga14  1  0.304607  0.303717  0.000890  1
  Ga  Ga15  1  0.000890  0.303717  0.304607  1
  Au  Au16  1  0.000224  0.000000  0.000224  1
