# generated using pymatgen
data_Tb2PrAl12Ir3Ru
_symmetry_space_group_name_H-M   'P 1'
_cell_length_a   8.83278200
_cell_length_b   8.86449293
_cell_length_c   9.57704600
_cell_angle_alpha   90.00000000
_cell_angle_beta   90.00000000
_cell_angle_gamma   119.88172686
_symmetry_Int_Tables_number   1
_chemical_formula_structural   Tb2PrAl12Ir3Ru
_chemical_formula_sum   'Tb4 Pr2 Al24 Ir6 Ru2'
_cell_volume   650.17456221
_cell_formula_units_Z   2
loop_
 _symmetry_equiv_pos_site_id
 _symmetry_equiv_pos_as_xyz
  1  'x, y, z'
loop_
 _atom_site_type_symbol
 _atom_site_label
 _atom_site_symmetry_multiplicity
 _atom_site_fract_x
 _atom_site_fract_y
 _atom_site_fract_z
 _atom_site_occupancy
  Tb  Tb0  1  0.807892  0.615782  0.250000  1
  Tb  Tb1  1  0.615730  0.808538  0.750000  1
  Tb  Tb2  1  0.192807  0.808538  0.750000  1
  Tb  Tb3  1  0.192323  0.384646  0.750000  1
  Pr  Pr4  1  0.379861  0.189979  0.250000  1
  Pr  Pr5  1  0.810119  0.189979  0.250000  1
  Al  Al6  1  0.435890  0.871778  0.250000  1
  Al  Al7  1  0.126448  0.564160  0.250000  1
  Al  Al8  1  0.437713  0.564160  0.250000  1
  Al  Al9  1  0.562495  0.124991  0.750000  1
  Al  Al10  1  0.875637  0.438740  0.750000  1
  Al  Al11  1  0.563102  0.438740  0.750000  1
  Al  Al12  1  0.162162  0.834632  0.426390  1
  Al  Al13  1  0.164250  0.328501  0.427544  1
  Al  Al14  1  0.672469  0.834632  0.426390  1
  Al  Al15  1  0.837154  0.163373  0.578517  1
  Al  Al16  1  0.837102  0.674203  0.576331  1
  Al  Al17  1  0.326220  0.163373  0.578517  1
  Al  Al18  1  0.837154  0.163373  0.921483  1
  Al  Al19  1  0.837102  0.674203  0.923669  1
  Al  Al20  1  0.326220  0.163373  0.921483  1
  Al  Al21  1  0.162162  0.834632  0.073610  1
  Al  Al22  1  0.164250  0.328501  0.072456  1
  Al  Al23  1  0.672469  0.834632  0.073610  1
  Al  Al24  1  0.333639  0.667279  0.530439  1
  Al  Al25  1  0.667203  0.334405  0.476213  1
  Al  Al26  1  0.667203  0.334405  0.023787  1
  Al  Al27  1  0.333639  0.667279  0.969561  1
  Al  Al28  1  0.997217  0.994434  0.250000  1
  Al  Al29  1  0.000163  0.000325  0.750000  1
  Ir  Ir30  1  0.499287  0.998573  0.502363  1
  Ir  Ir31  1  0.001368  0.501863  0.501619  1
  Ir  Ir32  1  0.500495  0.501863  0.501619  1
  Ir  Ir33  1  0.499287  0.998573  0.997637  1
  Ir  Ir34  1  0.001368  0.501863  0.998381  1
  Ir  Ir35  1  0.500495  0.501863  0.998381  1
  Ru  Ru36  1  0.999954  0.999909  0.500631  1
  Ru  Ru37  1  0.999954  0.999909  0.999369  1
