# generated using pymatgen
data_Ti8Al15Pt2Rh5
_symmetry_space_group_name_H-M   'P 1'
_cell_length_a   8.66670053
_cell_length_b   8.65536574
_cell_length_c   8.66670097
_cell_angle_alpha   119.91902099
_cell_angle_beta   119.85307879
_cell_angle_gamma   90.23517933
_symmetry_Int_Tables_number   1
_chemical_formula_structural   Ti8Al15Pt2Rh5
_chemical_formula_sum   'Ti8 Al15 Pt2 Rh5'
_cell_volume   460.34015021
_cell_formula_units_Z   1
loop_
 _symmetry_equiv_pos_site_id
 _symmetry_equiv_pos_as_xyz
  1  'x, y, z'
loop_
 _atom_site_type_symbol
 _atom_site_label
 _atom_site_symmetry_multiplicity
 _atom_site_fract_x
 _atom_site_fract_y
 _atom_site_fract_z
 _atom_site_occupancy
  Ti  Ti0  1  0.789608  0.289730  0.073847  1
  Ti  Ti1  1  0.215883  0.289730  0.500121  1
  Ti  Ti2  1  0.210466  0.710555  0.500089  1
  Ti  Ti3  1  0.214505  0.715354  0.924504  1
  Ti  Ti4  1  0.790851  0.715354  0.500849  1
  Ti  Ti5  1  0.784326  0.284793  0.500467  1
  Ti  Ti6  1  0.382003  0.126418  0.744415  1
  Ti  Ti7  1  0.379171  0.636031  0.256859  1
  Al  Al8  1  0.997854  0.497018  0.499164  1
  Al  Al9  1  0.153618  0.344867  0.191248  1
  Al  Al10  1  0.152991  0.964439  0.811448  1
  Al  Al11  1  0.152121  0.349147  0.807692  1
  Al  Al12  1  0.541454  0.349147  0.197026  1
  Al  Al13  1  0.844939  0.652740  0.807802  1
  Al  Al14  1  0.847703  0.038716  0.191013  1
  Al  Al15  1  0.841982  0.650710  0.185028  1
  Al  Al16  1  0.465682  0.650710  0.808727  1
  Al  Al17  1  0.377200  0.123874  0.260888  1
  Al  Al18  1  0.862988  0.123874  0.746675  1
  Al  Al19  1  0.618934  0.874563  0.255628  1
  Al  Al20  1  0.621571  0.364962  0.743390  1
  Al  Al21  1  0.622774  0.875989  0.739951  1
  Al  Al22  1  0.136036  0.875989  0.253214  1
  Pt  Pt23  1  0.000366  0.999280  0.500419  1
  Pt  Pt24  1  0.498860  0.999280  0.998913  1
  Rh  Rh25  1  0.497588  0.498590  0.001002  1
  Rh  Rh26  1  0.498174  0.499617  0.498256  1
  Rh  Rh27  1  0.001361  0.499617  0.001443  1
  Rh  Rh28  1  0.999788  0.999598  0.999810  1
  Rh  Rh29  1  0.499198  0.999308  0.500110  1
