# generated using pymatgen
data_La2Fe(BRh)4
_symmetry_space_group_name_H-M   'P 1'
_cell_length_a   7.52026609
_cell_length_b   6.28392221
_cell_length_c   5.66714493
_cell_angle_alpha   77.80126576
_cell_angle_beta   54.75888648
_cell_angle_gamma   47.43983449
_symmetry_Int_Tables_number   1
_chemical_formula_structural   La2Fe(BRh)4
_chemical_formula_sum   'La2 Fe1 B4 Rh4'
_cell_volume   153.81415956
_cell_formula_units_Z   1
loop_
 _symmetry_equiv_pos_site_id
 _symmetry_equiv_pos_as_xyz
  1  'x, y, z'
loop_
 _atom_site_type_symbol
 _atom_site_label
 _atom_site_symmetry_multiplicity
 _atom_site_fract_x
 _atom_site_fract_y
 _atom_site_fract_z
 _atom_site_occupancy
  La  La0  1  0.855736  0.855736  0.144264  1
  La  La1  1  0.144264  0.144264  0.855736  1
  Fe  Fe2  1  0.750000  0.750000  0.750000  1
  B  B3  1  0.780231  0.489012  0.547073  1
  B  B4  1  0.183683  0.547073  0.489012  1
  B  B5  1  0.547073  0.183683  0.780231  1
  B  B6  1  0.489012  0.780231  0.183683  1
  Rh  Rh7  1  0.500659  0.500659  0.999341  1
  Rh  Rh8  1  0.500000  0.500000  0.500000  1
  Rh  Rh9  1  0.999341  0.999341  0.500659  1
  Rh  Rh10  1  0.250000  0.250000  0.250000  1
