# generated using pymatgen
data_Dy16AgHg3Rh4
_symmetry_space_group_name_H-M   'P 1'
_cell_length_a   9.58769792
_cell_length_b   9.58769757
_cell_length_c   9.58769800
_cell_angle_alpha   59.94374875
_cell_angle_beta   59.94374924
_cell_angle_gamma   59.94375328
_symmetry_Int_Tables_number   1
_chemical_formula_structural   Dy16AgHg3Rh4
_chemical_formula_sum   'Dy16 Ag1 Hg3 Rh4'
_cell_volume   622.40576064
_cell_formula_units_Z   1
loop_
 _symmetry_equiv_pos_site_id
 _symmetry_equiv_pos_as_xyz
  1  'x, y, z'
loop_
 _atom_site_type_symbol
 _atom_site_label
 _atom_site_symmetry_multiplicity
 _atom_site_fract_x
 _atom_site_fract_y
 _atom_site_fract_z
 _atom_site_occupancy
  Dy  Dy0  1  0.690596  0.310373  0.310373  1
  Dy  Dy1  1  0.689151  0.689151  0.312060  1
  Dy  Dy2  1  0.310373  0.690596  0.310373  1
  Dy  Dy3  1  0.937189  0.937189  0.563785  1
  Dy  Dy4  1  0.147864  0.147864  0.554038  1
  Dy  Dy5  1  0.563533  0.936869  0.563533  1
  Dy  Dy6  1  0.149292  0.149292  0.149292  1
  Dy  Dy7  1  0.310373  0.310373  0.690596  1
  Dy  Dy8  1  0.936869  0.563533  0.563533  1
  Dy  Dy9  1  0.563533  0.563533  0.936869  1
  Dy  Dy10  1  0.563785  0.937189  0.937189  1
  Dy  Dy11  1  0.937189  0.563785  0.937189  1
  Dy  Dy12  1  0.147864  0.554038  0.147864  1
  Dy  Dy13  1  0.312060  0.689151  0.689151  1
  Dy  Dy14  1  0.689151  0.312060  0.689151  1
  Dy  Dy15  1  0.554038  0.147864  0.147864  1
  Ag  Ag16  1  0.916867  0.916867  0.916867  1
  Hg  Hg17  1  0.914100  0.914100  0.254697  1
  Hg  Hg18  1  0.254697  0.914100  0.914100  1
  Hg  Hg19  1  0.914100  0.254697  0.914100  1
  Rh  Rh20  1  0.357424  0.357424  0.357424  1
  Rh  Rh21  1  0.927792  0.356079  0.356079  1
  Rh  Rh22  1  0.356079  0.356079  0.927792  1
  Rh  Rh23  1  0.356079  0.927792  0.356079  1
