# generated using pymatgen
data_Nd6In9S
_symmetry_space_group_name_H-M   'P 1'
_cell_length_a   8.47942229
_cell_length_b   8.47942196
_cell_length_c   8.47942200
_cell_angle_alpha   119.42988732
_cell_angle_beta   119.42989380
_cell_angle_gamma   90.99033293
_symmetry_Int_Tables_number   1
_chemical_formula_structural   Nd6In9S
_chemical_formula_sum   'Nd6 In9 S1'
_cell_volume   434.75030340
_cell_formula_units_Z   1
loop_
 _symmetry_equiv_pos_site_id
 _symmetry_equiv_pos_as_xyz
  1  'x, y, z'
loop_
 _atom_site_type_symbol
 _atom_site_label
 _atom_site_symmetry_multiplicity
 _atom_site_fract_x
 _atom_site_fract_y
 _atom_site_fract_z
 _atom_site_occupancy
  Nd  Nd0  1  0.769345  0.769345  0.000000  1
  Nd  Nd1  1  0.230655  0.230655  0.000000  1
  Nd  Nd2  1  0.322147  0.853775  0.175921  1
  Nd  Nd3  1  0.677853  0.146225  0.824079  1
  Nd  Nd4  1  0.853775  0.677853  0.531628  1
  Nd  Nd5  1  0.146225  0.322147  0.468372  1
  In  In6  1  0.974022  0.452799  0.789398  1
  In  In7  1  0.663401  0.184624  0.210602  1
  In  In8  1  0.452799  0.663401  0.478777  1
  In  In9  1  0.184624  0.974022  0.521223  1
  In  In10  1  0.025978  0.547201  0.210602  1
  In  In11  1  0.336599  0.815376  0.789398  1
  In  In12  1  0.547201  0.336599  0.521223  1
  In  In13  1  0.815376  0.025978  0.478777  1
  In  In14  1  0.500000  0.500000  0.000000  1
  S  S15  1  0.000000  0.000000  0.000000  1
