# generated using pymatgen
data_RbLa(SbAu)2
_symmetry_space_group_name_H-M   'P 1'
_cell_length_a   4.70940300
_cell_length_b   4.70940270
_cell_length_c   19.91950900
_cell_angle_alpha   90.00000000
_cell_angle_beta   90.00000000
_cell_angle_gamma   120.00000913
_symmetry_Int_Tables_number   1
_chemical_formula_structural   RbLa(SbAu)2
_chemical_formula_sum   'Rb2 La2 Sb4 Au4'
_cell_volume   382.59642317
_cell_formula_units_Z   2
loop_
 _symmetry_equiv_pos_site_id
 _symmetry_equiv_pos_as_xyz
  1  'x, y, z'
loop_
 _atom_site_type_symbol
 _atom_site_label
 _atom_site_symmetry_multiplicity
 _atom_site_fract_x
 _atom_site_fract_y
 _atom_site_fract_z
 _atom_site_occupancy
  Rb  Rb0  1  0.000000  0.000000  0.500000  1
  Rb  Rb1  1  0.000000  0.000000  0.000000  1
  La  La2  1  0.000000  0.000000  0.250000  1
  La  La3  1  0.000000  0.000000  0.750000  1
  Sb  Sb4  1  0.333333  0.666667  0.362233  1
  Sb  Sb5  1  0.666667  0.333333  0.637767  1
  Sb  Sb6  1  0.666667  0.333333  0.862233  1
  Sb  Sb7  1  0.333333  0.666667  0.137767  1
  Au  Au8  1  0.666667  0.333333  0.341800  1
  Au  Au9  1  0.333333  0.666667  0.658200  1
  Au  Au10  1  0.333333  0.666667  0.841800  1
  Au  Au11  1  0.666667  0.333333  0.158200  1
