# generated using pymatgen
data_Er3Lu5B24RhW3
_symmetry_space_group_name_H-M   'P 1'
_cell_length_a   3.57080000
_cell_length_b   9.18156807
_cell_length_c   11.57709200
_cell_angle_alpha   90.16791504
_cell_angle_beta   90.00000000
_cell_angle_gamma   90.00000000
_symmetry_Int_Tables_number   1
_chemical_formula_structural   Er3Lu5B24RhW3
_chemical_formula_sum   'Er3 Lu5 B24 Rh1 W3'
_cell_volume   379.55962090
_cell_formula_units_Z   1
loop_
 _symmetry_equiv_pos_site_id
 _symmetry_equiv_pos_as_xyz
  1  'x, y, z'
loop_
 _atom_site_type_symbol
 _atom_site_label
 _atom_site_symmetry_multiplicity
 _atom_site_fract_x
 _atom_site_fract_y
 _atom_site_fract_z
 _atom_site_occupancy
  Er  Er0  1  0.500000  0.317972  0.414476  1
  Er  Er1  1  0.500000  0.679648  0.588366  1
  Er  Er2  1  0.500000  0.179194  0.912809  1
  Lu  Lu3  1  0.500000  0.823933  0.082724  1
  Lu  Lu4  1  0.500000  0.444853  0.129035  1
  Lu  Lu5  1  0.500000  0.556172  0.873364  1
  Lu  Lu6  1  0.500000  0.054044  0.626798  1
  Lu  Lu7  1  0.500000  0.941877  0.371291  1
  B  B8  1  0.000000  0.098552  0.471522  1
  B  B9  1  0.000000  0.895720  0.526476  1
  B  B10  1  0.000000  0.399949  0.973194  1
  B  B11  1  0.000000  0.603251  0.030325  1
  B  B12  1  0.000000  0.130093  0.318558  1
  B  B13  1  0.000000  0.868307  0.682350  1
  B  B14  1  0.000000  0.369967  0.817050  1
  B  B15  1  0.000000  0.632519  0.183534  1
  B  B16  1  0.000000  0.051286  0.065386  1
  B  B17  1  0.000000  0.948681  0.935491  1
  B  B18  1  0.000000  0.449162  0.563239  1
  B  B19  1  0.000000  0.555280  0.432860  1
  B  B20  1  0.000000  0.483618  0.287998  1
  B  B21  1  0.000000  0.522298  0.713365  1
  B  B22  1  0.000000  0.021590  0.785805  1
  B  B23  1  0.000000  0.976357  0.212578  1
  B  B24  1  0.000000  0.253434  0.079265  1
  B  B25  1  0.000000  0.748262  0.923143  1
  B  B26  1  0.000000  0.245981  0.577430  1
  B  B27  1  0.000000  0.749588  0.419793  1
  B  B28  1  0.000000  0.297177  0.237781  1
  B  B29  1  0.000000  0.704144  0.764795  1
  B  B30  1  0.000000  0.204499  0.735367  1
  B  B31  1  0.000000  0.791419  0.264032  1
  Rh  Rh32  1  0.500000  0.639630  0.319896  1
  W  W33  1  0.500000  0.139598  0.181225  1
  W  W34  1  0.500000  0.860829  0.820497  1
  W  W35  1  0.500000  0.361114  0.678184  1
