# generated using pymatgen
data_Li4LaNd(ScSn2)2
_symmetry_space_group_name_H-M   'P 1'
_cell_length_a   4.66876000
_cell_length_b   7.41624676
_cell_length_c   8.07142939
_cell_angle_alpha   90.01770074
_cell_angle_beta   90.00000000
_cell_angle_gamma   90.00000000
_symmetry_Int_Tables_number   1
_chemical_formula_structural   Li4LaNd(ScSn2)2
_chemical_formula_sum   'Li4 La1 Nd1 Sc2 Sn4'
_cell_volume   279.47061612
_cell_formula_units_Z   1
loop_
 _symmetry_equiv_pos_site_id
 _symmetry_equiv_pos_as_xyz
  1  'x, y, z'
loop_
 _atom_site_type_symbol
 _atom_site_label
 _atom_site_symmetry_multiplicity
 _atom_site_fract_x
 _atom_site_fract_y
 _atom_site_fract_z
 _atom_site_occupancy
  Li  Li0  1  0.750000  0.678012  0.417222  1
  Li  Li1  1  0.250000  0.325681  0.583920  1
  Li  Li2  1  0.750000  0.322380  0.082526  1
  Li  Li3  1  0.250000  0.673964  0.916104  1
  La  La4  1  0.250000  0.000068  0.250278  1
  Nd  Nd5  1  0.750000  0.999962  0.750034  1
  Sc  Sc6  1  0.750000  0.499984  0.749928  1
  Sc  Sc7  1  0.250000  0.500057  0.250012  1
  Sn  Sn8  1  0.750000  0.725077  0.082006  1
  Sn  Sn9  1  0.250000  0.271118  0.915265  1
  Sn  Sn10  1  0.750000  0.275047  0.417925  1
  Sn  Sn11  1  0.250000  0.728650  0.584780  1
