# generated using pymatgen
data_CeThSn5Rh3
_symmetry_space_group_name_H-M   'P 1'
_cell_length_a   13.76934111
_cell_length_b   13.76934147
_cell_length_c   7.38386700
_cell_angle_alpha   90.00000000
_cell_angle_beta   90.00000000
_cell_angle_gamma   161.10203644
_symmetry_Int_Tables_number   1
_chemical_formula_structural   CeThSn5Rh3
_chemical_formula_sum   'Ce2 Th2 Sn10 Rh6'
_cell_volume   453.41868128
_cell_formula_units_Z   2
loop_
 _symmetry_equiv_pos_site_id
 _symmetry_equiv_pos_as_xyz
  1  'x, y, z'
loop_
 _atom_site_type_symbol
 _atom_site_label
 _atom_site_symmetry_multiplicity
 _atom_site_fract_x
 _atom_site_fract_y
 _atom_site_fract_z
 _atom_site_occupancy
  Ce  Ce0  1  0.172435  0.827565  0.753782  1
  Ce  Ce1  1  0.827565  0.172435  0.253782  1
  Th  Th2  1  0.474169  0.525831  0.735349  1
  Th  Th3  1  0.525831  0.474169  0.235349  1
  Sn  Sn4  1  0.877545  0.122455  0.734906  1
  Sn  Sn5  1  0.122455  0.877545  0.234906  1
  Sn  Sn6  1  0.704717  0.295283  0.049580  1
  Sn  Sn7  1  0.295283  0.704717  0.549580  1
  Sn  Sn8  1  0.597056  0.402944  0.614797  1
  Sn  Sn9  1  0.402944  0.597056  0.114797  1
  Sn  Sn10  1  0.950169  0.049831  0.393210  1
  Sn  Sn11  1  0.049831  0.950169  0.893210  1
  Sn  Sn12  1  0.288603  0.711397  0.976606  1
  Sn  Sn13  1  0.711397  0.288603  0.476606  1
  Rh  Rh14  1  0.049614  0.950386  0.512410  1
  Rh  Rh15  1  0.950386  0.049614  0.012410  1
  Rh  Rh16  1  0.777331  0.222669  0.766501  1
  Rh  Rh17  1  0.222669  0.777331  0.266501  1
  Rh  Rh18  1  0.395782  0.604218  0.490859  1
  Rh  Rh19  1  0.604218  0.395782  0.990859  1
