# generated using pymatgen
data_Be3Nb2Ge
_symmetry_space_group_name_H-M   'P 1'
_cell_length_a   4.70635800
_cell_length_b   4.70635786
_cell_length_c   7.83787300
_cell_angle_alpha   90.00000000
_cell_angle_beta   90.00000000
_cell_angle_gamma   119.99998694
_symmetry_Int_Tables_number   1
_chemical_formula_structural   Be3Nb2Ge
_chemical_formula_sum   'Be6 Nb4 Ge2'
_cell_volume   150.34840226
_cell_formula_units_Z   2
loop_
 _symmetry_equiv_pos_site_id
 _symmetry_equiv_pos_as_xyz
  1  'x, y, z'
loop_
 _atom_site_type_symbol
 _atom_site_label
 _atom_site_symmetry_multiplicity
 _atom_site_fract_x
 _atom_site_fract_y
 _atom_site_fract_z
 _atom_site_occupancy
  Be  Be0  1  0.822293  0.177707  0.250000  1
  Be  Be1  1  0.822293  0.644587  0.250000  1
  Be  Be2  1  0.355413  0.177707  0.250000  1
  Be  Be3  1  0.177707  0.822293  0.750000  1
  Be  Be4  1  0.177707  0.355413  0.750000  1
  Be  Be5  1  0.644587  0.822293  0.750000  1
  Nb  Nb6  1  0.333333  0.666667  0.433277  1
  Nb  Nb7  1  0.666667  0.333333  0.566723  1
  Nb  Nb8  1  0.666667  0.333333  0.933277  1
  Nb  Nb9  1  0.333333  0.666667  0.066723  1
  Ge  Ge10  1  0.000000  0.000000  0.500000  1
  Ge  Ge11  1  0.000000  0.000000  0.000000  1
