# generated using pymatgen
data_Tb16Hg4OsPd3
_symmetry_space_group_name_H-M   'P 1'
_cell_length_a   9.68558285
_cell_length_b   9.68558478
_cell_length_c   9.68564452
_cell_angle_alpha   59.70800610
_cell_angle_beta   59.70800029
_cell_angle_gamma   59.70398833
_symmetry_Int_Tables_number   1
_chemical_formula_structural   Tb16Hg4OsPd3
_chemical_formula_sum   'Tb16 Hg4 Os1 Pd3'
_cell_volume   638.20739606
_cell_formula_units_Z   1
loop_
 _symmetry_equiv_pos_site_id
 _symmetry_equiv_pos_as_xyz
  1  'x, y, z'
loop_
 _atom_site_type_symbol
 _atom_site_label
 _atom_site_symmetry_multiplicity
 _atom_site_fract_x
 _atom_site_fract_y
 _atom_site_fract_z
 _atom_site_occupancy
  Tb  Tb0  1  0.355244  0.355244  0.355236  1
  Tb  Tb1  1  0.352816  0.352816  0.939028  1
  Tb  Tb2  1  0.352817  0.939059  0.352810  1
  Tb  Tb3  1  0.939059  0.352817  0.352810  1
  Tb  Tb4  1  0.816851  0.188434  0.188459  1
  Tb  Tb5  1  0.187892  0.809822  0.809825  1
  Tb  Tb6  1  0.188434  0.816851  0.188459  1
  Tb  Tb7  1  0.809822  0.187892  0.809825  1
  Tb  Tb8  1  0.188440  0.188440  0.816864  1
  Tb  Tb9  1  0.809821  0.809821  0.187913  1
  Tb  Tb10  1  0.935638  0.565220  0.565233  1
  Tb  Tb11  1  0.557285  0.937704  0.937721  1
  Tb  Tb12  1  0.565220  0.935638  0.565233  1
  Tb  Tb13  1  0.937704  0.557285  0.937721  1
  Tb  Tb14  1  0.565218  0.565218  0.935634  1
  Tb  Tb15  1  0.937701  0.937701  0.557298  1
  Hg  Hg16  1  0.584585  0.584585  0.584566  1
  Hg  Hg17  1  0.585328  0.585328  0.241082  1
  Hg  Hg18  1  0.585330  0.241072  0.585330  1
  Hg  Hg19  1  0.241072  0.585330  0.585330  1
  Os  Os20  1  0.144631  0.144631  0.144620  1
  Pd  Pd21  1  0.145548  0.145548  0.567980  1
  Pd  Pd22  1  0.145562  0.567985  0.145513  1
  Pd  Pd23  1  0.567985  0.145562  0.145513  1
