# generated using pymatgen
data_Y4Ga18Co5Pt
_symmetry_space_group_name_H-M   'P 1'
_cell_length_a   7.42756563
_cell_length_b   7.42756284
_cell_length_c   9.44131700
_cell_angle_alpha   89.87863363
_cell_angle_beta   89.87863415
_cell_angle_gamma   119.74232519
_symmetry_Int_Tables_number   1
_chemical_formula_structural   Y4Ga18Co5Pt
_chemical_formula_sum   'Y4 Ga18 Co5 Pt1'
_cell_volume   452.24521216
_cell_formula_units_Z   1
loop_
 _symmetry_equiv_pos_site_id
 _symmetry_equiv_pos_as_xyz
  1  'x, y, z'
loop_
 _atom_site_type_symbol
 _atom_site_label
 _atom_site_symmetry_multiplicity
 _atom_site_fract_x
 _atom_site_fract_y
 _atom_site_fract_z
 _atom_site_occupancy
  Y  Y0  1  0.328238  0.002990  0.748804  1
  Y  Y1  1  0.002990  0.328238  0.748804  1
  Y  Y2  1  0.671762  0.997010  0.251196  1
  Y  Y3  1  0.997010  0.671762  0.251196  1
  Ga  Ga4  1  0.655589  0.000472  0.923934  1
  Ga  Ga5  1  0.335201  0.998340  0.428299  1
  Ga  Ga6  1  0.998340  0.335201  0.428298  1
  Ga  Ga7  1  0.344411  0.999528  0.076066  1
  Ga  Ga8  1  0.000472  0.655589  0.923934  1
  Ga  Ga9  1  0.999528  0.344411  0.076066  1
  Ga  Ga10  1  0.333518  0.333518  0.557501  1
  Ga  Ga11  1  0.343738  0.343738  0.937482  1
  Ga  Ga12  1  0.656262  0.656262  0.062518  1
  Ga  Ga13  1  0.666482  0.666482  0.442499  1
  Ga  Ga14  1  0.870276  0.870276  0.741116  1
  Ga  Ga15  1  0.129724  0.129724  0.258884  1
  Ga  Ga16  1  0.335587  0.552369  0.251417  1
  Ga  Ga17  1  0.552369  0.335587  0.251417  1
  Ga  Ga18  1  0.664413  0.447631  0.748583  1
  Ga  Ga19  1  0.447631  0.664413  0.748583  1
  Ga  Ga20  1  0.664799  0.001660  0.571702  1
  Ga  Ga21  1  0.001660  0.664799  0.571701  1
  Co  Co22  1  0.329561  0.670439  0.000000  1
  Co  Co23  1  0.670751  0.329249  0.500000  1
  Co  Co24  1  0.670439  0.329561  0.000000  1
  Co  Co25  1  0.329249  0.670751  0.500000  1
  Co  Co26  1  0.000000  0.000000  0.500000  1
  Pt  Pt27  1  0.000000  0.000000  0.000000  1
