# generated using pymatgen
data_Ce8Cr(Si4Pt)3
_symmetry_space_group_name_H-M   'P 1'
_cell_length_a   8.22781500
_cell_length_b   8.22781578
_cell_length_c   8.36566500
_cell_angle_alpha   90.00000000
_cell_angle_beta   90.00000000
_cell_angle_gamma   119.99999283
_symmetry_Int_Tables_number   1
_chemical_formula_structural   Ce8Cr(Si4Pt)3
_chemical_formula_sum   'Ce8 Cr1 Si12 Pt3'
_cell_volume   490.45617871
_cell_formula_units_Z   1
loop_
 _symmetry_equiv_pos_site_id
 _symmetry_equiv_pos_as_xyz
  1  'x, y, z'
loop_
 _atom_site_type_symbol
 _atom_site_label
 _atom_site_symmetry_multiplicity
 _atom_site_fract_x
 _atom_site_fract_y
 _atom_site_fract_z
 _atom_site_occupancy
  Ce  Ce0  1  0.000000  0.000000  0.250004  1
  Ce  Ce1  1  0.000000  0.000000  0.749773  1
  Ce  Ce2  1  0.497287  0.502713  0.256651  1
  Ce  Ce3  1  0.497287  0.994572  0.256651  1
  Ce  Ce4  1  0.005428  0.502713  0.256651  1
  Ce  Ce5  1  0.497612  0.502388  0.743730  1
  Ce  Ce6  1  0.497612  0.995223  0.743730  1
  Ce  Ce7  1  0.004777  0.502388  0.743730  1
  Cr  Cr8  1  0.333333  0.666667  0.497642  1
  Si  Si9  1  0.167595  0.832405  0.499674  1
  Si  Si10  1  0.167595  0.335190  0.499674  1
  Si  Si11  1  0.664810  0.832405  0.499674  1
  Si  Si12  1  0.836136  0.163864  0.498977  1
  Si  Si13  1  0.836136  0.672271  0.498977  1
  Si  Si14  1  0.327729  0.163864  0.498977  1
  Si  Si15  1  0.834671  0.165329  0.001549  1
  Si  Si16  1  0.834671  0.669340  0.001549  1
  Si  Si17  1  0.330660  0.165329  0.001549  1
  Si  Si18  1  0.164523  0.835477  0.000017  1
  Si  Si19  1  0.164523  0.329047  0.000017  1
  Si  Si20  1  0.670953  0.835477  0.000017  1
  Pt  Pt21  1  0.666667  0.333333  0.500452  1
  Pt  Pt22  1  0.666667  0.333333  0.999674  1
  Pt  Pt23  1  0.333333  0.666667  0.000661  1
