# generated using pymatgen
data_Ca2Ga6Co3Ni
_symmetry_space_group_name_H-M   'P 1'
_cell_length_a   5.25260820
_cell_length_b   6.25832377
_cell_length_c   6.25832437
_cell_angle_alpha   76.47696847
_cell_angle_beta   90.01913401
_cell_angle_gamma   89.98087258
_symmetry_Int_Tables_number   1
_chemical_formula_structural   Ca2Ga6Co3Ni
_chemical_formula_sum   'Ca2 Ga6 Co3 Ni1'
_cell_volume   200.02330872
_cell_formula_units_Z   1
loop_
 _symmetry_equiv_pos_site_id
 _symmetry_equiv_pos_as_xyz
  1  'x, y, z'
loop_
 _atom_site_type_symbol
 _atom_site_label
 _atom_site_symmetry_multiplicity
 _atom_site_fract_x
 _atom_site_fract_y
 _atom_site_fract_z
 _atom_site_occupancy
  Ca  Ca0  1  0.750163  0.342094  0.658001  1
  Ca  Ca1  1  0.249837  0.658001  0.342094  1
  Ga  Ga2  1  0.751811  0.947005  0.052516  1
  Ga  Ga3  1  0.248189  0.052516  0.947005  1
  Ga  Ga4  1  0.753371  0.528563  0.082415  1
  Ga  Ga5  1  0.246629  0.082415  0.528563  1
  Ga  Ga6  1  0.248362  0.474558  0.912140  1
  Ga  Ga7  1  0.751638  0.912140  0.474558  1
  Co  Co8  1  0.000000  0.203632  0.203632  1
  Co  Co9  1  0.500000  0.797167  0.797167  1
  Co  Co10  1  0.000000  0.795876  0.795876  1
  Ni  Ni11  1  0.500000  0.206033  0.206033  1
