# generated using pymatgen
data_La8InGa7Rh8
_symmetry_space_group_name_H-M   'P 1'
_cell_length_a   4.18652000
_cell_length_b   7.46692628
_cell_length_c   16.44622327
_cell_angle_alpha   89.67238698
_cell_angle_beta   90.00000000
_cell_angle_gamma   90.00000000
_symmetry_Int_Tables_number   1
_chemical_formula_structural   La8InGa7Rh8
_chemical_formula_sum   'La8 In1 Ga7 Rh8'
_cell_volume   514.10770895
_cell_formula_units_Z   1
loop_
 _symmetry_equiv_pos_site_id
 _symmetry_equiv_pos_as_xyz
  1  'x, y, z'
loop_
 _atom_site_type_symbol
 _atom_site_label
 _atom_site_symmetry_multiplicity
 _atom_site_fract_x
 _atom_site_fract_y
 _atom_site_fract_z
 _atom_site_occupancy
  La  La0  1  0.750000  0.324382  0.441696  1
  La  La1  1  0.250000  0.046207  0.718174  1
  La  La2  1  0.250000  0.545791  0.782820  1
  La  La3  1  0.250000  0.669469  0.561888  1
  La  La4  1  0.750000  0.831614  0.059523  1
  La  La5  1  0.250000  0.168413  0.939706  1
  La  La6  1  0.750000  0.448314  0.212601  1
  La  La7  1  0.750000  0.959374  0.281201  1
  In  In8  1  0.250000  0.624474  0.348437  1
  Ga  Ga9  1  0.250000  0.125205  0.149301  1
  Ga  Ga10  1  0.250000  0.002306  0.439188  1
  Ga  Ga11  1  0.750000  0.873340  0.850076  1
  Ga  Ga12  1  0.750000  0.999630  0.563788  1
  Ga  Ga13  1  0.250000  0.501693  0.060201  1
  Ga  Ga14  1  0.750000  0.373294  0.650611  1
  Ga  Ga15  1  0.750000  0.498650  0.938485  1
  Rh  Rh16  1  0.750000  0.252237  0.817647  1
  Rh  Rh17  1  0.250000  0.240274  0.316115  1
  Rh  Rh18  1  0.250000  0.733830  0.929549  1
  Rh  Rh19  1  0.250000  0.233985  0.570860  1
  Rh  Rh20  1  0.250000  0.752262  0.178755  1
  Rh  Rh21  1  0.750000  0.778901  0.436765  1
  Rh  Rh22  1  0.750000  0.266194  0.069485  1
  Rh  Rh23  1  0.750000  0.750159  0.683126  1
