# generated using pymatgen
data_Tb3ScSb10
_symmetry_space_group_name_H-M   'P 1'
_cell_length_a   13.19787587
_cell_length_b   4.21816900
_cell_length_c   14.48625437
_cell_angle_alpha   90.00000000
_cell_angle_beta   101.28460663
_cell_angle_gamma   90.00000000
_symmetry_Int_Tables_number   1
_chemical_formula_structural   Tb3ScSb10
_chemical_formula_sum   'Tb6 Sc2 Sb20'
_cell_volume   790.87127409
_cell_formula_units_Z   2
loop_
 _symmetry_equiv_pos_site_id
 _symmetry_equiv_pos_as_xyz
  1  'x, y, z'
loop_
 _atom_site_type_symbol
 _atom_site_label
 _atom_site_symmetry_multiplicity
 _atom_site_fract_x
 _atom_site_fract_y
 _atom_site_fract_z
 _atom_site_occupancy
  Tb  Tb0  1  0.667628  0.749998  0.424499  1
  Tb  Tb1  1  0.332373  0.249999  0.575501  1
  Tb  Tb2  1  0.660398  0.749998  0.143056  1
  Tb  Tb3  1  0.339602  0.249999  0.856945  1
  Tb  Tb4  1  0.951940  0.749998  0.642172  1
  Tb  Tb5  1  0.048060  0.249999  0.357827  1
  Sc  Sc6  1  0.394469  0.749998  0.229779  1
  Sc  Sc7  1  0.605531  0.249999  0.770221  1
  Sb  Sb8  1  0.152447  0.749998  0.830592  1
  Sb  Sb9  1  0.847553  0.249999  0.169409  1
  Sb  Sb10  1  0.144486  0.749998  0.517723  1
  Sb  Sb11  1  0.855514  0.249999  0.482277  1
  Sb  Sb12  1  0.148253  0.749998  0.219940  1
  Sb  Sb13  1  0.851747  0.249999  0.780060  1
  Sb  Sb14  1  0.432461  0.749998  0.736243  1
  Sb  Sb15  1  0.567539  0.249999  0.263757  1
  Sb  Sb16  1  0.711573  0.749998  0.656467  1
  Sb  Sb17  1  0.288428  0.249999  0.343534  1
  Sb  Sb18  1  0.420793  0.749998  0.029339  1
  Sb  Sb19  1  0.579207  0.249999  0.970661  1
  Sb  Sb20  1  0.429263  0.749998  0.443583  1
  Sb  Sb21  1  0.570737  0.249999  0.556417  1
  Sb  Sb22  1  0.970208  0.749998  0.910995  1
  Sb  Sb23  1  0.029792  0.249999  0.089005  1
  Sb  Sb24  1  0.718475  0.749998  0.931252  1
  Sb  Sb25  1  0.281524  0.249999  0.068747  1
  Sb  Sb26  1  0.860710  0.749998  0.321443  1
  Sb  Sb27  1  0.139290  0.249999  0.678557  1
