# generated using pymatgen
data_Tb2Mn5Fe9(SiC)3
_symmetry_space_group_name_H-M   'P 1'
_cell_length_a   6.44864661
_cell_length_b   6.44788456
_cell_length_c   6.42329995
_cell_angle_alpha   83.49308443
_cell_angle_beta   83.52044328
_cell_angle_gamma   83.57851746
_symmetry_Int_Tables_number   1
_chemical_formula_structural   Tb2Mn5Fe9(SiC)3
_chemical_formula_sum   'Tb2 Mn5 Fe9 Si3 C3'
_cell_volume   262.33550104
_cell_formula_units_Z   1
loop_
 _symmetry_equiv_pos_site_id
 _symmetry_equiv_pos_as_xyz
  1  'x, y, z'
loop_
 _atom_site_type_symbol
 _atom_site_label
 _atom_site_symmetry_multiplicity
 _atom_site_fract_x
 _atom_site_fract_y
 _atom_site_fract_z
 _atom_site_occupancy
  Tb  Tb0  1  0.654199  0.653389  0.653154  1
  Tb  Tb1  1  0.346731  0.345430  0.346250  1
  Mn  Mn2  1  0.717631  0.282264  0.999686  1
  Mn  Mn3  1  0.000125  0.717627  0.280368  1
  Mn  Mn4  1  0.283753  0.998486  0.719375  1
  Mn  Mn5  1  0.281591  0.718031  0.000272  1
  Mn  Mn6  1  0.340704  0.337423  0.860851  1
  Fe  Fe7  1  0.999480  0.284145  0.715119  1
  Fe  Fe8  1  0.716903  0.999768  0.284552  1
  Fe  Fe9  1  0.861884  0.341875  0.338293  1
  Fe  Fe10  1  0.337279  0.861057  0.342884  1
  Fe  Fe11  1  0.662825  0.659161  0.137488  1
  Fe  Fe12  1  0.136591  0.663820  0.657210  1
  Fe  Fe13  1  0.659623  0.136752  0.661933  1
  Fe  Fe14  1  0.903530  0.904193  0.902856  1
  Fe  Fe15  1  0.095851  0.095950  0.098625  1
  Si  Si16  1  0.997993  0.002351  0.500610  1
  Si  Si17  1  0.500961  0.998184  0.003773  1
  Si  Si18  1  0.001138  0.499009  0.996905  1
  C  C19  1  0.500035  0.501274  0.999939  1
  C  C20  1  0.000468  0.500195  0.499155  1
  C  C21  1  0.500703  0.999613  0.500699  1
