# generated using pymatgen
data_Zr2(Ga3Ir)3
_symmetry_space_group_name_H-M   'P 1'
_cell_length_a   7.54152888
_cell_length_b   7.54152840
_cell_length_c   9.32699400
_cell_angle_alpha   90.00000000
_cell_angle_beta   90.00000000
_cell_angle_gamma   120.04798221
_symmetry_Int_Tables_number   1
_chemical_formula_structural   Zr2(Ga3Ir)3
_chemical_formula_sum   'Zr4 Ga18 Ir6'
_cell_volume   459.17783245
_cell_formula_units_Z   2
loop_
 _symmetry_equiv_pos_site_id
 _symmetry_equiv_pos_as_xyz
  1  'x, y, z'
loop_
 _atom_site_type_symbol
 _atom_site_label
 _atom_site_symmetry_multiplicity
 _atom_site_fract_x
 _atom_site_fract_y
 _atom_site_fract_z
 _atom_site_occupancy
  Zr  Zr0  1  0.995893  0.669648  0.250000  1
  Zr  Zr1  1  0.004107  0.330352  0.750000  1
  Zr  Zr2  1  0.669648  0.995893  0.250000  1
  Zr  Zr3  1  0.330352  0.004107  0.750000  1
  Ga  Ga4  1  0.124729  0.124728  0.250000  1
  Ga  Ga5  1  0.875272  0.875271  0.750000  1
  Ga  Ga6  1  0.996527  0.334175  0.080394  1
  Ga  Ga7  1  0.003473  0.665825  0.919606  1
  Ga  Ga8  1  0.003473  0.665825  0.580394  1
  Ga  Ga9  1  0.334175  0.996527  0.419606  1
  Ga  Ga10  1  0.996527  0.334175  0.419606  1
  Ga  Ga11  1  0.665825  0.003473  0.580394  1
  Ga  Ga12  1  0.665825  0.003473  0.919606  1
  Ga  Ga13  1  0.334175  0.996527  0.080394  1
  Ga  Ga14  1  0.330497  0.330497  0.569297  1
  Ga  Ga15  1  0.669503  0.669503  0.430703  1
  Ga  Ga16  1  0.669503  0.669503  0.069297  1
  Ga  Ga17  1  0.330497  0.330497  0.930703  1
  Ga  Ga18  1  0.338496  0.550407  0.250000  1
  Ga  Ga19  1  0.661504  0.449593  0.750000  1
  Ga  Ga20  1  0.550407  0.338496  0.250000  1
  Ga  Ga21  1  0.449593  0.661504  0.750000  1
  Ir  Ir22  1  0.672281  0.327719  0.000000  1
  Ir  Ir23  1  0.327719  0.672281  0.000000  1
  Ir  Ir24  1  0.327719  0.672281  0.500000  1
  Ir  Ir25  1  0.672281  0.327719  0.500000  1
  Ir  Ir26  1  0.000000  0.000000  0.000000  1
  Ir  Ir27  1  0.000000  0.000000  0.500000  1
