# generated using pymatgen
data_TbSmMn2Fe10P7
_symmetry_space_group_name_H-M   'P 1'
_cell_length_a   9.03085538
_cell_length_b   9.03872243
_cell_length_c   3.64956200
_cell_angle_alpha   90.00000000
_cell_angle_beta   90.00000000
_cell_angle_gamma   119.94077459
_symmetry_Int_Tables_number   1
_chemical_formula_structural   TbSmMn2Fe10P7
_chemical_formula_sum   'Tb1 Sm1 Mn2 Fe10 P7'
_cell_volume   258.14646972
_cell_formula_units_Z   1
loop_
 _symmetry_equiv_pos_site_id
 _symmetry_equiv_pos_as_xyz
  1  'x, y, z'
loop_
 _atom_site_type_symbol
 _atom_site_label
 _atom_site_symmetry_multiplicity
 _atom_site_fract_x
 _atom_site_fract_y
 _atom_site_fract_z
 _atom_site_occupancy
  Tb  Tb0  1  0.668875  0.334565  0.000000  1
  Sm  Sm1  1  0.331721  0.666490  0.500000  1
  Mn  Mn2  1  0.782430  0.894831  0.500000  1
  Mn  Mn3  1  0.116766  0.216656  0.500000  1
  Fe  Fe4  1  0.055509  0.633114  0.000000  1
  Fe  Fe5  1  0.575821  0.945405  0.000000  1
  Fe  Fe6  1  0.368766  0.422938  0.000000  1
  Fe  Fe7  1  0.273112  0.120053  0.000000  1
  Fe  Fe8  1  0.845950  0.726663  0.000000  1
  Fe  Fe9  1  0.879979  0.151526  0.000000  1
  Fe  Fe10  1  0.433403  0.050548  0.500000  1
  Fe  Fe11  1  0.617281  0.566060  0.500000  1
  Fe  Fe12  1  0.949375  0.383974  0.500000  1
  Fe  Fe13  1  0.096704  0.884306  0.500000  1
  P  P14  1  0.299650  0.891714  0.000000  1
  P  P15  1  0.588423  0.696323  0.000000  1
  P  P16  1  0.106670  0.411033  0.000000  1
  P  P17  1  0.407561  0.289987  0.500000  1
  P  P18  1  0.891248  0.601840  0.500000  1
  P  P19  1  0.709605  0.114593  0.500000  1
  P  P20  1  0.001151  0.997379  0.000000  1
