# generated using pymatgen
data_Ce6SmGdF30
_symmetry_space_group_name_H-M   'P 1'
_cell_length_a   8.67815383
_cell_length_b   8.67815390
_cell_length_c   8.68578600
_cell_angle_alpha   79.65888340
_cell_angle_beta   79.65888332
_cell_angle_gamma   100.27232679
_symmetry_Int_Tables_number   1
_chemical_formula_structural   Ce6SmGdF30
_chemical_formula_sum   'Ce6 Sm1 Gd1 F30'
_cell_volume   617.88785932
_cell_formula_units_Z   1
loop_
 _symmetry_equiv_pos_site_id
 _symmetry_equiv_pos_as_xyz
  1  'x, y, z'
loop_
 _atom_site_type_symbol
 _atom_site_label
 _atom_site_symmetry_multiplicity
 _atom_site_fract_x
 _atom_site_fract_y
 _atom_site_fract_z
 _atom_site_occupancy
  Ce  Ce0  1  0.750735  0.249265  0.250000  1
  Ce  Ce1  1  0.249361  0.750639  0.750000  1
  Ce  Ce2  1  0.752182  0.678195  0.674370  1
  Ce  Ce3  1  0.321805  0.247818  0.825630  1
  Ce  Ce4  1  0.247957  0.321755  0.325952  1
  Ce  Ce5  1  0.678245  0.752043  0.174048  1
  Sm  Sm6  1  0.178076  0.821924  0.250000  1
  Gd  Gd7  1  0.821616  0.178384  0.750000  1
  F  F8  1  0.467061  0.532939  0.250000  1
  F  F9  1  0.749943  0.960179  0.966961  1
  F  F10  1  0.039821  0.250057  0.533039  1
  F  F11  1  0.250414  0.040849  0.032068  1
  F  F12  1  0.959151  0.749586  0.467932  1
  F  F13  1  0.533876  0.466124  0.750000  1
  F  F14  1  0.222427  0.491997  0.778010  1
  F  F15  1  0.223671  0.725342  0.006970  1
  F  F16  1  0.989780  0.724113  0.781236  1
  F  F17  1  0.724073  0.989720  0.281236  1
  F  F18  1  0.723969  0.224341  0.507371  1
  F  F19  1  0.492108  0.221969  0.277873  1
  F  F20  1  0.778032  0.507892  0.222127  1
  F  F21  1  0.775659  0.276031  0.992629  1
  F  F22  1  0.010280  0.275927  0.218764  1
  F  F23  1  0.275887  0.010220  0.718764  1
  F  F24  1  0.274658  0.776329  0.493030  1
  F  F25  1  0.508003  0.777573  0.721990  1
  F  F26  1  0.545966  0.156038  0.816645  1
  F  F27  1  0.187600  0.059979  0.344181  1
  F  F28  1  0.651718  0.682586  0.446090  1
  F  F29  1  0.682807  0.651887  0.945867  1
  F  F30  1  0.058653  0.187238  0.845140  1
  F  F31  1  0.157540  0.545342  0.315785  1
  F  F32  1  0.454658  0.842460  0.184215  1
  F  F33  1  0.812762  0.941347  0.654860  1
  F  F34  1  0.348113  0.317193  0.554133  1
  F  F35  1  0.317414  0.348282  0.053910  1
  F  F36  1  0.940021  0.812400  0.155819  1
  F  F37  1  0.843962  0.454034  0.683355  1
