# generated using pymatgen
data_TmSc(Ni2P)4
_symmetry_space_group_name_H-M   'P 1'
_cell_length_a   3.57139000
_cell_length_b   6.99177594
_cell_length_c   6.99177527
_cell_angle_alpha   89.74681288
_cell_angle_beta   90.00000000
_cell_angle_gamma   90.00000000
_symmetry_Int_Tables_number   1
_chemical_formula_structural   TmSc(Ni2P)4
_chemical_formula_sum   'Tm1 Sc1 Ni8 P4'
_cell_volume   174.58543165
_cell_formula_units_Z   1
loop_
 _symmetry_equiv_pos_site_id
 _symmetry_equiv_pos_as_xyz
  1  'x, y, z'
loop_
 _atom_site_type_symbol
 _atom_site_label
 _atom_site_symmetry_multiplicity
 _atom_site_fract_x
 _atom_site_fract_y
 _atom_site_fract_z
 _atom_site_occupancy
  Tm  Tm0  1  0.000000  0.500000  0.500000  1
  Sc  Sc1  1  0.500000  0.000000  0.000000  1
  Ni  Ni2  1  0.500000  0.165123  0.584447  1
  Ni  Ni3  1  0.500000  0.834877  0.415553  1
  Ni  Ni4  1  0.000000  0.334197  0.083437  1
  Ni  Ni5  1  0.000000  0.665803  0.916563  1
  Ni  Ni6  1  0.500000  0.584447  0.165123  1
  Ni  Ni7  1  0.500000  0.415553  0.834877  1
  Ni  Ni8  1  0.000000  0.083437  0.334197  1
  Ni  Ni9  1  0.000000  0.916563  0.665803  1
  P  P10  1  0.500000  0.725621  0.725621  1
  P  P11  1  0.500000  0.274379  0.274379  1
  P  P12  1  0.000000  0.784487  0.215513  1
  P  P13  1  0.000000  0.215513  0.784487  1
