# generated using pymatgen
data_ErLu7Nb11Si16Mo
_symmetry_space_group_name_H-M   'P 1'
_cell_length_a   6.80519864
_cell_length_b   7.01159991
_cell_length_c   13.28646516
_cell_angle_alpha   90.02291642
_cell_angle_beta   89.94216504
_cell_angle_gamma   89.91484190
_symmetry_Int_Tables_number   1
_chemical_formula_structural   ErLu7Nb11Si16Mo
_chemical_formula_sum   'Er1 Lu7 Nb11 Si16 Mo1'
_cell_volume   633.96699675
_cell_formula_units_Z   1
loop_
 _symmetry_equiv_pos_site_id
 _symmetry_equiv_pos_as_xyz
  1  'x, y, z'
loop_
 _atom_site_type_symbol
 _atom_site_label
 _atom_site_symmetry_multiplicity
 _atom_site_fract_x
 _atom_site_fract_y
 _atom_site_fract_z
 _atom_site_occupancy
  Er  Er0  1  0.503691  0.328268  0.095530  1
  Lu  Lu1  1  0.001335  0.173082  0.404669  1
  Lu  Lu2  1  0.497019  0.672551  0.595312  1
  Lu  Lu3  1  0.998170  0.827673  0.903630  1
  Lu  Lu4  1  0.497264  0.672251  0.903075  1
  Lu  Lu5  1  0.998001  0.827250  0.595527  1
  Lu  Lu6  1  0.502589  0.327482  0.405594  1
  Lu  Lu7  1  0.003104  0.172814  0.096042  1
  Nb  Nb8  1  0.837992  0.324905  0.624485  1
  Nb  Nb9  1  0.337233  0.174209  0.873281  1
  Nb  Nb10  1  0.162888  0.675472  0.125686  1
  Nb  Nb11  1  0.661165  0.826701  0.375749  1
  Nb  Nb12  1  0.164755  0.675721  0.376581  1
  Nb  Nb13  1  0.663229  0.825461  0.125549  1
  Nb  Nb14  1  0.837001  0.324681  0.873102  1
  Nb  Nb15  1  0.662177  0.006584  0.748893  1
  Nb  Nb16  1  0.161671  0.493426  0.748967  1
  Nb  Nb17  1  0.337503  0.995164  0.250861  1
  Nb  Nb18  1  0.837965  0.506402  0.250561  1
  Si  Si19  1  0.660792  0.036172  0.542065  1
  Si  Si20  1  0.164325  0.464531  0.958686  1
  Si  Si21  1  0.335085  0.963805  0.040165  1
  Si  Si22  1  0.835533  0.535606  0.459235  1
  Si  Si23  1  0.333301  0.966431  0.462067  1
  Si  Si24  1  0.836958  0.536238  0.039910  1
  Si  Si25  1  0.664784  0.034583  0.959020  1
  Si  Si26  1  0.166778  0.459914  0.542037  1
  Si  Si27  1  0.538382  0.377960  0.747723  1
  Si  Si28  1  0.042956  0.120348  0.748403  1
  Si  Si29  1  0.460110  0.620528  0.250810  1
  Si  Si30  1  0.959688  0.879655  0.250801  1
  Si  Si31  1  0.793917  0.630756  0.749320  1
  Si  Si32  1  0.296288  0.869797  0.749051  1
  Si  Si33  1  0.204780  0.369552  0.251076  1
  Si  Si34  1  0.705000  0.131133  0.250589  1
  Mo  Mo35  1  0.336571  0.172892  0.625952  1
