# generated using pymatgen
data_Ho2Tm10ZnCo4Sn
_symmetry_space_group_name_H-M   'P 1'
_cell_length_a   8.20401972
_cell_length_b   8.18089604
_cell_length_c   8.18089645
_cell_angle_alpha   112.02418865
_cell_angle_beta   109.47335006
_cell_angle_gamma   106.85030537
_symmetry_Int_Tables_number   1
_chemical_formula_structural   Ho2Tm10ZnCo4Sn
_chemical_formula_sum   'Ho2 Tm10 Zn1 Co4 Sn1'
_cell_volume   422.37114758
_cell_formula_units_Z   1
loop_
 _symmetry_equiv_pos_site_id
 _symmetry_equiv_pos_as_xyz
  1  'x, y, z'
loop_
 _atom_site_type_symbol
 _atom_site_label
 _atom_site_symmetry_multiplicity
 _atom_site_fract_x
 _atom_site_fract_y
 _atom_site_fract_z
 _atom_site_occupancy
  Ho  Ho0  1  0.429846  0.229092  0.200754  1
  Ho  Ho1  1  0.570154  0.770908  0.799246  1
  Tm  Tm2  1  0.029099  0.229775  0.799324  1
  Tm  Tm3  1  0.970901  0.770225  0.200676  1
  Tm  Tm4  1  0.181201  0.282718  0.465196  1
  Tm  Tm5  1  0.818799  0.717282  0.534804  1
  Tm  Tm6  1  0.181201  0.716005  0.898482  1
  Tm  Tm7  1  0.818799  0.283995  0.101518  1
  Tm  Tm8  1  0.322445  0.634568  0.309535  1
  Tm  Tm9  1  0.677555  0.365432  0.690465  1
  Tm  Tm10  1  0.322445  0.012910  0.687879  1
  Tm  Tm11  1  0.677555  0.987090  0.312121  1
  Zn  Zn12  1  0.000000  0.000000  0.000000  1
  Co  Co13  1  0.345623  0.999311  0.346312  1
  Co  Co14  1  0.654377  0.000689  0.653688  1
  Co  Co15  1  0.114433  0.615459  0.498974  1
  Co  Co16  1  0.885567  0.384541  0.501026  1
  Sn  Sn17  1  0.500000  0.500000  0.000000  1
