# generated using pymatgen
data_Yb(AlBr4)2
_symmetry_space_group_name_H-M   'P 1'
_cell_length_a   7.51879600
_cell_length_b   7.75197379
_cell_length_c   14.20541453
_cell_angle_alpha   87.41658251
_cell_angle_beta   90.00000000
_cell_angle_gamma   90.00000000
_symmetry_Int_Tables_number   1
_chemical_formula_structural   Yb(AlBr4)2
_chemical_formula_sum   'Yb2 Al4 Br16'
_cell_volume   827.12832181
_cell_formula_units_Z   2
loop_
 _symmetry_equiv_pos_site_id
 _symmetry_equiv_pos_as_xyz
  1  'x, y, z'
loop_
 _atom_site_type_symbol
 _atom_site_label
 _atom_site_symmetry_multiplicity
 _atom_site_fract_x
 _atom_site_fract_y
 _atom_site_fract_z
 _atom_site_occupancy
  Yb  Yb0  1  0.753548  0.076096  0.814482  1
  Yb  Yb1  1  0.246452  0.076096  0.314482  1
  Al  Al2  1  0.932762  0.222022  0.579157  1
  Al  Al3  1  0.067238  0.222022  0.079157  1
  Al  Al4  1  0.571075  0.640759  0.777236  1
  Al  Al5  1  0.428925  0.640759  0.277236  1
  Br  Br6  1  0.421425  0.615178  0.640354  1
  Br  Br7  1  0.578575  0.615178  0.140354  1
  Br  Br8  1  0.868595  0.730849  0.760601  1
  Br  Br9  1  0.131405  0.730849  0.260601  1
  Br  Br10  1  0.938864  0.477415  0.495890  1
  Br  Br11  1  0.061136  0.477415  0.995890  1
  Br  Br12  1  0.919844  0.001417  0.000283  1
  Br  Br13  1  0.080156  0.001417  0.500283  1
  Br  Br14  1  0.642130  0.128217  0.616699  1
  Br  Br15  1  0.357870  0.128217  0.116699  1
  Br  Br16  1  0.561818  0.383243  0.872800  1
  Br  Br17  1  0.438182  0.383243  0.372800  1
  Br  Br18  1  0.445684  0.861627  0.865812  1
  Br  Br19  1  0.554316  0.861627  0.365812  1
  Br  Br20  1  0.931545  0.230577  0.228888  1
  Br  Br21  1  0.068455  0.230577  0.728888  1
