# generated using pymatgen
data_PrGdHo4Ta2O14
_symmetry_space_group_name_H-M   'P 1'
_cell_length_a   6.49916764
_cell_length_b   6.49916884
_cell_length_c   7.54639119
_cell_angle_alpha   89.88989656
_cell_angle_beta   90.11010108
_cell_angle_gamma   108.80864026
_symmetry_Int_Tables_number   1
_chemical_formula_structural   PrGdHo4Ta2O14
_chemical_formula_sum   'Pr1 Gd1 Ho4 Ta2 O14'
_cell_volume   301.73136615
_cell_formula_units_Z   1
loop_
 _symmetry_equiv_pos_site_id
 _symmetry_equiv_pos_as_xyz
  1  'x, y, z'
loop_
 _atom_site_type_symbol
 _atom_site_label
 _atom_site_symmetry_multiplicity
 _atom_site_fract_x
 _atom_site_fract_y
 _atom_site_fract_z
 _atom_site_occupancy
  Pr  Pr0  1  0.514297  0.514297  0.500000  1
  Gd  Gd1  1  0.468187  0.468187  0.000000  1
  Ho  Ho2  1  0.000142  0.534357  0.241473  1
  Ho  Ho3  1  0.998619  0.466303  0.746006  1
  Ho  Ho4  1  0.534357  0.000142  0.758527  1
  Ho  Ho5  1  0.466303  0.998619  0.253994  1
  Ta  Ta6  1  0.001474  0.001474  0.500000  1
  Ta  Ta7  1  0.997469  0.997469  0.000000  1
  O  O8  1  0.933511  0.066640  0.749691  1
  O  O9  1  0.066640  0.933511  0.250309  1
  O  O10  1  0.356549  0.643309  0.242618  1
  O  O11  1  0.643309  0.356549  0.757382  1
  O  O12  1  0.364524  0.634516  0.756994  1
  O  O13  1  0.634516  0.364524  0.243006  1
  O  O14  1  0.325966  0.077678  0.973602  1
  O  O15  1  0.675465  0.926712  0.472450  1
  O  O16  1  0.314830  0.060892  0.541001  1
  O  O17  1  0.690101  0.948459  0.041623  1
  O  O18  1  0.060892  0.314830  0.458999  1
  O  O19  1  0.948459  0.690101  0.958377  1
  O  O20  1  0.926712  0.675465  0.527550  1
  O  O21  1  0.077678  0.325966  0.026398  1
