# generated using pymatgen
data_CaNdRh4
_symmetry_space_group_name_H-M   'P 1'
_cell_length_a   5.39869524
_cell_length_b   5.39869524
_cell_length_c   5.39869400
_cell_angle_alpha   59.99999535
_cell_angle_beta   59.99999531
_cell_angle_gamma   59.99999691
_symmetry_Int_Tables_number   1
_chemical_formula_structural   CaNdRh4
_chemical_formula_sum   'Ca1 Nd1 Rh4'
_cell_volume   111.26313615
_cell_formula_units_Z   1
loop_
 _symmetry_equiv_pos_site_id
 _symmetry_equiv_pos_as_xyz
  1  'x, y, z'
loop_
 _atom_site_type_symbol
 _atom_site_label
 _atom_site_symmetry_multiplicity
 _atom_site_fract_x
 _atom_site_fract_y
 _atom_site_fract_z
 _atom_site_occupancy
  Ca  Ca0  1  0.000000  0.000000  0.000000  1
  Nd  Nd1  1  0.750000  0.750000  0.750000  1
  Rh  Rh2  1  0.374917  0.374917  0.374917  1
  Rh  Rh3  1  0.374917  0.875251  0.374917  1
  Rh  Rh4  1  0.875251  0.374917  0.374917  1
  Rh  Rh5  1  0.374917  0.374917  0.875251  1
