# generated using pymatgen
data_HoTh(Tc2Ge)4
_symmetry_space_group_name_H-M   'P 1'
_cell_length_a   7.51777774
_cell_length_b   7.51777774
_cell_length_c   4.19889300
_cell_angle_alpha   90.00000000
_cell_angle_beta   90.00000000
_cell_angle_gamma   91.26316126
_symmetry_Int_Tables_number   1
_chemical_formula_structural   HoTh(Tc2Ge)4
_chemical_formula_sum   'Ho1 Th1 Tc8 Ge4'
_cell_volume   237.25109213
_cell_formula_units_Z   1
loop_
 _symmetry_equiv_pos_site_id
 _symmetry_equiv_pos_as_xyz
  1  'x, y, z'
loop_
 _atom_site_type_symbol
 _atom_site_label
 _atom_site_symmetry_multiplicity
 _atom_site_fract_x
 _atom_site_fract_y
 _atom_site_fract_z
 _atom_site_occupancy
  Ho  Ho0  1  0.500000  0.500000  0.500000  1
  Th  Th1  1  0.000000  0.000000  0.000000  1
  Tc  Tc2  1  0.588249  0.151539  0.000000  1
  Tc  Tc3  1  0.411751  0.848461  0.000000  1
  Tc  Tc4  1  0.646679  0.902765  0.500000  1
  Tc  Tc5  1  0.097235  0.353321  0.500000  1
  Tc  Tc6  1  0.353321  0.097235  0.500000  1
  Tc  Tc7  1  0.902765  0.646679  0.500000  1
  Tc  Tc8  1  0.151539  0.588249  0.000000  1
  Tc  Tc9  1  0.848461  0.411751  0.000000  1
  Ge  Ge10  1  0.298436  0.298436  0.000000  1
  Ge  Ge11  1  0.701564  0.701564  0.000000  1
  Ge  Ge12  1  0.784604  0.215396  0.500000  1
  Ge  Ge13  1  0.215396  0.784604  0.500000  1
