# generated using pymatgen
data_DyMn2TlF14
_symmetry_space_group_name_H-M   'P 1'
_cell_length_a   5.48430800
_cell_length_b   8.86756731
_cell_length_c   11.89208600
_cell_angle_alpha   62.14240413
_cell_angle_beta   90.00000000
_cell_angle_gamma   90.00000000
_symmetry_Int_Tables_number   1
_chemical_formula_structural   DyMn2TlF14
_chemical_formula_sum   'Dy2 Mn4 Tl2 F28'
_cell_volume   511.31850352
_cell_formula_units_Z   2
loop_
 _symmetry_equiv_pos_site_id
 _symmetry_equiv_pos_as_xyz
  1  'x, y, z'
loop_
 _atom_site_type_symbol
 _atom_site_label
 _atom_site_symmetry_multiplicity
 _atom_site_fract_x
 _atom_site_fract_y
 _atom_site_fract_z
 _atom_site_occupancy
  Dy  Dy0  1  0.237072  0.190030  0.235671  1
  Dy  Dy1  1  0.737072  0.809970  0.264329  1
  Mn  Mn2  1  0.760540  0.276704  0.955142  1
  Mn  Mn3  1  0.260540  0.723296  0.544858  1
  Mn  Mn4  1  0.238771  0.725297  0.043656  1
  Mn  Mn5  1  0.738771  0.274703  0.456344  1
  Tl  Tl6  1  0.763517  0.812054  0.762289  1
  Tl  Tl7  1  0.263517  0.187946  0.737711  1
  F  F8  1  0.432286  0.704436  0.926354  1
  F  F9  1  0.932286  0.295564  0.573646  1
  F  F10  1  0.566444  0.295675  0.073713  1
  F  F11  1  0.066444  0.704325  0.426287  1
  F  F12  1  0.457327  0.283871  0.540924  1
  F  F13  1  0.957327  0.716129  0.959076  1
  F  F14  1  0.539541  0.716474  0.458910  1
  F  F15  1  0.039541  0.283526  0.041090  1
  F  F16  1  0.772722  0.514669  0.859338  1
  F  F17  1  0.272722  0.485331  0.640662  1
  F  F18  1  0.228681  0.488842  0.138394  1
  F  F19  1  0.728681  0.511158  0.361606  1
  F  F20  1  0.760029  0.043631  0.045557  1
  F  F21  1  0.260029  0.956369  0.454443  1
  F  F22  1  0.238900  0.959003  0.954830  1
  F  F23  1  0.738900  0.040997  0.545170  1
  F  F24  1  0.982885  0.726045  0.633964  1
  F  F25  1  0.482885  0.273955  0.866036  1
  F  F26  1  0.008757  0.268702  0.364406  1
  F  F27  1  0.508757  0.731298  0.135594  1
  F  F28  1  0.041969  0.742944  0.166038  1
  F  F29  1  0.541969  0.257056  0.333962  1
  F  F30  1  0.951010  0.262189  0.828371  1
  F  F31  1  0.451010  0.737811  0.671629  1
  F  F32  1  0.416934  0.974573  0.230400  1
  F  F33  1  0.916934  0.025427  0.269600  1
  F  F34  1  0.602616  0.029542  0.774979  1
  F  F35  1  0.102616  0.970458  0.725021  1
