# generated using pymatgen
data_Na5Li3P12(IrRh3)4
_symmetry_space_group_name_H-M   'P 1'
_cell_length_a   12.66428100
_cell_length_b   12.66428206
_cell_length_c   3.91076600
_cell_angle_alpha   90.00000000
_cell_angle_beta   90.00000000
_cell_angle_gamma   119.99999985
_symmetry_Int_Tables_number   1
_chemical_formula_structural   Na5Li3P12(IrRh3)4
_chemical_formula_sum   'Na5 Li3 P12 Ir4 Rh12'
_cell_volume   543.19226369
_cell_formula_units_Z   1
loop_
 _symmetry_equiv_pos_site_id
 _symmetry_equiv_pos_as_xyz
  1  'x, y, z'
loop_
 _atom_site_type_symbol
 _atom_site_label
 _atom_site_symmetry_multiplicity
 _atom_site_fract_x
 _atom_site_fract_y
 _atom_site_fract_z
 _atom_site_occupancy
  Na  Na0  1  0.333333  0.666667  0.500000  1
  Na  Na1  1  0.666667  0.333333  0.500000  1
  Na  Na2  1  0.000000  0.812699  0.000000  1
  Na  Na3  1  0.187301  0.187301  0.000000  1
  Na  Na4  1  0.812699  0.000000  0.000000  1
  Li  Li5  1  0.000000  0.439904  0.500000  1
  Li  Li6  1  0.560096  0.560096  0.500000  1
  Li  Li7  1  0.439904  0.000000  0.500000  1
  P  P8  1  0.000000  0.626623  0.500000  1
  P  P9  1  0.373377  0.373377  0.500000  1
  P  P10  1  0.626623  0.000000  0.500000  1
  P  P11  1  0.518065  0.692453  0.000000  1
  P  P12  1  0.307547  0.825612  0.000000  1
  P  P13  1  0.174388  0.481935  0.000000  1
  P  P14  1  0.481935  0.174388  0.000000  1
  P  P15  1  0.692453  0.518065  0.000000  1
  P  P16  1  0.825612  0.307547  0.000000  1
  P  P17  1  0.000000  0.180437  0.500000  1
  P  P18  1  0.819563  0.819563  0.500000  1
  P  P19  1  0.180437  0.000000  0.500000  1
  Ir  Ir20  1  0.000000  0.280808  0.000000  1
  Ir  Ir21  1  0.719192  0.719192  0.000000  1
  Ir  Ir22  1  0.280808  0.000000  0.000000  1
  Ir  Ir23  1  0.000000  0.000000  0.500000  1
  Rh  Rh24  1  0.510192  0.872985  0.000000  1
  Rh  Rh25  1  0.127015  0.637208  0.000000  1
  Rh  Rh26  1  0.362792  0.489808  0.000000  1
  Rh  Rh27  1  0.489808  0.362792  0.000000  1
  Rh  Rh28  1  0.872985  0.510192  0.000000  1
  Rh  Rh29  1  0.637208  0.127015  0.000000  1
  Rh  Rh30  1  0.622021  0.803673  0.500000  1
  Rh  Rh31  1  0.196327  0.818348  0.500000  1
  Rh  Rh32  1  0.181652  0.377979  0.500000  1
  Rh  Rh33  1  0.377979  0.181652  0.500000  1
  Rh  Rh34  1  0.803673  0.622021  0.500000  1
  Rh  Rh35  1  0.818348  0.196327  0.500000  1
