# generated using pymatgen
data_NdY5Al24Ru5Pt3
_symmetry_space_group_name_H-M   'P 1'
_cell_length_a   8.85869451
_cell_length_b   8.84855541
_cell_length_c   9.56040818
_cell_angle_alpha   90.11685565
_cell_angle_beta   89.87937453
_cell_angle_gamma   119.87024820
_symmetry_Int_Tables_number   1
_chemical_formula_structural   NdY5Al24Ru5Pt3
_chemical_formula_sum   'Nd1 Y5 Al24 Ru5 Pt3'
_cell_volume   649.85170379
_cell_formula_units_Z   1
loop_
 _symmetry_equiv_pos_site_id
 _symmetry_equiv_pos_as_xyz
  1  'x, y, z'
loop_
 _atom_site_type_symbol
 _atom_site_label
 _atom_site_symmetry_multiplicity
 _atom_site_fract_x
 _atom_site_fract_y
 _atom_site_fract_z
 _atom_site_occupancy
  Nd  Nd0  1  0.810859  0.190363  0.750645  1
  Y  Y1  1  0.194101  0.387491  0.249737  1
  Y  Y2  1  0.805213  0.612494  0.750162  1
  Y  Y3  1  0.614828  0.805435  0.251809  1
  Y  Y4  1  0.385605  0.195277  0.748219  1
  Y  Y5  1  0.190164  0.807514  0.249946  1
  Al  Al6  1  0.335758  0.664502  0.028540  1
  Al  Al7  1  0.663402  0.336340  0.975611  1
  Al  Al8  1  0.669121  0.338962  0.523529  1
  Al  Al9  1  0.330592  0.662180  0.472801  1
  Al  Al10  1  0.165901  0.328796  0.574150  1
  Al  Al11  1  0.836172  0.672839  0.423716  1
  Al  Al12  1  0.673918  0.829980  0.575851  1
  Al  Al13  1  0.831570  0.674844  0.079387  1
  Al  Al14  1  0.325007  0.168230  0.422361  1
  Al  Al15  1  0.170150  0.326280  0.922477  1
  Al  Al16  1  0.156635  0.832236  0.576396  1
  Al  Al17  1  0.324462  0.167992  0.077995  1
  Al  Al18  1  0.843549  0.168051  0.420727  1
  Al  Al19  1  0.674348  0.830015  0.924033  1
  Al  Al20  1  0.837703  0.160564  0.081970  1
  Al  Al21  1  0.162148  0.838908  0.920835  1
  Al  Al22  1  0.562286  0.126821  0.250074  1
  Al  Al23  1  0.435065  0.871220  0.750028  1
  Al  Al24  1  0.875100  0.438815  0.252955  1
  Al  Al25  1  0.126506  0.563611  0.746326  1
  Al  Al26  1  0.560275  0.439540  0.249682  1
  Al  Al27  1  0.439364  0.560707  0.750230  1
  Al  Al28  1  0.999499  0.999172  0.250273  1
  Al  Al29  1  0.002703  0.998896  0.749835  1
  Ru  Ru30  1  0.499617  0.500274  0.000392  1
  Ru  Ru31  1  0.000746  0.501352  0.498756  1
  Ru  Ru32  1  0.499732  0.500202  0.499468  1
  Ru  Ru33  1  0.000082  0.999859  0.000288  1
  Ru  Ru34  1  0.000055  0.000112  0.499832  1
  Pt  Pt35  1  0.498480  0.999312  0.000960  1
  Pt  Pt36  1  0.000604  0.501384  0.000888  1
  Pt  Pt37  1  0.498678  0.999426  0.499119  1
