# generated using pymatgen
data_Ho3Zn2B4Rh9
_symmetry_space_group_name_H-M   'P 1'
_cell_length_a   5.48026441
_cell_length_b   5.48048870
_cell_length_c   10.12411200
_cell_angle_alpha   89.99750800
_cell_angle_beta   89.99991000
_cell_angle_gamma   120.00191708
_symmetry_Int_Tables_number   1
_chemical_formula_structural   Ho3Zn2B4Rh9
_chemical_formula_sum   'Ho3 Zn2 B4 Rh9'
_cell_volume   263.32978311
_cell_formula_units_Z   1
loop_
 _symmetry_equiv_pos_site_id
 _symmetry_equiv_pos_as_xyz
  1  'x, y, z'
loop_
 _atom_site_type_symbol
 _atom_site_label
 _atom_site_symmetry_multiplicity
 _atom_site_fract_x
 _atom_site_fract_y
 _atom_site_fract_z
 _atom_site_occupancy
  Ho  Ho0  1  0.999937  0.999918  0.999996  1
  Ho  Ho1  1  0.000039  0.999976  0.339745  1
  Ho  Ho2  1  0.999963  0.000059  0.660250  1
  Zn  Zn3  1  0.333210  0.666640  0.999987  1
  Zn  Zn4  1  0.666745  0.333295  0.000027  1
  B  B5  1  0.333370  0.666595  0.346015  1
  B  B6  1  0.666668  0.333543  0.346008  1
  B  B7  1  0.666636  0.333418  0.653948  1
  B  B8  1  0.333383  0.666530  0.654031  1
  Rh  Rh9  1  0.499929  0.000151  0.499999  1
  Rh  Rh10  1  0.500051  0.500012  0.499996  1
  Rh  Rh11  1  0.999840  0.499865  0.499993  1
  Rh  Rh12  1  0.500186  0.000071  0.208502  1
  Rh  Rh13  1  0.499948  0.499901  0.208342  1
  Rh  Rh14  1  0.999980  0.500107  0.208490  1
  Rh  Rh15  1  0.499839  0.999914  0.791512  1
  Rh  Rh16  1  0.500131  0.500110  0.791660  1
  Rh  Rh17  1  0.000046  0.499895  0.791501  1
