# generated using pymatgen
data_Dy16InAg3Ir4
_symmetry_space_group_name_H-M   'P 1'
_cell_length_a   9.57690282
_cell_length_b   9.58857039
_cell_length_c   9.58857000
_cell_angle_alpha   60.00000133
_cell_angle_beta   59.95969201
_cell_angle_gamma   59.95968927
_symmetry_Int_Tables_number   1
_chemical_formula_structural   Dy16InAg3Ir4
_chemical_formula_sum   'Dy16 In1 Ag3 Ir4'
_cell_volume   622.23282324
_cell_formula_units_Z   1
loop_
 _symmetry_equiv_pos_site_id
 _symmetry_equiv_pos_as_xyz
  1  'x, y, z'
loop_
 _atom_site_type_symbol
 _atom_site_label
 _atom_site_symmetry_multiplicity
 _atom_site_fract_x
 _atom_site_fract_y
 _atom_site_fract_z
 _atom_site_occupancy
  Dy  Dy0  1  0.600054  0.601790  0.601790  1
  Dy  Dy1  1  0.600054  0.601790  0.196365  1
  Dy  Dy2  1  0.600054  0.196365  0.601790  1
  Dy  Dy3  1  0.195258  0.601581  0.601581  1
  Dy  Dy4  1  0.062792  0.437719  0.437719  1
  Dy  Dy5  1  0.439841  0.060064  0.060064  1
  Dy  Dy6  1  0.439841  0.060064  0.440031  1
  Dy  Dy7  1  0.062792  0.437719  0.061771  1
  Dy  Dy8  1  0.439841  0.440031  0.060064  1
  Dy  Dy9  1  0.062792  0.061771  0.437719  1
  Dy  Dy10  1  0.183011  0.813566  0.813566  1
  Dy  Dy11  1  0.811875  0.186800  0.186800  1
  Dy  Dy12  1  0.811875  0.186800  0.814525  1
  Dy  Dy13  1  0.183011  0.813566  0.189858  1
  Dy  Dy14  1  0.811875  0.814525  0.186800  1
  Dy  Dy15  1  0.183011  0.189858  0.813566  1
  In  In16  1  0.512354  0.829215  0.829215  1
  Ag  Ag17  1  0.833544  0.832301  0.832301  1
  Ag  Ag18  1  0.833544  0.832301  0.501855  1
  Ag  Ag19  1  0.833544  0.501855  0.832301  1
  Ir  Ir20  1  0.392489  0.392352  0.392352  1
  Ir  Ir21  1  0.392489  0.392352  0.822809  1
  Ir  Ir22  1  0.392489  0.822809  0.392352  1
  Ir  Ir23  1  0.821573  0.392809  0.392809  1
