# generated using pymatgen
data_Ho10In8PtAu3
_symmetry_space_group_name_H-M   'P 1'
_cell_length_a   3.67966100
_cell_length_b   8.13276694
_cell_length_c   18.27004332
_cell_angle_alpha   90.07901023
_cell_angle_beta   90.00000000
_cell_angle_gamma   90.00000000
_symmetry_Int_Tables_number   1
_chemical_formula_structural   Ho10In8PtAu3
_chemical_formula_sum   'Ho10 In8 Pt1 Au3'
_cell_volume   546.74560556
_cell_formula_units_Z   1
loop_
 _symmetry_equiv_pos_site_id
 _symmetry_equiv_pos_as_xyz
  1  'x, y, z'
loop_
 _atom_site_type_symbol
 _atom_site_label
 _atom_site_symmetry_multiplicity
 _atom_site_fract_x
 _atom_site_fract_y
 _atom_site_fract_z
 _atom_site_occupancy
  Ho  Ho0  1  0.000000  0.116525  0.418257  1
  Ho  Ho1  1  0.000000  0.881037  0.580077  1
  Ho  Ho2  1  0.000000  0.380871  0.920296  1
  Ho  Ho3  1  0.000000  0.615026  0.085080  1
  Ho  Ho4  1  0.000000  0.253558  0.217397  1
  Ho  Ho5  1  0.000000  0.763081  0.784149  1
  Ho  Ho6  1  0.000000  0.262832  0.716380  1
  Ho  Ho7  1  0.000000  0.729017  0.279193  1
  Ho  Ho8  1  0.000000  0.999784  0.000545  1
  Ho  Ho9  1  0.000000  0.499892  0.499559  1
  In  In10  1  0.500000  0.421166  0.352687  1
  In  In11  1  0.500000  0.580965  0.646779  1
  In  In12  1  0.500000  0.081603  0.853297  1
  In  In13  1  0.500000  0.920851  0.147352  1
  In  In14  1  0.500000  0.290924  0.066772  1
  In  In15  1  0.500000  0.708931  0.935677  1
  In  In16  1  0.500000  0.209386  0.565126  1
  In  In17  1  0.500000  0.788711  0.432847  1
  Pt  Pt18  1  0.500000  0.526374  0.196693  1
  Au  Au19  1  0.500000  0.026125  0.301461  1
  Au  Au20  1  0.500000  0.971383  0.697084  1
  Au  Au21  1  0.500000  0.471958  0.803291  1
