# generated using pymatgen
data_TbY5(NiRh8)2
_symmetry_space_group_name_H-M   'P 1'
_cell_length_a   5.25914100
_cell_length_b   5.25914273
_cell_length_c   17.30642900
_cell_angle_alpha   90.00000000
_cell_angle_beta   90.00000000
_cell_angle_gamma   119.99998280
_symmetry_Int_Tables_number   1
_chemical_formula_structural   TbY5(NiRh8)2
_chemical_formula_sum   'Tb1 Y5 Ni2 Rh16'
_cell_volume   414.54143310
_cell_formula_units_Z   1
loop_
 _symmetry_equiv_pos_site_id
 _symmetry_equiv_pos_as_xyz
  1  'x, y, z'
loop_
 _atom_site_type_symbol
 _atom_site_label
 _atom_site_symmetry_multiplicity
 _atom_site_fract_x
 _atom_site_fract_y
 _atom_site_fract_z
 _atom_site_occupancy
  Tb  Tb0  1  0.333333  0.666667  0.750000  1
  Y  Y1  1  0.333333  0.666667  0.957940  1
  Y  Y2  1  0.666667  0.333333  0.042059  1
  Y  Y3  1  0.666667  0.333333  0.457941  1
  Y  Y4  1  0.333333  0.666667  0.542060  1
  Y  Y5  1  0.666667  0.333333  0.250000  1
  Ni  Ni6  1  0.333333  0.666667  0.250000  1
  Ni  Ni7  1  0.666667  0.333333  0.750000  1
  Rh  Rh8  1  0.168649  0.831351  0.372723  1
  Rh  Rh9  1  0.168649  0.337299  0.372723  1
  Rh  Rh10  1  0.662701  0.831351  0.372723  1
  Rh  Rh11  1  0.831348  0.168652  0.627285  1
  Rh  Rh12  1  0.831348  0.662694  0.627285  1
  Rh  Rh13  1  0.337306  0.168652  0.627285  1
  Rh  Rh14  1  0.831348  0.168652  0.872715  1
  Rh  Rh15  1  0.831348  0.662694  0.872715  1
  Rh  Rh16  1  0.337306  0.168652  0.872715  1
  Rh  Rh17  1  0.168649  0.831351  0.127277  1
  Rh  Rh18  1  0.168649  0.337299  0.127277  1
  Rh  Rh19  1  0.662701  0.831351  0.127277  1
  Rh  Rh20  1  0.000000  0.000000  0.250000  1
  Rh  Rh21  1  0.000000  0.000000  0.750000  1
  Rh  Rh22  1  0.000000  0.000000  0.500001  1
  Rh  Rh23  1  0.000000  0.000000  0.999999  1
