# generated using pymatgen
data_YTmPa2(NiP)4
_symmetry_space_group_name_H-M   'P 1'
_cell_length_a   3.88863900
_cell_length_b   3.88864134
_cell_length_c   15.34545200
_cell_angle_alpha   90.00000000
_cell_angle_beta   90.00000000
_cell_angle_gamma   120.00000559
_symmetry_Int_Tables_number   1
_chemical_formula_structural   YTmPa2(NiP)4
_chemical_formula_sum   'Y1 Tm1 Pa2 Ni4 P4'
_cell_volume   200.95823562
_cell_formula_units_Z   1
loop_
 _symmetry_equiv_pos_site_id
 _symmetry_equiv_pos_as_xyz
  1  'x, y, z'
loop_
 _atom_site_type_symbol
 _atom_site_label
 _atom_site_symmetry_multiplicity
 _atom_site_fract_x
 _atom_site_fract_y
 _atom_site_fract_z
 _atom_site_occupancy
  Y  Y0  1  0.000000  0.000000  0.750000  1
  Tm  Tm1  1  0.000000  0.000000  0.250000  1
  Pa  Pa2  1  0.000000  0.000000  0.498735  1
  Pa  Pa3  1  0.000000  0.000000  0.001265  1
  Ni  Ni4  1  0.333333  0.666667  0.380715  1
  Ni  Ni5  1  0.666667  0.333333  0.615334  1
  Ni  Ni6  1  0.666667  0.333333  0.884666  1
  Ni  Ni7  1  0.333333  0.666667  0.119285  1
  P  P8  1  0.333333  0.666667  0.875087  1
  P  P9  1  0.666667  0.333333  0.127444  1
  P  P10  1  0.666667  0.333333  0.372556  1
  P  P11  1  0.333333  0.666667  0.624913  1
