# generated using pymatgen
data_La4Zn10SiSn
_symmetry_space_group_name_H-M   'P 1'
_cell_length_a   8.57900306
_cell_length_b   8.57900281
_cell_length_c   9.07782500
_cell_angle_alpha   90.00000000
_cell_angle_beta   90.00000000
_cell_angle_gamma   149.22513758
_symmetry_Int_Tables_number   1
_chemical_formula_structural   La4Zn10SiSn
_chemical_formula_sum   'La4 Zn10 Si1 Sn1'
_cell_volume   341.85502267
_cell_formula_units_Z   1
loop_
 _symmetry_equiv_pos_site_id
 _symmetry_equiv_pos_as_xyz
  1  'x, y, z'
loop_
 _atom_site_type_symbol
 _atom_site_label
 _atom_site_symmetry_multiplicity
 _atom_site_fract_x
 _atom_site_fract_y
 _atom_site_fract_z
 _atom_site_occupancy
  La  La0  1  0.204092  0.795908  0.250000  1
  La  La1  1  0.792857  0.207143  0.750000  1
  La  La2  1  0.001143  0.998857  0.487352  1
  La  La3  1  0.001143  0.998857  0.012648  1
  Zn  Zn4  1  0.814314  0.185686  0.390534  1
  Zn  Zn5  1  0.185124  0.814876  0.607922  1
  Zn  Zn6  1  0.814314  0.185686  0.109466  1
  Zn  Zn7  1  0.185124  0.814876  0.892078  1
  Zn  Zn8  1  0.651411  0.348589  0.476539  1
  Zn  Zn9  1  0.343810  0.656190  0.513050  1
  Zn  Zn10  1  0.651411  0.348589  0.023461  1
  Zn  Zn11  1  0.343810  0.656190  0.986950  1
  Zn  Zn12  1  0.406108  0.593892  0.250000  1
  Zn  Zn13  1  0.602719  0.397281  0.750000  1
  Si  Si14  1  0.559215  0.440785  0.250000  1
  Sn  Sn15  1  0.443404  0.556596  0.750000  1
