# generated using pymatgen
data_Li2Sm6Co3P12Rh13
_symmetry_space_group_name_H-M   'P 1'
_cell_length_a   3.89815000
_cell_length_b   11.20647259
_cell_length_c   12.82135917
_cell_angle_alpha   89.90062664
_cell_angle_beta   90.00000000
_cell_angle_gamma   90.00000000
_symmetry_Int_Tables_number   1
_chemical_formula_structural   Li2Sm6Co3P12Rh13
_chemical_formula_sum   'Li2 Sm6 Co3 P12 Rh13'
_cell_volume   560.09396453
_cell_formula_units_Z   1
loop_
 _symmetry_equiv_pos_site_id
 _symmetry_equiv_pos_as_xyz
  1  'x, y, z'
loop_
 _atom_site_type_symbol
 _atom_site_label
 _atom_site_symmetry_multiplicity
 _atom_site_fract_x
 _atom_site_fract_y
 _atom_site_fract_z
 _atom_site_occupancy
  Li  Li0  1  0.500000  0.500711  0.154059  1
  Li  Li1  1  0.000000  0.001413  0.844945  1
  Sm  Sm2  1  0.000000  0.500506  0.515780  1
  Sm  Sm3  1  0.500000  0.000824  0.481896  1
  Sm  Sm4  1  0.500000  0.818759  0.201655  1
  Sm  Sm5  1  0.500000  0.181486  0.202541  1
  Sm  Sm6  1  0.000000  0.679804  0.799354  1
  Sm  Sm7  1  0.000000  0.320633  0.798781  1
  Co  Co8  1  0.000000  0.499429  0.988957  1
  Co  Co9  1  0.500000  0.000246  0.013672  1
  Co  Co10  1  0.000000  0.373148  0.288657  1
  P  P11  1  0.500000  0.499476  0.887784  1
  P  P12  1  0.000000  0.000347  0.113442  1
  P  P13  1  0.500000  0.489386  0.338932  1
  P  P14  1  0.000000  0.001728  0.656558  1
  P  P15  1  0.500000  0.313775  0.617438  1
  P  P16  1  0.500000  0.687654  0.618576  1
  P  P17  1  0.000000  0.192581  0.377564  1
  P  P18  1  0.000000  0.809953  0.380071  1
  P  P19  1  0.500000  0.849703  0.896082  1
  P  P20  1  0.500000  0.152342  0.896709  1
  P  P21  1  0.000000  0.649950  0.104731  1
  P  P22  1  0.000000  0.350035  0.111106  1
  Rh  Rh23  1  0.500000  0.500368  0.704250  1
  Rh  Rh24  1  0.000000  0.999543  0.296405  1
  Rh  Rh25  1  0.500000  0.336341  0.001546  1
  Rh  Rh26  1  0.500000  0.664292  0.998776  1
  Rh  Rh27  1  0.000000  0.165438  0.003199  1
  Rh  Rh28  1  0.000000  0.835687  0.002261  1
  Rh  Rh29  1  0.500000  0.296306  0.426856  1
  Rh  Rh30  1  0.500000  0.709052  0.429374  1
  Rh  Rh31  1  0.000000  0.209936  0.567189  1
  Rh  Rh32  1  0.000000  0.790942  0.569725  1
  Rh  Rh33  1  0.500000  0.876534  0.711147  1
  Rh  Rh34  1  0.500000  0.125816  0.710689  1
  Rh  Rh35  1  0.000000  0.615856  0.289293  1
