# generated using pymatgen
data_Tb2YPa(CoB4)4
_symmetry_space_group_name_H-M   'P 1'
_cell_length_a   3.40275700
_cell_length_b   5.91195404
_cell_length_c   11.46291000
_cell_angle_alpha   90.00734071
_cell_angle_beta   90.00000000
_cell_angle_gamma   90.00000000
_symmetry_Int_Tables_number   1
_chemical_formula_structural   Tb2YPa(CoB4)4
_chemical_formula_sum   'Tb2 Y1 Pa1 Co4 B16'
_cell_volume   230.59870516
_cell_formula_units_Z   1
loop_
 _symmetry_equiv_pos_site_id
 _symmetry_equiv_pos_as_xyz
  1  'x, y, z'
loop_
 _atom_site_type_symbol
 _atom_site_label
 _atom_site_symmetry_multiplicity
 _atom_site_fract_x
 _atom_site_fract_y
 _atom_site_fract_z
 _atom_site_occupancy
  Tb  Tb0  1  0.500000  0.128140  0.649969  1
  Tb  Tb1  1  0.500000  0.872151  0.351728  1
  Y  Y2  1  0.500000  0.627482  0.848795  1
  Pa  Pa3  1  0.500000  0.373102  0.150120  1
  Co  Co4  1  0.500000  0.364677  0.408842  1
  Co  Co5  1  0.500000  0.634582  0.588469  1
  Co  Co6  1  0.500000  0.134067  0.911867  1
  Co  Co7  1  0.500000  0.864868  0.090766  1
  B  B8  1  0.000000  0.111156  0.045448  1
  B  B9  1  0.000000  0.888416  0.953596  1
  B  B10  1  0.000000  0.389179  0.545931  1
  B  B11  1  0.000000  0.611765  0.455127  1
  B  B12  1  0.000000  0.139698  0.467585  1
  B  B13  1  0.000000  0.860929  0.533087  1
  B  B14  1  0.000000  0.360511  0.964861  1
  B  B15  1  0.000000  0.638612  0.033289  1
  B  B16  1  0.000000  0.021416  0.190336  1
  B  B17  1  0.000000  0.977029  0.809758  1
  B  B18  1  0.000000  0.477475  0.689751  1
  B  B19  1  0.000000  0.522561  0.310812  1
  B  B20  1  0.000000  0.218092  0.315760  1
  B  B21  1  0.000000  0.782162  0.684419  1
  B  B22  1  0.000000  0.283434  0.815110  1
  B  B23  1  0.000000  0.718496  0.184576  1
