# generated using pymatgen
data_Dy3Y4LuPt4
_symmetry_space_group_name_H-M   'P 1'
_cell_length_a   4.76420700
_cell_length_b   7.16759436
_cell_length_c   8.79648586
_cell_angle_alpha   89.93930659
_cell_angle_beta   90.00000000
_cell_angle_gamma   90.00000000
_symmetry_Int_Tables_number   1
_chemical_formula_structural   Dy3Y4LuPt4
_chemical_formula_sum   'Dy3 Y4 Lu1 Pt4'
_cell_volume   300.38137945
_cell_formula_units_Z   1
loop_
 _symmetry_equiv_pos_site_id
 _symmetry_equiv_pos_as_xyz
  1  'x, y, z'
loop_
 _atom_site_type_symbol
 _atom_site_label
 _atom_site_symmetry_multiplicity
 _atom_site_fract_x
 _atom_site_fract_y
 _atom_site_fract_z
 _atom_site_occupancy
  Dy  Dy0  1  0.250000  0.855400  0.919894  1
  Dy  Dy1  1  0.250000  0.356290  0.579029  1
  Dy  Dy2  1  0.750000  0.144804  0.080367  1
  Y  Y3  1  0.250000  0.988814  0.331721  1
  Y  Y4  1  0.250000  0.490876  0.169576  1
  Y  Y5  1  0.750000  0.008783  0.668516  1
  Y  Y6  1  0.750000  0.510574  0.830649  1
  Lu  Lu7  1  0.750000  0.644178  0.420434  1
  Pt  Pt8  1  0.250000  0.257348  0.906447  1
  Pt  Pt9  1  0.250000  0.755806  0.592041  1
  Pt  Pt10  1  0.750000  0.742562  0.095203  1
  Pt  Pt11  1  0.750000  0.244564  0.406124  1
