# generated using pymatgen
data_Lu8Ta6Nb6Si15Ge
_symmetry_space_group_name_H-M   'P 1'
_cell_length_a   6.81346635
_cell_length_b   7.01226723
_cell_length_c   13.30580806
_cell_angle_alpha   89.98820563
_cell_angle_beta   90.00135152
_cell_angle_gamma   90.01154844
_symmetry_Int_Tables_number   1
_chemical_formula_structural   Lu8Ta6Nb6Si15Ge
_chemical_formula_sum   'Lu8 Ta6 Nb6 Si15 Ge1'
_cell_volume   635.72283266
_cell_formula_units_Z   1
loop_
 _symmetry_equiv_pos_site_id
 _symmetry_equiv_pos_as_xyz
  1  'x, y, z'
loop_
 _atom_site_type_symbol
 _atom_site_label
 _atom_site_symmetry_multiplicity
 _atom_site_fract_x
 _atom_site_fract_y
 _atom_site_fract_z
 _atom_site_occupancy
  Lu  Lu0  1  0.501330  0.672115  0.595339  1
  Lu  Lu1  1  0.000980  0.827537  0.904703  1
  Lu  Lu2  1  0.497296  0.328811  0.094476  1
  Lu  Lu3  1  0.000747  0.169776  0.406800  1
  Lu  Lu4  1  0.497568  0.328316  0.405772  1
  Lu  Lu5  1  0.001057  0.170338  0.092948  1
  Lu  Lu6  1  0.501157  0.671435  0.904509  1
  Lu  Lu7  1  0.000849  0.828233  0.595454  1
  Ta  Ta8  1  0.661954  0.175552  0.874658  1
  Ta  Ta9  1  0.161888  0.324478  0.625262  1
  Ta  Ta10  1  0.834891  0.492473  0.749989  1
  Ta  Ta11  1  0.335506  0.008296  0.750023  1
  Ta  Ta12  1  0.167716  0.508906  0.250180  1
  Ta  Ta13  1  0.663546  0.989076  0.249803  1
  Nb  Nb14  1  0.662931  0.175202  0.624923  1
  Nb  Nb15  1  0.162903  0.324805  0.875126  1
  Nb  Nb16  1  0.337371  0.825607  0.124673  1
  Nb  Nb17  1  0.837575  0.677376  0.375635  1
  Nb  Nb18  1  0.337296  0.825414  0.375528  1
  Nb  Nb19  1  0.837497  0.677509  0.124161  1
  Si  Si20  1  0.665238  0.965854  0.459593  1
  Si  Si21  1  0.164597  0.535074  0.040804  1
  Si  Si22  1  0.334722  0.034556  0.958762  1
  Si  Si23  1  0.834714  0.465623  0.540811  1
  Si  Si24  1  0.333928  0.034723  0.541349  1
  Si  Si25  1  0.833867  0.465375  0.959081  1
  Si  Si26  1  0.665239  0.966025  0.039899  1
  Si  Si27  1  0.164623  0.534869  0.459714  1
  Si  Si28  1  0.457806  0.380074  0.749470  1
  Si  Si29  1  0.957597  0.120730  0.750541  1
  Si  Si30  1  0.540861  0.622086  0.250015  1
  Si  Si31  1  0.042535  0.879050  0.249978  1
  Si  Si32  1  0.702509  0.868575  0.750070  1
  Si  Si33  1  0.202916  0.631812  0.749940  1
  Si  Si34  1  0.297333  0.132104  0.249895  1
  Ge  Ge35  1  0.799455  0.362215  0.250116  1
