# generated using pymatgen
data_AcCuAsF
_symmetry_space_group_name_H-M   'P 1'
_cell_length_a   4.18539700
_cell_length_b   4.18539700
_cell_length_c   8.71798100
_cell_angle_alpha   90.00000000
_cell_angle_beta   90.00000000
_cell_angle_gamma   90.00026010
_symmetry_Int_Tables_number   1
_chemical_formula_structural   AcCuAsF
_chemical_formula_sum   'Ac2 Cu2 As2 F2'
_cell_volume   152.71765105
_cell_formula_units_Z   2
loop_
 _symmetry_equiv_pos_site_id
 _symmetry_equiv_pos_as_xyz
  1  'x, y, z'
loop_
 _atom_site_type_symbol
 _atom_site_label
 _atom_site_symmetry_multiplicity
 _atom_site_fract_x
 _atom_site_fract_y
 _atom_site_fract_z
 _atom_site_occupancy
  Ac  Ac0  1  0.250000  0.250000  0.192813  1
  Ac  Ac1  1  0.749998  0.749998  0.807188  1
  Cu  Cu2  1  0.749999  0.249999  0.500001  1
  Cu  Cu3  1  0.249999  0.749999  0.500001  1
  As  As4  1  0.749998  0.749998  0.333779  1
  As  As5  1  0.250000  0.250000  0.666219  1
  F  F6  1  0.749999  0.249999  0.000000  1
  F  F7  1  0.249999  0.749999  0.000000  1
