# generated using pymatgen
data_Sc4Al21Pt10
_symmetry_space_group_name_H-M   'P 1'
_cell_length_a   10.88182816
_cell_length_b   10.88182901
_cell_length_c   15.93789995
_cell_angle_alpha   55.87320274
_cell_angle_beta   55.87320050
_cell_angle_gamma   21.98550626
_symmetry_Int_Tables_number   1
_chemical_formula_structural   Sc4Al21Pt10
_chemical_formula_sum   'Sc4 Al21 Pt10'
_cell_volume   579.78392374
_cell_formula_units_Z   1
loop_
 _symmetry_equiv_pos_site_id
 _symmetry_equiv_pos_as_xyz
  1  'x, y, z'
loop_
 _atom_site_type_symbol
 _atom_site_label
 _atom_site_symmetry_multiplicity
 _atom_site_fract_x
 _atom_site_fract_y
 _atom_site_fract_z
 _atom_site_occupancy
  Sc  Sc0  1  0.877274  0.877274  0.333641  1
  Sc  Sc1  1  0.122726  0.122726  0.666359  1
  Sc  Sc2  1  0.229294  0.229294  0.175363  1
  Sc  Sc3  1  0.770706  0.770706  0.824637  1
  Al  Al4  1  0.457639  0.457639  0.369186  1
  Al  Al5  1  0.542361  0.542361  0.630814  1
  Al  Al6  1  0.799658  0.799658  0.002339  1
  Al  Al7  1  0.200342  0.200342  0.997661  1
  Al  Al8  1  0.701046  0.701046  0.498126  1
  Al  Al9  1  0.298954  0.298954  0.501874  1
  Al  Al10  1  0.883461  0.883461  0.549899  1
  Al  Al11  1  0.116539  0.116539  0.450101  1
  Al  Al12  1  0.617290  0.617290  0.295671  1
  Al  Al13  1  0.382710  0.382710  0.704329  1
  Al  Al14  1  0.751118  0.751118  0.291633  1
  Al  Al15  1  0.248882  0.248882  0.708367  1
  Al  Al16  1  0.603133  0.603133  0.003503  1
  Al  Al17  1  0.396867  0.396867  0.996497  1
  Al  Al18  1  0.991315  0.991315  0.093597  1
  Al  Al19  1  0.008685  0.008685  0.906403  1
  Al  Al20  1  0.936158  0.936158  0.795529  1
  Al  Al21  1  0.063842  0.063842  0.204471  1
  Al  Al22  1  0.500000  0.500000  0.500000  1
  Al  Al23  1  0.370295  0.370295  0.196524  1
  Al  Al24  1  0.629705  0.629705  0.803476  1
  Pt  Pt25  1  0.492331  0.492331  0.188320  1
  Pt  Pt26  1  0.507669  0.507669  0.811680  1
  Pt  Pt27  1  0.866189  0.866189  0.102623  1
  Pt  Pt28  1  0.133811  0.133811  0.897377  1
  Pt  Pt29  1  0.747497  0.747497  0.615741  1
  Pt  Pt30  1  0.252503  0.252503  0.384259  1
  Pt  Pt31  1  0.656513  0.656513  0.112786  1
  Pt  Pt32  1  0.343487  0.343487  0.887214  1
  Pt  Pt33  1  0.973314  0.973314  0.612156  1
  Pt  Pt34  1  0.026686  0.026686  0.387844  1
