# generated using pymatgen
data_LaSmNi2(SbH2)2
_symmetry_space_group_name_H-M   'P 1'
_cell_length_a   4.36267600
_cell_length_b   4.36267679
_cell_length_c   8.57103000
_cell_angle_alpha   90.00000000
_cell_angle_beta   90.00000000
_cell_angle_gamma   120.00002435
_symmetry_Int_Tables_number   1
_chemical_formula_structural   LaSmNi2(SbH2)2
_chemical_formula_sum   'La1 Sm1 Ni2 Sb2 H4'
_cell_volume   141.27637415
_cell_formula_units_Z   1
loop_
 _symmetry_equiv_pos_site_id
 _symmetry_equiv_pos_as_xyz
  1  'x, y, z'
loop_
 _atom_site_type_symbol
 _atom_site_label
 _atom_site_symmetry_multiplicity
 _atom_site_fract_x
 _atom_site_fract_y
 _atom_site_fract_z
 _atom_site_occupancy
  La  La0  1  0.000000  0.000000  0.000000  1
  Sm  Sm1  1  0.000000  0.000000  0.500000  1
  Ni  Ni2  1  0.333333  0.666667  0.744895  1
  Ni  Ni3  1  0.666667  0.333333  0.255105  1
  Sb  Sb4  1  0.666667  0.333333  0.744645  1
  Sb  Sb5  1  0.333333  0.666667  0.255355  1
  H  H6  1  0.666667  0.333333  0.066820  1
  H  H7  1  0.333333  0.666667  0.933180  1
  H  H8  1  0.666667  0.333333  0.441768  1
  H  H9  1  0.333333  0.666667  0.558232  1
