# generated using pymatgen
data_Be8ReMoOs2
_symmetry_space_group_name_H-M   'P 1'
_cell_length_a   4.38436600
_cell_length_b   4.38436571
_cell_length_c   7.15276200
_cell_angle_alpha   90.00000000
_cell_angle_beta   90.00000000
_cell_angle_gamma   120.00000219
_symmetry_Int_Tables_number   1
_chemical_formula_structural   Be8ReMoOs2
_chemical_formula_sum   'Be8 Re1 Mo1 Os2'
_cell_volume   119.07428170
_cell_formula_units_Z   1
loop_
 _symmetry_equiv_pos_site_id
 _symmetry_equiv_pos_as_xyz
  1  'x, y, z'
loop_
 _atom_site_type_symbol
 _atom_site_label
 _atom_site_symmetry_multiplicity
 _atom_site_fract_x
 _atom_site_fract_y
 _atom_site_fract_z
 _atom_site_occupancy
  Be  Be0  1  0.000000  0.000000  0.502016  1
  Be  Be1  1  0.000000  0.000000  0.996073  1
  Be  Be2  1  0.830594  0.169406  0.253454  1
  Be  Be3  1  0.830594  0.661188  0.253454  1
  Be  Be4  1  0.338812  0.169406  0.253454  1
  Be  Be5  1  0.168298  0.831702  0.747094  1
  Be  Be6  1  0.168298  0.336595  0.747094  1
  Be  Be7  1  0.663405  0.831702  0.747094  1
  Re  Re8  1  0.333333  0.666667  0.434217  1
  Mo  Mo9  1  0.333333  0.666667  0.064593  1
  Os  Os10  1  0.666667  0.333333  0.556284  1
  Os  Os11  1  0.666667  0.333333  0.945171  1
