# generated using pymatgen
data_Tm2Ga2Co2C
_symmetry_space_group_name_H-M   'P 1'
_cell_length_a   5.60152193
_cell_length_b   5.60152172
_cell_length_c   6.77669300
_cell_angle_alpha   125.87084280
_cell_angle_beta   125.87084125
_cell_angle_gamma   40.13149528
_symmetry_Int_Tables_number   1
_chemical_formula_structural   Tm2Ga2Co2C
_chemical_formula_sum   'Tm2 Ga2 Co2 C1'
_cell_volume   107.11401788
_cell_formula_units_Z   1
loop_
 _symmetry_equiv_pos_site_id
 _symmetry_equiv_pos_as_xyz
  1  'x, y, z'
loop_
 _atom_site_type_symbol
 _atom_site_label
 _atom_site_symmetry_multiplicity
 _atom_site_fract_x
 _atom_site_fract_y
 _atom_site_fract_z
 _atom_site_occupancy
  Tm  Tm0  1  0.555462  0.555462  0.283735  1
  Tm  Tm1  1  0.444538  0.444538  0.716266  1
  Ga  Ga2  1  0.843658  0.843658  0.302956  1
  Ga  Ga3  1  0.156341  0.156341  0.697043  1
  Co  Co4  1  0.196151  0.196151  0.087407  1
  Co  Co5  1  0.803850  0.803850  0.912593  1
  C  C6  1  0.000000  0.000000  0.000000  1
