# generated using pymatgen
data_U6Mn15Si7Ni
_symmetry_space_group_name_H-M   'P 1'
_cell_length_a   8.14405207
_cell_length_b   8.41716948
_cell_length_c   8.41717000
_cell_angle_alpha   60.00000580
_cell_angle_beta   58.88430838
_cell_angle_gamma   58.88431408
_symmetry_Int_Tables_number   1
_chemical_formula_structural   U6Mn15Si7Ni
_chemical_formula_sum   'U6 Mn15 Si7 Ni1'
_cell_volume   400.98146308
_cell_formula_units_Z   1
loop_
 _symmetry_equiv_pos_site_id
 _symmetry_equiv_pos_as_xyz
  1  'x, y, z'
loop_
 _atom_site_type_symbol
 _atom_site_label
 _atom_site_symmetry_multiplicity
 _atom_site_fract_x
 _atom_site_fract_y
 _atom_site_fract_z
 _atom_site_occupancy
  U  U0  1  0.790521  0.211026  0.787426  1
  U  U1  1  0.209997  0.787049  0.215905  1
  U  U2  1  0.209997  0.215905  0.787049  1
  U  U3  1  0.790521  0.787426  0.211026  1
  U  U4  1  0.209997  0.787049  0.787049  1
  U  U5  1  0.790521  0.211026  0.211026  1
  Mn  Mn6  1  0.172109  0.176612  0.176612  1
  Mn  Mn7  1  0.172109  0.176612  0.474670  1
  Mn  Mn8  1  0.830644  0.821866  0.525623  1
  Mn  Mn9  1  0.830644  0.525623  0.821866  1
  Mn  Mn10  1  0.608189  0.136284  0.627763  1
  Mn  Mn11  1  0.830644  0.821866  0.821866  1
  Mn  Mn12  1  0.391124  0.371101  0.371101  1
  Mn  Mn13  1  0.608189  0.627763  0.627763  1
  Mn  Mn14  1  0.485669  0.171444  0.171444  1
  Mn  Mn15  1  0.518399  0.827200  0.827200  1
  Mn  Mn16  1  0.172109  0.474670  0.176612  1
  Mn  Mn17  1  0.608189  0.627763  0.136284  1
  Mn  Mn18  1  0.391124  0.371101  0.866673  1
  Mn  Mn19  1  0.861393  0.379535  0.379535  1
  Mn  Mn20  1  0.391124  0.866673  0.371101  1
  Si  Si21  1  0.500494  0.500834  0.999336  1
  Si  Si22  1  0.496860  0.501046  0.501046  1
  Si  Si23  1  0.500494  0.999336  0.500834  1
  Si  Si24  1  0.995559  0.005751  0.499345  1
  Si  Si25  1  0.995559  0.499345  0.499345  1
  Si  Si26  1  0.995559  0.499345  0.005751  1
  Si  Si27  1  0.500494  0.999336  0.999336  1
  Ni  Ni28  1  0.141765  0.619411  0.619411  1
