# generated using pymatgen
data_Er3Ga6Ni4Rh5
_symmetry_space_group_name_H-M   'P 1'
_cell_length_a   9.38621188
_cell_length_b   9.38621144
_cell_length_c   3.89185200
_cell_angle_alpha   90.00000000
_cell_angle_beta   90.00000000
_cell_angle_gamma   121.11075243
_symmetry_Int_Tables_number   1
_chemical_formula_structural   Er3Ga6Ni4Rh5
_chemical_formula_sum   'Er3 Ga6 Ni4 Rh5'
_cell_volume   293.56013411
_cell_formula_units_Z   1
loop_
 _symmetry_equiv_pos_site_id
 _symmetry_equiv_pos_as_xyz
  1  'x, y, z'
loop_
 _atom_site_type_symbol
 _atom_site_label
 _atom_site_symmetry_multiplicity
 _atom_site_fract_x
 _atom_site_fract_y
 _atom_site_fract_z
 _atom_site_occupancy
  Er  Er0  1  0.002511  0.997489  0.000000  1
  Er  Er1  1  0.334355  0.665645  0.500000  1
  Er  Er2  1  0.664039  0.335961  0.500000  1
  Ga  Ga3  1  0.329282  0.332841  0.500000  1
  Ga  Ga4  1  0.680699  0.013581  0.500000  1
  Ga  Ga5  1  0.667159  0.670718  0.500000  1
  Ga  Ga6  1  0.986419  0.319301  0.500000  1
  Ga  Ga7  1  0.001112  0.664954  0.500000  1
  Ga  Ga8  1  0.335046  0.998888  0.500000  1
  Ni  Ni9  1  0.819224  0.180776  0.000000  1
  Ni  Ni10  1  0.511506  0.011275  0.000000  1
  Ni  Ni11  1  0.988725  0.488494  0.000000  1
  Ni  Ni12  1  0.496173  0.503827  0.000000  1
  Rh  Rh13  1  0.171653  0.354393  0.000000  1
  Rh  Rh14  1  0.818217  0.636864  0.000000  1
  Rh  Rh15  1  0.185138  0.814862  0.000000  1
  Rh  Rh16  1  0.645607  0.828347  0.000000  1
  Rh  Rh17  1  0.363136  0.181783  0.000000  1
