# generated using pymatgen
data_Sc4Ti2Sn5
_symmetry_space_group_name_H-M   'P 1'
_cell_length_a   10.78539687
_cell_length_b   10.78539638
_cell_length_c   10.78539634
_cell_angle_alpha   148.43506312
_cell_angle_beta   131.69386566
_cell_angle_gamma   58.85552429
_symmetry_Int_Tables_number   1
_chemical_formula_structural   Sc4Ti2Sn5
_chemical_formula_sum   'Sc8 Ti4 Sn10'
_cell_volume   486.44146542
_cell_formula_units_Z   2
loop_
 _symmetry_equiv_pos_site_id
 _symmetry_equiv_pos_as_xyz
  1  'x, y, z'
loop_
 _atom_site_type_symbol
 _atom_site_label
 _atom_site_symmetry_multiplicity
 _atom_site_fract_x
 _atom_site_fract_y
 _atom_site_fract_z
 _atom_site_occupancy
  Sc  Sc0  1  0.674023  0.436882  0.237141  1
  Sc  Sc1  1  0.325977  0.563118  0.762859  1
  Sc  Sc2  1  0.199740  0.936882  0.262859  1
  Sc  Sc3  1  0.800260  0.063118  0.737141  1
  Sc  Sc4  1  0.255735  0.144760  0.110975  1
  Sc  Sc5  1  0.744265  0.855240  0.889025  1
  Sc  Sc6  1  0.033785  0.644760  0.389025  1
  Sc  Sc7  1  0.966215  0.355240  0.610975  1
  Ti  Ti8  1  0.307093  0.557093  0.250000  1
  Ti  Ti9  1  0.692907  0.442907  0.750000  1
  Ti  Ti10  1  0.692907  0.942907  0.250000  1
  Ti  Ti11  1  0.307093  0.057093  0.750000  1
  Sn  Sn12  1  0.588016  0.288025  0.299991  1
  Sn  Sn13  1  0.411984  0.711975  0.700009  1
  Sn  Sn14  1  0.988034  0.788025  0.200009  1
  Sn  Sn15  1  0.011966  0.211975  0.799991  1
  Sn  Sn16  1  0.000000  0.250000  0.250000  1
  Sn  Sn17  1  0.000000  0.750000  0.750000  1
  Sn  Sn18  1  0.476243  0.074465  0.401776  1
  Sn  Sn19  1  0.523757  0.925535  0.598224  1
  Sn  Sn20  1  0.672689  0.574465  0.098224  1
  Sn  Sn21  1  0.327311  0.425535  0.901776  1
