# generated using pymatgen
data_Y5Cr2O12
_symmetry_space_group_name_H-M   'P 1'
_cell_length_a   6.78043418
_cell_length_b   6.78043490
_cell_length_c   7.27949509
_cell_angle_alpha   74.36090161
_cell_angle_beta   74.36090499
_cell_angle_gamma   50.93814062
_symmetry_Int_Tables_number   1
_chemical_formula_structural   Y5Cr2O12
_chemical_formula_sum   'Y5 Cr2 O12'
_cell_volume   248.00478178
_cell_formula_units_Z   1
loop_
 _symmetry_equiv_pos_site_id
 _symmetry_equiv_pos_as_xyz
  1  'x, y, z'
loop_
 _atom_site_type_symbol
 _atom_site_label
 _atom_site_symmetry_multiplicity
 _atom_site_fract_x
 _atom_site_fract_y
 _atom_site_fract_z
 _atom_site_occupancy
  Y  Y0  1  0.305757  0.305757  0.357975  1
  Y  Y1  1  0.694243  0.694243  0.642025  1
  Y  Y2  1  0.309765  0.309765  0.830718  1
  Y  Y3  1  0.690235  0.690235  0.169282  1
  Y  Y4  1  0.000000  0.000000  0.500000  1
  Cr  Cr5  1  0.757370  0.242630  0.000000  1
  Cr  Cr6  1  0.242630  0.757370  0.000000  1
  O  O7  1  0.898900  0.421176  0.920253  1
  O  O8  1  0.421176  0.898900  0.920253  1
  O  O9  1  0.101100  0.578824  0.079747  1
  O  O10  1  0.578824  0.101100  0.079747  1
  O  O11  1  0.096523  0.597320  0.575671  1
  O  O12  1  0.597320  0.096523  0.575671  1
  O  O13  1  0.903477  0.402680  0.424329  1
  O  O14  1  0.402680  0.903477  0.424329  1
  O  O15  1  0.000411  0.000411  0.823136  1
  O  O16  1  0.999589  0.999589  0.176864  1
  O  O17  1  0.499978  0.499978  0.818563  1
  O  O18  1  0.500022  0.500022  0.181437  1
