# generated using pymatgen
data_Mg2Ag4SnRhO8
_symmetry_space_group_name_H-M   'P 1'
_cell_length_a   5.42421738
_cell_length_b   7.28815800
_cell_length_c   6.32508804
_cell_angle_alpha   115.74538236
_cell_angle_beta   89.99990185
_cell_angle_gamma   104.76684008
_symmetry_Int_Tables_number   1
_chemical_formula_structural   Mg2Ag4SnRhO8
_chemical_formula_sum   'Mg2 Ag4 Sn1 Rh1 O8'
_cell_volume   216.01992795
_cell_formula_units_Z   1
loop_
 _symmetry_equiv_pos_site_id
 _symmetry_equiv_pos_as_xyz
  1  'x, y, z'
loop_
 _atom_site_type_symbol
 _atom_site_label
 _atom_site_symmetry_multiplicity
 _atom_site_fract_x
 _atom_site_fract_y
 _atom_site_fract_z
 _atom_site_occupancy
  Mg  Mg0  1  0.500019  0.500036  0.746854  1
  Mg  Mg1  1  0.499989  0.499975  0.253149  1
  Ag  Ag2  1  0.000029  0.000005  0.499957  1
  Ag  Ag3  1  0.999974  0.999993  0.000042  1
  Ag  Ag4  1  0.502268  0.002552  0.251375  1
  Ag  Ag5  1  0.497732  0.997448  0.748623  1
  Sn  Sn6  1  0.999993  0.499984  0.999987  1
  Rh  Rh7  1  0.999988  0.500007  0.500020  1
  O  O8  1  0.374006  0.664305  0.582275  1
  O  O9  1  0.387197  0.666362  0.083249  1
  O  O10  1  0.625996  0.335702  0.417722  1
  O  O11  1  0.612801  0.333635  0.916750  1
  O  O12  1  0.894926  0.665675  0.339607  1
  O  O13  1  0.894959  0.665677  0.826221  1
  O  O14  1  0.105077  0.334326  0.660379  1
  O  O15  1  0.105044  0.334317  0.173791  1
