# generated using pymatgen
data_HoTm4Lu5Pb6
_symmetry_space_group_name_H-M   'P 1'
_cell_length_a   6.48737500
_cell_length_b   8.92828967
_cell_length_c   8.93159397
_cell_angle_alpha   120.04309973
_cell_angle_beta   90.00130761
_cell_angle_gamma   89.99871558
_symmetry_Int_Tables_number   1
_chemical_formula_structural   HoTm4Lu5Pb6
_chemical_formula_sum   'Ho1 Tm4 Lu5 Pb6'
_cell_volume   447.82475771
_cell_formula_units_Z   1
loop_
 _symmetry_equiv_pos_site_id
 _symmetry_equiv_pos_as_xyz
  1  'x, y, z'
loop_
 _atom_site_type_symbol
 _atom_site_label
 _atom_site_symmetry_multiplicity
 _atom_site_fract_x
 _atom_site_fract_y
 _atom_site_fract_z
 _atom_site_occupancy
  Ho  Ho0  1  0.249988  0.236765  0.236669  1
  Tm  Tm1  1  0.750013  0.236720  0.999837  1
  Tm  Tm2  1  0.750017  0.763297  0.763156  1
  Tm  Tm3  1  0.750016  0.999979  0.237063  1
  Tm  Tm4  1  0.249996  0.763118  0.999816  1
  Lu  Lu5  1  0.249994  0.999925  0.763161  1
  Lu  Lu6  1  0.499958  0.333299  0.666739  1
  Lu  Lu7  1  0.499949  0.666693  0.333355  1
  Lu  Lu8  1  0.000028  0.666752  0.333363  1
  Lu  Lu9  1  0.000037  0.333355  0.666746  1
  Pb  Pb10  1  0.749981  0.605028  0.999998  1
  Pb  Pb11  1  0.750000  0.395000  0.395012  1
  Pb  Pb12  1  0.750006  0.999990  0.604941  1
  Pb  Pb13  1  0.250005  0.394583  0.999555  1
  Pb  Pb14  1  0.250009  0.605591  0.605255  1
  Pb  Pb15  1  0.250002  0.999903  0.395335  1
