# generated using pymatgen
data_Er16Al4PdRu3
_symmetry_space_group_name_H-M   'P 1'
_cell_length_a   9.42395993
_cell_length_b   9.47151747
_cell_length_c   9.47151900
_cell_angle_alpha   60.00000514
_cell_angle_beta   59.83292909
_cell_angle_gamma   59.83292431
_symmetry_Int_Tables_number   1
_chemical_formula_structural   Er16Al4PdRu3
_chemical_formula_sum   'Er16 Al4 Pd1 Ru3'
_cell_volume   596.28830556
_cell_formula_units_Z   1
loop_
 _symmetry_equiv_pos_site_id
 _symmetry_equiv_pos_as_xyz
  1  'x, y, z'
loop_
 _atom_site_type_symbol
 _atom_site_label
 _atom_site_symmetry_multiplicity
 _atom_site_fract_x
 _atom_site_fract_y
 _atom_site_fract_z
 _atom_site_occupancy
  Er  Er0  1  0.349699  0.356410  0.356410  1
  Er  Er1  1  0.349699  0.356410  0.937481  1
  Er  Er2  1  0.349699  0.937481  0.356410  1
  Er  Er3  1  0.951024  0.349658  0.349658  1
  Er  Er4  1  0.812358  0.193790  0.193790  1
  Er  Er5  1  0.190141  0.807339  0.807339  1
  Er  Er6  1  0.190141  0.807339  0.195181  1
  Er  Er7  1  0.812358  0.193790  0.800063  1
  Er  Er8  1  0.190141  0.195181  0.807339  1
  Er  Er9  1  0.812358  0.800063  0.193790  1
  Er  Er10  1  0.935183  0.562793  0.562793  1
  Er  Er11  1  0.556910  0.938493  0.938493  1
  Er  Er12  1  0.556910  0.938493  0.566104  1
  Er  Er13  1  0.935183  0.562793  0.939232  1
  Er  Er14  1  0.556910  0.566104  0.938493  1
  Er  Er15  1  0.935183  0.939232  0.562793  1
  Al  Al16  1  0.580089  0.576325  0.576325  1
  Al  Al17  1  0.580089  0.576325  0.267260  1
  Al  Al18  1  0.580089  0.267260  0.576325  1
  Al  Al19  1  0.263890  0.578703  0.578703  1
  Pd  Pd20  1  0.569251  0.143583  0.143583  1
  Ru  Ru21  1  0.147564  0.139657  0.139657  1
  Ru  Ru22  1  0.147564  0.139657  0.573122  1
  Ru  Ru23  1  0.147564  0.573122  0.139657  1
