# generated using pymatgen
data_Li5Al16HgPt7
_symmetry_space_group_name_H-M   'P 1'
_cell_length_a   8.61921513
_cell_length_b   8.65667527
_cell_length_c   8.65667500
_cell_angle_alpha   59.71391107
_cell_angle_beta   60.14303992
_cell_angle_gamma   60.14304104
_symmetry_Int_Tables_number   1
_chemical_formula_structural   Li5Al16HgPt7
_chemical_formula_sum   'Li5 Al16 Hg1 Pt7'
_cell_volume   456.70812801
_cell_formula_units_Z   1
loop_
 _symmetry_equiv_pos_site_id
 _symmetry_equiv_pos_as_xyz
  1  'x, y, z'
loop_
 _atom_site_type_symbol
 _atom_site_label
 _atom_site_symmetry_multiplicity
 _atom_site_fract_x
 _atom_site_fract_y
 _atom_site_fract_z
 _atom_site_occupancy
  Li  Li0  1  0.767712  0.232288  0.232288  1
  Li  Li1  1  0.764909  0.235091  0.749426  1
  Li  Li2  1  0.764909  0.749426  0.235091  1
  Li  Li3  1  0.250574  0.749426  0.235091  1
  Li  Li4  1  0.250574  0.235091  0.749426  1
  Al  Al5  1  0.879979  0.850822  0.850822  1
  Al  Al6  1  0.868458  0.846812  0.416269  1
  Al  Al7  1  0.418377  0.850822  0.850822  1
  Al  Al8  1  0.868458  0.416269  0.846812  1
  Al  Al9  1  0.153188  0.131542  0.131542  1
  Al  Al10  1  0.149178  0.120021  0.581623  1
  Al  Al11  1  0.149178  0.581623  0.120021  1
  Al  Al12  1  0.583731  0.131542  0.131542  1
  Al  Al13  1  0.621748  0.620132  0.620132  1
  Al  Al14  1  0.634009  0.619030  0.112954  1
  Al  Al15  1  0.137988  0.620132  0.620132  1
  Al  Al16  1  0.634009  0.112954  0.619030  1
  Al  Al17  1  0.380970  0.365991  0.365991  1
  Al  Al18  1  0.379868  0.378252  0.862012  1
  Al  Al19  1  0.379868  0.862012  0.378252  1
  Al  Al20  1  0.887046  0.365991  0.365991  1
  Hg  Hg21  1  0.008250  0.991750  0.991750  1
  Pt  Pt22  1  0.009853  0.490147  0.490147  1
  Pt  Pt23  1  0.509853  0.990147  0.990147  1
  Pt  Pt24  1  0.510589  0.992699  0.489411  1
  Pt  Pt25  1  0.510589  0.489411  0.992699  1
  Pt  Pt26  1  0.007301  0.489411  0.992699  1
  Pt  Pt27  1  0.007301  0.992699  0.489411  1
  Pt  Pt28  1  0.511534  0.488466  0.488466  1
