# generated using pymatgen
data_Li4Pr16Si15Ge
_symmetry_space_group_name_H-M   'P 1'
_cell_length_a   7.40545498
_cell_length_b   7.99562539
_cell_length_c   15.29773525
_cell_angle_alpha   90.02904565
_cell_angle_beta   89.94476656
_cell_angle_gamma   90.02050289
_symmetry_Int_Tables_number   1
_chemical_formula_structural   Li4Pr16Si15Ge
_chemical_formula_sum   'Li4 Pr16 Si15 Ge1'
_cell_volume   905.79733763
_cell_formula_units_Z   1
loop_
 _symmetry_equiv_pos_site_id
 _symmetry_equiv_pos_as_xyz
  1  'x, y, z'
loop_
 _atom_site_type_symbol
 _atom_site_label
 _atom_site_symmetry_multiplicity
 _atom_site_fract_x
 _atom_site_fract_y
 _atom_site_fract_z
 _atom_site_occupancy
  Li  Li0  1  0.658221  0.967189  0.750211  1
  Li  Li1  1  0.158118  0.532891  0.750354  1
  Li  Li2  1  0.341875  0.032844  0.249929  1
  Li  Li3  1  0.841842  0.467285  0.250075  1
  Pr  Pr4  1  0.527625  0.309320  0.102609  1
  Pr  Pr5  1  0.026988  0.190205  0.396917  1
  Pr  Pr6  1  0.474374  0.691600  0.602767  1
  Pr  Pr7  1  0.972358  0.809216  0.897464  1
  Pr  Pr8  1  0.472262  0.690692  0.897364  1
  Pr  Pr9  1  0.971853  0.810249  0.602706  1
  Pr  Pr10  1  0.527556  0.308853  0.397075  1
  Pr  Pr11  1  0.027652  0.190819  0.102513  1
  Pr  Pr12  1  0.822894  0.317995  0.628531  1
  Pr  Pr13  1  0.323763  0.181890  0.871356  1
  Pr  Pr14  1  0.176323  0.681917  0.128670  1
  Pr  Pr15  1  0.675487  0.818548  0.370898  1
  Pr  Pr16  1  0.175335  0.682396  0.370982  1
  Pr  Pr17  1  0.676179  0.818022  0.128694  1
  Pr  Pr18  1  0.823704  0.318044  0.871230  1
  Pr  Pr19  1  0.325063  0.179940  0.629484  1
  Si  Si20  1  0.647800  0.030674  0.533616  1
  Si  Si21  1  0.147831  0.469598  0.966093  1
  Si  Si22  1  0.352219  0.969607  0.033932  1
  Si  Si23  1  0.847595  0.531060  0.465247  1
  Si  Si24  1  0.351902  0.969446  0.466126  1
  Si  Si25  1  0.852181  0.530365  0.033928  1
  Si  Si26  1  0.647806  0.030421  0.966089  1
  Si  Si27  1  0.519335  0.426760  0.750111  1
  Si  Si28  1  0.019234  0.073499  0.750033  1
  Si  Si29  1  0.480356  0.573344  0.249911  1
  Si  Si30  1  0.980614  0.926799  0.249808  1
  Si  Si31  1  0.764237  0.625682  0.750029  1
  Si  Si32  1  0.263605  0.873851  0.750153  1
  Si  Si33  1  0.235927  0.374275  0.250026  1
  Si  Si34  1  0.736188  0.125865  0.249806  1
  Ge  Ge35  1  0.153699  0.468837  0.535263  1
