# generated using pymatgen
data_PaFeB4
_symmetry_space_group_name_H-M   'P 1'
_cell_length_a   3.45933700
_cell_length_b   5.92212600
_cell_length_c   11.47667900
_cell_angle_alpha   90.00000000
_cell_angle_beta   90.00000000
_cell_angle_gamma   90.00000000
_symmetry_Int_Tables_number   1
_chemical_formula_structural   PaFeB4
_chemical_formula_sum   'Pa4 Fe4 B16'
_cell_volume   235.11847160
_cell_formula_units_Z   4
loop_
 _symmetry_equiv_pos_site_id
 _symmetry_equiv_pos_as_xyz
  1  'x, y, z'
loop_
 _atom_site_type_symbol
 _atom_site_label
 _atom_site_symmetry_multiplicity
 _atom_site_fract_x
 _atom_site_fract_y
 _atom_site_fract_z
 _atom_site_occupancy
  Pa  Pa0  1  0.500000  0.373396  0.150321  1
  Pa  Pa1  1  0.500000  0.626604  0.849679  1
  Pa  Pa2  1  0.500000  0.126604  0.650321  1
  Pa  Pa3  1  0.500000  0.873396  0.349679  1
  Fe  Fe4  1  0.500000  0.363217  0.409322  1
  Fe  Fe5  1  0.500000  0.636783  0.590678  1
  Fe  Fe6  1  0.500000  0.136783  0.909322  1
  Fe  Fe7  1  0.500000  0.863217  0.090678  1
  B  B8  1  0.000000  0.111743  0.045133  1
  B  B9  1  0.000000  0.888257  0.954867  1
  B  B10  1  0.000000  0.388257  0.545133  1
  B  B11  1  0.000000  0.611743  0.454867  1
  B  B12  1  0.000000  0.138717  0.466117  1
  B  B13  1  0.000000  0.861283  0.533883  1
  B  B14  1  0.000000  0.361283  0.966117  1
  B  B15  1  0.000000  0.638717  0.033883  1
  B  B16  1  0.000000  0.024286  0.189598  1
  B  B17  1  0.000000  0.975714  0.810402  1
  B  B18  1  0.000000  0.475714  0.689598  1
  B  B19  1  0.000000  0.524286  0.310402  1
  B  B20  1  0.000000  0.218922  0.314505  1
  B  B21  1  0.000000  0.781078  0.685495  1
  B  B22  1  0.000000  0.281078  0.814505  1
  B  B23  1  0.000000  0.718922  0.185495  1
