# generated using pymatgen
data_HoTm2Al12RuRh3
_symmetry_space_group_name_H-M   'P 1'
_cell_length_a   8.79789122
_cell_length_b   8.79789158
_cell_length_c   9.46861200
_cell_angle_alpha   90.00000000
_cell_angle_beta   90.00000000
_cell_angle_gamma   119.91853817
_symmetry_Int_Tables_number   1
_chemical_formula_structural   HoTm2Al12RuRh3
_chemical_formula_sum   'Ho2 Tm4 Al24 Ru2 Rh6'
_cell_volume   635.22862083
_cell_formula_units_Z   2
loop_
 _symmetry_equiv_pos_site_id
 _symmetry_equiv_pos_as_xyz
  1  'x, y, z'
loop_
 _atom_site_type_symbol
 _atom_site_label
 _atom_site_symmetry_multiplicity
 _atom_site_fract_x
 _atom_site_fract_y
 _atom_site_fract_z
 _atom_site_occupancy
  Ho  Ho0  1  0.191762  0.808238  0.250000  1
  Ho  Ho1  1  0.808238  0.191762  0.750000  1
  Tm  Tm2  1  0.192010  0.383968  0.250000  1
  Tm  Tm3  1  0.807990  0.616032  0.750000  1
  Tm  Tm4  1  0.616032  0.807990  0.250000  1
  Tm  Tm5  1  0.383968  0.192010  0.750000  1
  Al  Al6  1  0.333388  0.666612  0.032044  1
  Al  Al7  1  0.666612  0.333388  0.967956  1
  Al  Al8  1  0.666612  0.333388  0.532044  1
  Al  Al9  1  0.333388  0.666612  0.467956  1
  Al  Al10  1  0.163130  0.326072  0.576244  1
  Al  Al11  1  0.836870  0.673928  0.423756  1
  Al  Al12  1  0.673928  0.836870  0.576244  1
  Al  Al13  1  0.836870  0.673928  0.076244  1
  Al  Al14  1  0.326072  0.163130  0.423756  1
  Al  Al15  1  0.163130  0.326072  0.923756  1
  Al  Al16  1  0.163062  0.836938  0.576388  1
  Al  Al17  1  0.326072  0.163130  0.076244  1
  Al  Al18  1  0.836938  0.163062  0.423612  1
  Al  Al19  1  0.673928  0.836870  0.923756  1
  Al  Al20  1  0.836938  0.163062  0.076388  1
  Al  Al21  1  0.163062  0.836938  0.923612  1
  Al  Al22  1  0.561909  0.123437  0.250000  1
  Al  Al23  1  0.438091  0.876563  0.750000  1
  Al  Al24  1  0.876563  0.438091  0.250000  1
  Al  Al25  1  0.123437  0.561909  0.750000  1
  Al  Al26  1  0.561640  0.438360  0.250000  1
  Al  Al27  1  0.438360  0.561640  0.750000  1
  Al  Al28  1  0.999948  0.000052  0.250000  1
  Al  Al29  1  0.000052  0.999948  0.750000  1
  Ru  Ru30  1  0.000000  0.000000  0.000000  1
  Ru  Ru31  1  0.000000  0.000000  0.500000  1
  Rh  Rh32  1  0.500000  0.000000  0.000000  1
  Rh  Rh33  1  0.000000  0.500000  0.000000  1
  Rh  Rh34  1  0.500000  0.000000  0.500000  1
  Rh  Rh35  1  0.500000  0.500000  0.000000  1
  Rh  Rh36  1  0.000000  0.500000  0.500000  1
  Rh  Rh37  1  0.500000  0.500000  0.500000  1
