# generated using pymatgen
data_Er12Ni4IrPb
_symmetry_space_group_name_H-M   'P 1'
_cell_length_a   8.25824174
_cell_length_b   8.25824004
_cell_length_c   8.25824200
_cell_angle_alpha   111.52146916
_cell_angle_beta   110.04767349
_cell_angle_gamma   106.87880354
_symmetry_Int_Tables_number   1
_chemical_formula_structural   Er12Ni4IrPb
_chemical_formula_sum   'Er12 Ni4 Ir1 Pb1'
_cell_volume   432.81455857
_cell_formula_units_Z   1
loop_
 _symmetry_equiv_pos_site_id
 _symmetry_equiv_pos_as_xyz
  1  'x, y, z'
loop_
 _atom_site_type_symbol
 _atom_site_label
 _atom_site_symmetry_multiplicity
 _atom_site_fract_x
 _atom_site_fract_y
 _atom_site_fract_z
 _atom_site_occupancy
  Er  Er0  1  0.320621  0.128779  0.808158  1
  Er  Er1  1  0.679391  0.487562  0.808169  1
  Er  Er2  1  0.408614  0.716790  0.691822  1
  Er  Er3  1  0.591386  0.283210  0.308178  1
  Er  Er4  1  0.975030  0.283210  0.691823  1
  Er  Er5  1  0.024970  0.716790  0.308177  1
  Er  Er6  1  0.320609  0.512438  0.191831  1
  Er  Er7  1  0.679379  0.871221  0.191842  1
  Er  Er8  1  0.180265  0.787181  0.967444  1
  Er  Er9  1  0.819737  0.787181  0.606918  1
  Er  Er10  1  0.180263  0.212819  0.393082  1
  Er  Er11  1  0.819735  0.212819  0.032556  1
  Ni  Ni12  1  0.877713  0.877711  0.999998  1
  Ni  Ni13  1  0.122287  0.122289  0.000002  1
  Ni  Ni14  1  0.640090  0.500000  0.140090  1
  Ni  Ni15  1  0.359910  0.500000  0.859910  1
  Ir  Ir16  1  0.000000  0.500000  0.500000  1
  Pb  Pb17  1  0.500000  0.000000  0.500000  1
