# generated using pymatgen
data_Tm9Cd5Pt4
_symmetry_space_group_name_H-M   'P 1'
_cell_length_a   10.77987900
_cell_length_b   10.77987900
_cell_length_c   3.73765400
_cell_angle_alpha   90.00000000
_cell_angle_beta   90.00000000
_cell_angle_gamma   90.00000000
_symmetry_Int_Tables_number   1
_chemical_formula_structural   Tm9Cd5Pt4
_chemical_formula_sum   'Tm9 Cd5 Pt4'
_cell_volume   434.33704051
_cell_formula_units_Z   1
loop_
 _symmetry_equiv_pos_site_id
 _symmetry_equiv_pos_as_xyz
  1  'x, y, z'
loop_
 _atom_site_type_symbol
 _atom_site_label
 _atom_site_symmetry_multiplicity
 _atom_site_fract_x
 _atom_site_fract_y
 _atom_site_fract_z
 _atom_site_occupancy
  Tm  Tm0  1  0.329038  0.329038  0.500000  1
  Tm  Tm1  1  0.670962  0.670962  0.500000  1
  Tm  Tm2  1  0.329038  0.670962  0.500000  1
  Tm  Tm3  1  0.670962  0.329038  0.500000  1
  Tm  Tm4  1  0.000000  0.284318  0.500000  1
  Tm  Tm5  1  0.000000  0.715682  0.500000  1
  Tm  Tm6  1  0.284318  0.000000  0.500000  1
  Tm  Tm7  1  0.715682  0.000000  0.500000  1
  Tm  Tm8  1  0.000000  0.000000  0.000000  1
  Cd  Cd9  1  0.500000  0.146088  0.000000  1
  Cd  Cd10  1  0.500000  0.853912  0.000000  1
  Cd  Cd11  1  0.146088  0.500000  0.000000  1
  Cd  Cd12  1  0.853912  0.500000  0.000000  1
  Cd  Cd13  1  0.500000  0.500000  0.000000  1
  Pt  Pt14  1  0.191936  0.191936  0.000000  1
  Pt  Pt15  1  0.808064  0.808064  0.000000  1
  Pt  Pt16  1  0.191936  0.808064  0.000000  1
  Pt  Pt17  1  0.808064  0.191936  0.000000  1
