# generated using pymatgen
data_Nd11Cd9Ru4
_symmetry_space_group_name_H-M   'P 1'
_cell_length_a   13.30204944
_cell_length_b   13.30204823
_cell_length_c   3.89805200
_cell_angle_alpha   90.00000000
_cell_angle_beta   90.00000000
_cell_angle_gamma   112.76715945
_symmetry_Int_Tables_number   1
_chemical_formula_structural   Nd11Cd9Ru4
_chemical_formula_sum   'Nd11 Cd9 Ru4'
_cell_volume   635.99794936
_cell_formula_units_Z   1
loop_
 _symmetry_equiv_pos_site_id
 _symmetry_equiv_pos_as_xyz
  1  'x, y, z'
loop_
 _atom_site_type_symbol
 _atom_site_label
 _atom_site_symmetry_multiplicity
 _atom_site_fract_x
 _atom_site_fract_y
 _atom_site_fract_z
 _atom_site_occupancy
  Nd  Nd0  1  0.087245  0.417320  0.000000  1
  Nd  Nd1  1  0.912755  0.582680  0.000000  1
  Nd  Nd2  1  0.417320  0.087245  0.000000  1
  Nd  Nd3  1  0.582680  0.912755  0.000000  1
  Nd  Nd4  1  0.625575  0.374425  0.000000  1
  Nd  Nd5  1  0.374425  0.625575  0.000000  1
  Nd  Nd6  1  0.838856  0.161144  0.000000  1
  Nd  Nd7  1  0.161144  0.838856  0.000000  1
  Nd  Nd8  1  0.000000  0.000000  0.000000  1
  Nd  Nd9  1  0.311575  0.311575  0.000000  1
  Nd  Nd10  1  0.688425  0.688425  0.000000  1
  Cd  Cd11  1  0.840655  0.365800  0.500000  1
  Cd  Cd12  1  0.159345  0.634200  0.500000  1
  Cd  Cd13  1  0.365800  0.840655  0.500000  1
  Cd  Cd14  1  0.634200  0.159345  0.500000  1
  Cd  Cd15  1  0.076250  0.217673  0.500000  1
  Cd  Cd16  1  0.923750  0.782327  0.500000  1
  Cd  Cd17  1  0.217673  0.076250  0.500000  1
  Cd  Cd18  1  0.782327  0.923750  0.500000  1
  Cd  Cd19  1  0.500000  0.500000  0.500000  1
  Ru  Ru20  1  0.251542  0.451395  0.500000  1
  Ru  Ru21  1  0.748458  0.548605  0.500000  1
  Ru  Ru22  1  0.451395  0.251542  0.500000  1
  Ru  Ru23  1  0.548605  0.748458  0.500000  1
