# generated using pymatgen
data_Dy3Er13CdIn3Rh4
_symmetry_space_group_name_H-M   'P 1'
_cell_length_a   9.57562471
_cell_length_b   9.58431246
_cell_length_c   9.59808500
_cell_angle_alpha   59.95245688
_cell_angle_beta   59.92238228
_cell_angle_gamma   60.07730870
_symmetry_Int_Tables_number   1
_chemical_formula_structural   Dy3Er13CdIn3Rh4
_chemical_formula_sum   'Dy3 Er13 Cd1 In3 Rh4'
_cell_volume   622.64253105
_cell_formula_units_Z   1
loop_
 _symmetry_equiv_pos_site_id
 _symmetry_equiv_pos_as_xyz
  1  'x, y, z'
loop_
 _atom_site_type_symbol
 _atom_site_label
 _atom_site_symmetry_multiplicity
 _atom_site_fract_x
 _atom_site_fract_y
 _atom_site_fract_z
 _atom_site_occupancy
  Dy  Dy0  1  0.189696  0.190827  0.809739  1
  Dy  Dy1  1  0.436983  0.060963  0.064867  1
  Dy  Dy2  1  0.436983  0.060963  0.437188  1
  Er  Er3  1  0.062198  0.437205  0.063441  1
  Er  Er4  1  0.649369  0.049528  0.650552  1
  Er  Er5  1  0.189321  0.811235  0.810888  1
  Er  Er6  1  0.061413  0.060265  0.439162  1
  Er  Er7  1  0.810649  0.191287  0.189409  1
  Er  Er8  1  0.812684  0.809900  0.188708  1
  Er  Er9  1  0.650859  0.649805  0.046272  1
  Er  Er10  1  0.650859  0.649805  0.653064  1
  Er  Er11  1  0.062198  0.437205  0.437156  1
  Er  Er12  1  0.048909  0.649067  0.651012  1
  Er  Er13  1  0.810649  0.191287  0.808656  1
  Er  Er14  1  0.437454  0.436467  0.063039  1
  Er  Er15  1  0.189321  0.811235  0.188556  1
  Cd  Cd16  1  0.418054  0.746162  0.417892  1
  In  In17  1  0.416820  0.419447  0.747669  1
  In  In18  1  0.748166  0.419629  0.416102  1
  In  In19  1  0.416820  0.419447  0.416063  1
  Rh  Rh20  1  0.856896  0.426553  0.858275  1
  Rh  Rh21  1  0.858145  0.857758  0.427275  1
  Rh  Rh22  1  0.427411  0.856202  0.858194  1
  Rh  Rh23  1  0.858145  0.857758  0.856823  1
