# generated using pymatgen
data_Y3Ho5In2IrPd
_symmetry_space_group_name_H-M   'P 1'
_cell_length_a   9.66486640
_cell_length_b   9.68863774
_cell_length_c   9.68310928
_cell_angle_alpha   60.16294512
_cell_angle_beta   60.08791620
_cell_angle_gamma   60.01807234
_symmetry_Int_Tables_number   1
_chemical_formula_structural   Y3Ho5In2IrPd
_chemical_formula_sum   'Y6 Ho10 In4 Ir2 Pd2'
_cell_volume   642.44849569
_cell_formula_units_Z   2
loop_
 _symmetry_equiv_pos_site_id
 _symmetry_equiv_pos_as_xyz
  1  'x, y, z'
loop_
 _atom_site_type_symbol
 _atom_site_label
 _atom_site_symmetry_multiplicity
 _atom_site_fract_x
 _atom_site_fract_y
 _atom_site_fract_z
 _atom_site_occupancy
  Y  Y0  1  0.442795  0.433153  0.061736  1
  Y  Y1  1  0.648447  0.642388  0.059724  1
  Y  Y2  1  0.186037  0.808661  0.194897  1
  Y  Y3  1  0.061977  0.433903  0.060034  1
  Y  Y4  1  0.191494  0.809243  0.807815  1
  Y  Y5  1  0.064970  0.434963  0.436687  1
  Ho  Ho6  1  0.810253  0.189050  0.189623  1
  Ho  Ho7  1  0.656811  0.649557  0.649480  1
  Ho  Ho8  1  0.811325  0.194782  0.808699  1
  Ho  Ho9  1  0.186121  0.194743  0.808067  1
  Ho  Ho10  1  0.047040  0.648020  0.648177  1
  Ho  Ho11  1  0.438549  0.061729  0.061623  1
  Ho  Ho12  1  0.061411  0.059821  0.435043  1
  Ho  Ho13  1  0.648895  0.058103  0.642677  1
  Ho  Ho14  1  0.810715  0.809557  0.195063  1
  Ho  Ho15  1  0.442832  0.061331  0.434196  1
  In  In16  1  0.414837  0.416674  0.417169  1
  In  In17  1  0.416525  0.418237  0.748773  1
  In  In18  1  0.416174  0.749266  0.418338  1
  In  In19  1  0.749635  0.417176  0.417606  1
  Ir  Ir20  1  0.856974  0.426040  0.861432  1
  Ir  Ir21  1  0.853851  0.863067  0.428273  1
  Pd  Pd22  1  0.429872  0.860951  0.857103  1
  Pd  Pd23  1  0.852462  0.859590  0.857768  1
