# generated using pymatgen
data_HoPu3PaAl15
_symmetry_space_group_name_H-M   'P 1'
_cell_length_a   12.62964302
_cell_length_b   12.62964272
_cell_length_c   12.62964200
_cell_angle_alpha   27.88997519
_cell_angle_beta   27.88997769
_cell_angle_gamma   27.88998021
_symmetry_Int_Tables_number   1
_chemical_formula_structural   HoPu3PaAl15
_chemical_formula_sum   'Ho1 Pu3 Pa1 Al15'
_cell_volume   389.27899630
_cell_formula_units_Z   1
loop_
 _symmetry_equiv_pos_site_id
 _symmetry_equiv_pos_as_xyz
  1  'x, y, z'
loop_
 _atom_site_type_symbol
 _atom_site_label
 _atom_site_symmetry_multiplicity
 _atom_site_fract_x
 _atom_site_fract_y
 _atom_site_fract_z
 _atom_site_occupancy
  Ho  Ho0  1  0.000247  0.000247  0.000247  1
  Pu  Pu1  1  0.599509  0.599509  0.599509  1
  Pu  Pu2  1  0.400859  0.400859  0.400859  1
  Pu  Pu3  1  0.868431  0.868431  0.868431  1
  Pa  Pa4  1  0.131135  0.131135  0.131135  1
  Al  Al5  1  0.578183  0.111653  0.111653  1
  Al  Al6  1  0.111653  0.578183  0.111653  1
  Al  Al7  1  0.111653  0.111653  0.578183  1
  Al  Al8  1  0.425872  0.886056  0.886056  1
  Al  Al9  1  0.886056  0.425872  0.886056  1
  Al  Al10  1  0.499030  0.499030  0.001757  1
  Al  Al11  1  0.499030  0.001757  0.499030  1
  Al  Al12  1  0.001757  0.499030  0.499030  1
  Al  Al13  1  0.636515  0.636515  0.128257  1
  Al  Al14  1  0.636515  0.128257  0.636515  1
  Al  Al15  1  0.128257  0.636515  0.636515  1
  Al  Al16  1  0.365411  0.365411  0.868425  1
  Al  Al17  1  0.365411  0.868425  0.365411  1
  Al  Al18  1  0.868425  0.365411  0.365411  1
  Al  Al19  1  0.886056  0.886056  0.425872  1
