# generated using pymatgen
data_Pa8Ta10Ti2Si15As
_symmetry_space_group_name_H-M   'P 1'
_cell_length_a   7.05944606
_cell_length_b   7.03953265
_cell_length_c   13.08327225
_cell_angle_alpha   89.97073563
_cell_angle_beta   89.85258067
_cell_angle_gamma   89.95708473
_symmetry_Int_Tables_number   1
_chemical_formula_structural   Pa8Ta10Ti2Si15As
_chemical_formula_sum   'Pa8 Ta10 Ti2 Si15 As1'
_cell_volume   650.17342596
_cell_formula_units_Z   1
loop_
 _symmetry_equiv_pos_site_id
 _symmetry_equiv_pos_as_xyz
  1  'x, y, z'
loop_
 _atom_site_type_symbol
 _atom_site_label
 _atom_site_symmetry_multiplicity
 _atom_site_fract_x
 _atom_site_fract_y
 _atom_site_fract_z
 _atom_site_occupancy
  Pa  Pa0  1  0.337206  0.998979  0.467073  1
  Pa  Pa1  1  0.499569  0.836099  0.719931  1
  Pa  Pa2  1  0.500544  0.164885  0.219129  1
  Pa  Pa3  1  0.834981  0.499348  0.280894  1
  Pa  Pa4  1  0.165997  0.499371  0.780696  1
  Pa  Pa5  1  0.666131  0.998140  0.969578  1
  Pa  Pa6  1  0.995741  0.338820  0.529569  1
  Pa  Pa7  1  0.999501  0.665663  0.031395  1
  Ta  Ta8  1  0.333239  0.332957  0.000210  1
  Ta  Ta9  1  0.168648  0.831111  0.250327  1
  Ta  Ta10  1  0.828993  0.169023  0.750759  1
  Ta  Ta11  1  0.666302  0.667072  0.500328  1
  Ta  Ta12  1  0.161803  0.999681  0.875560  1
  Ta  Ta13  1  0.502759  0.659662  0.124837  1
  Ta  Ta14  1  0.498762  0.340541  0.625929  1
  Ta  Ta15  1  0.661990  0.504688  0.876684  1
  Ta  Ta16  1  0.339214  0.498812  0.374838  1
  Ta  Ta17  1  0.838848  0.001775  0.374669  1
  Ti  Ti18  1  0.000327  0.159731  0.124694  1
  Ti  Ti19  1  0.996979  0.834505  0.623334  1
  Si  Si20  1  0.373087  0.705767  0.932918  1
  Si  Si21  1  0.625016  0.294889  0.432837  1
  Si  Si22  1  0.707289  0.371006  0.067981  1
  Si  Si23  1  0.292951  0.627815  0.568010  1
  Si  Si24  1  0.797067  0.876280  0.182307  1
  Si  Si25  1  0.125916  0.203982  0.316498  1
  Si  Si26  1  0.875255  0.796195  0.816117  1
  Si  Si27  1  0.290971  0.961389  0.065669  1
  Si  Si28  1  0.540739  0.791129  0.314277  1
  Si  Si29  1  0.467007  0.211579  0.818523  1
  Si  Si30  1  0.792667  0.541311  0.685665  1
  Si  Si31  1  0.206681  0.458649  0.184525  1
  Si  Si32  1  0.709315  0.038231  0.565474  1
  Si  Si33  1  0.960911  0.291876  0.936447  1
  Si  Si34  1  0.039003  0.709587  0.435483  1
  As  As35  1  0.198594  0.119454  0.676836  1
