# generated using pymatgen
data_TiNb5(AlRu2)6
_symmetry_space_group_name_H-M   'P 1'
_cell_length_a   4.37544900
_cell_length_b   6.19737700
_cell_length_c   13.10502801
_cell_angle_alpha   89.99622963
_cell_angle_beta   90.00208377
_cell_angle_gamma   90.00019185
_symmetry_Int_Tables_number   1
_chemical_formula_structural   TiNb5(AlRu2)6
_chemical_formula_sum   'Ti1 Nb5 Al6 Ru12'
_cell_volume   355.35996195
_cell_formula_units_Z   1
loop_
 _symmetry_equiv_pos_site_id
 _symmetry_equiv_pos_as_xyz
  1  'x, y, z'
loop_
 _atom_site_type_symbol
 _atom_site_label
 _atom_site_symmetry_multiplicity
 _atom_site_fract_x
 _atom_site_fract_y
 _atom_site_fract_z
 _atom_site_occupancy
  Ti  Ti0  1  0.500091  0.499983  0.833331  1
  Nb  Nb1  1  0.999999  0.000027  0.997468  1
  Nb  Nb2  1  0.499914  0.499975  0.165080  1
  Nb  Nb3  1  0.999936  0.000029  0.333362  1
  Nb  Nb4  1  0.499997  0.499980  0.501595  1
  Nb  Nb5  1  0.000103  0.000024  0.669219  1
  Al  Al6  1  0.000002  0.499994  0.998048  1
  Al  Al7  1  0.499882  0.000007  0.165061  1
  Al  Al8  1  0.999897  0.499999  0.333380  1
  Al  Al9  1  0.499994  0.000005  0.501506  1
  Al  Al10  1  0.000108  0.499996  0.668686  1
  Al  Al11  1  0.500096  0.999997  0.833348  1
  Ru  Ru12  1  0.500135  0.251420  0.998980  1
  Ru  Ru13  1  0.499872  0.748578  0.998982  1
  Ru  Ru14  1  0.999781  0.250152  0.166516  1
  Ru  Ru15  1  0.000045  0.749859  0.166519  1
  Ru  Ru16  1  0.500040  0.249636  0.333317  1
  Ru  Ru17  1  0.499757  0.750349  0.333312  1
  Ru  Ru18  1  0.999846  0.250116  0.500165  1
  Ru  Ru19  1  0.000139  0.749878  0.500162  1
  Ru  Ru20  1  0.500229  0.251463  0.667634  1
  Ru  Ru21  1  0.499963  0.748533  0.667633  1
  Ru  Ru22  1  0.999908  0.252940  0.833353  1
  Ru  Ru23  1  0.000264  0.747046  0.833345  1
