# generated using pymatgen
data_Dy4YEr11(CdNi)4
_symmetry_space_group_name_H-M   'P 1'
_cell_length_a   9.48312677
_cell_length_b   9.48312680
_cell_length_c   9.47830100
_cell_angle_alpha   60.01682877
_cell_angle_beta   60.01682869
_cell_angle_gamma   60.01582017
_symmetry_Int_Tables_number   1
_chemical_formula_structural   Dy4YEr11(CdNi)4
_chemical_formula_sum   'Dy4 Y1 Er11 Cd4 Ni4'
_cell_volume   602.94952776
_cell_formula_units_Z   1
loop_
 _symmetry_equiv_pos_site_id
 _symmetry_equiv_pos_as_xyz
  1  'x, y, z'
loop_
 _atom_site_type_symbol
 _atom_site_label
 _atom_site_symmetry_multiplicity
 _atom_site_fract_x
 _atom_site_fract_y
 _atom_site_fract_z
 _atom_site_occupancy
  Dy  Dy0  1  0.598944  0.598944  0.597914  1
  Dy  Dy1  1  0.598944  0.598944  0.204198  1
  Dy  Dy2  1  0.601359  0.200733  0.598955  1
  Dy  Dy3  1  0.200733  0.601359  0.598955  1
  Y  Y4  1  0.186313  0.186313  0.813687  1
  Er  Er5  1  0.062063  0.438438  0.437864  1
  Er  Er6  1  0.438438  0.062063  0.061635  1
  Er  Er7  1  0.438438  0.062063  0.437864  1
  Er  Er8  1  0.062063  0.438438  0.061635  1
  Er  Er9  1  0.438998  0.438998  0.061002  1
  Er  Er10  1  0.062711  0.062711  0.437289  1
  Er  Er11  1  0.186242  0.812888  0.814465  1
  Er  Er12  1  0.812888  0.186242  0.186405  1
  Er  Er13  1  0.812888  0.186242  0.814465  1
  Er  Er14  1  0.186242  0.812888  0.186405  1
  Er  Er15  1  0.814955  0.814955  0.185045  1
  Cd  Cd16  1  0.831135  0.831135  0.831848  1
  Cd  Cd17  1  0.831135  0.831135  0.505881  1
  Cd  Cd18  1  0.830561  0.505445  0.831996  1
  Cd  Cd19  1  0.505445  0.830561  0.831996  1
  Ni  Ni20  1  0.392299  0.392299  0.392786  1
  Ni  Ni21  1  0.392299  0.392299  0.822617  1
  Ni  Ni22  1  0.391567  0.823341  0.392547  1
  Ni  Ni23  1  0.823341  0.391567  0.392547  1
