# generated using pymatgen
data_Pr3Sn(Ge2Au3)2
_symmetry_space_group_name_H-M   'P 1'
_cell_length_a   4.49890600
_cell_length_b   9.79993300
_cell_length_c   13.73778700
_cell_angle_alpha   90.00000000
_cell_angle_beta   90.00000000
_cell_angle_gamma   90.00000000
_symmetry_Int_Tables_number   1
_chemical_formula_structural   Pr3Sn(Ge2Au3)2
_chemical_formula_sum   'Pr6 Sn2 Ge8 Au12'
_cell_volume   605.68498020
_cell_formula_units_Z   2
loop_
 _symmetry_equiv_pos_site_id
 _symmetry_equiv_pos_as_xyz
  1  'x, y, z'
loop_
 _atom_site_type_symbol
 _atom_site_label
 _atom_site_symmetry_multiplicity
 _atom_site_fract_x
 _atom_site_fract_y
 _atom_site_fract_z
 _atom_site_occupancy
  Pr  Pr0  1  0.000000  0.750410  0.805817  1
  Pr  Pr1  1  0.000000  0.750410  0.194183  1
  Pr  Pr2  1  0.500000  0.249590  0.694183  1
  Pr  Pr3  1  0.500000  0.249590  0.305817  1
  Pr  Pr4  1  0.000000  0.754856  0.500000  1
  Pr  Pr5  1  0.500000  0.245144  0.000000  1
  Sn  Sn6  1  0.000000  0.279373  0.500000  1
  Sn  Sn7  1  0.500000  0.720627  0.000000  1
  Ge  Ge8  1  0.000000  0.371144  0.837840  1
  Ge  Ge9  1  0.000000  0.371144  0.162160  1
  Ge  Ge10  1  0.500000  0.628856  0.662160  1
  Ge  Ge11  1  0.500000  0.628856  0.337840  1
  Ge  Ge12  1  0.000000  0.026900  0.355465  1
  Ge  Ge13  1  0.000000  0.026900  0.644535  1
  Ge  Ge14  1  0.500000  0.973100  0.144535  1
  Ge  Ge15  1  0.500000  0.973100  0.855465  1
  Au  Au16  1  0.000000  0.109302  0.839552  1
  Au  Au17  1  0.000000  0.109302  0.160448  1
  Au  Au18  1  0.500000  0.890698  0.660448  1
  Au  Au19  1  0.500000  0.890698  0.339552  1
  Au  Au20  1  0.000000  0.507565  0.000000  1
  Au  Au21  1  0.500000  0.492435  0.500000  1
  Au  Au22  1  0.000000  0.484632  0.346100  1
  Au  Au23  1  0.000000  0.484632  0.653900  1
  Au  Au24  1  0.500000  0.515368  0.153900  1
  Au  Au25  1  0.500000  0.515368  0.846100  1
  Au  Au26  1  0.000000  0.919778  0.000000  1
  Au  Au27  1  0.500000  0.080222  0.500000  1
