# generated using pymatgen
data_Th3In3CuPd2
_symmetry_space_group_name_H-M   'P 1'
_cell_length_a   7.68479709
_cell_length_b   7.67460369
_cell_length_c   4.13810900
_cell_angle_alpha   90.00000000
_cell_angle_beta   90.00000000
_cell_angle_gamma   119.95613148
_symmetry_Int_Tables_number   1
_chemical_formula_structural   Th3In3CuPd2
_chemical_formula_sum   'Th3 In3 Cu1 Pd2'
_cell_volume   211.45245409
_cell_formula_units_Z   1
loop_
 _symmetry_equiv_pos_site_id
 _symmetry_equiv_pos_as_xyz
  1  'x, y, z'
loop_
 _atom_site_type_symbol
 _atom_site_label
 _atom_site_symmetry_multiplicity
 _atom_site_fract_x
 _atom_site_fract_y
 _atom_site_fract_z
 _atom_site_occupancy
  Th  Th0  1  0.410600  0.411610  0.000000  1
  Th  Th1  1  0.589400  0.001009  0.000000  1
  Th  Th2  1  0.000000  0.587945  0.000000  1
  In  In3  1  0.755309  0.756652  0.500000  1
  In  In4  1  0.000000  0.242079  0.500000  1
  In  In5  1  0.244691  0.001344  0.500000  1
  Cu  Cu6  1  0.000000  0.997526  0.000000  1
  Pd  Pd7  1  0.332129  0.666982  0.500000  1
  Pd  Pd8  1  0.667871  0.334853  0.500000  1
