# generated using pymatgen
data_Sc8V11Si16Os
_symmetry_space_group_name_H-M   'P 1'
_cell_length_a   6.62280652
_cell_length_b   6.62280652
_cell_length_c   12.25336705
_cell_angle_alpha   90.00703409
_cell_angle_beta   89.99296591
_cell_angle_gamma   89.67578427
_symmetry_Int_Tables_number   1
_chemical_formula_structural   Sc8V11Si16Os
_chemical_formula_sum   'Sc8 V11 Si16 Os1'
_cell_volume   537.44325720
_cell_formula_units_Z   1
loop_
 _symmetry_equiv_pos_site_id
 _symmetry_equiv_pos_as_xyz
  1  'x, y, z'
loop_
 _atom_site_type_symbol
 _atom_site_label
 _atom_site_symmetry_multiplicity
 _atom_site_fract_x
 _atom_site_fract_y
 _atom_site_fract_z
 _atom_site_occupancy
  Sc  Sc0  1  0.000653  0.663484  0.028872  1
  Sc  Sc1  1  0.836898  0.500205  0.279351  1
  Sc  Sc2  1  0.162789  0.497684  0.779594  1
  Sc  Sc3  1  0.500205  0.836898  0.720649  1
  Sc  Sc4  1  0.497684  0.162789  0.220406  1
  Sc  Sc5  1  0.999185  0.337422  0.529422  1
  Sc  Sc6  1  0.663484  0.000653  0.971128  1
  Sc  Sc7  1  0.337422  0.999185  0.470578  1
  V  V8  1  0.170685  0.833247  0.247762  1
  V  V9  1  0.833247  0.170685  0.752238  1
  V  V10  1  0.668773  0.668773  0.500000  1
  V  V11  1  0.000442  0.152897  0.128116  1
  V  V12  1  0.343821  0.505117  0.375529  1
  V  V13  1  0.665240  0.494367  0.874963  1
  V  V14  1  0.505117  0.343821  0.624471  1
  V  V15  1  0.494367  0.665240  0.125037  1
  V  V16  1  0.993356  0.842649  0.625710  1
  V  V17  1  0.152897  0.000442  0.871884  1
  V  V18  1  0.842649  0.993356  0.374290  1
  Si  Si19  1  0.290772  0.962076  0.062979  1
  Si  Si20  1  0.539491  0.794836  0.315875  1
  Si  Si21  1  0.459386  0.205652  0.815808  1
  Si  Si22  1  0.794836  0.539491  0.684125  1
  Si  Si23  1  0.205652  0.459386  0.184192  1
  Si  Si24  1  0.705930  0.040893  0.565760  1
  Si  Si25  1  0.962076  0.290772  0.937021  1
  Si  Si26  1  0.040893  0.705930  0.434240  1
  Si  Si27  1  0.701914  0.373642  0.070325  1
  Si  Si28  1  0.130009  0.202856  0.320005  1
  Si  Si29  1  0.869886  0.795190  0.818838  1
  Si  Si30  1  0.202856  0.130009  0.679995  1
  Si  Si31  1  0.795190  0.869886  0.181162  1
  Si  Si32  1  0.296269  0.629913  0.569466  1
  Si  Si33  1  0.373642  0.701914  0.929675  1
  Si  Si34  1  0.629913  0.296269  0.430534  1
  Os  Os35  1  0.332369  0.332369  0.000000  1
