# generated using pymatgen
data_TbNd6Dy3(In2Pd)4
_symmetry_space_group_name_H-M   'P 1'
_cell_length_a   3.74360700
_cell_length_b   8.29814524
_cell_length_c   18.48869428
_cell_angle_alpha   89.99617893
_cell_angle_beta   90.00000000
_cell_angle_gamma   90.00000000
_symmetry_Int_Tables_number   1
_chemical_formula_structural   TbNd6Dy3(In2Pd)4
_chemical_formula_sum   'Tb1 Nd6 Dy3 In8 Pd4'
_cell_volume   574.35118704
_cell_formula_units_Z   1
loop_
 _symmetry_equiv_pos_site_id
 _symmetry_equiv_pos_as_xyz
  1  'x, y, z'
loop_
 _atom_site_type_symbol
 _atom_site_label
 _atom_site_symmetry_multiplicity
 _atom_site_fract_x
 _atom_site_fract_y
 _atom_site_fract_z
 _atom_site_occupancy
  Tb  Tb0  1  0.000000  0.618643  0.084988  1
  Nd  Nd1  1  0.000000  0.500080  0.500038  1
  Nd  Nd2  1  0.000000  0.999788  0.999935  1
  Nd  Nd3  1  0.000000  0.736194  0.285761  1
  Nd  Nd4  1  0.000000  0.263789  0.714326  1
  Nd  Nd5  1  0.000000  0.763927  0.785253  1
  Nd  Nd6  1  0.000000  0.236211  0.214841  1
  Dy  Dy7  1  0.000000  0.381519  0.914584  1
  Dy  Dy8  1  0.000000  0.881512  0.585192  1
  Dy  Dy9  1  0.000000  0.118577  0.414905  1
  In  In10  1  0.500000  0.696585  0.936501  1
  In  In11  1  0.500000  0.302689  0.062895  1
  In  In12  1  0.500000  0.804167  0.437422  1
  In  In13  1  0.500000  0.196149  0.562636  1
  In  In14  1  0.500000  0.589225  0.652354  1
  In  In15  1  0.500000  0.410528  0.347793  1
  In  In16  1  0.500000  0.911503  0.152781  1
  In  In17  1  0.500000  0.089332  0.847395  1
  Pd  Pd18  1  0.500000  0.524058  0.194185  1
  Pd  Pd19  1  0.500000  0.475490  0.806122  1
  Pd  Pd20  1  0.500000  0.975786  0.693836  1
  Pd  Pd21  1  0.500000  0.024250  0.306254  1
