# generated using pymatgen
data_Ac3SbO3
_symmetry_space_group_name_H-M   'P 1'
_cell_length_a   4.26964048
_cell_length_b   7.54230419
_cell_length_c   11.53499128
_cell_angle_alpha   81.95617106
_cell_angle_beta   79.33457914
_cell_angle_gamma   73.55790748
_symmetry_Int_Tables_number   1
_chemical_formula_structural   Ac3SbO3
_chemical_formula_sum   'Ac6 Sb2 O6'
_cell_volume   348.60184942
_cell_formula_units_Z   2
loop_
 _symmetry_equiv_pos_site_id
 _symmetry_equiv_pos_as_xyz
  1  'x, y, z'
loop_
 _atom_site_type_symbol
 _atom_site_label
 _atom_site_symmetry_multiplicity
 _atom_site_fract_x
 _atom_site_fract_y
 _atom_site_fract_z
 _atom_site_occupancy
  Ac  Ac0  1  0.381352  0.791992  0.445304  1
  Ac  Ac1  1  0.618648  0.208008  0.554696  1
  Ac  Ac2  1  0.372639  0.357503  0.897219  1
  Ac  Ac3  1  0.627361  0.642497  0.102781  1
  Ac  Ac4  1  0.844462  0.103930  0.207146  1
  Ac  Ac5  1  0.155538  0.896070  0.792854  1
  Sb  Sb6  1  0.877324  0.562884  0.682468  1
  Sb  Sb7  1  0.122676  0.437116  0.317532  1
  O  O8  1  0.810014  0.968505  0.411465  1
  O  O9  1  0.189986  0.031495  0.588535  1
  O  O10  1  0.564692  0.073598  0.797018  1
  O  O11  1  0.435308  0.926402  0.202982  1
  O  O12  1  0.837577  0.312690  0.012156  1
  O  O13  1  0.162423  0.687310  0.987844  1
