# generated using pymatgen
data_Np5P3S2
_symmetry_space_group_name_H-M   'P 1'
_cell_length_a   10.53636262
_cell_length_b   10.53636196
_cell_length_c   6.86100197
_cell_angle_alpha   83.74595040
_cell_angle_beta   83.74594910
_cell_angle_gamma   142.19458821
_symmetry_Int_Tables_number   1
_chemical_formula_structural   Np5P3S2
_chemical_formula_sum   'Np10 P6 S4'
_cell_volume   439.70365261
_cell_formula_units_Z   2
loop_
 _symmetry_equiv_pos_site_id
 _symmetry_equiv_pos_as_xyz
  1  'x, y, z'
loop_
 _atom_site_type_symbol
 _atom_site_label
 _atom_site_symmetry_multiplicity
 _atom_site_fract_x
 _atom_site_fract_y
 _atom_site_fract_z
 _atom_site_occupancy
  Np  Np0  1  0.601560  0.900727  0.999255  1
  Np  Np1  1  0.199764  0.300292  0.999747  1
  Np  Np2  1  0.099273  0.398440  0.500745  1
  Np  Np3  1  0.800236  0.699708  0.000253  1
  Np  Np4  1  0.699708  0.800236  0.500253  1
  Np  Np5  1  0.398440  0.099273  0.000745  1
  Np  Np6  1  0.300292  0.199764  0.499747  1
  Np  Np7  1  0.000000  0.500000  0.000000  1
  Np  Np8  1  0.900727  0.601560  0.499255  1
  Np  Np9  1  0.500000  0.000000  0.500000  1
  P  P10  1  0.349904  0.650096  0.750000  1
  P  P11  1  0.951656  0.048344  0.750000  1
  P  P12  1  0.848894  0.151106  0.250000  1
  P  P13  1  0.151106  0.848894  0.750000  1
  P  P14  1  0.048344  0.951656  0.250000  1
  P  P15  1  0.650096  0.349904  0.250000  1
  S  S16  1  0.748985  0.251015  0.750000  1
  S  S17  1  0.549353  0.450647  0.750000  1
  S  S18  1  0.450647  0.549353  0.250000  1
  S  S19  1  0.251015  0.748985  0.250000  1
