# generated using pymatgen
data_Yb2TmLu(B6Os)2
_symmetry_space_group_name_H-M   'P 1'
_cell_length_a   3.61549900
_cell_length_b   9.09904100
_cell_length_c   11.48666500
_cell_angle_alpha   89.99796234
_cell_angle_beta   90.00000000
_cell_angle_gamma   90.00000000
_symmetry_Int_Tables_number   1
_chemical_formula_structural   Yb2TmLu(B6Os)2
_chemical_formula_sum   'Yb4 Tm2 Lu2 B24 Os4'
_cell_volume   377.88340756
_cell_formula_units_Z   2
loop_
 _symmetry_equiv_pos_site_id
 _symmetry_equiv_pos_as_xyz
  1  'x, y, z'
loop_
 _atom_site_type_symbol
 _atom_site_label
 _atom_site_symmetry_multiplicity
 _atom_site_fract_x
 _atom_site_fract_y
 _atom_site_fract_z
 _atom_site_occupancy
  Yb  Yb0  1  0.000000  0.324058  0.414750  1
  Yb  Yb1  1  0.000000  0.675942  0.585250  1
  Yb  Yb2  1  0.000000  0.824288  0.085366  1
  Yb  Yb3  1  0.000000  0.175712  0.914634  1
  Tm  Tm4  1  0.000000  0.442286  0.132276  1
  Tm  Tm5  1  0.000000  0.557714  0.867723  1
  Lu  Lu6  1  0.000000  0.942335  0.367931  1
  Lu  Lu7  1  0.000000  0.057665  0.632070  1
  B  B8  1  0.500000  0.553880  0.432962  1
  B  B9  1  0.500000  0.446120  0.567038  1
  B  B10  1  0.500000  0.053627  0.067192  1
  B  B11  1  0.500000  0.946373  0.932808  1
  B  B12  1  0.500000  0.749814  0.417586  1
  B  B13  1  0.500000  0.250186  0.582414  1
  B  B14  1  0.500000  0.248897  0.082639  1
  B  B15  1  0.500000  0.751103  0.917361  1
  B  B16  1  0.500000  0.792245  0.264450  1
  B  B17  1  0.500000  0.207755  0.735550  1
  B  B18  1  0.500000  0.291338  0.235847  1
  B  B19  1  0.500000  0.708661  0.764153  1
  B  B20  1  0.500000  0.630986  0.185517  1
  B  B21  1  0.500000  0.369014  0.814483  1
  B  B22  1  0.500000  0.130237  0.315057  1
  B  B23  1  0.500000  0.869763  0.684943  1
  B  B24  1  0.500000  0.982276  0.211686  1
  B  B25  1  0.500000  0.017724  0.788314  1
  B  B26  1  0.500000  0.482879  0.288857  1
  B  B27  1  0.500000  0.517121  0.711143  1
  B  B28  1  0.500000  0.596315  0.026459  1
  B  B29  1  0.500000  0.403685  0.973541  1
  B  B30  1  0.500000  0.095473  0.473750  1
  B  B31  1  0.500000  0.904527  0.526250  1
  Os  Os32  1  0.000000  0.640234  0.319945  1
  Os  Os33  1  0.000000  0.359766  0.680055  1
  Os  Os34  1  0.000000  0.138855  0.180866  1
  Os  Os35  1  0.000000  0.861145  0.819134  1
