# generated using pymatgen
data_Pa3Al12CoCu2
_symmetry_space_group_name_H-M   'P 1'
_cell_length_a   9.42887000
_cell_length_b   9.42886968
_cell_length_c   4.04068100
_cell_angle_alpha   90.00000000
_cell_angle_beta   90.00000000
_cell_angle_gamma   120.00000815
_symmetry_Int_Tables_number   1
_chemical_formula_structural   Pa3Al12CoCu2
_chemical_formula_sum   'Pa3 Al12 Co1 Cu2'
_cell_volume   311.10317450
_cell_formula_units_Z   1
loop_
 _symmetry_equiv_pos_site_id
 _symmetry_equiv_pos_as_xyz
  1  'x, y, z'
loop_
 _atom_site_type_symbol
 _atom_site_label
 _atom_site_symmetry_multiplicity
 _atom_site_fract_x
 _atom_site_fract_y
 _atom_site_fract_z
 _atom_site_occupancy
  Pa  Pa0  1  0.000000  0.406538  0.000000  1
  Pa  Pa1  1  0.593462  0.593462  0.000000  1
  Pa  Pa2  1  0.406538  0.000000  0.000000  1
  Al  Al3  1  0.000000  0.746120  0.000000  1
  Al  Al4  1  0.253880  0.253880  0.000000  1
  Al  Al5  1  0.746120  0.000000  0.000000  1
  Al  Al6  1  0.000000  0.165216  0.500000  1
  Al  Al7  1  0.834784  0.834784  0.500000  1
  Al  Al8  1  0.165216  0.000000  0.500000  1
  Al  Al9  1  0.295537  0.476806  0.500000  1
  Al  Al10  1  0.181270  0.704463  0.500000  1
  Al  Al11  1  0.523194  0.818730  0.500000  1
  Al  Al12  1  0.818730  0.523194  0.500000  1
  Al  Al13  1  0.704463  0.181270  0.500000  1
  Al  Al14  1  0.476806  0.295537  0.500000  1
  Co  Co15  1  0.000000  0.000000  0.000000  1
  Cu  Cu16  1  0.666667  0.333333  0.000000  1
  Cu  Cu17  1  0.333333  0.666667  0.000000  1
