# generated using pymatgen
data_NpPd2BrF24
_symmetry_space_group_name_H-M   'P 1'
_cell_length_a   5.28489699
_cell_length_b   9.28696600
_cell_length_c   10.20307700
_cell_angle_alpha   90.00000000
_cell_angle_beta   89.18474119
_cell_angle_gamma   90.00000000
_symmetry_Int_Tables_number   1
_chemical_formula_structural   NpPd2BrF24
_chemical_formula_sum   'Np1 Pd2 Br1 F24'
_cell_volume   500.72304620
_cell_formula_units_Z   1
loop_
 _symmetry_equiv_pos_site_id
 _symmetry_equiv_pos_as_xyz
  1  'x, y, z'
loop_
 _atom_site_type_symbol
 _atom_site_label
 _atom_site_symmetry_multiplicity
 _atom_site_fract_x
 _atom_site_fract_y
 _atom_site_fract_z
 _atom_site_occupancy
  Np  Np0  1  0.585063  0.750000  0.131077  1
  Pd  Pd1  1  0.924484  0.750000  0.627456  1
  Pd  Pd2  1  0.074899  0.250000  0.373204  1
  Br  Br3  1  0.416654  0.250000  0.867690  1
  F  F4  1  0.220398  0.750000  0.519868  1
  F  F5  1  0.776906  0.250000  0.478711  1
  F  F6  1  0.691513  0.250000  0.973187  1
  F  F7  1  0.280813  0.750000  0.018044  1
  F  F8  1  0.628466  0.750000  0.736202  1
  F  F9  1  0.371939  0.250000  0.265799  1
  F  F10  1  0.140418  0.250000  0.765804  1
  F  F11  1  0.889395  0.750000  0.243231  1
  F  F12  1  0.779256  0.605563  0.520156  1
  F  F13  1  0.217381  0.394839  0.479988  1
  F  F14  1  0.272175  0.388393  0.971518  1
  F  F15  1  0.217381  0.105161  0.479988  1
  F  F16  1  0.742312  0.599225  0.019341  1
  F  F17  1  0.779256  0.894437  0.520156  1
  F  F18  1  0.742312  0.900775  0.019341  1
  F  F19  1  0.272175  0.111607  0.971518  1
  F  F20  1  0.067064  0.605441  0.735157  1
  F  F21  1  0.933158  0.394825  0.264162  1
  F  F22  1  0.560680  0.388071  0.767179  1
  F  F23  1  0.933158  0.105175  0.264162  1
  F  F24  1  0.427501  0.599432  0.242362  1
  F  F25  1  0.067064  0.894559  0.735157  1
  F  F26  1  0.427501  0.900568  0.242362  1
  F  F27  1  0.560680  0.111929  0.767179  1
