# generated using pymatgen
data_Mg4ZnGaPd10
_symmetry_space_group_name_H-M   'P 1'
_cell_length_a   4.18802500
_cell_length_b   5.51112071
_cell_length_c   10.71105800
_cell_angle_alpha   89.86317294
_cell_angle_beta   90.00000000
_cell_angle_gamma   90.00000000
_symmetry_Int_Tables_number   1
_chemical_formula_structural   Mg4ZnGaPd10
_chemical_formula_sum   'Mg4 Zn1 Ga1 Pd10'
_cell_volume   247.21813282
_cell_formula_units_Z   1
loop_
 _symmetry_equiv_pos_site_id
 _symmetry_equiv_pos_as_xyz
  1  'x, y, z'
loop_
 _atom_site_type_symbol
 _atom_site_label
 _atom_site_symmetry_multiplicity
 _atom_site_fract_x
 _atom_site_fract_y
 _atom_site_fract_z
 _atom_site_occupancy
  Mg  Mg0  1  0.500000  0.163871  0.359183  1
  Mg  Mg1  1  0.500000  0.836129  0.640817  1
  Mg  Mg2  1  0.500000  0.669102  0.138989  1
  Mg  Mg3  1  0.500000  0.330898  0.861011  1
  Zn  Zn4  1  0.000000  0.000000  0.000000  1
  Ga  Ga5  1  0.000000  0.500000  0.500000  1
  Pd  Pd6  1  0.500000  0.181252  0.108497  1
  Pd  Pd7  1  0.500000  0.818748  0.891503  1
  Pd  Pd8  1  0.500000  0.677672  0.394129  1
  Pd  Pd9  1  0.500000  0.322328  0.605871  1
  Pd  Pd10  1  0.000000  0.000000  0.500000  1
  Pd  Pd11  1  0.000000  0.500000  0.000000  1
  Pd  Pd12  1  0.000000  0.909613  0.240743  1
  Pd  Pd13  1  0.000000  0.090387  0.759257  1
  Pd  Pd14  1  0.000000  0.410357  0.262139  1
  Pd  Pd15  1  0.000000  0.589643  0.737861  1
