# generated using pymatgen
data_Dy5Er11In6CoPt
_symmetry_space_group_name_H-M   'P 1'
_cell_length_a   10.38489660
_cell_length_b   10.38582422
_cell_length_c   6.96350900
_cell_angle_alpha   90.00018352
_cell_angle_beta   89.99807196
_cell_angle_gamma   120.03593487
_symmetry_Int_Tables_number   1
_chemical_formula_structural   Dy5Er11In6CoPt
_chemical_formula_sum   'Dy5 Er11 In6 Co1 Pt1'
_cell_volume   650.19637500
_cell_formula_units_Z   1
loop_
 _symmetry_equiv_pos_site_id
 _symmetry_equiv_pos_as_xyz
  1  'x, y, z'
loop_
 _atom_site_type_symbol
 _atom_site_label
 _atom_site_symmetry_multiplicity
 _atom_site_fract_x
 _atom_site_fract_y
 _atom_site_fract_z
 _atom_site_occupancy
  Dy  Dy0  1  0.530606  0.061388  0.794752  1
  Dy  Dy1  1  0.938605  0.469385  0.794766  1
  Dy  Dy2  1  0.530606  0.469401  0.795085  1
  Dy  Dy3  1  0.464642  0.929070  0.292136  1
  Dy  Dy4  1  0.070949  0.535384  0.292134  1
  Er  Er5  1  0.464443  0.535580  0.292541  1
  Er  Er6  1  0.824407  0.649290  0.499070  1
  Er  Er7  1  0.350701  0.175580  0.499045  1
  Er  Er8  1  0.824734  0.175251  0.499261  1
  Er  Er9  1  0.178245  0.356154  0.000783  1
  Er  Er10  1  0.643849  0.821755  0.000813  1
  Er  Er11  1  0.177926  0.822089  0.000553  1
  Er  Er12  1  0.666516  0.333465  0.171212  1
  Er  Er13  1  0.333482  0.666495  0.683184  1
  Er  Er14  1  0.999998  0.999997  0.778292  1
  Er  Er15  1  0.999957  0.000037  0.277028  1
  In  In16  1  0.837908  0.675803  0.038047  1
  In  In17  1  0.324208  0.162073  0.038000  1
  In  In18  1  0.837832  0.162127  0.037815  1
  In  In19  1  0.163130  0.325754  0.538978  1
  In  In20  1  0.674250  0.836884  0.538940  1
  In  In21  1  0.162748  0.837284  0.539031  1
  Co  Co22  1  0.333542  0.666462  0.067501  1
  Pt  Pt23  1  0.666716  0.333292  0.566937  1
