# generated using pymatgen
data_LiTh6Cd22Ge
_symmetry_space_group_name_H-M   'P 1'
_cell_length_a   10.05548882
_cell_length_b   10.05548935
_cell_length_c   10.05548900
_cell_angle_alpha   60.00000445
_cell_angle_beta   60.00000269
_cell_angle_gamma   60.00000166
_symmetry_Int_Tables_number   1
_chemical_formula_structural   LiTh6Cd22Ge
_chemical_formula_sum   'Li1 Th6 Cd22 Ge1'
_cell_volume   718.94327259
_cell_formula_units_Z   1
loop_
 _symmetry_equiv_pos_site_id
 _symmetry_equiv_pos_as_xyz
  1  'x, y, z'
loop_
 _atom_site_type_symbol
 _atom_site_label
 _atom_site_symmetry_multiplicity
 _atom_site_fract_x
 _atom_site_fract_y
 _atom_site_fract_z
 _atom_site_occupancy
  Li  Li0  1  0.500000  0.500000  0.500000  1
  Th  Th1  1  0.793313  0.793313  0.206687  1
  Th  Th2  1  0.206687  0.793313  0.206687  1
  Th  Th3  1  0.793313  0.206687  0.206687  1
  Th  Th4  1  0.206687  0.206687  0.793313  1
  Th  Th5  1  0.793313  0.206687  0.793313  1
  Th  Th6  1  0.206687  0.793313  0.793313  1
  Cd  Cd7  1  0.833375  0.833375  0.499873  1
  Cd  Cd8  1  0.833375  0.499873  0.833375  1
  Cd  Cd9  1  0.499873  0.833375  0.833375  1
  Cd  Cd10  1  0.833375  0.833375  0.833375  1
  Cd  Cd11  1  0.166625  0.166625  0.500127  1
  Cd  Cd12  1  0.166625  0.500127  0.166625  1
  Cd  Cd13  1  0.500127  0.166625  0.166625  1
  Cd  Cd14  1  0.166625  0.166625  0.166625  1
  Cd  Cd15  1  0.617548  0.617548  0.147356  1
  Cd  Cd16  1  0.617548  0.147356  0.617548  1
  Cd  Cd17  1  0.147356  0.617548  0.617548  1
  Cd  Cd18  1  0.617548  0.617548  0.617548  1
  Cd  Cd19  1  0.382452  0.382452  0.852644  1
  Cd  Cd20  1  0.382452  0.852644  0.382452  1
  Cd  Cd21  1  0.852644  0.382452  0.382452  1
  Cd  Cd22  1  0.382452  0.382452  0.382452  1
  Cd  Cd23  1  0.000000  0.000000  0.500000  1
  Cd  Cd24  1  0.500000  0.000000  0.500000  1
  Cd  Cd25  1  0.000000  0.500000  0.500000  1
  Cd  Cd26  1  0.500000  0.500000  0.000000  1
  Cd  Cd27  1  0.000000  0.500000  0.000000  1
  Cd  Cd28  1  0.500000  0.000000  0.000000  1
  Ge  Ge29  1  0.000000  0.000000  0.000000  1
