# generated using pymatgen
data_Tb4Sb6Ru2Rh5
_symmetry_space_group_name_H-M   'P 1'
_cell_length_a   7.60729884
_cell_length_b   7.60730025
_cell_length_c   7.60729914
_cell_angle_alpha   109.31419875
_cell_angle_beta   109.54978938
_cell_angle_gamma   109.54978801
_symmetry_Int_Tables_number   1
_chemical_formula_structural   Tb4Sb6Ru2Rh5
_chemical_formula_sum   'Tb4 Sb6 Ru2 Rh5'
_cell_volume   338.89658427
_cell_formula_units_Z   1
loop_
 _symmetry_equiv_pos_site_id
 _symmetry_equiv_pos_as_xyz
  1  'x, y, z'
loop_
 _atom_site_type_symbol
 _atom_site_label
 _atom_site_symmetry_multiplicity
 _atom_site_fract_x
 _atom_site_fract_y
 _atom_site_fract_z
 _atom_site_occupancy
  Tb  Tb0  1  0.500000  0.999320  0.000680  1
  Tb  Tb1  1  0.001359  0.500680  0.000680  1
  Tb  Tb2  1  0.998641  0.999320  0.499320  1
  Tb  Tb3  1  0.500000  0.500680  0.499320  1
  Sb  Sb4  1  0.000000  0.315587  0.315587  1
  Sb  Sb5  1  0.684057  0.999005  0.683062  1
  Sb  Sb6  1  0.684057  0.685052  0.000995  1
  Sb  Sb7  1  0.000000  0.684413  0.684413  1
  Sb  Sb8  1  0.315943  0.999005  0.314948  1
  Sb  Sb9  1  0.315943  0.316938  0.000995  1
  Ru  Ru10  1  0.000000  0.000000  0.000000  1
  Ru  Ru11  1  0.500000  0.750000  0.250000  1
  Rh  Rh12  1  0.750521  0.499938  0.250458  1
  Rh  Rh13  1  0.249479  0.749542  0.500062  1
  Rh  Rh14  1  0.249479  0.499938  0.749417  1
  Rh  Rh15  1  0.500000  0.250000  0.750000  1
  Rh  Rh16  1  0.750521  0.250583  0.500062  1
