# generated using pymatgen
data_Tm16CdIn3CoNi2Ru
_symmetry_space_group_name_H-M   'P 1'
_cell_length_a   9.42114981
_cell_length_b   9.42229392
_cell_length_c   9.42229400
_cell_angle_alpha   60.06171433
_cell_angle_beta   60.07433917
_cell_angle_gamma   60.07433216
_symmetry_Int_Tables_number   1
_chemical_formula_structural   Tm16CdIn3CoNi2Ru
_chemical_formula_sum   'Tm16 Cd1 In3 Co1 Ni2 Ru1'
_cell_volume   592.36837756
_cell_formula_units_Z   1
loop_
 _symmetry_equiv_pos_site_id
 _symmetry_equiv_pos_as_xyz
  1  'x, y, z'
loop_
 _atom_site_type_symbol
 _atom_site_label
 _atom_site_symmetry_multiplicity
 _atom_site_fract_x
 _atom_site_fract_y
 _atom_site_fract_z
 _atom_site_occupancy
  Tm  Tm0  1  0.349128  0.347817  0.345299  1
  Tm  Tm1  1  0.348273  0.346975  0.956442  1
  Tm  Tm2  1  0.349282  0.955441  0.346317  1
  Tm  Tm3  1  0.953429  0.350079  0.348250  1
  Tm  Tm4  1  0.813134  0.187648  0.189402  1
  Tm  Tm5  1  0.187158  0.811979  0.811865  1
  Tm  Tm6  1  0.186695  0.814785  0.188755  1
  Tm  Tm7  1  0.811207  0.188748  0.810329  1
  Tm  Tm8  1  0.189399  0.189159  0.813356  1
  Tm  Tm9  1  0.810382  0.809719  0.189825  1
  Tm  Tm10  1  0.940126  0.559272  0.565152  1
  Tm  Tm11  1  0.562678  0.936522  0.936618  1
  Tm  Tm12  1  0.559693  0.937845  0.563836  1
  Tm  Tm13  1  0.939890  0.560711  0.935939  1
  Tm  Tm14  1  0.564351  0.562780  0.935916  1
  Tm  Tm15  1  0.942815  0.939825  0.561133  1
  Cd  Cd16  1  0.251686  0.582295  0.582942  1
  In  In17  1  0.581961  0.583076  0.583750  1
  In  In18  1  0.579868  0.583009  0.252593  1
  In  In19  1  0.580484  0.252168  0.583825  1
  Co  Co20  1  0.141040  0.142893  0.141037  1
  Ni  Ni21  1  0.141002  0.574692  0.142060  1
  Ni  Ni22  1  0.575386  0.140774  0.141726  1
  Ru  Ru23  1  0.140934  0.141786  0.573629  1
