# generated using pymatgen
data_LaTb4NdTa2O14
_symmetry_space_group_name_H-M   'P 1'
_cell_length_a   6.55027232
_cell_length_b   6.55027204
_cell_length_c   7.64470801
_cell_angle_alpha   89.99612667
_cell_angle_beta   90.00387320
_cell_angle_gamma   109.11557036
_symmetry_Int_Tables_number   1
_chemical_formula_structural   LaTb4NdTa2O14
_chemical_formula_sum   'La1 Tb4 Nd1 Ta2 O14'
_cell_volume   309.91816819
_cell_formula_units_Z   1
loop_
 _symmetry_equiv_pos_site_id
 _symmetry_equiv_pos_as_xyz
  1  'x, y, z'
loop_
 _atom_site_type_symbol
 _atom_site_label
 _atom_site_symmetry_multiplicity
 _atom_site_fract_x
 _atom_site_fract_y
 _atom_site_fract_z
 _atom_site_occupancy
  La  La0  1  0.500000  0.500000  0.500000  1
  Tb  Tb1  1  0.000593  0.533664  0.249160  1
  Tb  Tb2  1  0.999407  0.466336  0.750840  1
  Tb  Tb3  1  0.533664  0.000593  0.750840  1
  Tb  Tb4  1  0.466336  0.999407  0.249160  1
  Nd  Nd5  1  0.500000  0.500000  0.000000  1
  Ta  Ta6  1  0.000000  0.000000  0.500000  1
  Ta  Ta7  1  0.000000  0.000000  0.000000  1
  O  O8  1  0.937538  0.062462  0.750073  1
  O  O9  1  0.062462  0.937538  0.249927  1
  O  O10  1  0.357634  0.642366  0.247403  1
  O  O11  1  0.642366  0.357634  0.752597  1
  O  O12  1  0.364024  0.635976  0.753149  1
  O  O13  1  0.635976  0.364024  0.246851  1
  O  O14  1  0.318565  0.068469  0.968354  1
  O  O15  1  0.681946  0.934178  0.468038  1
  O  O16  1  0.318054  0.065822  0.531962  1
  O  O17  1  0.681435  0.931531  0.031646  1
  O  O18  1  0.065822  0.318054  0.468038  1
  O  O19  1  0.931531  0.681435  0.968354  1
  O  O20  1  0.934178  0.681946  0.531962  1
  O  O21  1  0.068469  0.318565  0.031646  1
