# generated using pymatgen
data_Tb5Tm11ZnIn3Rh4
_symmetry_space_group_name_H-M   'P 1'
_cell_length_a   9.53573258
_cell_length_b   9.52260426
_cell_length_c   9.52260259
_cell_angle_alpha   60.20429063
_cell_angle_beta   60.05843020
_cell_angle_gamma   60.05842672
_symmetry_Int_Tables_number   1
_chemical_formula_structural   Tb5Tm11ZnIn3Rh4
_chemical_formula_sum   'Tb5 Tm11 Zn1 In3 Rh4'
_cell_volume   612.91558509
_cell_formula_units_Z   1
loop_
 _symmetry_equiv_pos_site_id
 _symmetry_equiv_pos_as_xyz
  1  'x, y, z'
loop_
 _atom_site_type_symbol
 _atom_site_label
 _atom_site_symmetry_multiplicity
 _atom_site_fract_x
 _atom_site_fract_y
 _atom_site_fract_z
 _atom_site_occupancy
  Tb  Tb0  1  0.061742  0.062150  0.438199  1
  Tb  Tb1  1  0.435951  0.069083  0.435202  1
  Tb  Tb2  1  0.061742  0.438199  0.062150  1
  Tb  Tb3  1  0.055167  0.646803  0.646803  1
  Tb  Tb4  1  0.435951  0.435202  0.069083  1
  Tm  Tm5  1  0.647171  0.053073  0.647362  1
  Tm  Tm6  1  0.188415  0.813289  0.187989  1
  Tm  Tm7  1  0.188415  0.187989  0.813289  1
  Tm  Tm8  1  0.810281  0.810470  0.190329  1
  Tm  Tm9  1  0.440463  0.059589  0.059589  1
  Tm  Tm10  1  0.813083  0.188453  0.188453  1
  Tm  Tm11  1  0.066580  0.437459  0.437459  1
  Tm  Tm12  1  0.810281  0.190329  0.810470  1
  Tm  Tm13  1  0.190222  0.811207  0.811207  1
  Tm  Tm14  1  0.647171  0.647362  0.053073  1
  Tm  Tm15  1  0.651197  0.652094  0.652094  1
  Zn  Zn16  1  0.416737  0.416649  0.416649  1
  In  In17  1  0.744185  0.417999  0.417999  1
  In  In18  1  0.419314  0.743835  0.416789  1
  In  In19  1  0.419314  0.416789  0.743835  1
  Rh  Rh20  1  0.857812  0.858548  0.426019  1
  Rh  Rh21  1  0.853959  0.858173  0.858173  1
  Rh  Rh22  1  0.427033  0.859238  0.859238  1
  Rh  Rh23  1  0.857812  0.426019  0.858548  1
