# generated using pymatgen
data_Zr3Tl2(SbS5)2
_symmetry_space_group_name_H-M   'P 1'
_cell_length_a   6.48050646
_cell_length_b   10.91209113
_cell_length_c   8.64221300
_cell_angle_alpha   60.54459517
_cell_angle_beta   68.38831812
_cell_angle_gamma   90.35199037
_symmetry_Int_Tables_number   1
_chemical_formula_structural   Zr3Tl2(SbS5)2
_chemical_formula_sum   'Zr3 Tl2 Sb2 S10'
_cell_volume   481.31724372
_cell_formula_units_Z   1
loop_
 _symmetry_equiv_pos_site_id
 _symmetry_equiv_pos_as_xyz
  1  'x, y, z'
loop_
 _atom_site_type_symbol
 _atom_site_label
 _atom_site_symmetry_multiplicity
 _atom_site_fract_x
 _atom_site_fract_y
 _atom_site_fract_z
 _atom_site_occupancy
  Zr  Zr0  1  0.402581  0.801988  0.196946  1
  Zr  Zr1  1  0.594771  0.199744  0.810381  1
  Zr  Zr2  1  0.002475  0.999458  0.994182  1
  Tl  Tl3  1  0.783846  0.074922  0.426873  1
  Tl  Tl4  1  0.010632  0.523720  0.976763  1
  Sb  Sb5  1  0.797459  0.601038  0.407140  1
  Sb  Sb6  1  0.204231  0.399856  0.588555  1
  S  S7  1  0.002735  0.845229  0.340265  1
  S  S8  1  0.599328  0.036138  0.150384  1
  S  S9  1  0.188591  0.228550  0.959665  1
  S  S10  1  0.772656  0.426948  0.767877  1
  S  S11  1  0.383740  0.651696  0.540186  1
  S  S12  1  0.402749  0.963612  0.851787  1
  S  S13  1  0.996041  0.153643  0.657765  1
  S  S14  1  0.619492  0.346429  0.461061  1
  S  S15  1  0.231296  0.575758  0.229679  1
  S  S16  1  0.807378  0.771271  0.040493  1
