# generated using pymatgen
data_Tm2Sc3Si7(Pt2Rh)3
_symmetry_space_group_name_H-M   'P 1'
_cell_length_a   10.04811800
_cell_length_b   10.04811711
_cell_length_c   3.90262500
_cell_angle_alpha   90.00000000
_cell_angle_beta   90.00000000
_cell_angle_gamma   119.99999634
_symmetry_Int_Tables_number   1
_chemical_formula_structural   Tm2Sc3Si7(Pt2Rh)3
_chemical_formula_sum   'Tm2 Sc3 Si7 Pt6 Rh3'
_cell_volume   341.23760466
_cell_formula_units_Z   1
loop_
 _symmetry_equiv_pos_site_id
 _symmetry_equiv_pos_as_xyz
  1  'x, y, z'
loop_
 _atom_site_type_symbol
 _atom_site_label
 _atom_site_symmetry_multiplicity
 _atom_site_fract_x
 _atom_site_fract_y
 _atom_site_fract_z
 _atom_site_occupancy
  Tm  Tm0  1  0.000000  0.000000  0.000000  1
  Tm  Tm1  1  0.333333  0.666667  0.500000  1
  Sc  Sc2  1  0.894925  0.456122  0.500000  1
  Sc  Sc3  1  0.561197  0.105075  0.500000  1
  Sc  Sc4  1  0.543878  0.438803  0.500000  1
  Si  Si5  1  0.243322  0.195328  0.500000  1
  Si  Si6  1  0.804672  0.047996  0.500000  1
  Si  Si7  1  0.952004  0.756678  0.500000  1
  Si  Si8  1  0.558649  0.649959  0.000000  1
  Si  Si9  1  0.350041  0.908690  0.000000  1
  Si  Si10  1  0.091310  0.441351  0.000000  1
  Si  Si11  1  0.666667  0.333333  0.000000  1
  Pt  Pt12  1  0.313460  0.411801  0.000000  1
  Pt  Pt13  1  0.588199  0.901658  0.000000  1
  Pt  Pt14  1  0.098342  0.686540  0.000000  1
  Pt  Pt15  1  0.383448  0.172525  0.000000  1
  Pt  Pt16  1  0.827475  0.210922  0.000000  1
  Pt  Pt17  1  0.789078  0.616552  0.000000  1
  Rh  Rh18  1  0.220496  0.937547  0.500000  1
  Rh  Rh19  1  0.062453  0.282949  0.500000  1
  Rh  Rh20  1  0.717051  0.779504  0.500000  1
