# generated using pymatgen
data_Tm5Lu11(ScSb3)4
_symmetry_space_group_name_H-M   'P 1'
_cell_length_a   7.87436904
_cell_length_b   9.09659700
_cell_length_c   11.58061306
_cell_angle_alpha   90.00000000
_cell_angle_beta   89.98842442
_cell_angle_gamma   90.00000000
_symmetry_Int_Tables_number   1
_chemical_formula_structural   Tm5Lu11(ScSb3)4
_chemical_formula_sum   'Tm5 Lu11 Sc4 Sb12'
_cell_volume   829.51885397
_cell_formula_units_Z   1
loop_
 _symmetry_equiv_pos_site_id
 _symmetry_equiv_pos_as_xyz
  1  'x, y, z'
loop_
 _atom_site_type_symbol
 _atom_site_label
 _atom_site_symmetry_multiplicity
 _atom_site_fract_x
 _atom_site_fract_y
 _atom_site_fract_z
 _atom_site_occupancy
  Tm  Tm0  1  0.185203  0.750000  0.720638  1
  Tm  Tm1  1  0.685255  0.750000  0.779390  1
  Tm  Tm2  1  0.814881  0.250000  0.279418  1
  Tm  Tm3  1  0.314592  0.250000  0.220536  1
  Tm  Tm4  1  0.855429  0.750000  0.284644  1
  Lu  Lu5  1  0.197154  0.562769  0.439799  1
  Lu  Lu6  1  0.697096  0.937285  0.060109  1
  Lu  Lu7  1  0.802936  0.062716  0.560237  1
  Lu  Lu8  1  0.302984  0.437219  0.939797  1
  Lu  Lu9  1  0.802936  0.437284  0.560237  1
  Lu  Lu10  1  0.302984  0.062781  0.939797  1
  Lu  Lu11  1  0.197154  0.937231  0.439799  1
  Lu  Lu12  1  0.697096  0.562715  0.060109  1
  Lu  Lu13  1  0.355226  0.750000  0.215377  1
  Lu  Lu14  1  0.144679  0.250000  0.715360  1
  Lu  Lu15  1  0.644469  0.250000  0.784558  1
  Sc  Sc16  1  0.028169  0.750000  0.988706  1
  Sc  Sc17  1  0.527937  0.750000  0.511186  1
  Sc  Sc18  1  0.972056  0.250000  0.011125  1
  Sc  Sc19  1  0.471907  0.250000  0.488997  1
  Sb  Sb20  1  0.933133  0.496185  0.830567  1
  Sb  Sb21  1  0.433082  0.003886  0.669345  1
  Sb  Sb22  1  0.067001  0.996353  0.169403  1
  Sb  Sb23  1  0.566749  0.503773  0.330607  1
  Sb  Sb24  1  0.067001  0.503647  0.169403  1
  Sb  Sb25  1  0.566749  0.996227  0.330607  1
  Sb  Sb26  1  0.933133  0.003815  0.830567  1
  Sb  Sb27  1  0.433082  0.496114  0.669345  1
  Sb  Sb28  1  0.906817  0.750000  0.541271  1
  Sb  Sb29  1  0.406614  0.750000  0.959143  1
  Sb  Sb30  1  0.093249  0.250000  0.459085  1
  Sb  Sb31  1  0.593251  0.250000  0.040838  1
