# generated using pymatgen
data_Tb3Ho7Cd3Co
_symmetry_space_group_name_H-M   'P 1'
_cell_length_a   9.56292500
_cell_length_b   9.56292563
_cell_length_c   9.74632400
_cell_angle_alpha   90.00000000
_cell_angle_beta   90.00000000
_cell_angle_gamma   119.99999436
_symmetry_Int_Tables_number   1
_chemical_formula_structural   Tb3Ho7Cd3Co
_chemical_formula_sum   'Tb6 Ho14 Cd6 Co2'
_cell_volume   771.88576007
_cell_formula_units_Z   2
loop_
 _symmetry_equiv_pos_site_id
 _symmetry_equiv_pos_as_xyz
  1  'x, y, z'
loop_
 _atom_site_type_symbol
 _atom_site_label
 _atom_site_symmetry_multiplicity
 _atom_site_fract_x
 _atom_site_fract_y
 _atom_site_fract_z
 _atom_site_occupancy
  Tb  Tb0  1  0.542410  0.457590  0.250000  1
  Tb  Tb1  1  0.542410  0.084820  0.250000  1
  Tb  Tb2  1  0.915180  0.457590  0.250000  1
  Tb  Tb3  1  0.457590  0.542410  0.750000  1
  Tb  Tb4  1  0.457590  0.915180  0.750000  1
  Tb  Tb5  1  0.084820  0.542410  0.750000  1
  Ho  Ho6  1  0.000000  0.000000  0.500000  1
  Ho  Ho7  1  0.000000  0.000000  0.000000  1
  Ho  Ho8  1  0.211961  0.788039  0.436129  1
  Ho  Ho9  1  0.211961  0.423923  0.436129  1
  Ho  Ho10  1  0.576077  0.788039  0.436129  1
  Ho  Ho11  1  0.788039  0.211961  0.563871  1
  Ho  Ho12  1  0.788039  0.576077  0.563871  1
  Ho  Ho13  1  0.423923  0.211961  0.563871  1
  Ho  Ho14  1  0.788039  0.211961  0.936129  1
  Ho  Ho15  1  0.788039  0.576077  0.936129  1
  Ho  Ho16  1  0.423923  0.211961  0.936129  1
  Ho  Ho17  1  0.211961  0.788039  0.063871  1
  Ho  Ho18  1  0.211961  0.423923  0.063871  1
  Ho  Ho19  1  0.576077  0.788039  0.063871  1
  Cd  Cd20  1  0.885474  0.114526  0.250000  1
  Cd  Cd21  1  0.885474  0.770947  0.250000  1
  Cd  Cd22  1  0.229053  0.114526  0.250000  1
  Cd  Cd23  1  0.114526  0.885474  0.750000  1
  Cd  Cd24  1  0.114526  0.229053  0.750000  1
  Cd  Cd25  1  0.770947  0.885474  0.750000  1
  Co  Co26  1  0.333333  0.666667  0.250000  1
  Co  Co27  1  0.666667  0.333333  0.750000  1
