# generated using pymatgen
data_Tb18Y2Sn11Bi5
_symmetry_space_group_name_H-M   'P 1'
_cell_length_a   8.22531515
_cell_length_b   8.23125602
_cell_length_c   15.62882626
_cell_angle_alpha   90.11057917
_cell_angle_beta   90.37098527
_cell_angle_gamma   89.89350037
_symmetry_Int_Tables_number   1
_chemical_formula_structural   Tb18Y2Sn11Bi5
_chemical_formula_sum   'Tb18 Y2 Sn11 Bi5'
_cell_volume   1058.11864402
_cell_formula_units_Z   1
loop_
 _symmetry_equiv_pos_site_id
 _symmetry_equiv_pos_as_xyz
  1  'x, y, z'
loop_
 _atom_site_type_symbol
 _atom_site_label
 _atom_site_symmetry_multiplicity
 _atom_site_fract_x
 _atom_site_fract_y
 _atom_site_fract_z
 _atom_site_occupancy
  Tb  Tb0  1  0.391504  0.838404  0.877539  1
  Tb  Tb1  1  0.891632  0.660982  0.621730  1
  Tb  Tb2  1  0.608523  0.159594  0.377629  1
  Tb  Tb3  1  0.105521  0.337985  0.121862  1
  Tb  Tb4  1  0.610834  0.164824  0.122410  1
  Tb  Tb5  1  0.114949  0.336250  0.380163  1
  Tb  Tb6  1  0.383497  0.837801  0.620687  1
  Tb  Tb7  1  0.888094  0.658378  0.878909  1
  Tb  Tb8  1  0.562449  0.335672  0.889418  1
  Tb  Tb9  1  0.060529  0.172585  0.608403  1
  Tb  Tb10  1  0.440279  0.672468  0.392106  1
  Tb  Tb11  1  0.940545  0.824578  0.111849  1
  Tb  Tb12  1  0.449342  0.664079  0.110701  1
  Tb  Tb13  1  0.958174  0.829254  0.393197  1
  Tb  Tb14  1  0.541055  0.330314  0.606127  1
  Tb  Tb15  1  0.053613  0.173574  0.889182  1
  Tb  Tb16  1  0.221407  0.501346  0.745894  1
  Tb  Tb17  1  0.721623  0.000993  0.748736  1
  Y  Y18  1  0.778433  0.498589  0.248189  1
  Y  Y19  1  0.278596  0.999149  0.253746  1
  Sn  Sn20  1  0.224740  0.526117  0.543784  1
  Sn  Sn21  1  0.275091  0.025080  0.456269  1
  Sn  Sn22  1  0.770576  0.478983  0.044858  1
  Sn  Sn23  1  0.586949  0.628509  0.748737  1
  Sn  Sn24  1  0.085623  0.873735  0.751792  1
  Sn  Sn25  1  0.411964  0.372331  0.249967  1
  Sn  Sn26  1  0.913562  0.125799  0.250975  1
  Sn  Sn27  1  0.359588  0.144129  0.751063  1
  Sn  Sn28  1  0.857555  0.356970  0.747964  1
  Sn  Sn29  1  0.642189  0.855643  0.251164  1
  Sn  Sn30  1  0.142128  0.641169  0.250326  1
  Bi  Bi31  1  0.266526  0.014982  0.045567  1
  Bi  Bi32  1  0.768939  0.479274  0.455150  1
  Bi  Bi33  1  0.730476  0.980188  0.544032  1
  Bi  Bi34  1  0.232107  0.518208  0.954795  1
  Bi  Bi35  1  0.731387  0.982065  0.955079  1
