# generated using pymatgen
data_Cs6TiFe(Se2S)2
_symmetry_space_group_name_H-M   'P 1'
_cell_length_a   10.77575229
_cell_length_b   10.77575190
_cell_length_c   13.86221600
_cell_angle_alpha   90.00000000
_cell_angle_beta   90.00000000
_cell_angle_gamma   137.88018239
_symmetry_Int_Tables_number   1
_chemical_formula_structural   Cs6TiFe(Se2S)2
_chemical_formula_sum   'Cs12 Ti2 Fe2 Se8 S4'
_cell_volume   1079.55626592
_cell_formula_units_Z   2
loop_
 _symmetry_equiv_pos_site_id
 _symmetry_equiv_pos_as_xyz
  1  'x, y, z'
loop_
 _atom_site_type_symbol
 _atom_site_label
 _atom_site_symmetry_multiplicity
 _atom_site_fract_x
 _atom_site_fract_y
 _atom_site_fract_z
 _atom_site_occupancy
  Cs  Cs0  1  0.893564  0.887601  0.687025  1
  Cs  Cs1  1  0.112399  0.106436  0.312975  1
  Cs  Cs2  1  0.612399  0.606436  0.187025  1
  Cs  Cs3  1  0.393564  0.387601  0.812975  1
  Cs  Cs4  1  0.170425  0.528321  0.125362  1
  Cs  Cs5  1  0.471679  0.829575  0.874638  1
  Cs  Cs6  1  0.971679  0.329575  0.625362  1
  Cs  Cs7  1  0.670425  0.028321  0.374638  1
  Cs  Cs8  1  0.838953  0.491808  0.878811  1
  Cs  Cs9  1  0.508192  0.161047  0.121189  1
  Cs  Cs10  1  0.008192  0.661047  0.378811  1
  Cs  Cs11  1  0.338953  0.991808  0.621189  1
  Ti  Ti12  1  0.930281  0.069719  0.000000  1
  Ti  Ti13  1  0.430281  0.569719  0.500000  1
  Fe  Fe14  1  0.072497  0.927503  0.000000  1
  Fe  Fe15  1  0.572497  0.427503  0.500000  1
  Se  Se16  1  0.727955  0.008012  0.122650  1
  Se  Se17  1  0.991988  0.272045  0.877350  1
  Se  Se18  1  0.491988  0.772045  0.622650  1
  Se  Se19  1  0.227955  0.508012  0.377350  1
  Se  Se20  1  0.277073  0.993770  0.877712  1
  Se  Se21  1  0.006230  0.722927  0.122288  1
  Se  Se22  1  0.506230  0.222927  0.377712  1
  Se  Se23  1  0.777073  0.493770  0.622288  1
  S  S24  1  0.293825  0.295061  0.563464  1
  S  S25  1  0.704939  0.706175  0.436536  1
  S  S26  1  0.204939  0.206175  0.063464  1
  S  S27  1  0.793825  0.795061  0.936536  1
