# generated using pymatgen
data_Rb2La5CeF20
_symmetry_space_group_name_H-M   'P 1'
_cell_length_a   8.82015567
_cell_length_b   8.82675093
_cell_length_c   8.75280000
_cell_angle_alpha   60.22704791
_cell_angle_beta   60.29405885
_cell_angle_gamma   59.47091920
_symmetry_Int_Tables_number   1
_chemical_formula_structural   Rb2La5CeF20
_chemical_formula_sum   'Rb2 La5 Ce1 F20'
_cell_volume   481.75690016
_cell_formula_units_Z   1
loop_
 _symmetry_equiv_pos_site_id
 _symmetry_equiv_pos_as_xyz
  1  'x, y, z'
loop_
 _atom_site_type_symbol
 _atom_site_label
 _atom_site_symmetry_multiplicity
 _atom_site_fract_x
 _atom_site_fract_y
 _atom_site_fract_z
 _atom_site_occupancy
  Rb  Rb0  1  0.249186  0.249256  0.250772  1
  Rb  Rb1  1  0.749228  0.749214  0.750814  1
  La  La2  1  0.759955  0.240084  0.240045  1
  La  La3  1  0.240028  0.759951  0.759972  1
  La  La4  1  0.239793  0.759763  0.240221  1
  La  La5  1  0.759779  0.239778  0.760207  1
  La  La6  1  0.240650  0.240646  0.759350  1
  Ce  Ce7  1  0.758795  0.758822  0.241205  1
  F  F8  1  0.828774  0.500801  0.499152  1
  F  F9  1  0.170823  0.500563  0.499451  1
  F  F10  1  0.500848  0.828728  0.171226  1
  F  F11  1  0.500549  0.170837  0.829177  1
  F  F12  1  0.501099  0.830170  0.498901  1
  F  F13  1  0.171402  0.500586  0.828598  1
  F  F14  1  0.500596  0.171393  0.499404  1
  F  F15  1  0.830146  0.501099  0.169854  1
  F  F16  1  0.500416  0.500457  0.827960  1
  F  F17  1  0.500447  0.500416  0.171150  1
  F  F18  1  0.172040  0.828832  0.499584  1
  F  F19  1  0.828850  0.172012  0.499553  1
  F  F20  1  0.110852  0.110524  0.112029  1
  F  F21  1  0.888492  0.888427  0.889408  1
  F  F22  1  0.110543  0.110838  0.666589  1
  F  F23  1  0.110592  0.666327  0.111508  1
  F  F24  1  0.888432  0.888485  0.333697  1
  F  F25  1  0.887971  0.333406  0.889148  1
  F  F26  1  0.666303  0.110612  0.111568  1
  F  F27  1  0.333411  0.887970  0.889457  1
