# generated using pymatgen
data_Tb10CeDy5(CdNi)4
_symmetry_space_group_name_H-M   'P 1'
_cell_length_a   9.59717103
_cell_length_b   9.59370056
_cell_length_c   9.59369997
_cell_angle_alpha   59.80353454
_cell_angle_beta   59.85874380
_cell_angle_gamma   59.85874255
_symmetry_Int_Tables_number   1
_chemical_formula_structural   Tb10CeDy5(CdNi)4
_chemical_formula_sum   'Tb10 Ce1 Dy5 Cd4 Ni4'
_cell_volume   622.33429242
_cell_formula_units_Z   1
loop_
 _symmetry_equiv_pos_site_id
 _symmetry_equiv_pos_as_xyz
  1  'x, y, z'
loop_
 _atom_site_type_symbol
 _atom_site_label
 _atom_site_symmetry_multiplicity
 _atom_site_fract_x
 _atom_site_fract_y
 _atom_site_fract_z
 _atom_site_occupancy
  Tb  Tb0  1  0.189883  0.812275  0.189710  1
  Tb  Tb1  1  0.811845  0.189874  0.812184  1
  Tb  Tb2  1  0.189883  0.189710  0.812275  1
  Tb  Tb3  1  0.811845  0.812184  0.189874  1
  Tb  Tb4  1  0.939390  0.563267  0.563267  1
  Tb  Tb5  1  0.562067  0.935778  0.935778  1
  Tb  Tb6  1  0.563566  0.939161  0.563339  1
  Tb  Tb7  1  0.935936  0.562024  0.935778  1
  Tb  Tb8  1  0.563566  0.563339  0.939161  1
  Tb  Tb9  1  0.935936  0.935778  0.562024  1
  Ce  Ce10  1  0.342984  0.343113  0.343113  1
  Dy  Dy11  1  0.348344  0.348807  0.952101  1
  Dy  Dy12  1  0.348344  0.952101  0.348807  1
  Dy  Dy13  1  0.952241  0.348290  0.348290  1
  Dy  Dy14  1  0.811829  0.190079  0.190079  1
  Dy  Dy15  1  0.190308  0.811707  0.811707  1
  Cd  Cd16  1  0.580810  0.580869  0.580869  1
  Cd  Cd17  1  0.580696  0.580279  0.257139  1
  Cd  Cd18  1  0.580696  0.257139  0.580279  1
  Cd  Cd19  1  0.257367  0.580514  0.580514  1
  Ni  Ni20  1  0.142623  0.143274  0.143274  1
  Ni  Ni21  1  0.144305  0.144203  0.571344  1
  Ni  Ni22  1  0.144305  0.571344  0.144203  1
  Ni  Ni23  1  0.571228  0.144888  0.144888  1
