# generated using pymatgen
data_La3ThAl13Au9
_symmetry_space_group_name_H-M   'P 1'
_cell_length_a   11.80962733
_cell_length_b   11.80962589
_cell_length_c   4.28779300
_cell_angle_alpha   90.00000000
_cell_angle_beta   90.00000000
_cell_angle_gamma   119.97308567
_symmetry_Int_Tables_number   1
_chemical_formula_structural   La3ThAl13Au9
_chemical_formula_sum   'La3 Th1 Al13 Au9'
_cell_volume   518.02950403
_cell_formula_units_Z   1
loop_
 _symmetry_equiv_pos_site_id
 _symmetry_equiv_pos_as_xyz
  1  'x, y, z'
loop_
 _atom_site_type_symbol
 _atom_site_label
 _atom_site_symmetry_multiplicity
 _atom_site_fract_x
 _atom_site_fract_y
 _atom_site_fract_z
 _atom_site_occupancy
  La  La0  1  0.590561  0.795383  0.500000  1
  La  La1  1  0.204617  0.409439  0.500000  1
  La  La2  1  0.666810  0.333190  0.000000  1
  Th  Th3  1  0.204831  0.795169  0.500000  1
  Al  Al4  1  0.947674  0.291484  0.000000  1
  Al  Al5  1  0.708871  0.656398  0.000000  1
  Al  Al6  1  0.947570  0.656526  0.000000  1
  Al  Al7  1  0.343474  0.052430  0.000000  1
  Al  Al8  1  0.165576  0.082570  0.500000  1
  Al  Al9  1  0.917430  0.834424  0.500000  1
  Al  Al10  1  0.708516  0.052326  0.000000  1
  Al  Al11  1  0.531679  0.063383  0.500000  1
  Al  Al12  1  0.917224  0.082776  0.500000  1
  Al  Al13  1  0.343602  0.291129  0.000000  1
  Al  Al14  1  0.531815  0.468185  0.500000  1
  Al  Al15  1  0.936617  0.468321  0.500000  1
  Al  Al16  1  0.333049  0.666951  0.000000  1
  Au  Au17  1  0.458204  0.541796  0.000000  1
  Au  Au18  1  0.828822  0.914290  0.000000  1
  Au  Au19  1  0.456614  0.915847  0.000000  1
  Au  Au20  1  0.085710  0.171178  0.000000  1
  Au  Au21  1  0.086459  0.913541  0.000000  1
  Au  Au22  1  0.790288  0.580446  0.500000  1
  Au  Au23  1  0.084153  0.543386  0.000000  1
  Au  Au24  1  0.790286  0.209714  0.500000  1
  Au  Au25  1  0.419554  0.209712  0.500000  1
