# generated using pymatgen
data_Yb5Sc5(Si5Pt2)4
_symmetry_space_group_name_H-M   'P 1'
_cell_length_a   12.54398500
_cell_length_b   12.54398500
_cell_length_c   4.21876100
_cell_angle_alpha   90.00000000
_cell_angle_beta   90.00000000
_cell_angle_gamma   90.00000000
_symmetry_Int_Tables_number   1
_chemical_formula_structural   Yb5Sc5(Si5Pt2)4
_chemical_formula_sum   'Yb5 Sc5 Si20 Pt8'
_cell_volume   663.82862327
_cell_formula_units_Z   1
loop_
 _symmetry_equiv_pos_site_id
 _symmetry_equiv_pos_as_xyz
  1  'x, y, z'
loop_
 _atom_site_type_symbol
 _atom_site_label
 _atom_site_symmetry_multiplicity
 _atom_site_fract_x
 _atom_site_fract_y
 _atom_site_fract_z
 _atom_site_occupancy
  Yb  Yb0  1  0.000000  0.000000  0.000000  1
  Yb  Yb1  1  0.885283  0.385532  0.500000  1
  Yb  Yb2  1  0.114717  0.614468  0.500000  1
  Yb  Yb3  1  0.385532  0.114717  0.500000  1
  Yb  Yb4  1  0.614468  0.885283  0.500000  1
  Sc  Sc5  1  0.500000  0.500000  0.000000  1
  Sc  Sc6  1  0.672412  0.173621  0.500000  1
  Sc  Sc7  1  0.327588  0.826379  0.500000  1
  Sc  Sc8  1  0.173621  0.327588  0.500000  1
  Sc  Sc9  1  0.826379  0.672412  0.500000  1
  Si  Si10  1  0.565437  0.066586  0.000000  1
  Si  Si11  1  0.434563  0.933414  0.000000  1
  Si  Si12  1  0.066586  0.434563  0.000000  1
  Si  Si13  1  0.933414  0.565437  0.000000  1
  Si  Si14  1  0.668121  0.702917  0.000000  1
  Si  Si15  1  0.331879  0.297083  0.000000  1
  Si  Si16  1  0.165909  0.799809  0.000000  1
  Si  Si17  1  0.834091  0.200191  0.000000  1
  Si  Si18  1  0.297083  0.668121  0.000000  1
  Si  Si19  1  0.702917  0.331879  0.000000  1
  Si  Si20  1  0.200191  0.165909  0.000000  1
  Si  Si21  1  0.799809  0.834091  0.000000  1
  Si  Si22  1  0.647946  0.510150  0.500000  1
  Si  Si23  1  0.352054  0.489850  0.500000  1
  Si  Si24  1  0.151515  0.990715  0.500000  1
  Si  Si25  1  0.848485  0.009285  0.500000  1
  Si  Si26  1  0.489850  0.647946  0.500000  1
  Si  Si27  1  0.510150  0.352054  0.500000  1
  Si  Si28  1  0.009285  0.151515  0.500000  1
  Si  Si29  1  0.990715  0.848485  0.500000  1
  Pt  Pt30  1  0.741117  0.520725  0.000000  1
  Pt  Pt31  1  0.258883  0.479275  0.000000  1
  Pt  Pt32  1  0.244884  0.978779  0.000000  1
  Pt  Pt33  1  0.755116  0.021221  0.000000  1
  Pt  Pt34  1  0.479275  0.741117  0.000000  1
  Pt  Pt35  1  0.520725  0.258883  0.000000  1
  Pt  Pt36  1  0.021221  0.244884  0.000000  1
  Pt  Pt37  1  0.978779  0.755116  0.000000  1
