# generated using pymatgen
data_Sr10TiFeRu3O20
_symmetry_space_group_name_H-M   'P 1'
_cell_length_a   8.90857681
_cell_length_b   8.90857622
_cell_length_c   8.89626138
_cell_angle_alpha   120.47335165
_cell_angle_beta   120.41079505
_cell_angle_gamma   89.31626389
_symmetry_Int_Tables_number   1
_chemical_formula_structural   Sr10TiFeRu3O20
_chemical_formula_sum   'Sr10 Ti1 Fe1 Ru3 O20'
_cell_volume   495.51209258
_cell_formula_units_Z   1
loop_
 _symmetry_equiv_pos_site_id
 _symmetry_equiv_pos_as_xyz
  1  'x, y, z'
loop_
 _atom_site_type_symbol
 _atom_site_label
 _atom_site_symmetry_multiplicity
 _atom_site_fract_x
 _atom_site_fract_y
 _atom_site_fract_z
 _atom_site_occupancy
  Sr  Sr0  1  0.750919  0.153431  0.193140  1
  Sr  Sr1  1  0.358569  0.350688  0.998844  1
  Sr  Sr2  1  0.953301  0.556572  0.799988  1
  Sr  Sr3  1  0.554502  0.759546  0.602971  1
  Sr  Sr4  1  0.159016  0.957020  0.404243  1
  Sr  Sr5  1  0.648157  0.640276  0.998844  1
  Sr  Sr6  1  0.243415  0.846685  0.799988  1
  Sr  Sr7  1  0.843423  0.048468  0.602971  1
  Sr  Sr8  1  0.447223  0.245227  0.404243  1
  Sr  Sr9  1  0.039710  0.442222  0.193140  1
  Ti  Ti10  1  0.997541  0.001121  0.998661  1
  Fe  Fe11  1  0.601285  0.199448  0.800731  1
  Ru  Ru12  1  0.199434  0.398638  0.598070  1
  Ru  Ru13  1  0.799946  0.600913  0.400861  1
  Ru  Ru14  1  0.399471  0.800479  0.199950  1
  O  O15  1  0.558106  0.960375  0.197635  1
  O  O16  1  0.159654  0.158310  0.000496  1
  O  O17  1  0.763343  0.362416  0.801068  1
  O  O18  1  0.360701  0.558928  0.599690  1
  O  O19  1  0.962528  0.763335  0.401996  1
  O  O20  1  0.842187  0.840842  0.000496  1
  O  O21  1  0.438652  0.037723  0.801068  1
  O  O22  1  0.040761  0.238988  0.599690  1
  O  O23  1  0.638661  0.439469  0.401996  1
  O  O24  1  0.237261  0.639529  0.197635  1
  O  O25  1  0.701026  0.402545  0.103571  1
  O  O26  1  0.299400  0.598648  0.898047  1
  O  O27  1  0.901754  0.802280  0.704034  1
  O  O28  1  0.499684  0.997111  0.496794  1
  O  O29  1  0.099114  0.199321  0.298434  1
  O  O30  1  0.998042  0.499347  0.497389  1
  O  O31  1  0.600902  0.701565  0.302467  1
  O  O32  1  0.200347  0.901578  0.101926  1
  O  O33  1  0.804258  0.097825  0.902082  1
  O  O34  1  0.397711  0.299131  0.696842  1
