# generated using pymatgen
data_Ho2ReWF14
_symmetry_space_group_name_H-M   'P 1'
_cell_length_a   5.64626800
_cell_length_b   8.96181604
_cell_length_c   12.11962100
_cell_angle_alpha   62.73933310
_cell_angle_beta   90.00000000
_cell_angle_gamma   90.00000000
_symmetry_Int_Tables_number   1
_chemical_formula_structural   Ho2ReWF14
_chemical_formula_sum   'Ho4 Re2 W2 F28'
_cell_volume   545.14876763
_cell_formula_units_Z   2
loop_
 _symmetry_equiv_pos_site_id
 _symmetry_equiv_pos_as_xyz
  1  'x, y, z'
loop_
 _atom_site_type_symbol
 _atom_site_label
 _atom_site_symmetry_multiplicity
 _atom_site_fract_x
 _atom_site_fract_y
 _atom_site_fract_z
 _atom_site_occupancy
  Ho  Ho0  1  0.758691  0.815256  0.765930  1
  Ho  Ho1  1  0.258691  0.184744  0.734070  1
  Ho  Ho2  1  0.242559  0.186588  0.235411  1
  Ho  Ho3  1  0.742559  0.813412  0.264589  1
  Re  Re4  1  0.241805  0.726398  0.044160  1
  Re  Re5  1  0.741805  0.273602  0.455840  1
  W  W6  1  0.757143  0.271957  0.957388  1
  W  W7  1  0.257143  0.728043  0.542612  1
  F  F8  1  0.443979  0.706890  0.917811  1
  F  F9  1  0.943979  0.293110  0.582189  1
  F  F10  1  0.540660  0.292431  0.081806  1
  F  F11  1  0.040660  0.707569  0.418194  1
  F  F12  1  0.446629  0.275077  0.546226  1
  F  F13  1  0.946629  0.724923  0.953774  1
  F  F14  1  0.556105  0.725219  0.449746  1
  F  F15  1  0.056105  0.274781  0.050254  1
  F  F16  1  0.768782  0.523083  0.860622  1
  F  F17  1  0.268782  0.476917  0.639378  1
  F  F18  1  0.224879  0.478335  0.142844  1
  F  F19  1  0.724879  0.521665  0.357156  1
  F  F20  1  0.760625  0.021783  0.054917  1
  F  F21  1  0.260625  0.978217  0.445083  1
  F  F22  1  0.245589  0.973423  0.946224  1
  F  F23  1  0.745589  0.026577  0.553776  1
  F  F24  1  0.974285  0.730252  0.645462  1
  F  F25  1  0.474285  0.269748  0.854538  1
  F  F26  1  0.025059  0.271942  0.359439  1
  F  F27  1  0.525059  0.728058  0.140561  1
  F  F28  1  0.045754  0.746248  0.173696  1
  F  F29  1  0.545754  0.253752  0.326304  1
  F  F30  1  0.966465  0.251091  0.829053  1
  F  F31  1  0.466465  0.748909  0.670947  1
  F  F32  1  0.424921  0.972628  0.233848  1
  F  F33  1  0.924921  0.027372  0.266152  1
  F  F34  1  0.576071  0.027872  0.766402  1
  F  F35  1  0.076071  0.972128  0.733598  1
