# generated using pymatgen
data_Dy8Ti(Pd5Pt7)2
_symmetry_space_group_name_H-M   'P 1'
_cell_length_a   8.47788500
_cell_length_b   8.43959100
_cell_length_c   8.47903200
_cell_angle_alpha   90.00000000
_cell_angle_beta   90.00000000
_cell_angle_gamma   90.00000000
_symmetry_Int_Tables_number   1
_chemical_formula_structural   Dy8Ti(Pd5Pt7)2
_chemical_formula_sum   'Dy8 Ti1 Pd10 Pt14'
_cell_volume   606.67373861
_cell_formula_units_Z   1
loop_
 _symmetry_equiv_pos_site_id
 _symmetry_equiv_pos_as_xyz
  1  'x, y, z'
loop_
 _atom_site_type_symbol
 _atom_site_label
 _atom_site_symmetry_multiplicity
 _atom_site_fract_x
 _atom_site_fract_y
 _atom_site_fract_z
 _atom_site_occupancy
  Dy  Dy0  1  0.250386  0.251285  0.250626  1
  Dy  Dy1  1  0.749614  0.748715  0.749374  1
  Dy  Dy2  1  0.749614  0.748715  0.250626  1
  Dy  Dy3  1  0.749614  0.251285  0.749374  1
  Dy  Dy4  1  0.250386  0.251285  0.749374  1
  Dy  Dy5  1  0.250386  0.748715  0.250626  1
  Dy  Dy6  1  0.250386  0.748715  0.749374  1
  Dy  Dy7  1  0.749614  0.251285  0.250626  1
  Ti  Ti8  1  0.000000  0.000000  0.000000  1
  Pd  Pd9  1  0.500000  0.000000  0.264954  1
  Pd  Pd10  1  0.265047  0.000000  0.500000  1
  Pd  Pd11  1  0.500000  0.000000  0.735046  1
  Pd  Pd12  1  0.734953  0.000000  0.500000  1
  Pd  Pd13  1  0.000000  0.500000  0.264942  1
  Pd  Pd14  1  0.000000  0.500000  0.735058  1
  Pd  Pd15  1  0.500000  0.255617  0.500000  1
  Pd  Pd16  1  0.500000  0.744383  0.500000  1
  Pd  Pd17  1  0.500000  0.500000  0.255903  1
  Pd  Pd18  1  0.500000  0.500000  0.744097  1
  Pt  Pt19  1  0.264647  0.500000  0.000000  1
  Pt  Pt20  1  0.735353  0.500000  0.000000  1
  Pt  Pt21  1  0.000000  0.264111  0.500000  1
  Pt  Pt22  1  0.500000  0.263935  0.000000  1
  Pt  Pt23  1  0.000000  0.735889  0.500000  1
  Pt  Pt24  1  0.500000  0.736065  0.000000  1
  Pt  Pt25  1  0.254132  0.500000  0.500000  1
  Pt  Pt26  1  0.745868  0.500000  0.500000  1
  Pt  Pt27  1  0.300980  0.000000  0.000000  1
  Pt  Pt28  1  0.699020  0.000000  0.000000  1
  Pt  Pt29  1  0.000000  0.301081  0.000000  1
  Pt  Pt30  1  0.000000  0.698919  0.000000  1
  Pt  Pt31  1  0.000000  0.000000  0.300578  1
  Pt  Pt32  1  0.000000  0.000000  0.699422  1
