# generated using pymatgen
data_Tb7Nd2Er(In2Pd)4
_symmetry_space_group_name_H-M   'P 1'
_cell_length_a   3.65853700
_cell_length_b   8.19872792
_cell_length_c   18.44526862
_cell_angle_alpha   89.74175543
_cell_angle_beta   90.00000000
_cell_angle_gamma   90.00000000
_symmetry_Int_Tables_number   1
_chemical_formula_structural   Tb7Nd2Er(In2Pd)4
_chemical_formula_sum   'Tb7 Nd2 Er1 In8 Pd4'
_cell_volume   553.26665789
_cell_formula_units_Z   1
loop_
 _symmetry_equiv_pos_site_id
 _symmetry_equiv_pos_as_xyz
  1  'x, y, z'
loop_
 _atom_site_type_symbol
 _atom_site_label
 _atom_site_symmetry_multiplicity
 _atom_site_fract_x
 _atom_site_fract_y
 _atom_site_fract_z
 _atom_site_occupancy
  Tb  Tb0  1  0.000000  0.738812  0.282957  1
  Tb  Tb1  1  0.000000  0.260782  0.717550  1
  Tb  Tb2  1  0.000000  0.760995  0.781847  1
  Tb  Tb3  1  0.000000  0.238991  0.218048  1
  Tb  Tb4  1  0.000000  0.621086  0.084081  1
  Tb  Tb5  1  0.000000  0.378638  0.916361  1
  Tb  Tb6  1  0.000000  0.878779  0.583438  1
  Nd  Nd7  1  0.000000  0.500414  0.499632  1
  Nd  Nd8  1  0.000000  0.999674  0.000204  1
  Er  Er9  1  0.000000  0.120625  0.415218  1
  In  In10  1  0.500000  0.701269  0.931645  1
  In  In11  1  0.500000  0.298459  0.068395  1
  In  In12  1  0.500000  0.801487  0.432142  1
  In  In13  1  0.500000  0.200498  0.566743  1
  In  In14  1  0.500000  0.582006  0.653064  1
  In  In15  1  0.500000  0.415490  0.347105  1
  In  In16  1  0.500000  0.917863  0.153727  1
  In  In17  1  0.500000  0.081848  0.846840  1
  Pd  Pd18  1  0.500000  0.525085  0.196148  1
  Pd  Pd19  1  0.500000  0.475243  0.804097  1
  Pd  Pd20  1  0.500000  0.976189  0.695256  1
  Pd  Pd21  1  0.500000  0.025766  0.305500  1
