# generated using pymatgen
data_Ba2SiSnPd2
_symmetry_space_group_name_H-M   'P 1'
_cell_length_a   6.95343500
_cell_length_b   7.00796576
_cell_length_c   6.98550249
_cell_angle_alpha   90.39763406
_cell_angle_beta   90.00000000
_cell_angle_gamma   90.00000000
_symmetry_Int_Tables_number   1
_chemical_formula_structural   Ba2SiSnPd2
_chemical_formula_sum   'Ba4 Si2 Sn2 Pd4'
_cell_volume   340.39138776
_cell_formula_units_Z   2
loop_
 _symmetry_equiv_pos_site_id
 _symmetry_equiv_pos_as_xyz
  1  'x, y, z'
loop_
 _atom_site_type_symbol
 _atom_site_label
 _atom_site_symmetry_multiplicity
 _atom_site_fract_x
 _atom_site_fract_y
 _atom_site_fract_z
 _atom_site_occupancy
  Ba  Ba0  1  0.364628  0.856595  0.639592  1
  Ba  Ba1  1  0.864628  0.643405  0.360408  1
  Ba  Ba2  1  0.641602  0.368192  0.862556  1
  Ba  Ba3  1  0.141602  0.131808  0.137444  1
  Si  Si4  1  0.341720  0.663502  0.149669  1
  Si  Si5  1  0.841720  0.836498  0.850331  1
  Sn  Sn6  1  0.659792  0.157027  0.335126  1
  Sn  Sn7  1  0.159792  0.342973  0.664874  1
  Pd  Pd8  1  0.088472  0.614843  0.926464  1
  Pd  Pd9  1  0.588472  0.885157  0.073536  1
  Pd  Pd10  1  0.903786  0.065122  0.613713  1
  Pd  Pd11  1  0.403786  0.434878  0.386287  1
