# generated using pymatgen
data_Er2Be2GaRh5
_symmetry_space_group_name_H-M   'P 1'
_cell_length_a   9.59656600
_cell_length_b   9.59656600
_cell_length_c   3.21550200
_cell_angle_alpha   90.00000000
_cell_angle_beta   90.00000000
_cell_angle_gamma   90.00000000
_symmetry_Int_Tables_number   1
_chemical_formula_structural   Er2Be2GaRh5
_chemical_formula_sum   'Er4 Be4 Ga2 Rh10'
_cell_volume   296.12869519
_cell_formula_units_Z   2
loop_
 _symmetry_equiv_pos_site_id
 _symmetry_equiv_pos_as_xyz
  1  'x, y, z'
loop_
 _atom_site_type_symbol
 _atom_site_label
 _atom_site_symmetry_multiplicity
 _atom_site_fract_x
 _atom_site_fract_y
 _atom_site_fract_z
 _atom_site_occupancy
  Er  Er0  1  0.824200  0.324200  0.000000  1
  Er  Er1  1  0.324200  0.175800  0.000000  1
  Er  Er2  1  0.675800  0.824200  0.000000  1
  Er  Er3  1  0.175800  0.675800  0.000000  1
  Be  Be4  1  0.622650  0.122650  0.000000  1
  Be  Be5  1  0.122650  0.377350  0.000000  1
  Be  Be6  1  0.877350  0.622650  0.000000  1
  Be  Be7  1  0.377350  0.877350  0.000000  1
  Ga  Ga8  1  0.000000  0.000000  0.000000  1
  Ga  Ga9  1  0.500000  0.500000  0.000000  1
  Rh  Rh10  1  0.067709  0.211106  0.500000  1
  Rh  Rh11  1  0.211106  0.932291  0.500000  1
  Rh  Rh12  1  0.788894  0.067709  0.500000  1
  Rh  Rh13  1  0.932291  0.788894  0.500000  1
  Rh  Rh14  1  0.432291  0.711106  0.500000  1
  Rh  Rh15  1  0.567709  0.288894  0.500000  1
  Rh  Rh16  1  0.711106  0.567709  0.500000  1
  Rh  Rh17  1  0.288894  0.432291  0.500000  1
  Rh  Rh18  1  0.500000  0.000000  0.500000  1
  Rh  Rh19  1  0.000000  0.500000  0.500000  1
