# generated using pymatgen
data_Lu4HgSb5Rh7
_symmetry_space_group_name_H-M   'P 1'
_cell_length_a   7.55405457
_cell_length_b   7.55405584
_cell_length_c   7.55405500
_cell_angle_alpha   109.58809348
_cell_angle_beta   109.41281587
_cell_angle_gamma   109.41281117
_symmetry_Int_Tables_number   1
_chemical_formula_structural   Lu4HgSb5Rh7
_chemical_formula_sum   'Lu4 Hg1 Sb5 Rh7'
_cell_volume   331.83120903
_cell_formula_units_Z   1
loop_
 _symmetry_equiv_pos_site_id
 _symmetry_equiv_pos_as_xyz
  1  'x, y, z'
loop_
 _atom_site_type_symbol
 _atom_site_label
 _atom_site_symmetry_multiplicity
 _atom_site_fract_x
 _atom_site_fract_y
 _atom_site_fract_z
 _atom_site_occupancy
  Lu  Lu0  1  0.501143  0.009459  0.009459  1
  Lu  Lu1  1  0.000000  0.508316  0.009459  1
  Lu  Lu2  1  0.000000  0.009459  0.508316  1
  Lu  Lu3  1  0.498857  0.508316  0.508316  1
  Hg  Hg4  1  0.000000  0.292698  0.292698  1
  Sb  Sb5  1  0.686832  0.005083  0.691915  1
  Sb  Sb6  1  0.686832  0.691915  0.005083  1
  Sb  Sb7  1  0.000000  0.668000  0.668000  1
  Sb  Sb8  1  0.313168  0.005083  0.318250  1
  Sb  Sb9  1  0.313168  0.318250  0.005083  1
  Rh  Rh10  1  0.000000  0.969068  0.969068  1
  Rh  Rh11  1  0.500000  0.753832  0.253832  1
  Rh  Rh12  1  0.747022  0.501671  0.248694  1
  Rh  Rh13  1  0.252978  0.754648  0.501671  1
  Rh  Rh14  1  0.252978  0.501671  0.754648  1
  Rh  Rh15  1  0.500000  0.253832  0.753832  1
  Rh  Rh16  1  0.747022  0.248694  0.501671  1
