# generated using pymatgen
data_DyPa(Al3Ir)3
_symmetry_space_group_name_H-M   'P 1'
_cell_length_a   7.59852379
_cell_length_b   7.60257486
_cell_length_c   9.36646900
_cell_angle_alpha   90.00000000
_cell_angle_beta   90.00000000
_cell_angle_gamma   119.70062192
_symmetry_Int_Tables_number   1
_chemical_formula_structural   DyPa(Al3Ir)3
_chemical_formula_sum   'Dy2 Pa2 Al18 Ir6'
_cell_volume   470.00093902
_cell_formula_units_Z   2
loop_
 _symmetry_equiv_pos_site_id
 _symmetry_equiv_pos_as_xyz
  1  'x, y, z'
loop_
 _atom_site_type_symbol
 _atom_site_label
 _atom_site_symmetry_multiplicity
 _atom_site_fract_x
 _atom_site_fract_y
 _atom_site_fract_z
 _atom_site_occupancy
  Dy  Dy0  1  0.669159  0.993813  0.750000  1
  Dy  Dy1  1  0.330841  0.006187  0.250000  1
  Pa  Pa2  1  0.997352  0.670844  0.750000  1
  Pa  Pa3  1  0.002648  0.329156  0.250000  1
  Al  Al4  1  0.129774  0.127348  0.750000  1
  Al  Al5  1  0.870226  0.872652  0.250000  1
  Al  Al6  1  0.000451  0.331485  0.577473  1
  Al  Al7  1  0.999549  0.668515  0.422527  1
  Al  Al8  1  0.999549  0.668515  0.077473  1
  Al  Al9  1  0.337923  0.003224  0.925531  1
  Al  Al10  1  0.000451  0.331485  0.922527  1
  Al  Al11  1  0.662077  0.996776  0.074469  1
  Al  Al12  1  0.662077  0.996776  0.425531  1
  Al  Al13  1  0.337923  0.003224  0.574469  1
  Al  Al14  1  0.335517  0.333324  0.053922  1
  Al  Al15  1  0.664483  0.666676  0.946078  1
  Al  Al16  1  0.664483  0.666676  0.553922  1
  Al  Al17  1  0.335517  0.333324  0.446078  1
  Al  Al18  1  0.340346  0.547797  0.750000  1
  Al  Al19  1  0.659654  0.452203  0.250000  1
  Al  Al20  1  0.547746  0.340328  0.750000  1
  Al  Al21  1  0.452254  0.659672  0.250000  1
  Ir  Ir22  1  0.676131  0.330058  0.499787  1
  Ir  Ir23  1  0.323869  0.669942  0.500213  1
  Ir  Ir24  1  0.323869  0.669942  0.999787  1
  Ir  Ir25  1  0.676131  0.330058  0.000213  1
  Ir  Ir26  1  0.000000  0.000000  0.500000  1
  Ir  Ir27  1  0.000000  0.000000  0.000000  1
