# generated using pymatgen
data_Na4As3Pd4
_symmetry_space_group_name_H-M   'P 1'
_cell_length_a   5.77710396
_cell_length_b   7.74085661
_cell_length_c   10.74266242
_cell_angle_alpha   107.35200994
_cell_angle_beta   105.59798888
_cell_angle_gamma   90.00000359
_symmetry_Int_Tables_number   1
_chemical_formula_structural   Na4As3Pd4
_chemical_formula_sum   'Na8 As6 Pd8'
_cell_volume   439.97500977
_cell_formula_units_Z   2
loop_
 _symmetry_equiv_pos_site_id
 _symmetry_equiv_pos_as_xyz
  1  'x, y, z'
loop_
 _atom_site_type_symbol
 _atom_site_label
 _atom_site_symmetry_multiplicity
 _atom_site_fract_x
 _atom_site_fract_y
 _atom_site_fract_z
 _atom_site_occupancy
  Na  Na0  1  0.196250  0.670802  0.132343  1
  Na  Na1  1  0.936092  0.170803  0.132343  1
  Na  Na2  1  0.803646  0.910039  0.338950  1
  Na  Na3  1  0.535305  0.410039  0.338950  1
  Na  Na4  1  0.464696  0.589961  0.661050  1
  Na  Na5  1  0.196354  0.089961  0.661050  1
  Na  Na6  1  0.063908  0.829197  0.867657  1
  Na  Na7  1  0.803749  0.329197  0.867657  1
  As  As8  1  0.382051  0.250000  0.000000  1
  As  As9  1  0.617950  0.750000  0.000000  1
  As  As10  1  0.034519  0.562996  0.336073  1
  As  As11  1  0.301554  0.062996  0.336073  1
  As  As12  1  0.698444  0.937004  0.663926  1
  As  As13  1  0.965481  0.437004  0.663927  1
  Pd  Pd14  1  0.689963  0.519258  0.123188  1
  Pd  Pd15  1  0.433224  0.019258  0.123188  1
  Pd  Pd16  1  0.358082  0.821373  0.450866  1
  Pd  Pd17  1  0.092785  0.321373  0.450866  1
  Pd  Pd18  1  0.907213  0.678627  0.549134  1
  Pd  Pd19  1  0.641918  0.178627  0.549134  1
  Pd  Pd20  1  0.566776  0.980742  0.876812  1
  Pd  Pd21  1  0.310036  0.480742  0.876812  1
