# generated using pymatgen
data_Tm10Cd3Cu
_symmetry_space_group_name_H-M   'P 1'
_cell_length_a   9.48680400
_cell_length_b   9.48683092
_cell_length_c   9.69648600
_cell_angle_alpha   90.00000000
_cell_angle_beta   90.00000000
_cell_angle_gamma   120.00005531
_symmetry_Int_Tables_number   1
_chemical_formula_structural   Tm10Cd3Cu
_chemical_formula_sum   'Tm20 Cd6 Cu2'
_cell_volume   755.76339430
_cell_formula_units_Z   2
loop_
 _symmetry_equiv_pos_site_id
 _symmetry_equiv_pos_as_xyz
  1  'x, y, z'
loop_
 _atom_site_type_symbol
 _atom_site_label
 _atom_site_symmetry_multiplicity
 _atom_site_fract_x
 _atom_site_fract_y
 _atom_site_fract_z
 _atom_site_occupancy
  Tm  Tm0  1  0.000000  0.000000  0.500000  1
  Tm  Tm1  1  0.000000  0.000000  0.000000  1
  Tm  Tm2  1  0.210281  0.789719  0.443346  1
  Tm  Tm3  1  0.210281  0.420562  0.443346  1
  Tm  Tm4  1  0.579438  0.789719  0.443346  1
  Tm  Tm5  1  0.789719  0.210281  0.556654  1
  Tm  Tm6  1  0.789719  0.579438  0.556654  1
  Tm  Tm7  1  0.420562  0.210281  0.556654  1
  Tm  Tm8  1  0.789719  0.210281  0.943346  1
  Tm  Tm9  1  0.789719  0.579438  0.943346  1
  Tm  Tm10  1  0.420562  0.210281  0.943346  1
  Tm  Tm11  1  0.210281  0.789719  0.056654  1
  Tm  Tm12  1  0.210281  0.420562  0.056654  1
  Tm  Tm13  1  0.579438  0.789719  0.056654  1
  Tm  Tm14  1  0.543835  0.456165  0.250000  1
  Tm  Tm15  1  0.543835  0.087669  0.250000  1
  Tm  Tm16  1  0.912331  0.456165  0.250000  1
  Tm  Tm17  1  0.456165  0.543835  0.750000  1
  Tm  Tm18  1  0.456165  0.912331  0.750000  1
  Tm  Tm19  1  0.087669  0.543835  0.750000  1
  Cd  Cd20  1  0.885845  0.114155  0.250000  1
  Cd  Cd21  1  0.885845  0.771691  0.250000  1
  Cd  Cd22  1  0.228309  0.114155  0.250000  1
  Cd  Cd23  1  0.114155  0.885845  0.750000  1
  Cd  Cd24  1  0.114155  0.228309  0.750000  1
  Cd  Cd25  1  0.771691  0.885845  0.750000  1
  Cu  Cu26  1  0.333334  0.666668  0.250000  1
  Cu  Cu27  1  0.666666  0.333332  0.750000  1
