# generated using pymatgen
data_ErPa3Ge4IrPt3
_symmetry_space_group_name_H-M   'P 1'
_cell_length_a   4.38232600
_cell_length_b   7.00978463
_cell_length_c   7.66818461
_cell_angle_alpha   90.28160198
_cell_angle_beta   90.00000000
_cell_angle_gamma   90.00000000
_symmetry_Int_Tables_number   1
_chemical_formula_structural   ErPa3Ge4IrPt3
_chemical_formula_sum   'Er1 Pa3 Ge4 Ir1 Pt3'
_cell_volume   235.55735560
_cell_formula_units_Z   1
loop_
 _symmetry_equiv_pos_site_id
 _symmetry_equiv_pos_as_xyz
  1  'x, y, z'
loop_
 _atom_site_type_symbol
 _atom_site_label
 _atom_site_symmetry_multiplicity
 _atom_site_fract_x
 _atom_site_fract_y
 _atom_site_fract_z
 _atom_site_occupancy
  Er  Er0  1  0.250000  0.993903  0.295870  1
  Pa  Pa1  1  0.250000  0.491094  0.202135  1
  Pa  Pa2  1  0.750000  0.498058  0.796982  1
  Pa  Pa3  1  0.750000  0.011223  0.709524  1
  Ge  Ge4  1  0.250000  0.818890  0.913630  1
  Ge  Ge5  1  0.750000  0.186853  0.089429  1
  Ge  Ge6  1  0.750000  0.689003  0.410282  1
  Ge  Ge7  1  0.250000  0.307464  0.585051  1
  Ir  Ir8  1  0.250000  0.228383  0.913723  1
  Pt  Pt9  1  0.250000  0.712927  0.587051  1
  Pt  Pt10  1  0.750000  0.281431  0.414830  1
  Pt  Pt11  1  0.750000  0.780769  0.081492  1
