# generated using pymatgen
data_Tb6Er4Si5Sb
_symmetry_space_group_name_H-M   'P 1'
_cell_length_a   8.53893500
_cell_length_b   8.56411843
_cell_length_c   6.39085300
_cell_angle_alpha   90.00000000
_cell_angle_beta   90.00000000
_cell_angle_gamma   119.90277030
_symmetry_Int_Tables_number   1
_chemical_formula_structural   Tb6Er4Si5Sb
_chemical_formula_sum   'Tb6 Er4 Si5 Sb1'
_cell_volume   405.13568576
_cell_formula_units_Z   1
loop_
 _symmetry_equiv_pos_site_id
 _symmetry_equiv_pos_as_xyz
  1  'x, y, z'
loop_
 _atom_site_type_symbol
 _atom_site_label
 _atom_site_symmetry_multiplicity
 _atom_site_fract_x
 _atom_site_fract_y
 _atom_site_fract_z
 _atom_site_occupancy
  Tb  Tb0  1  0.988034  0.746074  0.750000  1
  Tb  Tb1  1  0.998838  0.244706  0.250000  1
  Tb  Tb2  1  0.754132  0.755294  0.250000  1
  Tb  Tb3  1  0.764473  0.000000  0.750000  1
  Tb  Tb4  1  0.241960  0.253926  0.750000  1
  Tb  Tb5  1  0.242814  0.000000  0.250000  1
  Er  Er6  1  0.331087  0.656651  0.496202  1
  Er  Er7  1  0.674437  0.343349  0.003798  1
  Er  Er8  1  0.674437  0.343349  0.496202  1
  Er  Er9  1  0.331087  0.656651  0.003798  1
  Si  Si10  1  0.394435  0.392670  0.250000  1
  Si  Si11  1  0.001765  0.607330  0.250000  1
  Si  Si12  1  0.998762  0.395145  0.750000  1
  Si  Si13  1  0.603617  0.604855  0.750000  1
  Si  Si14  1  0.605559  0.000000  0.250000  1
  Sb  Sb15  1  0.394563  0.000000  0.750000  1
