# generated using pymatgen
data_Sr10Si10O
_symmetry_space_group_name_H-M   'P 1'
_cell_length_a   11.28429439
_cell_length_b   11.28429424
_cell_length_c   11.28429371
_cell_angle_alpha   155.13275298
_cell_angle_beta   110.42181478
_cell_angle_gamma   75.15450196
_symmetry_Int_Tables_number   1
_chemical_formula_structural   Sr10Si10O
_chemical_formula_sum   'Sr10 Si10 O1'
_cell_volume   559.57740999
_cell_formula_units_Z   1
loop_
 _symmetry_equiv_pos_site_id
 _symmetry_equiv_pos_as_xyz
  1  'x, y, z'
loop_
 _atom_site_type_symbol
 _atom_site_label
 _atom_site_symmetry_multiplicity
 _atom_site_fract_x
 _atom_site_fract_y
 _atom_site_fract_z
 _atom_site_occupancy
  Sr  Sr0  1  0.844836  0.844836  0.000000  1
  Sr  Sr1  1  0.198433  0.000000  0.198433  1
  Sr  Sr2  1  0.474939  0.810744  0.664194  1
  Sr  Sr3  1  0.853450  0.189256  0.664194  1
  Sr  Sr4  1  0.801567  0.000000  0.801567  1
  Sr  Sr5  1  0.000000  0.500000  0.500000  1
  Sr  Sr6  1  0.155164  0.155164  0.000000  1
  Sr  Sr7  1  0.525061  0.189256  0.335806  1
  Sr  Sr8  1  0.500000  0.000000  0.500000  1
  Sr  Sr9  1  0.146550  0.810744  0.335806  1
  Si  Si10  1  0.412295  0.567646  0.844649  1
  Si  Si11  1  0.277003  0.432354  0.844649  1
  Si  Si12  1  0.587705  0.432354  0.155351  1
  Si  Si13  1  0.722997  0.567646  0.155351  1
  Si  Si14  1  0.685939  0.368774  0.317165  1
  Si  Si15  1  0.641865  0.641865  0.000000  1
  Si  Si16  1  0.314061  0.631226  0.682835  1
  Si  Si17  1  0.358135  0.358135  0.000000  1
  Si  Si18  1  0.051609  0.368774  0.682835  1
  Si  Si19  1  0.948391  0.631226  0.317165  1
  O  O20  1  0.000000  0.000000  0.000000  1
