# generated using pymatgen
data_Rb2Th(TeO4)3
_symmetry_space_group_name_H-M   'P 1'
_cell_length_a   7.82487022
_cell_length_b   7.82486960
_cell_length_c   7.82289668
_cell_angle_alpha   56.31409368
_cell_angle_beta   56.31409418
_cell_angle_gamma   56.29768378
_symmetry_Int_Tables_number   1
_chemical_formula_structural   Rb2Th(TeO4)3
_chemical_formula_sum   'Rb2 Th1 Te3 O12'
_cell_volume   309.76989825
_cell_formula_units_Z   1
loop_
 _symmetry_equiv_pos_site_id
 _symmetry_equiv_pos_as_xyz
  1  'x, y, z'
loop_
 _atom_site_type_symbol
 _atom_site_label
 _atom_site_symmetry_multiplicity
 _atom_site_fract_x
 _atom_site_fract_y
 _atom_site_fract_z
 _atom_site_occupancy
  Rb  Rb0  1  0.102890  0.120963  0.609601  1
  Rb  Rb1  1  0.879037  0.897110  0.390399  1
  Th  Th2  1  0.497138  0.502862  0.000000  1
  Te  Te3  1  0.498208  0.002008  0.000340  1
  Te  Te4  1  0.997992  0.501792  0.999660  1
  Te  Te5  1  0.497899  0.502101  0.500000  1
  O  O6  1  0.814697  0.818619  0.918266  1
  O  O7  1  0.429831  0.432475  0.352183  1
  O  O8  1  0.430714  0.853872  0.930588  1
  O  O9  1  0.814299  0.419142  0.316272  1
  O  O10  1  0.849897  0.433441  0.930696  1
  O  O11  1  0.415578  0.818631  0.316713  1
  O  O12  1  0.181381  0.185303  0.081734  1
  O  O13  1  0.567525  0.570169  0.647817  1
  O  O14  1  0.566559  0.150103  0.069304  1
  O  O15  1  0.181369  0.584422  0.683287  1
  O  O16  1  0.146128  0.569286  0.069412  1
  O  O17  1  0.580858  0.185701  0.683728  1
