# generated using pymatgen
data_Tb3SmEr(In2Pd)2
_symmetry_space_group_name_H-M   'P 1'
_cell_length_a   3.63840900
_cell_length_b   8.19890111
_cell_length_c   18.36100650
_cell_angle_alpha   89.94028372
_cell_angle_beta   90.00000000
_cell_angle_gamma   90.00000000
_symmetry_Int_Tables_number   1
_chemical_formula_structural   Tb3SmEr(In2Pd)2
_chemical_formula_sum   'Tb6 Sm2 Er2 In8 Pd4'
_cell_volume   547.72607199
_cell_formula_units_Z   2
loop_
 _symmetry_equiv_pos_site_id
 _symmetry_equiv_pos_as_xyz
  1  'x, y, z'
loop_
 _atom_site_type_symbol
 _atom_site_label
 _atom_site_symmetry_multiplicity
 _atom_site_fract_x
 _atom_site_fract_y
 _atom_site_fract_z
 _atom_site_occupancy
  Tb  Tb0  1  0.000000  0.739255  0.282107  1
  Tb  Tb1  1  0.000000  0.260745  0.717893  1
  Tb  Tb2  1  0.000000  0.761130  0.781700  1
  Tb  Tb3  1  0.000000  0.238870  0.218300  1
  Tb  Tb4  1  0.000000  0.620208  0.083725  1
  Tb  Tb5  1  0.000000  0.379792  0.916275  1
  Sm  Sm6  1  0.000000  0.500000  0.500000  1
  Sm  Sm7  1  0.000000  0.000000  0.000000  1
  Er  Er8  1  0.000000  0.880686  0.584388  1
  Er  Er9  1  0.000000  0.119314  0.415612  1
  In  In10  1  0.500000  0.703660  0.932326  1
  In  In11  1  0.500000  0.296340  0.067674  1
  In  In12  1  0.500000  0.798859  0.433190  1
  In  In13  1  0.500000  0.201141  0.566810  1
  In  In14  1  0.500000  0.582847  0.651786  1
  In  In15  1  0.500000  0.417153  0.348214  1
  In  In16  1  0.500000  0.919290  0.152313  1
  In  In17  1  0.500000  0.080710  0.847687  1
  Pd  Pd18  1  0.500000  0.523555  0.196035  1
  Pd  Pd19  1  0.500000  0.476445  0.803965  1
  Pd  Pd20  1  0.500000  0.975568  0.694757  1
  Pd  Pd21  1  0.500000  0.024432  0.305243  1
