# generated using pymatgen
data_Dy5YH18
_symmetry_space_group_name_H-M   'P 1'
_cell_length_a   6.33009200
_cell_length_b   6.33049383
_cell_length_c   6.59582100
_cell_angle_alpha   90.00213036
_cell_angle_beta   89.99893605
_cell_angle_gamma   120.00209037
_symmetry_Int_Tables_number   1
_chemical_formula_structural   Dy5YH18
_chemical_formula_sum   'Dy5 Y1 H18'
_cell_volume   228.89586974
_cell_formula_units_Z   1
loop_
 _symmetry_equiv_pos_site_id
 _symmetry_equiv_pos_as_xyz
  1  'x, y, z'
loop_
 _atom_site_type_symbol
 _atom_site_label
 _atom_site_symmetry_multiplicity
 _atom_site_fract_x
 _atom_site_fract_y
 _atom_site_fract_z
 _atom_site_occupancy
  Dy  Dy0  1  0.670126  0.670116  0.749994  1
  Dy  Dy1  1  0.329874  0.999990  0.749994  1
  Dy  Dy2  1  0.000000  0.329884  0.749993  1
  Dy  Dy3  1  0.329862  0.329878  0.249998  1
  Dy  Dy4  1  0.670138  0.000016  0.249998  1
  Y  Y5  1  0.000000  0.670074  0.249983  1
  H  H6  1  0.304937  0.304930  0.591891  1
  H  H7  1  0.695063  0.999993  0.591891  1
  H  H8  1  0.000000  0.695056  0.592240  1
  H  H9  1  0.694680  0.695105  0.091782  1
  H  H10  1  0.305320  0.000426  0.091782  1
  H  H11  1  0.000000  0.304539  0.091771  1
  H  H12  1  0.356383  0.356386  0.907753  1
  H  H13  1  0.643617  0.000003  0.907753  1
  H  H14  1  0.000000  0.643614  0.907401  1
  H  H15  1  0.643255  0.643606  0.407859  1
  H  H16  1  0.356745  0.000351  0.407859  1
  H  H17  1  0.000000  0.355988  0.407831  1
  H  H18  1  0.000000  0.000006  0.819227  1
  H  H19  1  0.000000  0.000376  0.319326  1
  H  H20  1  0.333338  0.666670  0.704940  1
  H  H21  1  0.666662  0.333331  0.704940  1
  H  H22  1  0.666339  0.333000  0.204904  1
  H  H23  1  0.333661  0.666662  0.204904  1
