# generated using pymatgen
data_Sc4MnAl3TcOs3
_symmetry_space_group_name_H-M   'P 1'
_cell_length_a   5.21004253
_cell_length_b   5.21033982
_cell_length_c   8.50849000
_cell_angle_alpha   90.00000000
_cell_angle_beta   90.00000000
_cell_angle_gamma   119.64170748
_symmetry_Int_Tables_number   1
_chemical_formula_structural   Sc4MnAl3TcOs3
_chemical_formula_sum   'Sc4 Mn1 Al3 Tc1 Os3'
_cell_volume   200.74610173
_cell_formula_units_Z   1
loop_
 _symmetry_equiv_pos_site_id
 _symmetry_equiv_pos_as_xyz
  1  'x, y, z'
loop_
 _atom_site_type_symbol
 _atom_site_label
 _atom_site_symmetry_multiplicity
 _atom_site_fract_x
 _atom_site_fract_y
 _atom_site_fract_z
 _atom_site_occupancy
  Sc  Sc0  1  0.662862  0.333271  0.685118  1
  Sc  Sc1  1  0.334621  0.670499  0.806662  1
  Sc  Sc2  1  0.334621  0.670499  0.193338  1
  Sc  Sc3  1  0.662862  0.333271  0.314882  1
  Mn  Mn4  1  0.847531  0.157097  0.000000  1
  Al  Al5  1  0.158385  0.831746  0.500000  1
  Al  Al6  1  0.350863  0.156604  0.000000  1
  Al  Al7  1  0.848516  0.654031  0.000000  1
  Tc  Tc8  1  0.168328  0.343136  0.500000  1
  Os  Os9  1  0.993048  0.013450  0.242458  1
  Os  Os10  1  0.993048  0.013450  0.757542  1
  Os  Os11  1  0.645871  0.822388  0.500000  1
