# generated using pymatgen
data_Tm6GaTe2
_symmetry_space_group_name_H-M   'P 1'
_cell_length_a   4.07773300
_cell_length_b   11.26429800
_cell_length_c   20.96592000
_cell_angle_alpha   90.00000000
_cell_angle_beta   90.00000000
_cell_angle_gamma   90.00000000
_symmetry_Int_Tables_number   1
_chemical_formula_structural   Tm6GaTe2
_chemical_formula_sum   'Tm24 Ga4 Te8'
_cell_volume   963.02340339
_cell_formula_units_Z   4
loop_
 _symmetry_equiv_pos_site_id
 _symmetry_equiv_pos_as_xyz
  1  'x, y, z'
loop_
 _atom_site_type_symbol
 _atom_site_label
 _atom_site_symmetry_multiplicity
 _atom_site_fract_x
 _atom_site_fract_y
 _atom_site_fract_z
 _atom_site_occupancy
  Tm  Tm0  1  0.750000  0.574959  0.856940  1
  Tm  Tm1  1  0.250000  0.168010  0.391295  1
  Tm  Tm2  1  0.250000  0.889393  0.491140  1
  Tm  Tm3  1  0.750000  0.831990  0.608705  1
  Tm  Tm4  1  0.750000  0.878198  0.975073  1
  Tm  Tm5  1  0.750000  0.621802  0.475073  1
  Tm  Tm6  1  0.750000  0.389393  0.008860  1
  Tm  Tm7  1  0.250000  0.425041  0.143060  1
  Tm  Tm8  1  0.250000  0.074959  0.643060  1
  Tm  Tm9  1  0.250000  0.746514  0.230860  1
  Tm  Tm10  1  0.250000  0.040933  0.844826  1
  Tm  Tm11  1  0.250000  0.753486  0.730860  1
  Tm  Tm12  1  0.750000  0.253486  0.769140  1
  Tm  Tm13  1  0.750000  0.668010  0.108705  1
  Tm  Tm14  1  0.250000  0.121802  0.024927  1
  Tm  Tm15  1  0.750000  0.246514  0.269140  1
  Tm  Tm16  1  0.750000  0.540933  0.655174  1
  Tm  Tm17  1  0.250000  0.459067  0.344826  1
  Tm  Tm18  1  0.750000  0.959067  0.155174  1
  Tm  Tm19  1  0.750000  0.110607  0.508860  1
  Tm  Tm20  1  0.250000  0.331990  0.891295  1
  Tm  Tm21  1  0.750000  0.925041  0.356940  1
  Tm  Tm22  1  0.250000  0.610607  0.991140  1
  Tm  Tm23  1  0.250000  0.378198  0.524927  1
  Ga  Ga24  1  0.750000  0.143257  0.925761  1
  Ga  Ga25  1  0.250000  0.856743  0.074239  1
  Ga  Ga26  1  0.250000  0.643257  0.574239  1
  Ga  Ga27  1  0.750000  0.356743  0.425761  1
  Te  Te28  1  0.750000  0.968195  0.739942  1
  Te  Te29  1  0.750000  0.279790  0.625028  1
  Te  Te30  1  0.250000  0.779790  0.874972  1
  Te  Te31  1  0.250000  0.031805  0.260058  1
  Te  Te32  1  0.250000  0.720210  0.374972  1
  Te  Te33  1  0.250000  0.468195  0.760058  1
  Te  Te34  1  0.750000  0.220210  0.125028  1
  Te  Te35  1  0.750000  0.531805  0.239942  1
