# generated using pymatgen
data_Sr7Sm(Tm3Sn4)4
_symmetry_space_group_name_H-M   'P 1'
_cell_length_a   8.14504778
_cell_length_b   8.34789840
_cell_length_c   15.70119900
_cell_angle_alpha   89.97191457
_cell_angle_beta   90.12942661
_cell_angle_gamma   90.27966900
_symmetry_Int_Tables_number   1
_chemical_formula_structural   Sr7Sm(Tm3Sn4)4
_chemical_formula_sum   'Sr7 Sm1 Tm12 Sn16'
_cell_volume   1067.57225323
_cell_formula_units_Z   1
loop_
 _symmetry_equiv_pos_site_id
 _symmetry_equiv_pos_as_xyz
  1  'x, y, z'
loop_
 _atom_site_type_symbol
 _atom_site_label
 _atom_site_symmetry_multiplicity
 _atom_site_fract_x
 _atom_site_fract_y
 _atom_site_fract_z
 _atom_site_occupancy
  Sr  Sr0  1  0.506128  0.326304  0.906897  1
  Sr  Sr1  1  0.005778  0.172527  0.593642  1
  Sr  Sr2  1  0.496134  0.672792  0.408312  1
  Sr  Sr3  1  0.996013  0.825651  0.089869  1
  Sr  Sr4  1  0.497186  0.676057  0.089741  1
  Sr  Sr5  1  0.995822  0.827021  0.408839  1
  Sr  Sr6  1  0.505254  0.326710  0.595416  1
  Sm  Sm7  1  0.002759  0.179485  0.903452  1
  Tm  Tm8  1  0.335142  0.839500  0.875254  1
  Tm  Tm9  1  0.831825  0.660459  0.628680  1
  Tm  Tm10  1  0.665949  0.162859  0.375136  1
  Tm  Tm11  1  0.165371  0.337779  0.125264  1
  Tm  Tm12  1  0.664083  0.159899  0.123614  1
  Tm  Tm13  1  0.166166  0.338555  0.374660  1
  Tm  Tm14  1  0.332490  0.837814  0.627187  1
  Tm  Tm15  1  0.832051  0.660563  0.873244  1
  Tm  Tm16  1  0.172409  0.496898  0.751094  1
  Tm  Tm17  1  0.671735  0.003452  0.750368  1
  Tm  Tm18  1  0.827888  0.503321  0.249415  1
  Tm  Tm19  1  0.325804  0.996129  0.249390  1
  Sn  Sn20  1  0.327356  0.047401  0.040053  1
  Sn  Sn21  1  0.835841  0.457858  0.457790  1
  Sn  Sn22  1  0.663916  0.957357  0.544575  1
  Sn  Sn23  1  0.163943  0.534846  0.954779  1
  Sn  Sn24  1  0.675733  0.962289  0.953871  1
  Sn  Sn25  1  0.163482  0.542320  0.544737  1
  Sn  Sn26  1  0.336177  0.043860  0.457441  1
  Sn  Sn27  1  0.837420  0.450555  0.039118  1
  Sn  Sn28  1  0.528878  0.632612  0.751573  1
  Sn  Sn29  1  0.030948  0.874534  0.752467  1
  Sn  Sn30  1  0.468611  0.368621  0.248894  1
  Sn  Sn31  1  0.965830  0.129256  0.250262  1
  Sn  Sn32  1  0.302032  0.137116  0.753597  1
  Sn  Sn33  1  0.815634  0.355874  0.752776  1
  Sn  Sn34  1  0.694068  0.864877  0.249007  1
  Sn  Sn35  1  0.194144  0.636851  0.249585  1
