# generated using pymatgen
data_Lu8B24MoIr2Os
_symmetry_space_group_name_H-M   'P 1'
_cell_length_a   3.59905600
_cell_length_b   9.06147490
_cell_length_c   11.43144531
_cell_angle_alpha   90.22591465
_cell_angle_beta   90.00000000
_cell_angle_gamma   90.00000000
_symmetry_Int_Tables_number   1
_chemical_formula_structural   Lu8B24MoIr2Os
_chemical_formula_sum   'Lu8 B24 Mo1 Ir2 Os1'
_cell_volume   372.80803406
_cell_formula_units_Z   1
loop_
 _symmetry_equiv_pos_site_id
 _symmetry_equiv_pos_as_xyz
  1  'x, y, z'
loop_
 _atom_site_type_symbol
 _atom_site_label
 _atom_site_symmetry_multiplicity
 _atom_site_fract_x
 _atom_site_fract_y
 _atom_site_fract_z
 _atom_site_occupancy
  Lu  Lu0  1  0.000000  0.315395  0.409271  1
  Lu  Lu1  1  0.000000  0.682454  0.586935  1
  Lu  Lu2  1  0.000000  0.824011  0.084333  1
  Lu  Lu3  1  0.000000  0.177214  0.918196  1
  Lu  Lu4  1  0.000000  0.946025  0.373718  1
  Lu  Lu5  1  0.000000  0.054514  0.627898  1
  Lu  Lu6  1  0.000000  0.443327  0.125212  1
  Lu  Lu7  1  0.000000  0.558405  0.873680  1
  B  B8  1  0.500000  0.553310  0.434931  1
  B  B9  1  0.500000  0.445742  0.565145  1
  B  B10  1  0.500000  0.051283  0.063883  1
  B  B11  1  0.500000  0.945963  0.932696  1
  B  B12  1  0.500000  0.750223  0.421956  1
  B  B13  1  0.500000  0.249242  0.578718  1
  B  B14  1  0.500000  0.251133  0.077721  1
  B  B15  1  0.500000  0.751408  0.919740  1
  B  B16  1  0.500000  0.791852  0.265797  1
  B  B17  1  0.500000  0.208165  0.735897  1
  B  B18  1  0.500000  0.295530  0.236483  1
  B  B19  1  0.500000  0.707086  0.764449  1
  B  B20  1  0.500000  0.631602  0.183466  1
  B  B21  1  0.500000  0.369324  0.817165  1
  B  B22  1  0.500000  0.131291  0.317571  1
  B  B23  1  0.500000  0.868410  0.683969  1
  B  B24  1  0.500000  0.978151  0.213559  1
  B  B25  1  0.500000  0.017999  0.786830  1
  B  B26  1  0.500000  0.481245  0.287516  1
  B  B27  1  0.500000  0.518969  0.712578  1
  B  B28  1  0.500000  0.606232  0.028820  1
  B  B29  1  0.500000  0.396461  0.969689  1
  B  B30  1  0.500000  0.105408  0.472837  1
  B  B31  1  0.500000  0.893940  0.529462  1
  Mo  Mo32  1  0.000000  0.137630  0.179496  1
  Ir  Ir33  1  0.000000  0.637262  0.322585  1
  Ir  Ir34  1  0.000000  0.363012  0.678495  1
  Os  Os35  1  0.000000  0.860782  0.819301  1
