# generated using pymatgen
data_Pr9Nd(AgBi3)2
_symmetry_space_group_name_H-M   'P 1'
_cell_length_a   9.76536102
_cell_length_b   9.76638431
_cell_length_c   6.68706800
_cell_angle_alpha   90.00000000
_cell_angle_beta   90.00000000
_cell_angle_gamma   120.00346651
_symmetry_Int_Tables_number   1
_chemical_formula_structural   Pr9Nd(AgBi3)2
_chemical_formula_sum   'Pr9 Nd1 Ag2 Bi6'
_cell_volume   552.29779969
_cell_formula_units_Z   1
loop_
 _symmetry_equiv_pos_site_id
 _symmetry_equiv_pos_as_xyz
  1  'x, y, z'
loop_
 _atom_site_type_symbol
 _atom_site_label
 _atom_site_symmetry_multiplicity
 _atom_site_fract_x
 _atom_site_fract_y
 _atom_site_fract_z
 _atom_site_occupancy
  Pr  Pr0  1  0.666686  0.333367  0.000017  1
  Pr  Pr1  1  0.333314  0.666682  0.000017  1
  Pr  Pr2  1  0.333314  0.666682  0.499983  1
  Pr  Pr3  1  0.666686  0.333367  0.499983  1
  Pr  Pr4  1  0.726329  0.726302  0.750000  1
  Pr  Pr5  1  0.273671  0.999972  0.750000  1
  Pr  Pr6  1  0.000000  0.273704  0.750000  1
  Pr  Pr7  1  0.273699  0.273703  0.250000  1
  Pr  Pr8  1  0.726301  0.000004  0.250000  1
  Nd  Nd9  1  0.000000  0.726348  0.250000  1
  Ag  Ag10  1  0.000000  0.999892  0.000105  1
  Ag  Ag11  1  0.000000  0.999892  0.499895  1
  Bi  Bi12  1  0.377478  0.377476  0.750000  1
  Bi  Bi13  1  0.622522  0.999998  0.750000  1
  Bi  Bi14  1  0.000000  0.622560  0.750000  1
  Bi  Bi15  1  0.622721  0.622571  0.250000  1
  Bi  Bi16  1  0.377279  0.999851  0.250000  1
  Bi  Bi17  1  0.000000  0.377629  0.250000  1
