# generated using pymatgen
data_Tm7Lu3(PPb3)2
_symmetry_space_group_name_H-M   'P 1'
_cell_length_a   9.00882000
_cell_length_b   9.00882088
_cell_length_c   6.69406800
_cell_angle_alpha   90.00000000
_cell_angle_beta   90.00000000
_cell_angle_gamma   119.99999675
_symmetry_Int_Tables_number   1
_chemical_formula_structural   Tm7Lu3(PPb3)2
_chemical_formula_sum   'Tm7 Lu3 P2 Pb6'
_cell_volume   470.49674966
_cell_formula_units_Z   1
loop_
 _symmetry_equiv_pos_site_id
 _symmetry_equiv_pos_as_xyz
  1  'x, y, z'
loop_
 _atom_site_type_symbol
 _atom_site_label
 _atom_site_symmetry_multiplicity
 _atom_site_fract_x
 _atom_site_fract_y
 _atom_site_fract_z
 _atom_site_occupancy
  Tm  Tm0  1  0.238226  0.000050  0.249971  1
  Tm  Tm1  1  0.761823  0.000050  0.750029  1
  Tm  Tm2  1  0.999950  0.238177  0.249971  1
  Tm  Tm3  1  0.333333  0.666667  0.500000  1
  Tm  Tm4  1  0.999950  0.761774  0.750029  1
  Tm  Tm5  1  0.238226  0.238177  0.750029  1
  Tm  Tm6  1  0.761823  0.761774  0.249971  1
  Lu  Lu7  1  0.666667  0.333333  0.500000  1
  Lu  Lu8  1  0.666667  0.333333  0.000000  1
  Lu  Lu9  1  0.333333  0.666667  0.000000  1
  P  P10  1  0.000000  0.000000  0.000000  1
  P  P11  1  0.000000  0.000000  0.500000  1
  Pb  Pb12  1  0.400353  0.000094  0.750060  1
  Pb  Pb13  1  0.999906  0.400259  0.750060  1
  Pb  Pb14  1  0.400353  0.400259  0.249940  1
  Pb  Pb15  1  0.599741  0.000094  0.249940  1
  Pb  Pb16  1  0.999906  0.599647  0.249940  1
  Pb  Pb17  1  0.599741  0.599647  0.750060  1
