# generated using pymatgen
data_Gd4YSiSn3
_symmetry_space_group_name_H-M   'P 1'
_cell_length_a   9.44937100
_cell_length_b   9.44937183
_cell_length_c   6.62116600
_cell_angle_alpha   90.00000000
_cell_angle_beta   90.00000000
_cell_angle_gamma   120.00000061
_symmetry_Int_Tables_number   1
_chemical_formula_structural   Gd4YSiSn3
_chemical_formula_sum   'Gd8 Y2 Si2 Sn6'
_cell_volume   512.00115925
_cell_formula_units_Z   2
loop_
 _symmetry_equiv_pos_site_id
 _symmetry_equiv_pos_as_xyz
  1  'x, y, z'
loop_
 _atom_site_type_symbol
 _atom_site_label
 _atom_site_symmetry_multiplicity
 _atom_site_fract_x
 _atom_site_fract_y
 _atom_site_fract_z
 _atom_site_occupancy
  Gd  Gd0  1  0.333333  0.666667  0.500000  1
  Gd  Gd1  1  0.666667  0.333333  0.500000  1
  Gd  Gd2  1  0.748935  0.748935  0.749346  1
  Gd  Gd3  1  0.251065  0.000000  0.749346  1
  Gd  Gd4  1  0.000000  0.251065  0.749346  1
  Gd  Gd5  1  0.251065  0.251065  0.250654  1
  Gd  Gd6  1  0.748935  0.000000  0.250654  1
  Gd  Gd7  1  0.000000  0.748935  0.250654  1
  Y  Y8  1  0.666667  0.333333  0.000000  1
  Y  Y9  1  0.333333  0.666667  0.000000  1
  Si  Si10  1  0.000000  0.000000  0.000000  1
  Si  Si11  1  0.000000  0.000000  0.500000  1
  Sn  Sn12  1  0.395362  0.395362  0.749338  1
  Sn  Sn13  1  0.604638  0.000000  0.749338  1
  Sn  Sn14  1  0.000000  0.604638  0.749338  1
  Sn  Sn15  1  0.604638  0.604638  0.250662  1
  Sn  Sn16  1  0.395362  0.000000  0.250662  1
  Sn  Sn17  1  0.000000  0.395362  0.250662  1
