# generated using pymatgen
data_DyHo3(MnC2)2
_symmetry_space_group_name_H-M   'P 1'
_cell_length_a   5.02421600
_cell_length_b   6.31747400
_cell_length_c   9.65891800
_cell_angle_alpha   90.00000000
_cell_angle_beta   90.00000000
_cell_angle_gamma   90.00000000
_symmetry_Int_Tables_number   1
_chemical_formula_structural   DyHo3(MnC2)2
_chemical_formula_sum   'Dy2 Ho6 Mn4 C8'
_cell_volume   306.57747610
_cell_formula_units_Z   2
loop_
 _symmetry_equiv_pos_site_id
 _symmetry_equiv_pos_as_xyz
  1  'x, y, z'
loop_
 _atom_site_type_symbol
 _atom_site_label
 _atom_site_symmetry_multiplicity
 _atom_site_fract_x
 _atom_site_fract_y
 _atom_site_fract_z
 _atom_site_occupancy
  Dy  Dy0  1  0.250000  0.474868  0.785298  1
  Dy  Dy1  1  0.750000  0.025132  0.285298  1
  Ho  Ho2  1  0.250000  0.974722  0.714725  1
  Ho  Ho3  1  0.750000  0.525278  0.214725  1
  Ho  Ho4  1  0.250000  0.817189  0.054587  1
  Ho  Ho5  1  0.750000  0.682811  0.554587  1
  Ho  Ho6  1  0.250000  0.317258  0.445402  1
  Ho  Ho7  1  0.750000  0.182742  0.945402  1
  Mn  Mn8  1  0.250000  0.272503  0.142960  1
  Mn  Mn9  1  0.750000  0.227497  0.642960  1
  Mn  Mn10  1  0.250000  0.772310  0.356953  1
  Mn  Mn11  1  0.750000  0.727690  0.856953  1
  C  C12  1  0.250000  0.190874  0.964612  1
  C  C13  1  0.750000  0.808757  0.035526  1
  C  C14  1  0.250000  0.691243  0.535526  1
  C  C15  1  0.750000  0.309126  0.464612  1
  C  C16  1  0.250000  0.038007  0.259987  1
  C  C17  1  0.750000  0.461993  0.759987  1
  C  C18  1  0.250000  0.537995  0.239950  1
  C  C19  1  0.750000  0.962005  0.739950  1
