# generated using pymatgen
data_Na3Nd8Dy9Sn16
_symmetry_space_group_name_H-M   'P 1'
_cell_length_a   8.07681400
_cell_length_b   8.30198026
_cell_length_c   15.64955500
_cell_angle_alpha   90.00000000
_cell_angle_beta   90.00000000
_cell_angle_gamma   89.98572778
_symmetry_Int_Tables_number   1
_chemical_formula_structural   Na3Nd8Dy9Sn16
_chemical_formula_sum   'Na3 Nd8 Dy9 Sn16'
_cell_volume   1049.35819194
_cell_formula_units_Z   1
loop_
 _symmetry_equiv_pos_site_id
 _symmetry_equiv_pos_as_xyz
  1  'x, y, z'
loop_
 _atom_site_type_symbol
 _atom_site_label
 _atom_site_symmetry_multiplicity
 _atom_site_fract_x
 _atom_site_fract_y
 _atom_site_fract_z
 _atom_site_occupancy
  Na  Na0  1  0.676026  0.004236  0.750000  1
  Na  Na1  1  0.825285  0.502753  0.250000  1
  Na  Na2  1  0.324886  0.997587  0.250000  1
  Nd  Nd3  1  0.501871  0.315884  0.903583  1
  Nd  Nd4  1  0.995872  0.176305  0.595948  1
  Nd  Nd5  1  0.503822  0.682578  0.403754  1
  Nd  Nd6  1  0.002546  0.817032  0.096263  1
  Nd  Nd7  1  0.503822  0.682578  0.096246  1
  Nd  Nd8  1  0.002546  0.817032  0.403737  1
  Nd  Nd9  1  0.501871  0.315884  0.596417  1
  Nd  Nd10  1  0.995872  0.176305  0.904052  1
  Dy  Dy11  1  0.345625  0.833766  0.874056  1
  Dy  Dy12  1  0.840218  0.673412  0.625761  1
  Dy  Dy13  1  0.654713  0.172406  0.373582  1
  Dy  Dy14  1  0.154365  0.330036  0.125141  1
  Dy  Dy15  1  0.654713  0.172406  0.126418  1
  Dy  Dy16  1  0.154365  0.330036  0.374859  1
  Dy  Dy17  1  0.345625  0.833766  0.625944  1
  Dy  Dy18  1  0.840218  0.673412  0.874239  1
  Dy  Dy19  1  0.175891  0.500207  0.750000  1
  Sn  Sn20  1  0.321438  0.040748  0.037179  1
  Sn  Sn21  1  0.820740  0.460151  0.463200  1
  Sn  Sn22  1  0.677530  0.958958  0.535091  1
  Sn  Sn23  1  0.177505  0.535250  0.958479  1
  Sn  Sn24  1  0.677530  0.958958  0.964909  1
  Sn  Sn25  1  0.177505  0.535250  0.541521  1
  Sn  Sn26  1  0.321438  0.040748  0.462821  1
  Sn  Sn27  1  0.820740  0.460151  0.036800  1
  Sn  Sn28  1  0.539865  0.608108  0.750000  1
  Sn  Sn29  1  0.042142  0.884726  0.750000  1
  Sn  Sn30  1  0.457586  0.393564  0.250000  1
  Sn  Sn31  1  0.958327  0.109703  0.250000  1
  Sn  Sn32  1  0.299770  0.141454  0.750000  1
  Sn  Sn33  1  0.810091  0.364895  0.750000  1
  Sn  Sn34  1  0.700224  0.864740  0.250000  1
  Sn  Sn35  1  0.197417  0.634976  0.250000  1
