# generated using pymatgen
data_NdTh(Si2Rh3)2
_symmetry_space_group_name_H-M   'P 1'
_cell_length_a   6.69765245
_cell_length_b   6.69765316
_cell_length_c   6.69765153
_cell_angle_alpha   130.19268382
_cell_angle_beta   114.89289010
_cell_angle_gamma   86.19945700
_symmetry_Int_Tables_number   1
_chemical_formula_structural   NdTh(Si2Rh3)2
_chemical_formula_sum   'Nd1 Th1 Si4 Rh6'
_cell_volume   198.82955993
_cell_formula_units_Z   1
loop_
 _symmetry_equiv_pos_site_id
 _symmetry_equiv_pos_as_xyz
  1  'x, y, z'
loop_
 _atom_site_type_symbol
 _atom_site_label
 _atom_site_symmetry_multiplicity
 _atom_site_fract_x
 _atom_site_fract_y
 _atom_site_fract_z
 _atom_site_occupancy
  Nd  Nd0  1  0.250000  0.964145  0.714145  1
  Th  Th1  1  0.750000  0.040989  0.290989  1
  Si  Si2  1  0.573567  0.378993  0.805426  1
  Si  Si3  1  0.415622  0.614409  0.198788  1
  Si  Si4  1  0.084378  0.283166  0.198788  1
  Si  Si5  1  0.926433  0.731860  0.805426  1
  Rh  Rh6  1  0.213478  0.495838  0.712349  1
  Rh  Rh7  1  0.716511  0.998872  0.712349  1
  Rh  Rh8  1  0.783489  0.495838  0.282360  1
  Rh  Rh9  1  0.286522  0.998872  0.282360  1
  Rh  Rh10  1  0.509322  0.498509  0.507832  1
  Rh  Rh11  1  0.990678  0.498509  0.989187  1
