# generated using pymatgen
data_YHo9In8(IrPt)2
_symmetry_space_group_name_H-M   'P 1'
_cell_length_a   3.62079700
_cell_length_b   8.11213520
_cell_length_c   18.22204201
_cell_angle_alpha   89.95640745
_cell_angle_beta   90.00000000
_cell_angle_gamma   90.00000000
_symmetry_Int_Tables_number   1
_chemical_formula_structural   YHo9In8(IrPt)2
_chemical_formula_sum   'Y1 Ho9 In8 Ir2 Pt2'
_cell_volume   535.22485717
_cell_formula_units_Z   1
loop_
 _symmetry_equiv_pos_site_id
 _symmetry_equiv_pos_as_xyz
  1  'x, y, z'
loop_
 _atom_site_type_symbol
 _atom_site_label
 _atom_site_symmetry_multiplicity
 _atom_site_fract_x
 _atom_site_fract_y
 _atom_site_fract_z
 _atom_site_occupancy
  Y  Y0  1  0.000000  0.500000  0.500000  1
  Ho  Ho1  1  0.000000  0.115022  0.411981  1
  Ho  Ho2  1  0.000000  0.884978  0.588019  1
  Ho  Ho3  1  0.000000  0.383194  0.913951  1
  Ho  Ho4  1  0.000000  0.616806  0.086049  1
  Ho  Ho5  1  0.000000  0.236449  0.221824  1
  Ho  Ho6  1  0.000000  0.763551  0.778176  1
  Ho  Ho7  1  0.000000  0.248972  0.720097  1
  Ho  Ho8  1  0.000000  0.751028  0.279903  1
  Ho  Ho9  1  0.000000  0.000000  0.000000  1
  In  In10  1  0.500000  0.423660  0.350885  1
  In  In11  1  0.500000  0.576340  0.649115  1
  In  In12  1  0.500000  0.074557  0.850771  1
  In  In13  1  0.500000  0.925443  0.149229  1
  In  In14  1  0.500000  0.292425  0.066552  1
  In  In15  1  0.500000  0.707575  0.933448  1
  In  In16  1  0.500000  0.206419  0.567427  1
  In  In17  1  0.500000  0.793581  0.432573  1
  Ir  Ir18  1  0.500000  0.021704  0.303841  1
  Ir  Ir19  1  0.500000  0.978296  0.696159  1
  Pt  Pt20  1  0.500000  0.477028  0.803465  1
  Pt  Pt21  1  0.500000  0.522972  0.196535  1
