# generated using pymatgen
data_Nd20(Ir3Pt)3
_symmetry_space_group_name_H-M   'P 1'
_cell_length_a   11.35409721
_cell_length_b   11.35409121
_cell_length_c   6.56446052
_cell_angle_alpha   89.94495136
_cell_angle_beta   89.94497020
_cell_angle_gamma   90.14351272
_symmetry_Int_Tables_number   1
_chemical_formula_structural   Nd20(Ir3Pt)3
_chemical_formula_sum   'Nd20 Ir9 Pt3'
_cell_volume   846.25697999
_cell_formula_units_Z   1
loop_
 _symmetry_equiv_pos_site_id
 _symmetry_equiv_pos_as_xyz
  1  'x, y, z'
loop_
 _atom_site_type_symbol
 _atom_site_label
 _atom_site_symmetry_multiplicity
 _atom_site_fract_x
 _atom_site_fract_y
 _atom_site_fract_z
 _atom_site_occupancy
  Nd  Nd0  1  0.087039  0.290918  0.117263  1
  Nd  Nd1  1  0.792842  0.406304  0.117095  1
  Nd  Nd2  1  0.207503  0.589460  0.116636  1
  Nd  Nd3  1  0.909826  0.706928  0.116608  1
  Nd  Nd4  1  0.410540  0.792498  0.383366  1
  Nd  Nd5  1  0.593696  0.207157  0.382906  1
  Nd  Nd6  1  0.293073  0.090174  0.383392  1
  Nd  Nd7  1  0.709081  0.912962  0.382737  1
  Nd  Nd8  1  0.410926  0.205657  0.877472  1
  Nd  Nd9  1  0.707632  0.091466  0.882784  1
  Nd  Nd10  1  0.293998  0.910611  0.878391  1
  Nd  Nd11  1  0.589922  0.794877  0.877073  1
  Nd  Nd12  1  0.089389  0.706004  0.621609  1
  Nd  Nd13  1  0.908534  0.292366  0.617216  1
  Nd  Nd14  1  0.205124  0.410078  0.622927  1
  Nd  Nd15  1  0.794342  0.589074  0.622528  1
  Nd  Nd16  1  0.998192  0.001119  0.998547  1
  Nd  Nd17  1  0.500368  0.500153  0.998717  1
  Nd  Nd18  1  0.499846  0.499631  0.501283  1
  Nd  Nd19  1  0.998881  0.001808  0.501453  1
  Ir  Ir20  1  0.846482  0.153519  0.250000  1
  Ir  Ir21  1  0.347162  0.652838  0.749999  1
  Ir  Ir22  1  0.154440  0.153385  0.750138  1
  Ir  Ir23  1  0.846615  0.845559  0.749862  1
  Ir  Ir24  1  0.652108  0.347892  0.750000  1
  Ir  Ir25  1  0.000296  0.500920  0.377442  1
  Ir  Ir26  1  0.499080  0.999704  0.122557  1
  Ir  Ir27  1  0.499584  0.999489  0.619192  1
  Ir  Ir28  1  0.000511  0.500417  0.880807  1
  Pt  Pt29  1  0.153959  0.846041  0.250000  1
  Pt  Pt30  1  0.345031  0.346023  0.249699  1
  Pt  Pt31  1  0.653977  0.654969  0.250301  1
