# generated using pymatgen
data_Ho16Tm4Ir11Au
_symmetry_space_group_name_H-M   'P 1'
_cell_length_a   10.87770791
_cell_length_b   10.87770791
_cell_length_c   6.31082766
_cell_angle_alpha   89.96343983
_cell_angle_beta   89.96343983
_cell_angle_gamma   89.68779262
_symmetry_Int_Tables_number   1
_chemical_formula_structural   Ho16Tm4Ir11Au
_chemical_formula_sum   'Ho16 Tm4 Ir11 Au1'
_cell_volume   746.71432413
_cell_formula_units_Z   1
loop_
 _symmetry_equiv_pos_site_id
 _symmetry_equiv_pos_as_xyz
  1  'x, y, z'
loop_
 _atom_site_type_symbol
 _atom_site_label
 _atom_site_symmetry_multiplicity
 _atom_site_fract_x
 _atom_site_fract_y
 _atom_site_fract_z
 _atom_site_occupancy
  Ho  Ho0  1  0.290195  0.087919  0.376723  1
  Ho  Ho1  1  0.292027  0.911719  0.875679  1
  Ho  Ho2  1  0.704581  0.084469  0.866398  1
  Ho  Ho3  1  0.706241  0.905464  0.379791  1
  Ho  Ho4  1  0.587393  0.790566  0.878495  1
  Ho  Ho5  1  0.579665  0.210535  0.378675  1
  Ho  Ho6  1  0.411571  0.790809  0.377247  1
  Ho  Ho7  1  0.410981  0.209050  0.877304  1
  Ho  Ho8  1  0.209434  0.412607  0.621505  1
  Ho  Ho9  1  0.209191  0.588429  0.122753  1
  Ho  Ho10  1  0.789465  0.420335  0.121325  1
  Ho  Ho11  1  0.790950  0.589019  0.622696  1
  Ho  Ho12  1  0.912081  0.709805  0.123277  1
  Ho  Ho13  1  0.915531  0.295419  0.633602  1
  Ho  Ho14  1  0.088281  0.707973  0.624321  1
  Ho  Ho15  1  0.094536  0.293759  0.120209  1
  Tm  Tm16  1  0.004122  0.996059  0.502058  1
  Tm  Tm17  1  0.003941  0.995878  0.997942  1
  Tm  Tm18  1  0.499401  0.499922  0.999197  1
  Tm  Tm19  1  0.500078  0.500599  0.500803  1
  Ir  Ir20  1  0.847414  0.848924  0.749397  1
  Ir  Ir21  1  0.151076  0.152586  0.750603  1
  Ir  Ir22  1  0.153848  0.846152  0.250000  1
  Ir  Ir23  1  0.654062  0.345938  0.750000  1
  Ir  Ir24  1  0.652776  0.651880  0.249132  1
  Ir  Ir25  1  0.348120  0.347224  0.250868  1
  Ir  Ir26  1  0.347237  0.652763  0.750000  1
  Ir  Ir27  1  0.500701  0.000297  0.125275  1
  Ir  Ir28  1  0.500072  0.000523  0.622161  1
  Ir  Ir29  1  0.999477  0.499928  0.877839  1
  Ir  Ir30  1  0.999703  0.499299  0.374725  1
  Au  Au31  1  0.845849  0.154151  0.250000  1
