# generated using pymatgen
data_Hf3AlSn2Ir3
_symmetry_space_group_name_H-M   'P 1'
_cell_length_a   7.43414140
_cell_length_b   7.43414100
_cell_length_c   3.54941000
_cell_angle_alpha   90.00000000
_cell_angle_beta   90.00000000
_cell_angle_gamma   121.14544019
_symmetry_Int_Tables_number   1
_chemical_formula_structural   Hf3AlSn2Ir3
_chemical_formula_sum   'Hf3 Al1 Sn2 Ir3'
_cell_volume   167.88777354
_cell_formula_units_Z   1
loop_
 _symmetry_equiv_pos_site_id
 _symmetry_equiv_pos_as_xyz
  1  'x, y, z'
loop_
 _atom_site_type_symbol
 _atom_site_label
 _atom_site_symmetry_multiplicity
 _atom_site_fract_x
 _atom_site_fract_y
 _atom_site_fract_z
 _atom_site_occupancy
  Hf  Hf0  1  0.407897  0.407897  0.500000  1
  Hf  Hf1  1  0.602464  0.978781  0.500000  1
  Hf  Hf2  1  0.978781  0.602464  0.500000  1
  Al  Al3  1  0.734178  0.734178  0.000000  1
  Sn  Sn4  1  0.269625  0.999135  0.000000  1
  Sn  Sn5  1  0.999135  0.269625  0.000000  1
  Ir  Ir6  1  0.672377  0.351145  0.000000  1
  Ir  Ir7  1  0.351145  0.672377  0.000000  1
  Ir  Ir8  1  0.984398  0.984398  0.500000  1
