# generated using pymatgen
data_Y2Mg2Pa2CoNi3
_symmetry_space_group_name_H-M   'P 1'
_cell_length_a   7.45807200
_cell_length_b   7.48007189
_cell_length_c   3.52712700
_cell_angle_alpha   90.00000000
_cell_angle_beta   90.00000000
_cell_angle_gamma   89.55253873
_symmetry_Int_Tables_number   1
_chemical_formula_structural   Y2Mg2Pa2CoNi3
_chemical_formula_sum   'Y2 Mg2 Pa2 Co1 Ni3'
_cell_volume   196.76153278
_cell_formula_units_Z   1
loop_
 _symmetry_equiv_pos_site_id
 _symmetry_equiv_pos_as_xyz
  1  'x, y, z'
loop_
 _atom_site_type_symbol
 _atom_site_label
 _atom_site_symmetry_multiplicity
 _atom_site_fract_x
 _atom_site_fract_y
 _atom_site_fract_z
 _atom_site_occupancy
  Y  Y0  1  0.332628  0.165191  0.500000  1
  Y  Y1  1  0.826976  0.333501  0.500000  1
  Mg  Mg2  1  0.498294  0.494424  0.000000  1
  Mg  Mg3  1  0.003208  0.009229  0.000000  1
  Pa  Pa4  1  0.160285  0.670512  0.500000  1
  Pa  Pa5  1  0.679685  0.823427  0.500000  1
  Co  Co6  1  0.872966  0.662939  0.000000  1
  Ni  Ni7  1  0.373558  0.846462  0.000000  1
  Ni  Ni8  1  0.627487  0.091509  0.000000  1
  Ni  Ni9  1  0.124914  0.402806  0.000000  1
