# generated using pymatgen
data_YbThZn21Cu
_symmetry_space_group_name_H-M   'P 1'
_cell_length_a   8.26420802
_cell_length_b   8.24719021
_cell_length_c   8.26420635
_cell_angle_alpha   99.85596097
_cell_angle_beta   99.95455313
_cell_angle_gamma   131.12225279
_symmetry_Int_Tables_number   1
_chemical_formula_structural   YbThZn21Cu
_chemical_formula_sum   'Yb1 Th1 Zn21 Cu1'
_cell_volume   385.89202960
_cell_formula_units_Z   1
loop_
 _symmetry_equiv_pos_site_id
 _symmetry_equiv_pos_as_xyz
  1  'x, y, z'
loop_
 _atom_site_type_symbol
 _atom_site_label
 _atom_site_symmetry_multiplicity
 _atom_site_fract_x
 _atom_site_fract_y
 _atom_site_fract_z
 _atom_site_occupancy
  Yb  Yb0  1  0.749644  0.249750  0.500105  1
  Th  Th1  1  0.500624  0.499578  0.998956  1
  Zn  Zn2  1  0.405972  0.077531  0.086816  1
  Zn  Zn3  1  0.992947  0.318291  0.920496  1
  Zn  Zn4  1  0.257775  0.672085  0.828728  1
  Zn  Zn5  1  0.851178  0.429786  0.175022  1
  Zn  Zn6  1  0.923306  0.596315  0.915109  1
  Zn  Zn7  1  0.685196  0.012242  0.088002  1
  Zn  Zn8  1  0.326183  0.739699  0.173046  1
  Zn  Zn9  1  0.570741  0.154186  0.826711  1
  Zn  Zn10  1  0.843357  0.672085  0.414310  1
  Zn  Zn11  1  0.254764  0.429786  0.578609  1
  Zn  Zn12  1  0.990715  0.077531  0.671560  1
  Zn  Zn13  1  0.397794  0.318291  0.325345  1
  Zn  Zn14  1  0.327475  0.154186  0.583446  1
  Zn  Zn15  1  0.566654  0.739699  0.413516  1
  Zn  Zn16  1  0.924240  0.012242  0.327046  1
  Zn  Zn17  1  0.681205  0.596315  0.673008  1
  Zn  Zn18  1  0.247347  0.742576  0.495230  1
  Zn  Zn19  1  0.002425  0.006969  0.004543  1
  Zn  Zn20  1  0.127394  0.876908  0.749514  1
  Zn  Zn21  1  0.123436  0.872926  0.250602  1
  Zn  Zn22  1  0.622324  0.872926  0.749490  1
  Cu  Cu23  1  0.127307  0.378098  0.250791  1
