# generated using pymatgen
data_Sm4AsI6
_symmetry_space_group_name_H-M   'P 1'
_cell_length_a   4.32956200
_cell_length_b   14.15650200
_cell_length_c   14.98310600
_cell_angle_alpha   90.00000000
_cell_angle_beta   90.00000000
_cell_angle_gamma   90.00000000
_symmetry_Int_Tables_number   1
_chemical_formula_structural   Sm4AsI6
_chemical_formula_sum   'Sm8 As2 I12'
_cell_volume   918.33633887
_cell_formula_units_Z   2
loop_
 _symmetry_equiv_pos_site_id
 _symmetry_equiv_pos_as_xyz
  1  'x, y, z'
loop_
 _atom_site_type_symbol
 _atom_site_label
 _atom_site_symmetry_multiplicity
 _atom_site_fract_x
 _atom_site_fract_y
 _atom_site_fract_z
 _atom_site_occupancy
  Sm  Sm0  1  0.500000  0.115255  0.346397  1
  Sm  Sm1  1  0.500000  0.884745  0.653603  1
  Sm  Sm2  1  0.500000  0.615255  0.153603  1
  Sm  Sm3  1  0.500000  0.384745  0.846397  1
  Sm  Sm4  1  0.000000  0.110822  0.573656  1
  Sm  Sm5  1  0.000000  0.889178  0.426344  1
  Sm  Sm6  1  0.000000  0.610822  0.926344  1
  Sm  Sm7  1  0.000000  0.389178  0.073656  1
  As  As8  1  0.500000  0.000000  0.500000  1
  As  As9  1  0.500000  0.500000  0.000000  1
  I  I10  1  0.500000  0.245285  0.160558  1
  I  I11  1  0.500000  0.754715  0.839442  1
  I  I12  1  0.500000  0.745285  0.339442  1
  I  I13  1  0.500000  0.254715  0.660558  1
  I  I14  1  0.000000  0.259373  0.413977  1
  I  I15  1  0.000000  0.740627  0.586023  1
  I  I16  1  0.000000  0.759373  0.086023  1
  I  I17  1  0.000000  0.240627  0.913977  1
  I  I18  1  0.000000  0.999281  0.240164  1
  I  I19  1  0.000000  0.000719  0.759836  1
  I  I20  1  0.000000  0.499281  0.259836  1
  I  I21  1  0.000000  0.500719  0.740164  1
