# generated using pymatgen
data_CsLuMg(H6Ir)2
_symmetry_space_group_name_H-M   'P 1'
_cell_length_a   4.86016700
_cell_length_b   4.86016841
_cell_length_c   9.60651600
_cell_angle_alpha   90.00000000
_cell_angle_beta   90.00000000
_cell_angle_gamma   119.99998363
_symmetry_Int_Tables_number   1
_chemical_formula_structural   CsLuMg(H6Ir)2
_chemical_formula_sum   'Cs1 Lu1 Mg1 H12 Ir2'
_cell_volume   196.51654673
_cell_formula_units_Z   1
loop_
 _symmetry_equiv_pos_site_id
 _symmetry_equiv_pos_as_xyz
  1  'x, y, z'
loop_
 _atom_site_type_symbol
 _atom_site_label
 _atom_site_symmetry_multiplicity
 _atom_site_fract_x
 _atom_site_fract_y
 _atom_site_fract_z
 _atom_site_occupancy
  Cs  Cs0  1  0.000000  0.000000  0.991843  1
  Lu  Lu1  1  0.666667  0.333333  0.391016  1
  Mg  Mg2  1  0.333333  0.666667  0.634121  1
  H  H3  1  0.163733  0.836267  0.400495  1
  H  H4  1  0.672533  0.836267  0.400495  1
  H  H5  1  0.163733  0.327467  0.400495  1
  H  H6  1  0.835300  0.164700  0.595246  1
  H  H7  1  0.329400  0.164700  0.595246  1
  H  H8  1  0.835300  0.670600  0.595246  1
  H  H9  1  0.511475  0.022950  0.795951  1
  H  H10  1  0.511475  0.488525  0.795951  1
  H  H11  1  0.977050  0.488525  0.795951  1
  H  H12  1  0.492212  0.984424  0.204029  1
  H  H13  1  0.492212  0.507788  0.204029  1
  H  H14  1  0.015576  0.507788  0.204029  1
  Ir  Ir15  1  0.666667  0.333333  0.686819  1
  Ir  Ir16  1  0.333333  0.666667  0.309037  1
