# generated using pymatgen
data_Tb6ErTm(MoO6)4
_symmetry_space_group_name_H-M   'P 1'
_cell_length_a   9.96917869
_cell_length_b   9.96917811
_cell_length_c   5.39733609
_cell_angle_alpha   74.94058434
_cell_angle_beta   74.94058903
_cell_angle_gamma   68.10244973
_symmetry_Int_Tables_number   1
_chemical_formula_structural   Tb6ErTm(MoO6)4
_chemical_formula_sum   'Tb6 Er1 Tm1 Mo4 O24'
_cell_volume   472.60553706
_cell_formula_units_Z   1
loop_
 _symmetry_equiv_pos_site_id
 _symmetry_equiv_pos_as_xyz
  1  'x, y, z'
loop_
 _atom_site_type_symbol
 _atom_site_label
 _atom_site_symmetry_multiplicity
 _atom_site_fract_x
 _atom_site_fract_y
 _atom_site_fract_z
 _atom_site_occupancy
  Tb  Tb0  1  0.551490  0.783675  0.622332  1
  Tb  Tb1  1  0.783691  0.551230  0.122482  1
  Tb  Tb2  1  0.448770  0.216309  0.377518  1
  Tb  Tb3  1  0.216325  0.448510  0.877668  1
  Tb  Tb4  1  0.862848  0.137152  0.250000  1
  Tb  Tb5  1  0.136904  0.863096  0.750000  1
  Er  Er6  1  0.395735  0.604265  0.250000  1
  Tm  Tm7  1  0.603879  0.396121  0.750000  1
  Mo  Mo8  1  0.296282  0.011561  0.062527  1
  Mo  Mo9  1  0.988439  0.703718  0.437473  1
  Mo  Mo10  1  0.703694  0.988593  0.937302  1
  Mo  Mo11  1  0.011407  0.296306  0.562698  1
  O  O12  1  0.608586  0.570394  0.922513  1
  O  O13  1  0.429606  0.391414  0.577487  1
  O  O14  1  0.392123  0.428697  0.076132  1
  O  O15  1  0.571303  0.607877  0.423868  1
  O  O16  1  0.337637  0.805726  0.925920  1
  O  O17  1  0.194274  0.662363  0.574080  1
  O  O18  1  0.662216  0.195096  0.072523  1
  O  O19  1  0.804904  0.337784  0.427477  1
  O  O20  1  0.326744  0.886073  0.375958  1
  O  O21  1  0.113927  0.673256  0.124042  1
  O  O22  1  0.673310  0.113867  0.623828  1
  O  O23  1  0.886133  0.326690  0.876172  1
  O  O24  1  0.184077  0.289500  0.634606  1
  O  O25  1  0.710500  0.815923  0.865394  1
  O  O26  1  0.815920  0.710559  0.365304  1
  O  O27  1  0.289441  0.184080  0.134696  1
  O  O28  1  0.048212  0.111477  0.513693  1
  O  O29  1  0.888523  0.951788  0.986307  1
  O  O30  1  0.431655  0.024022  0.756384  1
  O  O31  1  0.111399  0.048269  0.013767  1
  O  O32  1  0.023918  0.431578  0.256407  1
  O  O33  1  0.568422  0.976082  0.243593  1
  O  O34  1  0.975978  0.568345  0.743616  1
  O  O35  1  0.951731  0.888601  0.486233  1
