# generated using pymatgen
data_EuThNiIr3
_symmetry_space_group_name_H-M   'P 1'
_cell_length_a   5.46943642
_cell_length_b   5.26618581
_cell_length_c   5.46943700
_cell_angle_alpha   58.71484789
_cell_angle_beta   60.00000251
_cell_angle_gamma   58.71483965
_symmetry_Int_Tables_number   1
_chemical_formula_structural   EuThNiIr3
_chemical_formula_sum   'Eu1 Th1 Ni1 Ir3'
_cell_volume   109.18203529
_cell_formula_units_Z   1
loop_
 _symmetry_equiv_pos_site_id
 _symmetry_equiv_pos_as_xyz
  1  'x, y, z'
loop_
 _atom_site_type_symbol
 _atom_site_label
 _atom_site_symmetry_multiplicity
 _atom_site_fract_x
 _atom_site_fract_y
 _atom_site_fract_z
 _atom_site_occupancy
  Eu  Eu0  1  0.999907  0.000278  0.999907  1
  Th  Th1  1  0.251163  0.246513  0.251163  1
  Ni  Ni2  1  0.624924  0.125228  0.624924  1
  Ir  Ir3  1  0.625153  0.625994  0.123701  1
  Ir  Ir4  1  0.123701  0.625994  0.625153  1
  Ir  Ir5  1  0.625153  0.625994  0.625153  1
