# generated using pymatgen
data_Tb8Y4Co5Sn
_symmetry_space_group_name_H-M   'P 1'
_cell_length_a   8.32710503
_cell_length_b   8.32710424
_cell_length_c   8.32710470
_cell_angle_alpha   110.77175693
_cell_angle_beta   110.61745068
_cell_angle_gamma   107.05126244
_symmetry_Int_Tables_number   1
_chemical_formula_structural   Tb8Y4Co5Sn
_chemical_formula_sum   'Tb8 Y4 Co5 Sn1'
_cell_volume   443.89574279
_cell_formula_units_Z   1
loop_
 _symmetry_equiv_pos_site_id
 _symmetry_equiv_pos_as_xyz
  1  'x, y, z'
loop_
 _atom_site_type_symbol
 _atom_site_label
 _atom_site_symmetry_multiplicity
 _atom_site_fract_x
 _atom_site_fract_y
 _atom_site_fract_z
 _atom_site_occupancy
  Tb  Tb0  1  0.686745  0.379926  0.693182  1
  Tb  Tb1  1  0.313255  0.620074  0.306818  1
  Tb  Tb2  1  0.686745  0.993563  0.306818  1
  Tb  Tb3  1  0.313255  0.006437  0.693182  1
  Tb  Tb4  1  0.601936  0.793735  0.808202  1
  Tb  Tb5  1  0.398064  0.206265  0.191798  1
  Tb  Tb6  1  0.985533  0.793735  0.191798  1
  Tb  Tb7  1  0.014467  0.206265  0.808202  1
  Y  Y8  1  0.813360  0.706729  0.520088  1
  Y  Y9  1  0.186640  0.293271  0.479912  1
  Y  Y10  1  0.186640  0.706729  0.893370  1
  Y  Y11  1  0.813360  0.293271  0.106630  1
  Co  Co12  1  0.620845  0.000000  0.620845  1
  Co  Co13  1  0.379155  0.000000  0.379155  1
  Co  Co14  1  0.111697  0.611697  0.500000  1
  Co  Co15  1  0.888303  0.388303  0.500000  1
  Co  Co16  1  0.000000  0.000000  0.000000  1
  Sn  Sn17  1  0.500000  0.500000  0.000000  1
