# generated using pymatgen
data_Y15Th5(Ir5Ru)2
_symmetry_space_group_name_H-M   'P 1'
_cell_length_a   11.09730847
_cell_length_b   11.01633830
_cell_length_c   6.40111181
_cell_angle_alpha   89.68970943
_cell_angle_beta   90.02864113
_cell_angle_gamma   89.94797953
_symmetry_Int_Tables_number   1
_chemical_formula_structural   Y15Th5(Ir5Ru)2
_chemical_formula_sum   'Y15 Th5 Ir10 Ru2'
_cell_volume   782.53493110
_cell_formula_units_Z   1
loop_
 _symmetry_equiv_pos_site_id
 _symmetry_equiv_pos_as_xyz
  1  'x, y, z'
loop_
 _atom_site_type_symbol
 _atom_site_label
 _atom_site_symmetry_multiplicity
 _atom_site_fract_x
 _atom_site_fract_y
 _atom_site_fract_z
 _atom_site_occupancy
  Y  Y0  1  0.589013  0.215453  0.383693  1
  Y  Y1  1  0.407540  0.784804  0.378669  1
  Y  Y2  1  0.409823  0.213618  0.882214  1
  Y  Y3  1  0.207801  0.412699  0.620343  1
  Y  Y4  1  0.204872  0.587664  0.117518  1
  Y  Y5  1  0.794627  0.412244  0.115512  1
  Y  Y6  1  0.795058  0.585578  0.613585  1
  Y  Y7  1  0.912332  0.707528  0.110978  1
  Y  Y8  1  0.914377  0.292085  0.612699  1
  Y  Y9  1  0.087489  0.706977  0.613881  1
  Y  Y10  1  0.089392  0.291823  0.114135  1
  Y  Y11  1  0.999855  0.999654  0.496558  1
  Y  Y12  1  0.997411  0.001671  0.995413  1
  Y  Y13  1  0.497715  0.494841  0.016028  1
  Y  Y14  1  0.500711  0.500719  0.514451  1
  Th  Th15  1  0.297843  0.089477  0.382960  1
  Th  Th16  1  0.291075  0.911126  0.882576  1
  Th  Th17  1  0.703571  0.097701  0.883160  1
  Th  Th18  1  0.704485  0.912164  0.379646  1
  Th  Th19  1  0.588628  0.786486  0.883454  1
  Ir  Ir20  1  0.844448  0.152387  0.243861  1
  Ir  Ir21  1  0.838532  0.851302  0.744899  1
  Ir  Ir22  1  0.158261  0.148789  0.743176  1
  Ir  Ir23  1  0.154361  0.849971  0.244101  1
  Ir  Ir24  1  0.654284  0.347076  0.756832  1
  Ir  Ir25  1  0.655128  0.654166  0.249164  1
  Ir  Ir26  1  0.346445  0.343635  0.262621  1
  Ir  Ir27  1  0.350561  0.657915  0.764140  1
  Ir  Ir28  1  0.001512  0.499080  0.871299  1
  Ir  Ir29  1  0.001244  0.499480  0.372670  1
  Ru  Ru30  1  0.500816  0.997060  0.121972  1
  Ru  Ru31  1  0.500790  0.994826  0.627796  1
