# generated using pymatgen
data_ZnFe3Co4
_symmetry_space_group_name_H-M   'P 1'
_cell_length_a   7.00793392
_cell_length_b   7.00793451
_cell_length_c   7.00793487
_cell_angle_alpha   33.39904785
_cell_angle_beta   33.39904434
_cell_angle_gamma   33.39904693
_symmetry_Int_Tables_number   1
_chemical_formula_structural   ZnFe3Co4
_chemical_formula_sum   'Zn1 Fe3 Co4'
_cell_volume   92.86724591
_cell_formula_units_Z   1
loop_
 _symmetry_equiv_pos_site_id
 _symmetry_equiv_pos_as_xyz
  1  'x, y, z'
loop_
 _atom_site_type_symbol
 _atom_site_label
 _atom_site_symmetry_multiplicity
 _atom_site_fract_x
 _atom_site_fract_y
 _atom_site_fract_z
 _atom_site_occupancy
  Zn  Zn0  1  0.000000  0.000000  0.000000  1
  Fe  Fe1  1  0.251921  0.251921  0.251921  1
  Fe  Fe2  1  0.748079  0.748079  0.748079  1
  Fe  Fe3  1  0.500000  0.500000  0.500000  1
  Co  Co4  1  0.621540  0.621540  0.621540  1
  Co  Co5  1  0.128132  0.128132  0.128132  1
  Co  Co6  1  0.871868  0.871868  0.871868  1
  Co  Co7  1  0.378460  0.378460  0.378460  1
