# generated using pymatgen
data_Sr6Sn8AsCl
_symmetry_space_group_name_H-M   'P 1'
_cell_length_a   8.91331183
_cell_length_b   8.91331222
_cell_length_c   8.91331203
_cell_angle_alpha   119.86683233
_cell_angle_beta   119.86683547
_cell_angle_gamma   90.23080866
_symmetry_Int_Tables_number   1
_chemical_formula_structural   Sr6Sn8AsCl
_chemical_formula_sum   'Sr6 Sn8 As1 Cl1'
_cell_volume   501.73197116
_cell_formula_units_Z   1
loop_
 _symmetry_equiv_pos_site_id
 _symmetry_equiv_pos_as_xyz
  1  'x, y, z'
loop_
 _atom_site_type_symbol
 _atom_site_label
 _atom_site_symmetry_multiplicity
 _atom_site_fract_x
 _atom_site_fract_y
 _atom_site_fract_z
 _atom_site_occupancy
  Sr  Sr0  1  0.245946  0.245946  0.000000  1
  Sr  Sr1  1  0.754054  0.754054  0.000000  1
  Sr  Sr2  1  0.154401  0.678388  0.832791  1
  Sr  Sr3  1  0.845599  0.321612  0.167209  1
  Sr  Sr4  1  0.678388  0.845599  0.523987  1
  Sr  Sr5  1  0.321612  0.154401  0.476013  1
  Sn  Sn6  1  0.828884  0.332567  0.784043  1
  Sn  Sn7  1  0.171116  0.667433  0.215957  1
  Sn  Sn8  1  0.548524  0.044842  0.215957  1
  Sn  Sn9  1  0.332567  0.548524  0.503683  1
  Sn  Sn10  1  0.955158  0.171116  0.503683  1
  Sn  Sn11  1  0.451476  0.955158  0.784043  1
  Sn  Sn12  1  0.667433  0.451476  0.496317  1
  Sn  Sn13  1  0.044842  0.828884  0.496317  1
  As  As14  1  0.000000  0.000000  0.000000  1
  Cl  Cl15  1  0.500000  0.500000  0.000000  1
