# generated using pymatgen
data_Sc2GaSnPd2
_symmetry_space_group_name_H-M   'P 1'
_cell_length_a   7.54291600
_cell_length_b   7.54903771
_cell_length_c   6.78503378
_cell_angle_alpha   90.04615496
_cell_angle_beta   90.00000000
_cell_angle_gamma   119.97317841
_symmetry_Int_Tables_number   1
_chemical_formula_structural   Sc2GaSnPd2
_chemical_formula_sum   'Sc6 Ga3 Sn3 Pd6'
_cell_volume   334.68067686
_cell_formula_units_Z   3
loop_
 _symmetry_equiv_pos_site_id
 _symmetry_equiv_pos_as_xyz
  1  'x, y, z'
loop_
 _atom_site_type_symbol
 _atom_site_label
 _atom_site_symmetry_multiplicity
 _atom_site_fract_x
 _atom_site_fract_y
 _atom_site_fract_z
 _atom_site_occupancy
  Sc  Sc0  1  0.394297  0.006699  0.251297  1
  Sc  Sc1  1  0.610984  0.604343  0.255155  1
  Sc  Sc2  1  0.992782  0.388668  0.252914  1
  Sc  Sc3  1  0.387597  0.993301  0.748703  1
  Sc  Sc4  1  0.604114  0.611332  0.747086  1
  Sc  Sc5  1  0.006641  0.395657  0.744845  1
  Ga  Ga6  1  0.724564  0.000000  0.000000  1
  Ga  Ga7  1  0.285170  0.283079  0.500429  1
  Ga  Ga8  1  0.002091  0.716921  0.499571  1
  Sn  Sn9  1  0.995955  0.725182  0.999758  1
  Sn  Sn10  1  0.270774  0.274818  0.000242  1
  Sn  Sn11  1  0.717262  0.000000  0.500000  1
  Pd  Pd12  1  0.340870  0.674713  0.011044  1
  Pd  Pd13  1  0.325752  0.659262  0.489810  1
  Pd  Pd14  1  0.666158  0.325287  0.988956  1
  Pd  Pd15  1  0.666491  0.340738  0.510190  1
  Pd  Pd16  1  0.004326  0.000153  0.267954  1
  Pd  Pd17  1  0.004173  0.999847  0.732046  1
