# generated using pymatgen
data_CePrCuSi4Pd
_symmetry_space_group_name_H-M   'P 1'
_cell_length_a   8.72496344
_cell_length_b   8.72496270
_cell_length_c   4.12699300
_cell_angle_alpha   90.00000000
_cell_angle_beta   90.00000000
_cell_angle_gamma   151.66080031
_symmetry_Int_Tables_number   1
_chemical_formula_structural   CePrCuSi4Pd
_chemical_formula_sum   'Ce1 Pr1 Cu1 Si4 Pd1'
_cell_volume   149.13221122
_cell_formula_units_Z   1
loop_
 _symmetry_equiv_pos_site_id
 _symmetry_equiv_pos_as_xyz
  1  'x, y, z'
loop_
 _atom_site_type_symbol
 _atom_site_label
 _atom_site_symmetry_multiplicity
 _atom_site_fract_x
 _atom_site_fract_y
 _atom_site_fract_z
 _atom_site_occupancy
  Ce  Ce0  1  0.892719  0.107281  0.250000  1
  Pr  Pr1  1  0.099550  0.900450  0.750000  1
  Cu  Cu2  1  0.324664  0.675336  0.750000  1
  Si  Si3  1  0.534625  0.465375  0.250000  1
  Si  Si4  1  0.461588  0.538412  0.750000  1
  Si  Si5  1  0.250706  0.749294  0.250000  1
  Si  Si6  1  0.756301  0.243699  0.750000  1
  Pd  Pd7  1  0.679847  0.320153  0.250000  1
