# generated using pymatgen
data_Tm12Co6Bi
_symmetry_space_group_name_H-M   'P 1'
_cell_length_a   8.28582947
_cell_length_b   8.28583060
_cell_length_c   8.28582900
_cell_angle_alpha   109.47121672
_cell_angle_beta   109.47121948
_cell_angle_gamma   109.47122940
_symmetry_Int_Tables_number   1
_chemical_formula_structural   Tm12Co6Bi
_chemical_formula_sum   'Tm12 Co6 Bi1'
_cell_volume   437.91124447
_cell_formula_units_Z   1
loop_
 _symmetry_equiv_pos_site_id
 _symmetry_equiv_pos_as_xyz
  1  'x, y, z'
loop_
 _atom_site_type_symbol
 _atom_site_label
 _atom_site_symmetry_multiplicity
 _atom_site_fract_x
 _atom_site_fract_y
 _atom_site_fract_z
 _atom_site_occupancy
  Tm  Tm0  1  0.305254  0.501437  0.196182  1
  Tm  Tm1  1  0.803818  0.694746  0.498563  1
  Tm  Tm2  1  0.109070  0.803818  0.305254  1
  Tm  Tm3  1  0.803818  0.305254  0.109070  1
  Tm  Tm4  1  0.890930  0.196182  0.694746  1
  Tm  Tm5  1  0.196182  0.305254  0.501437  1
  Tm  Tm6  1  0.501437  0.196182  0.305254  1
  Tm  Tm7  1  0.498563  0.803818  0.694746  1
  Tm  Tm8  1  0.196182  0.694746  0.890930  1
  Tm  Tm9  1  0.305254  0.109070  0.803818  1
  Tm  Tm10  1  0.694746  0.890930  0.196182  1
  Tm  Tm11  1  0.694746  0.498563  0.803818  1
  Co  Co12  1  0.613575  0.500000  0.113575  1
  Co  Co13  1  0.113575  0.613575  0.500000  1
  Co  Co14  1  0.500000  0.886425  0.386425  1
  Co  Co15  1  0.886425  0.386425  0.500000  1
  Co  Co16  1  0.500000  0.113575  0.613575  1
  Co  Co17  1  0.386425  0.500000  0.886425  1
  Bi  Bi18  1  0.000000  0.000000  0.000000  1
