# generated using pymatgen
data_Ho2Ga5Ir3
_symmetry_space_group_name_H-M   'P 1'
_cell_length_a   5.71257488
_cell_length_b   8.60327891
_cell_length_c   8.60327907
_cell_angle_alpha   96.91991533
_cell_angle_beta   109.42182613
_cell_angle_gamma   109.42183530
_symmetry_Int_Tables_number   1
_chemical_formula_structural   Ho2Ga5Ir3
_chemical_formula_sum   'Ho4 Ga10 Ir6'
_cell_volume   363.16175836
_cell_formula_units_Z   2
loop_
 _symmetry_equiv_pos_site_id
 _symmetry_equiv_pos_as_xyz
  1  'x, y, z'
loop_
 _atom_site_type_symbol
 _atom_site_label
 _atom_site_symmetry_multiplicity
 _atom_site_fract_x
 _atom_site_fract_y
 _atom_site_fract_z
 _atom_site_occupancy
  Ho  Ho0  1  0.775120  0.417474  0.130076  1
  Ho  Ho1  1  0.724880  0.869924  0.582526  1
  Ho  Ho2  1  0.224880  0.582526  0.869924  1
  Ho  Ho3  1  0.275120  0.130076  0.417474  1
  Ga  Ga4  1  0.818998  0.736146  0.903937  1
  Ga  Ga5  1  0.681002  0.096063  0.263854  1
  Ga  Ga6  1  0.181002  0.263854  0.096063  1
  Ga  Ga7  1  0.318998  0.903937  0.736146  1
  Ga  Ga8  1  0.750000  0.201241  0.798759  1
  Ga  Ga9  1  0.250000  0.798759  0.201241  1
  Ga  Ga10  1  0.750000  0.500410  0.499590  1
  Ga  Ga11  1  0.250000  0.499590  0.500410  1
  Ga  Ga12  1  0.750000  0.798265  0.201735  1
  Ga  Ga13  1  0.250000  0.201735  0.798265  1
  Ir  Ir14  1  0.589641  0.436636  0.740650  1
  Ir  Ir15  1  0.910359  0.259350  0.563364  1
  Ir  Ir16  1  0.410359  0.563364  0.259350  1
  Ir  Ir17  1  0.089641  0.740650  0.436636  1
  Ir  Ir18  1  0.750000  0.000033  0.999967  1
  Ir  Ir19  1  0.250000  0.999967  0.000033  1
