# generated using pymatgen
data_Y4Cu2IrPt
_symmetry_space_group_name_H-M   'P 1'
_cell_length_a   4.35734700
_cell_length_b   5.62342123
_cell_length_c   7.23010262
_cell_angle_alpha   89.86859971
_cell_angle_beta   90.00000000
_cell_angle_gamma   90.00000000
_symmetry_Int_Tables_number   1
_chemical_formula_structural   Y4Cu2IrPt
_chemical_formula_sum   'Y4 Cu2 Ir1 Pt1'
_cell_volume   177.16016749
_cell_formula_units_Z   1
loop_
 _symmetry_equiv_pos_site_id
 _symmetry_equiv_pos_as_xyz
  1  'x, y, z'
loop_
 _atom_site_type_symbol
 _atom_site_label
 _atom_site_symmetry_multiplicity
 _atom_site_fract_x
 _atom_site_fract_y
 _atom_site_fract_z
 _atom_site_occupancy
  Y  Y0  1  0.250000  0.370100  0.680273  1
  Y  Y1  1  0.250000  0.129069  0.183911  1
  Y  Y2  1  0.750000  0.643951  0.324214  1
  Y  Y3  1  0.750000  0.859022  0.812169  1
  Cu  Cu4  1  0.750000  0.133707  0.462092  1
  Cu  Cu5  1  0.750000  0.365816  0.965542  1
  Ir  Ir6  1  0.250000  0.868366  0.535056  1
  Pt  Pt7  1  0.250000  0.629968  0.036744  1
