# generated using pymatgen
data_Dy2Cr3Ni9P7
_symmetry_space_group_name_H-M   'P 1'
_cell_length_a   9.10665900
_cell_length_b   9.10665958
_cell_length_c   3.65078300
_cell_angle_alpha   90.00000000
_cell_angle_beta   90.00000000
_cell_angle_gamma   119.99999425
_symmetry_Int_Tables_number   1
_chemical_formula_structural   Dy2Cr3Ni9P7
_chemical_formula_sum   'Dy2 Cr3 Ni9 P7'
_cell_volume   262.20130784
_cell_formula_units_Z   1
loop_
 _symmetry_equiv_pos_site_id
 _symmetry_equiv_pos_as_xyz
  1  'x, y, z'
loop_
 _atom_site_type_symbol
 _atom_site_label
 _atom_site_symmetry_multiplicity
 _atom_site_fract_x
 _atom_site_fract_y
 _atom_site_fract_z
 _atom_site_occupancy
  Dy  Dy0  1  0.333333  0.666667  0.000000  1
  Dy  Dy1  1  0.666667  0.333333  0.500000  1
  Cr  Cr2  1  0.219066  0.119792  0.500000  1
  Cr  Cr3  1  0.880208  0.099274  0.500000  1
  Cr  Cr4  1  0.900726  0.780934  0.500000  1
  Ni  Ni5  1  0.123746  0.278736  0.000000  1
  Ni  Ni6  1  0.721264  0.845010  0.000000  1
  Ni  Ni7  1  0.154990  0.876254  0.000000  1
  Ni  Ni8  1  0.433843  0.373049  0.000000  1
  Ni  Ni9  1  0.626951  0.060795  0.000000  1
  Ni  Ni10  1  0.939205  0.566157  0.000000  1
  Ni  Ni11  1  0.052802  0.438041  0.500000  1
  Ni  Ni12  1  0.561959  0.614760  0.500000  1
  Ni  Ni13  1  0.385240  0.947198  0.500000  1
  P  P14  1  0.289821  0.403160  0.500000  1
  P  P15  1  0.596840  0.886661  0.500000  1
  P  P16  1  0.113339  0.710179  0.500000  1
  P  P17  1  0.406015  0.114026  0.000000  1
  P  P18  1  0.885974  0.291988  0.000000  1
  P  P19  1  0.708012  0.593985  0.000000  1
  P  P20  1  0.000000  0.000000  0.000000  1
