# generated using pymatgen
data_Ta3Cr6Ga2W
_symmetry_space_group_name_H-M   'P 1'
_cell_length_a   4.84394400
_cell_length_b   4.84394352
_cell_length_c   8.24465600
_cell_angle_alpha   90.00000000
_cell_angle_beta   90.00000000
_cell_angle_gamma   120.00000330
_symmetry_Int_Tables_number   1
_chemical_formula_structural   Ta3Cr6Ga2W
_chemical_formula_sum   'Ta3 Cr6 Ga2 W1'
_cell_volume   167.53337638
_cell_formula_units_Z   1
loop_
 _symmetry_equiv_pos_site_id
 _symmetry_equiv_pos_as_xyz
  1  'x, y, z'
loop_
 _atom_site_type_symbol
 _atom_site_label
 _atom_site_symmetry_multiplicity
 _atom_site_fract_x
 _atom_site_fract_y
 _atom_site_fract_z
 _atom_site_occupancy
  Ta  Ta0  1  0.666667  0.333333  0.564422  1
  Ta  Ta1  1  0.666667  0.333333  0.933353  1
  Ta  Ta2  1  0.333333  0.666667  0.066963  1
  Cr  Cr3  1  0.825938  0.174062  0.251425  1
  Cr  Cr4  1  0.825938  0.651877  0.251425  1
  Cr  Cr5  1  0.348123  0.174062  0.251425  1
  Cr  Cr6  1  0.174179  0.825821  0.748847  1
  Cr  Cr7  1  0.174179  0.348357  0.748847  1
  Cr  Cr8  1  0.651643  0.825821  0.748847  1
  Ga  Ga9  1  0.000000  0.000000  0.500537  1
  Ga  Ga10  1  0.000000  0.000000  0.000345  1
  W  W11  1  0.333333  0.666667  0.433566  1
