# generated using pymatgen
data_Nd2Hf4Sn5
_symmetry_space_group_name_H-M   'P 1'
_cell_length_a   11.20818275
_cell_length_b   11.20819573
_cell_length_c   11.20819498
_cell_angle_alpha   148.89389966
_cell_angle_beta   131.66950408
_cell_angle_gamma   58.59764249
_symmetry_Int_Tables_number   1
_chemical_formula_structural   Nd2Hf4Sn5
_chemical_formula_sum   'Nd4 Hf8 Sn10'
_cell_volume   539.11882101
_cell_formula_units_Z   2
loop_
 _symmetry_equiv_pos_site_id
 _symmetry_equiv_pos_as_xyz
  1  'x, y, z'
loop_
 _atom_site_type_symbol
 _atom_site_label
 _atom_site_symmetry_multiplicity
 _atom_site_fract_x
 _atom_site_fract_y
 _atom_site_fract_z
 _atom_site_occupancy
  Nd  Nd0  1  0.256894  0.143050  0.113843  1
  Nd  Nd1  1  0.743106  0.856950  0.886157  1
  Nd  Nd2  1  0.029207  0.643049  0.386158  1
  Nd  Nd3  1  0.970793  0.356951  0.613842  1
  Hf  Hf4  1  0.311680  0.561679  0.250000  1
  Hf  Hf5  1  0.688320  0.438321  0.750000  1
  Hf  Hf6  1  0.688320  0.938320  0.249999  1
  Hf  Hf7  1  0.311680  0.061680  0.750001  1
  Hf  Hf8  1  0.674398  0.436416  0.237983  1
  Hf  Hf9  1  0.325602  0.563584  0.762017  1
  Hf  Hf10  1  0.198433  0.936416  0.262017  1
  Hf  Hf11  1  0.801567  0.063584  0.737983  1
  Sn  Sn12  1  0.584990  0.289142  0.295847  1
  Sn  Sn13  1  0.415010  0.710858  0.704153  1
  Sn  Sn14  1  0.993295  0.789142  0.204153  1
  Sn  Sn15  1  0.006705  0.210858  0.795847  1
  Sn  Sn16  1  0.000000  0.250000  0.250000  1
  Sn  Sn17  1  0.000000  0.750000  0.750000  1
  Sn  Sn18  1  0.470874  0.066321  0.404552  1
  Sn  Sn19  1  0.529126  0.933679  0.595448  1
  Sn  Sn20  1  0.661769  0.566321  0.095447  1
  Sn  Sn21  1  0.338231  0.433679  0.904553  1
