# generated using pymatgen
data_Sc6CSe5
_symmetry_space_group_name_H-M   'P 1'
_cell_length_a   3.69859744
_cell_length_b   6.59215648
_cell_length_c   9.80012569
_cell_angle_alpha   83.77121125
_cell_angle_beta   100.91603640
_cell_angle_gamma   89.99137729
_symmetry_Int_Tables_number   1
_chemical_formula_structural   Sc6CSe5
_chemical_formula_sum   'Sc6 C1 Se5'
_cell_volume   233.18303380
_cell_formula_units_Z   1
loop_
 _symmetry_equiv_pos_site_id
 _symmetry_equiv_pos_as_xyz
  1  'x, y, z'
loop_
 _atom_site_type_symbol
 _atom_site_label
 _atom_site_symmetry_multiplicity
 _atom_site_fract_x
 _atom_site_fract_y
 _atom_site_fract_z
 _atom_site_occupancy
  Sc  Sc0  1  0.673089  0.378427  0.158520  1
  Sc  Sc1  1  0.170082  0.965278  0.152637  1
  Sc  Sc2  1  0.306136  0.485827  0.426339  1
  Sc  Sc3  1  0.489089  0.481327  0.791235  1
  Sc  Sc4  1  0.987295  0.959556  0.786099  1
  Sc  Sc5  1  0.800223  0.071859  0.417511  1
  C  C6  1  0.236966  0.225740  0.288980  1
  Se  Se7  1  0.078871  0.611270  0.968294  1
  Se  Se8  1  0.904457  0.328995  0.621285  1
  Se  Se9  1  0.737700  0.724723  0.288470  1
  Se  Se10  1  0.397037  0.831151  0.608654  1
  Se  Se11  1  0.571488  0.113060  0.956303  1
