# generated using pymatgen
data_DyTm3(Al8Pt3)3
_symmetry_space_group_name_H-M   'P 1'
_cell_length_a   7.51717131
_cell_length_b   7.53618475
_cell_length_c   13.14470534
_cell_angle_alpha   84.59471529
_cell_angle_beta   79.10598266
_cell_angle_gamma   59.98753913
_symmetry_Int_Tables_number   1
_chemical_formula_structural   DyTm3(Al8Pt3)3
_chemical_formula_sum   'Dy1 Tm3 Al24 Pt9'
_cell_volume   633.19117072
_cell_formula_units_Z   1
loop_
 _symmetry_equiv_pos_site_id
 _symmetry_equiv_pos_as_xyz
  1  'x, y, z'
loop_
 _atom_site_type_symbol
 _atom_site_label
 _atom_site_symmetry_multiplicity
 _atom_site_fract_x
 _atom_site_fract_y
 _atom_site_fract_z
 _atom_site_occupancy
  Dy  Dy0  1  0.393626  0.168582  0.808066  1
  Tm  Tm1  1  0.606332  0.831160  0.192723  1
  Tm  Tm2  1  0.734121  0.498831  0.807181  1
  Tm  Tm3  1  0.265706  0.501346  0.192861  1
  Al  Al4  1  0.684376  0.833289  0.944451  1
  Al  Al5  1  0.315982  0.166156  0.056254  1
  Al  Al6  1  0.146626  0.832400  0.561516  1
  Al  Al7  1  0.853458  0.167584  0.438376  1
  Al  Al8  1  0.479444  0.166664  0.558585  1
  Al  Al9  1  0.520578  0.833287  0.441226  1
  Al  Al10  1  0.217752  0.165273  0.328973  1
  Al  Al11  1  0.782672  0.834391  0.670703  1
  Al  Al12  1  0.437584  0.506482  0.670828  1
  Al  Al13  1  0.562530  0.493853  0.328817  1
  Al  Al14  1  0.109128  0.160033  0.669711  1
  Al  Al15  1  0.890643  0.839999  0.329885  1
  Al  Al16  1  0.353502  0.499574  0.944494  1
  Al  Al17  1  0.646408  0.500987  0.055854  1
  Al  Al18  1  0.015171  0.168028  0.952445  1
  Al  Al19  1  0.984152  0.832019  0.047973  1
  Al  Al20  1  0.186857  0.499245  0.441208  1
  Al  Al21  1  0.813135  0.500796  0.558684  1
  Al  Al22  1  0.733647  0.163977  0.183365  1
  Al  Al23  1  0.266369  0.835349  0.816628  1
  Al  Al24  1  0.061104  0.631379  0.815521  1
  Al  Al25  1  0.938282  0.369210  0.184449  1
  Al  Al26  1  0.855469  0.042155  0.816106  1
  Al  Al27  1  0.145130  0.957801  0.183897  1
  Pt  Pt28  1  0.119097  0.491493  0.639137  1
  Pt  Pt29  1  0.880506  0.509201  0.360382  1
  Pt  Pt30  1  0.656905  0.171650  0.000033  1
  Pt  Pt31  1  0.343109  0.828307  0.000282  1
  Pt  Pt32  1  0.536953  0.166747  0.360623  1
  Pt  Pt33  1  0.463061  0.832713  0.639000  1
  Pt  Pt34  1  0.778111  0.175889  0.637590  1
  Pt  Pt35  1  0.222541  0.824016  0.361996  1
  Pt  Pt36  1  0.999933  0.500136  0.000177  1
