# generated using pymatgen
data_Lu3CrFe7CoP6
_symmetry_space_group_name_H-M   'P 1'
_cell_length_a   3.68256100
_cell_length_b   10.49453700
_cell_length_c   12.08995600
_cell_angle_alpha   90.00000000
_cell_angle_beta   90.00000000
_cell_angle_gamma   90.00000000
_symmetry_Int_Tables_number   1
_chemical_formula_structural   Lu3CrFe7CoP6
_chemical_formula_sum   'Lu6 Cr2 Fe14 Co2 P12'
_cell_volume   467.23778111
_cell_formula_units_Z   2
loop_
 _symmetry_equiv_pos_site_id
 _symmetry_equiv_pos_as_xyz
  1  'x, y, z'
loop_
 _atom_site_type_symbol
 _atom_site_label
 _atom_site_symmetry_multiplicity
 _atom_site_fract_x
 _atom_site_fract_y
 _atom_site_fract_z
 _atom_site_occupancy
  Lu  Lu0  1  0.000000  0.500000  0.527668  1
  Lu  Lu1  1  0.500000  0.000000  0.472332  1
  Lu  Lu2  1  0.500000  0.821693  0.205913  1
  Lu  Lu3  1  0.500000  0.178307  0.205913  1
  Lu  Lu4  1  0.000000  0.678307  0.794087  1
  Lu  Lu5  1  0.000000  0.321693  0.794087  1
  Cr  Cr6  1  0.500000  0.500000  0.152423  1
  Cr  Cr7  1  0.000000  0.000000  0.847577  1
  Fe  Fe8  1  0.000000  0.500000  0.988976  1
  Fe  Fe9  1  0.500000  0.000000  0.011024  1
  Fe  Fe10  1  0.500000  0.327106  0.997045  1
  Fe  Fe11  1  0.500000  0.672894  0.997045  1
  Fe  Fe12  1  0.000000  0.172894  0.002955  1
  Fe  Fe13  1  0.000000  0.827106  0.002955  1
  Fe  Fe14  1  0.500000  0.297901  0.430639  1
  Fe  Fe15  1  0.500000  0.702099  0.430639  1
  Fe  Fe16  1  0.000000  0.202099  0.569361  1
  Fe  Fe17  1  0.000000  0.797901  0.569361  1
  Fe  Fe18  1  0.500000  0.881260  0.705586  1
  Fe  Fe19  1  0.500000  0.118740  0.705586  1
  Fe  Fe20  1  0.000000  0.618740  0.294414  1
  Fe  Fe21  1  0.000000  0.381260  0.294414  1
  Co  Co22  1  0.500000  0.500000  0.700967  1
  Co  Co23  1  0.000000  0.000000  0.299033  1
  P  P24  1  0.500000  0.500000  0.884970  1
  P  P25  1  0.000000  0.000000  0.115030  1
  P  P26  1  0.500000  0.500000  0.347465  1
  P  P27  1  0.000000  0.000000  0.652535  1
  P  P28  1  0.500000  0.309803  0.616136  1
  P  P29  1  0.500000  0.690197  0.616136  1
  P  P30  1  0.000000  0.190197  0.383864  1
  P  P31  1  0.000000  0.809803  0.383864  1
  P  P32  1  0.500000  0.847360  0.887971  1
  P  P33  1  0.500000  0.152640  0.887971  1
  P  P34  1  0.000000  0.652640  0.112029  1
  P  P35  1  0.000000  0.347360  0.112029  1
