# generated using pymatgen
data_HoTm5Al24ZnOs7
_symmetry_space_group_name_H-M   'P 1'
_cell_length_a   8.82964139
_cell_length_b   8.82720947
_cell_length_c   9.50793363
_cell_angle_alpha   89.90716227
_cell_angle_beta   90.06126722
_cell_angle_gamma   120.04790778
_symmetry_Int_Tables_number   1
_chemical_formula_structural   HoTm5Al24ZnOs7
_chemical_formula_sum   'Ho1 Tm5 Al24 Zn1 Os7'
_cell_volume   641.46479070
_cell_formula_units_Z   1
loop_
 _symmetry_equiv_pos_site_id
 _symmetry_equiv_pos_as_xyz
  1  'x, y, z'
loop_
 _atom_site_type_symbol
 _atom_site_label
 _atom_site_symmetry_multiplicity
 _atom_site_fract_x
 _atom_site_fract_y
 _atom_site_fract_z
 _atom_site_occupancy
  Ho  Ho0  1  0.191718  0.386054  0.248159  1
  Tm  Tm1  1  0.807942  0.612023  0.751313  1
  Tm  Tm2  1  0.612185  0.808198  0.248757  1
  Tm  Tm3  1  0.387912  0.191980  0.751233  1
  Tm  Tm4  1  0.195599  0.804703  0.253643  1
  Tm  Tm5  1  0.804491  0.195693  0.746322  1
  Al  Al6  1  0.330238  0.670413  0.022974  1
  Al  Al7  1  0.669867  0.330162  0.976613  1
  Al  Al8  1  0.665907  0.334211  0.518908  1
  Al  Al9  1  0.334372  0.666306  0.481440  1
  Al  Al10  1  0.162892  0.325860  0.574943  1
  Al  Al11  1  0.837178  0.674119  0.425642  1
  Al  Al12  1  0.674194  0.837113  0.574597  1
  Al  Al13  1  0.848174  0.677227  0.081564  1
  Al  Al14  1  0.326013  0.162666  0.425701  1
  Al  Al15  1  0.151838  0.322836  0.917967  1
  Al  Al16  1  0.162712  0.837203  0.576035  1
  Al  Al17  1  0.322864  0.151521  0.081441  1
  Al  Al18  1  0.836903  0.162630  0.424191  1
  Al  Al19  1  0.677315  0.848291  0.918273  1
  Al  Al20  1  0.836165  0.163109  0.076554  1
  Al  Al21  1  0.163409  0.836741  0.923161  1
  Al  Al22  1  0.561485  0.121253  0.249312  1
  Al  Al23  1  0.438468  0.878669  0.750703  1
  Al  Al24  1  0.878105  0.438697  0.249337  1
  Al  Al25  1  0.121359  0.561572  0.750609  1
  Al  Al26  1  0.563806  0.437143  0.253916  1
  Al  Al27  1  0.436957  0.563087  0.746283  1
  Al  Al28  1  0.998689  0.999919  0.250566  1
  Al  Al29  1  0.000762  0.999150  0.749461  1
  Zn  Zn30  1  0.500091  0.500101  0.999924  1
  Os  Os31  1  0.500159  0.000232  0.999896  1
  Os  Os32  1  0.999635  0.500255  0.999467  1
  Os  Os33  1  0.500176  0.000323  0.500145  1
  Os  Os34  1  0.999732  0.500178  0.500452  1
  Os  Os35  1  0.500604  0.500234  0.500482  1
  Os  Os36  1  0.000073  0.000118  0.999951  1
  Os  Os37  1  0.000012  0.000011  0.500065  1
