# generated using pymatgen
data_Th4Al24Ir5Pt4
_symmetry_space_group_name_H-M   'P 1'
_cell_length_a   7.59129156
_cell_length_b   7.62235782
_cell_length_c   13.25577798
_cell_angle_alpha   84.36276664
_cell_angle_beta   78.95282276
_cell_angle_gamma   59.87292197
_symmetry_Int_Tables_number   1
_chemical_formula_structural   Th4Al24Ir5Pt4
_chemical_formula_sum   'Th4 Al24 Ir5 Pt4'
_cell_volume   651.11687518
_cell_formula_units_Z   1
loop_
 _symmetry_equiv_pos_site_id
 _symmetry_equiv_pos_as_xyz
  1  'x, y, z'
loop_
 _atom_site_type_symbol
 _atom_site_label
 _atom_site_symmetry_multiplicity
 _atom_site_fract_x
 _atom_site_fract_y
 _atom_site_fract_z
 _atom_site_occupancy
  Th  Th0  1  0.392595  0.169703  0.806381  1
  Th  Th1  1  0.607405  0.830297  0.193619  1
  Th  Th2  1  0.736413  0.498142  0.805944  1
  Th  Th3  1  0.263587  0.501858  0.194056  1
  Al  Al4  1  0.685352  0.834206  0.948169  1
  Al  Al5  1  0.314648  0.165794  0.051831  1
  Al  Al6  1  0.146929  0.827499  0.559998  1
  Al  Al7  1  0.853071  0.172501  0.440002  1
  Al  Al8  1  0.476285  0.171297  0.556698  1
  Al  Al9  1  0.523715  0.828703  0.443302  1
  Al  Al10  1  0.208741  0.167564  0.335266  1
  Al  Al11  1  0.791259  0.832436  0.664734  1
  Al  Al12  1  0.433025  0.511168  0.664887  1
  Al  Al13  1  0.566975  0.488832  0.335113  1
  Al  Al14  1  0.111687  0.156819  0.662264  1
  Al  Al15  1  0.888313  0.843181  0.337736  1
  Al  Al16  1  0.349322  0.502200  0.948236  1
  Al  Al17  1  0.650678  0.497800  0.051764  1
  Al  Al18  1  0.012943  0.165971  0.961000  1
  Al  Al19  1  0.987057  0.834029  0.039000  1
  Al  Al20  1  0.180661  0.499525  0.444813  1
  Al  Al21  1  0.819339  0.500475  0.555187  1
  Al  Al22  1  0.739029  0.163237  0.180597  1
  Al  Al23  1  0.260971  0.836763  0.819403  1
  Al  Al24  1  0.061228  0.634965  0.816237  1
  Al  Al25  1  0.938772  0.365035  0.183763  1
  Al  Al26  1  0.858287  0.038303  0.819038  1
  Al  Al27  1  0.141713  0.961697  0.180963  1
  Ir  Ir28  1  0.120248  0.490138  0.640189  1
  Ir  Ir29  1  0.879752  0.509862  0.359811  1
  Ir  Ir30  1  0.656357  0.171847  0.999983  1
  Ir  Ir31  1  0.343643  0.828153  0.000017  1
  Ir  Ir32  1  0.000000  0.500000  0.000000  1
  Pt  Pt33  1  0.537296  0.166879  0.360847  1
  Pt  Pt34  1  0.462704  0.833121  0.639153  1
  Pt  Pt35  1  0.777755  0.175082  0.637844  1
  Pt  Pt36  1  0.222245  0.824918  0.362156  1
