# generated using pymatgen
data_Cs3Ca(NpTe3)2
_symmetry_space_group_name_H-M   'P 1'
_cell_length_a   8.09565069
_cell_length_b   8.09565059
_cell_length_c   8.90457800
_cell_angle_alpha   81.29606032
_cell_angle_beta   81.29606044
_cell_angle_gamma   119.66779368
_symmetry_Int_Tables_number   1
_chemical_formula_structural   Cs3Ca(NpTe3)2
_chemical_formula_sum   'Cs3 Ca1 Np2 Te6'
_cell_volume   483.55706865
_cell_formula_units_Z   1
loop_
 _symmetry_equiv_pos_site_id
 _symmetry_equiv_pos_as_xyz
  1  'x, y, z'
loop_
 _atom_site_type_symbol
 _atom_site_label
 _atom_site_symmetry_multiplicity
 _atom_site_fract_x
 _atom_site_fract_y
 _atom_site_fract_z
 _atom_site_occupancy
  Cs  Cs0  1  0.659084  0.340916  0.500000  1
  Cs  Cs1  1  0.340916  0.659084  0.500000  1
  Cs  Cs2  1  0.000000  0.000000  0.500000  1
  Ca  Ca3  1  0.500000  0.500000  0.000000  1
  Np  Np4  1  0.832496  0.167504  0.000000  1
  Np  Np5  1  0.167504  0.832496  0.000000  1
  Te  Te6  1  0.779539  0.779539  0.187689  1
  Te  Te7  1  0.220461  0.220461  0.812311  1
  Te  Te8  1  0.434761  0.091202  0.193237  1
  Te  Te9  1  0.565239  0.908798  0.806763  1
  Te  Te10  1  0.908798  0.565239  0.806763  1
  Te  Te11  1  0.091202  0.434761  0.193237  1
