# generated using pymatgen
data_Ba10Ca4Nb(SbO6)5
_symmetry_space_group_name_H-M   'P 1'
_cell_length_a   10.43919816
_cell_length_b   10.43919770
_cell_length_c   10.43919764
_cell_angle_alpha   99.55800598
_cell_angle_beta   99.55800263
_cell_angle_gamma   131.90580493
_symmetry_Int_Tables_number   1
_chemical_formula_structural   Ba10Ca4Nb(SbO6)5
_chemical_formula_sum   'Ba10 Ca4 Nb1 Sb5 O30'
_cell_volume   773.19263419
_cell_formula_units_Z   1
loop_
 _symmetry_equiv_pos_site_id
 _symmetry_equiv_pos_as_xyz
  1  'x, y, z'
loop_
 _atom_site_type_symbol
 _atom_site_label
 _atom_site_symmetry_multiplicity
 _atom_site_fract_x
 _atom_site_fract_y
 _atom_site_fract_z
 _atom_site_occupancy
  Ba  Ba0  1  0.750000  0.250000  0.500000  1
  Ba  Ba1  1  0.545728  0.647055  0.697138  1
  Ba  Ba2  1  0.949917  0.848590  0.302862  1
  Ba  Ba3  1  0.151410  0.454272  0.101327  1
  Ba  Ba4  1  0.352945  0.050083  0.898673  1
  Ba  Ba5  1  0.848590  0.545728  0.898673  1
  Ba  Ba6  1  0.647055  0.949917  0.101327  1
  Ba  Ba7  1  0.050083  0.151410  0.697138  1
  Ba  Ba8  1  0.250000  0.750000  0.500000  1
  Ba  Ba9  1  0.454272  0.352945  0.302862  1
  Ca  Ca10  1  0.400731  0.200632  0.601363  1
  Ca  Ca11  1  0.799368  0.400731  0.200097  1
  Ca  Ca12  1  0.200632  0.599269  0.799903  1
  Ca  Ca13  1  0.599269  0.799368  0.398637  1
  Nb  Nb14  1  0.000000  0.000000  0.000000  1
  Sb  Sb15  1  0.297962  0.901430  0.199391  1
  Sb  Sb16  1  0.098570  0.297962  0.396532  1
  Sb  Sb17  1  0.500000  0.500000  0.000000  1
  Sb  Sb18  1  0.702038  0.098570  0.800609  1
  Sb  Sb19  1  0.901430  0.702038  0.603468  1
  O  O20  1  0.525448  0.135335  0.195116  1
  O  O21  1  0.330332  0.525448  0.390113  1
  O  O22  1  0.757615  0.757615  0.000000  1
  O  O23  1  0.940219  0.330332  0.804884  1
  O  O24  1  0.135335  0.940219  0.609887  1
  O  O25  1  0.247638  0.762943  0.010582  1
  O  O26  1  0.047044  0.143428  0.190471  1
  O  O27  1  0.452294  0.362214  0.814510  1
  O  O28  1  0.660334  0.957492  0.617826  1
  O  O29  1  0.855548  0.560910  0.416458  1
  O  O30  1  0.143428  0.952956  0.096384  1
  O  O31  1  0.957492  0.339666  0.297157  1
  O  O32  1  0.362214  0.547706  0.909920  1
  O  O33  1  0.560910  0.144452  0.705362  1
  O  O34  1  0.762943  0.752362  0.515305  1
  O  O35  1  0.059781  0.669668  0.195116  1
  O  O36  1  0.864665  0.059781  0.390113  1
  O  O37  1  0.242385  0.242385  0.000000  1
  O  O38  1  0.474552  0.864665  0.804884  1
  O  O39  1  0.669668  0.474552  0.609887  1
  O  O40  1  0.339666  0.042508  0.382174  1
  O  O41  1  0.144452  0.439090  0.583542  1
  O  O42  1  0.547706  0.637786  0.185490  1
  O  O43  1  0.752362  0.237057  0.989418  1
  O  O44  1  0.952956  0.856572  0.809529  1
  O  O45  1  0.439090  0.855548  0.294638  1
  O  O46  1  0.237057  0.247638  0.484695  1
  O  O47  1  0.637786  0.452294  0.090080  1
  O  O48  1  0.856572  0.047044  0.903616  1
  O  O49  1  0.042508  0.660334  0.702843  1
