# generated using pymatgen
data_Fe5CoMo12(PdN2)2
_symmetry_space_group_name_H-M   'P 1'
_cell_length_a   6.76328357
_cell_length_b   6.75184345
_cell_length_c   6.76840930
_cell_angle_alpha   90.08247725
_cell_angle_beta   90.20995415
_cell_angle_gamma   89.81217524
_symmetry_Int_Tables_number   1
_chemical_formula_structural   Fe5CoMo12(PdN2)2
_chemical_formula_sum   'Fe5 Co1 Mo12 Pd2 N4'
_cell_volume   309.07286852
_cell_formula_units_Z   1
loop_
 _symmetry_equiv_pos_site_id
 _symmetry_equiv_pos_as_xyz
  1  'x, y, z'
loop_
 _atom_site_type_symbol
 _atom_site_label
 _atom_site_symmetry_multiplicity
 _atom_site_fract_x
 _atom_site_fract_y
 _atom_site_fract_z
 _atom_site_occupancy
  Fe  Fe0  1  0.317293  0.320335  0.433090  1
  Fe  Fe1  1  0.068825  0.567457  0.330895  1
  Fe  Fe2  1  0.425859  0.080365  0.194058  1
  Fe  Fe3  1  0.568809  0.433245  0.668448  1
  Fe  Fe4  1  0.925864  0.920078  0.805865  1
  Co  Co5  1  0.815979  0.680915  0.566656  1
  Mo  Mo6  1  0.620908  0.047822  0.540050  1
  Mo  Mo7  1  0.122344  0.951298  0.458948  1
  Mo  Mo8  1  0.876818  0.551112  0.952610  1
  Mo  Mo9  1  0.377854  0.449271  0.045777  1
  Mo  Mo10  1  0.207277  0.616994  0.696480  1
  Mo  Mo11  1  0.293666  0.126490  0.795766  1
  Mo  Mo12  1  0.795586  0.872580  0.205502  1
  Mo  Mo13  1  0.707944  0.382403  0.302675  1
  Mo  Mo14  1  0.052858  0.210659  0.133413  1
  Mo  Mo15  1  0.950614  0.296254  0.625059  1
  Mo  Mo16  1  0.553083  0.790663  0.868193  1
  Mo  Mo17  1  0.453738  0.704388  0.374890  1
  Pd  Pd18  1  0.685065  0.183811  0.935876  1
  Pd  Pd19  1  0.185148  0.815609  0.064361  1
  N  N20  1  0.373661  0.872662  0.626893  1
  N  N21  1  0.872624  0.125423  0.373766  1
  N  N22  1  0.123689  0.374526  0.878663  1
  N  N23  1  0.624496  0.625641  0.122068  1
