# generated using pymatgen
data_Ce3Zn3CoCuPd
_symmetry_space_group_name_H-M   'P 1'
_cell_length_a   7.24174100
_cell_length_b   7.24173967
_cell_length_c   3.83563500
_cell_angle_alpha   90.00000000
_cell_angle_beta   90.00000000
_cell_angle_gamma   119.99999239
_symmetry_Int_Tables_number   1
_chemical_formula_structural   Ce3Zn3CoCuPd
_chemical_formula_sum   'Ce3 Zn3 Co1 Cu1 Pd1'
_cell_volume   174.20227985
_cell_formula_units_Z   1
loop_
 _symmetry_equiv_pos_site_id
 _symmetry_equiv_pos_as_xyz
  1  'x, y, z'
loop_
 _atom_site_type_symbol
 _atom_site_label
 _atom_site_symmetry_multiplicity
 _atom_site_fract_x
 _atom_site_fract_y
 _atom_site_fract_z
 _atom_site_occupancy
  Ce  Ce0  1  0.981172  0.408259  0.000000  1
  Ce  Ce1  1  0.591741  0.572912  0.000000  1
  Ce  Ce2  1  0.427088  0.018828  0.000000  1
  Zn  Zn3  1  0.999583  0.759537  0.500000  1
  Zn  Zn4  1  0.240463  0.240045  0.500000  1
  Zn  Zn5  1  0.759955  0.000417  0.500000  1
  Co  Co6  1  0.666667  0.333333  0.500000  1
  Cu  Cu7  1  0.000000  0.000000  0.000000  1
  Pd  Pd8  1  0.333333  0.666667  0.500000  1
