# generated using pymatgen
data_Nb2Ni5Pt
_symmetry_space_group_name_H-M   'P 1'
_cell_length_a   4.32221500
_cell_length_b   4.66602079
_cell_length_c   5.20507615
_cell_angle_alpha   89.42571616
_cell_angle_beta   90.00000000
_cell_angle_gamma   90.00000000
_symmetry_Int_Tables_number   1
_chemical_formula_structural   Nb2Ni5Pt
_chemical_formula_sum   'Nb2 Ni5 Pt1'
_cell_volume   104.96833474
_cell_formula_units_Z   1
loop_
 _symmetry_equiv_pos_site_id
 _symmetry_equiv_pos_as_xyz
  1  'x, y, z'
loop_
 _atom_site_type_symbol
 _atom_site_label
 _atom_site_symmetry_multiplicity
 _atom_site_fract_x
 _atom_site_fract_y
 _atom_site_fract_z
 _atom_site_occupancy
  Nb  Nb0  1  0.500000  0.645528  0.510844  1
  Nb  Nb1  1  0.000000  0.348697  0.988615  1
  Ni  Ni2  1  0.500000  0.157549  0.752759  1
  Ni  Ni3  1  0.500000  0.168995  0.255419  1
  Ni  Ni4  1  0.000000  0.842921  0.747615  1
  Ni  Ni5  1  0.000000  0.322728  0.503672  1
  Ni  Ni6  1  0.500000  0.671783  0.994073  1
  Pt  Pt7  1  0.000000  0.841799  0.247004  1
