# generated using pymatgen
data_YEr15(Ga3Ir)2
_symmetry_space_group_name_H-M   'P 1'
_cell_length_a   9.97809000
_cell_length_b   9.97809014
_cell_length_c   6.95933700
_cell_angle_alpha   90.00000000
_cell_angle_beta   90.00000000
_cell_angle_gamma   120.00000618
_symmetry_Int_Tables_number   1
_chemical_formula_structural   YEr15(Ga3Ir)2
_chemical_formula_sum   'Y1 Er15 Ga6 Ir2'
_cell_volume   600.05811250
_cell_formula_units_Z   1
loop_
 _symmetry_equiv_pos_site_id
 _symmetry_equiv_pos_as_xyz
  1  'x, y, z'
loop_
 _atom_site_type_symbol
 _atom_site_label
 _atom_site_symmetry_multiplicity
 _atom_site_fract_x
 _atom_site_fract_y
 _atom_site_fract_z
 _atom_site_occupancy
  Y  Y0  1  0.000000  0.000000  0.267908  1
  Er  Er1  1  0.000000  0.000000  0.767272  1
  Er  Er2  1  0.171250  0.828750  0.990793  1
  Er  Er3  1  0.828722  0.171278  0.491570  1
  Er  Er4  1  0.171250  0.342500  0.990793  1
  Er  Er5  1  0.657500  0.828750  0.990793  1
  Er  Er6  1  0.342555  0.171278  0.491570  1
  Er  Er7  1  0.828722  0.657445  0.491570  1
  Er  Er8  1  0.333333  0.666667  0.663215  1
  Er  Er9  1  0.666667  0.333333  0.163052  1
  Er  Er10  1  0.465777  0.534223  0.295017  1
  Er  Er11  1  0.534209  0.465791  0.795079  1
  Er  Er12  1  0.465777  0.931554  0.295017  1
  Er  Er13  1  0.068446  0.534223  0.295017  1
  Er  Er14  1  0.931584  0.465791  0.795079  1
  Er  Er15  1  0.534209  0.068416  0.795079  1
  Ga  Ga16  1  0.163606  0.836394  0.542599  1
  Ga  Ga17  1  0.836324  0.163676  0.041901  1
  Ga  Ga18  1  0.163606  0.327211  0.542599  1
  Ga  Ga19  1  0.672789  0.836394  0.542599  1
  Ga  Ga20  1  0.327351  0.163676  0.041901  1
  Ga  Ga21  1  0.836324  0.672649  0.041901  1
  Ir  Ir22  1  0.333333  0.666667  0.057036  1
  Ir  Ir23  1  0.666667  0.333333  0.556762  1
