# generated using pymatgen
data_Y5Er5(RuRh)2
_symmetry_space_group_name_H-M   'P 1'
_cell_length_a   6.38219483
_cell_length_b   7.26495561
_cell_length_c   8.47860600
_cell_angle_alpha   96.91690806
_cell_angle_beta   111.89876851
_cell_angle_gamma   89.89768928
_symmetry_Int_Tables_number   1
_chemical_formula_structural   Y5Er5(RuRh)2
_chemical_formula_sum   'Y5 Er5 Ru2 Rh2'
_cell_volume   361.70415301
_cell_formula_units_Z   1
loop_
 _symmetry_equiv_pos_site_id
 _symmetry_equiv_pos_as_xyz
  1  'x, y, z'
loop_
 _atom_site_type_symbol
 _atom_site_label
 _atom_site_symmetry_multiplicity
 _atom_site_fract_x
 _atom_site_fract_y
 _atom_site_fract_z
 _atom_site_occupancy
  Y  Y0  1  0.791319  0.581597  0.811107  1
  Y  Y1  1  0.979597  0.918629  0.188832  1
  Y  Y2  1  0.211329  0.415209  0.186070  1
  Y  Y3  1  0.024817  0.084462  0.813311  1
  Y  Y4  1  0.206872  0.684382  0.565052  1
  Er  Er5  1  0.641483  0.816616  0.434242  1
  Er  Er6  1  0.792383  0.312360  0.436642  1
  Er  Er7  1  0.356051  0.187131  0.563230  1
  Er  Er8  1  0.420917  0.750076  0.000374  1
  Er  Er9  1  0.577211  0.249887  0.999873  1
  Ru  Ru10  1  0.400912  0.074488  0.221485  1
  Ru  Ru11  1  0.179312  0.424514  0.779648  1
  Rh  Rh12  1  0.599631  0.925589  0.779041  1
  Rh  Rh13  1  0.818167  0.575057  0.221094  1
