# generated using pymatgen
data_Gd5HgIO12
_symmetry_space_group_name_H-M   'P 1'
_cell_length_a   6.58993909
_cell_length_b   6.44716024
_cell_length_c   6.61970900
_cell_angle_alpha   98.42573192
_cell_angle_beta   99.51121619
_cell_angle_gamma   96.46714823
_symmetry_Int_Tables_number   1
_chemical_formula_structural   Gd5HgIO12
_chemical_formula_sum   'Gd5 Hg1 I1 O12'
_cell_volume   271.67476877
_cell_formula_units_Z   1
loop_
 _symmetry_equiv_pos_site_id
 _symmetry_equiv_pos_as_xyz
  1  'x, y, z'
loop_
 _atom_site_type_symbol
 _atom_site_label
 _atom_site_symmetry_multiplicity
 _atom_site_fract_x
 _atom_site_fract_y
 _atom_site_fract_z
 _atom_site_occupancy
  Gd  Gd0  1  0.393749  0.698328  0.856434  1
  Gd  Gd1  1  0.859755  0.382980  0.681405  1
  Gd  Gd2  1  0.681398  0.850654  0.388126  1
  Gd  Gd3  1  0.606234  0.312537  0.134480  1
  Gd  Gd4  1  0.143981  0.605137  0.313714  1
  Hg  Hg5  1  0.321657  0.151632  0.591200  1
  I  I6  1  0.992000  0.991762  0.002484  1
  O  O7  1  0.190619  0.437032  0.600454  1
  O  O8  1  0.629951  0.182224  0.425150  1
  O  O9  1  0.430310  0.596923  0.177056  1
  O  O10  1  0.828246  0.560490  0.399548  1
  O  O11  1  0.396645  0.834562  0.560408  1
  O  O12  1  0.600590  0.448328  0.837345  1
  O  O13  1  0.910524  0.017401  0.720082  1
  O  O14  1  0.966982  0.286007  0.072482  1
  O  O15  1  0.281057  0.059202  0.004225  1
  O  O16  1  0.036079  0.946926  0.283663  1
  O  O17  1  0.031214  0.701539  0.927874  1
  O  O18  1  0.699007  0.936336  0.023871  1
