# generated using pymatgen
data_Yb5(SiN3)2
_symmetry_space_group_name_H-M   'P 1'
_cell_length_a   5.69525089
_cell_length_b   5.69525202
_cell_length_c   12.62799174
_cell_angle_alpha   81.12917323
_cell_angle_beta   98.87082728
_cell_angle_gamma   116.19625522
_symmetry_Int_Tables_number   1
_chemical_formula_structural   Yb5(SiN3)2
_chemical_formula_sum   'Yb10 Si4 N12'
_cell_volume   361.41490312
_cell_formula_units_Z   2
loop_
 _symmetry_equiv_pos_site_id
 _symmetry_equiv_pos_as_xyz
  1  'x, y, z'
loop_
 _atom_site_type_symbol
 _atom_site_label
 _atom_site_symmetry_multiplicity
 _atom_site_fract_x
 _atom_site_fract_y
 _atom_site_fract_z
 _atom_site_occupancy
  Yb  Yb0  1  0.244501  0.934190  0.216539  1
  Yb  Yb1  1  0.934190  0.244501  0.283461  1
  Yb  Yb2  1  0.755500  0.065810  0.783461  1
  Yb  Yb3  1  0.065811  0.755499  0.716539  1
  Yb  Yb4  1  0.321456  0.207064  0.496259  1
  Yb  Yb5  1  0.207063  0.321457  0.003741  1
  Yb  Yb6  1  0.678544  0.792939  0.503740  1
  Yb  Yb7  1  0.792938  0.678545  0.996260  1
  Yb  Yb8  1  0.627021  0.627020  0.250000  1
  Yb  Yb9  1  0.372980  0.372979  0.750000  1
  Si  Si10  1  0.649562  0.096953  0.075795  1
  Si  Si11  1  0.096953  0.649562  0.424205  1
  Si  Si12  1  0.350438  0.903048  0.924205  1
  Si  Si13  1  0.903048  0.350438  0.575794  1
  N  N14  1  0.604511  0.309706  0.147590  1
  N  N15  1  0.309707  0.604510  0.352410  1
  N  N16  1  0.395489  0.690293  0.852410  1
  N  N17  1  0.690294  0.395488  0.647589  1
  N  N18  1  0.347717  0.788720  0.064235  1
  N  N19  1  0.788720  0.347717  0.435765  1
  N  N20  1  0.652282  0.211281  0.935765  1
  N  N21  1  0.211280  0.652283  0.564235  1
  N  N22  1  0.904132  0.016456  0.127963  1
  N  N23  1  0.016456  0.904132  0.372037  1
  N  N24  1  0.095868  0.983545  0.872037  1
  N  N25  1  0.983545  0.095868  0.627963  1
