# generated using pymatgen
data_Sc2Pa6SnSb9
_symmetry_space_group_name_H-M   'P 1'
_cell_length_a   9.28443300
_cell_length_b   9.28443202
_cell_length_c   6.21408000
_cell_angle_alpha   90.00000000
_cell_angle_beta   90.00000000
_cell_angle_gamma   119.99999991
_symmetry_Int_Tables_number   1
_chemical_formula_structural   Sc2Pa6SnSb9
_chemical_formula_sum   'Sc2 Pa6 Sn1 Sb9'
_cell_volume   463.89340630
_cell_formula_units_Z   1
loop_
 _symmetry_equiv_pos_site_id
 _symmetry_equiv_pos_as_xyz
  1  'x, y, z'
loop_
 _atom_site_type_symbol
 _atom_site_label
 _atom_site_symmetry_multiplicity
 _atom_site_fract_x
 _atom_site_fract_y
 _atom_site_fract_z
 _atom_site_occupancy
  Sc  Sc0  1  0.000000  0.000000  0.000000  1
  Sc  Sc1  1  0.000000  0.000000  0.500000  1
  Pa  Pa2  1  0.387828  0.000363  0.749813  1
  Pa  Pa3  1  0.387828  0.387465  0.250187  1
  Pa  Pa4  1  0.999637  0.612172  0.250187  1
  Pa  Pa5  1  0.999637  0.387465  0.749813  1
  Pa  Pa6  1  0.612535  0.612172  0.749813  1
  Pa  Pa7  1  0.612535  0.000363  0.250187  1
  Sn  Sn8  1  0.666667  0.333333  0.500000  1
  Sb  Sb9  1  0.333333  0.666667  0.000000  1
  Sb  Sb10  1  0.730734  0.000276  0.749503  1
  Sb  Sb11  1  0.730734  0.730459  0.250497  1
  Sb  Sb12  1  0.333333  0.666667  0.500000  1
  Sb  Sb13  1  0.666667  0.333333  0.000000  1
  Sb  Sb14  1  0.269541  0.000276  0.250497  1
  Sb  Sb15  1  0.269541  0.269266  0.749503  1
  Sb  Sb16  1  0.999724  0.730459  0.749503  1
  Sb  Sb17  1  0.999724  0.269266  0.250497  1
