# generated using pymatgen
data_CaAc16Yb3Sn16
_symmetry_space_group_name_H-M   'P 1'
_cell_length_a   8.52825445
_cell_length_b   8.87567646
_cell_length_c   17.03631300
_cell_angle_alpha   90.00000000
_cell_angle_beta   90.00000000
_cell_angle_gamma   89.96288421
_symmetry_Int_Tables_number   1
_chemical_formula_structural   CaAc16Yb3Sn16
_chemical_formula_sum   'Ca1 Ac16 Yb3 Sn16'
_cell_volume   1289.54687058
_cell_formula_units_Z   1
loop_
 _symmetry_equiv_pos_site_id
 _symmetry_equiv_pos_as_xyz
  1  'x, y, z'
loop_
 _atom_site_type_symbol
 _atom_site_label
 _atom_site_symmetry_multiplicity
 _atom_site_fract_x
 _atom_site_fract_y
 _atom_site_fract_z
 _atom_site_occupancy
  Ca  Ca0  1  0.815917  0.509183  0.750000  1
  Ac  Ac1  1  0.648958  0.170122  0.623903  1
  Ac  Ac2  1  0.149246  0.329531  0.876005  1
  Ac  Ac3  1  0.350917  0.829753  0.124002  1
  Ac  Ac4  1  0.851040  0.670451  0.375887  1
  Ac  Ac5  1  0.350917  0.829753  0.375998  1
  Ac  Ac6  1  0.851040  0.670451  0.124113  1
  Ac  Ac7  1  0.648958  0.170122  0.876097  1
  Ac  Ac8  1  0.149246  0.329531  0.623995  1
  Ac  Ac9  1  0.497008  0.685222  0.596682  1
  Ac  Ac10  1  0.997214  0.814956  0.903316  1
  Ac  Ac11  1  0.502788  0.314740  0.096756  1
  Ac  Ac12  1  0.002882  0.185119  0.403229  1
  Ac  Ac13  1  0.502788  0.314740  0.403244  1
  Ac  Ac14  1  0.002882  0.185119  0.096771  1
  Ac  Ac15  1  0.497008  0.685222  0.903318  1
  Ac  Ac16  1  0.997214  0.814956  0.596684  1
  Yb  Yb17  1  0.315908  0.990920  0.750000  1
  Yb  Yb18  1  0.184029  0.490928  0.250000  1
  Yb  Yb19  1  0.684028  0.009062  0.250000  1
  Sn  Sn20  1  0.687616  0.966206  0.460729  1
  Sn  Sn21  1  0.187373  0.533759  0.039206  1
  Sn  Sn22  1  0.312382  0.033722  0.960735  1
  Sn  Sn23  1  0.812630  0.466220  0.539114  1
  Sn  Sn24  1  0.312382  0.033722  0.539265  1
  Sn  Sn25  1  0.812630  0.466220  0.960886  1
  Sn  Sn26  1  0.687616  0.966206  0.039271  1
  Sn  Sn27  1  0.187373  0.533759  0.460794  1
  Sn  Sn28  1  0.453302  0.402619  0.750000  1
  Sn  Sn29  1  0.953686  0.097292  0.750000  1
  Sn  Sn30  1  0.546561  0.597190  0.250000  1
  Sn  Sn31  1  0.046426  0.902623  0.250000  1
  Sn  Sn32  1  0.693176  0.858566  0.750000  1
  Sn  Sn33  1  0.193329  0.641932  0.750000  1
  Sn  Sn34  1  0.306759  0.141832  0.250000  1
  Sn  Sn35  1  0.806770  0.358250  0.250000  1
