# generated using pymatgen
data_Tb5Sm3Re2(B12Ru)2
_symmetry_space_group_name_H-M   'P 1'
_cell_length_a   3.71080100
_cell_length_b   9.22162675
_cell_length_c   11.63365231
_cell_angle_alpha   90.20143341
_cell_angle_beta   90.00000000
_cell_angle_gamma   90.00000000
_symmetry_Int_Tables_number   1
_chemical_formula_structural   Tb5Sm3Re2(B12Ru)2
_chemical_formula_sum   'Tb5 Sm3 Re2 B24 Ru2'
_cell_volume   398.09672178
_cell_formula_units_Z   1
loop_
 _symmetry_equiv_pos_site_id
 _symmetry_equiv_pos_as_xyz
  1  'x, y, z'
loop_
 _atom_site_type_symbol
 _atom_site_label
 _atom_site_symmetry_multiplicity
 _atom_site_fract_x
 _atom_site_fract_y
 _atom_site_fract_z
 _atom_site_occupancy
  Tb  Tb0  1  0.000000  0.174690  0.915562  1
  Tb  Tb1  1  0.000000  0.942896  0.369918  1
  Tb  Tb2  1  0.000000  0.057364  0.630080  1
  Tb  Tb3  1  0.000000  0.442655  0.129214  1
  Tb  Tb4  1  0.000000  0.556950  0.870513  1
  Sm  Sm5  1  0.000000  0.321992  0.412658  1
  Sm  Sm6  1  0.000000  0.678003  0.587524  1
  Sm  Sm7  1  0.000000  0.824838  0.084675  1
  Re  Re8  1  0.000000  0.138871  0.179335  1
  Re  Re9  1  0.000000  0.862087  0.820249  1
  B  B10  1  0.500000  0.554746  0.431602  1
  B  B11  1  0.500000  0.444930  0.568717  1
  B  B12  1  0.500000  0.054397  0.067099  1
  B  B13  1  0.500000  0.947238  0.932016  1
  B  B14  1  0.500000  0.748387  0.417669  1
  B  B15  1  0.500000  0.251578  0.582813  1
  B  B16  1  0.500000  0.248488  0.081006  1
  B  B17  1  0.500000  0.751895  0.917635  1
  B  B18  1  0.500000  0.789746  0.266519  1
  B  B19  1  0.500000  0.209587  0.734429  1
  B  B20  1  0.500000  0.290708  0.233345  1
  B  B21  1  0.500000  0.709506  0.766209  1
  B  B22  1  0.500000  0.630731  0.186646  1
  B  B23  1  0.500000  0.368196  0.814092  1
  B  B24  1  0.500000  0.131256  0.313822  1
  B  B25  1  0.500000  0.869399  0.686221  1
  B  B26  1  0.500000  0.984741  0.212337  1
  B  B27  1  0.500000  0.016929  0.787763  1
  B  B28  1  0.500000  0.484682  0.287515  1
  B  B29  1  0.500000  0.514719  0.712719  1
  B  B30  1  0.500000  0.602233  0.028320  1
  B  B31  1  0.500000  0.395947  0.971094  1
  B  B32  1  0.500000  0.102245  0.471842  1
  B  B33  1  0.500000  0.897968  0.528299  1
  Ru  Ru34  1  0.000000  0.638192  0.320819  1
  Ru  Ru35  1  0.000000  0.361211  0.679723  1
