# generated using pymatgen
data_Ho6Tm6Co4HgRh
_symmetry_space_group_name_H-M   'P 1'
_cell_length_a   8.20375835
_cell_length_b   8.20375895
_cell_length_c   8.20514781
_cell_angle_alpha   110.95723539
_cell_angle_beta   110.25862478
_cell_angle_gamma   107.21459838
_symmetry_Int_Tables_number   1
_chemical_formula_structural   Ho6Tm6Co4HgRh
_chemical_formula_sum   'Ho6 Tm6 Co4 Hg1 Rh1'
_cell_volume   424.62964643
_cell_formula_units_Z   1
loop_
 _symmetry_equiv_pos_site_id
 _symmetry_equiv_pos_as_xyz
  1  'x, y, z'
loop_
 _atom_site_type_symbol
 _atom_site_label
 _atom_site_symmetry_multiplicity
 _atom_site_fract_x
 _atom_site_fract_y
 _atom_site_fract_z
 _atom_site_occupancy
  Ho  Ho0  1  0.412307  0.216617  0.194473  1
  Ho  Ho1  1  0.587693  0.783383  0.805527  1
  Ho  Ho2  1  0.022144  0.217835  0.805527  1
  Ho  Ho3  1  0.977856  0.782165  0.194473  1
  Ho  Ho4  1  0.184786  0.289968  0.474756  1
  Ho  Ho5  1  0.815214  0.710032  0.525244  1
  Tm  Tm6  1  0.185011  0.711032  0.896042  1
  Tm  Tm7  1  0.814989  0.288968  0.103958  1
  Tm  Tm8  1  0.315057  0.620312  0.304082  1
  Tm  Tm9  1  0.684943  0.379688  0.695918  1
  Tm  Tm10  1  0.316227  0.010975  0.695918  1
  Tm  Tm11  1  0.683773  0.989025  0.304082  1
  Co  Co12  1  0.378012  0.998812  0.376824  1
  Co  Co13  1  0.621988  0.001188  0.623176  1
  Co  Co14  1  0.113646  0.613646  0.500000  1
  Co  Co15  1  0.886354  0.386354  0.500000  1
  Hg  Hg16  1  0.500000  0.500000  0.000000  1
  Rh  Rh17  1  0.000000  0.000000  0.000000  1
