# generated using pymatgen
data_Nd2Tm2Ni13C4
_symmetry_space_group_name_H-M   'P 1'
_cell_length_a   8.40463457
_cell_length_b   8.40463569
_cell_length_c   3.89998400
_cell_angle_alpha   90.00000000
_cell_angle_beta   90.00000000
_cell_angle_gamma   90.69879147
_symmetry_Int_Tables_number   1
_chemical_formula_structural   Nd2Tm2Ni13C4
_chemical_formula_sum   'Nd2 Tm2 Ni13 C4'
_cell_volume   275.46615873
_cell_formula_units_Z   1
loop_
 _symmetry_equiv_pos_site_id
 _symmetry_equiv_pos_as_xyz
  1  'x, y, z'
loop_
 _atom_site_type_symbol
 _atom_site_label
 _atom_site_symmetry_multiplicity
 _atom_site_fract_x
 _atom_site_fract_y
 _atom_site_fract_z
 _atom_site_occupancy
  Nd  Nd0  1  0.346430  0.346430  0.500000  1
  Nd  Nd1  1  0.653570  0.653570  0.500000  1
  Tm  Tm2  1  0.812624  0.187376  0.500000  1
  Tm  Tm3  1  0.187376  0.812624  0.500000  1
  Ni  Ni4  1  0.000000  0.000000  0.000000  1
  Ni  Ni5  1  0.213954  0.572804  0.000000  1
  Ni  Ni6  1  0.786046  0.427196  0.000000  1
  Ni  Ni7  1  0.427196  0.786046  0.000000  1
  Ni  Ni8  1  0.572804  0.213954  0.000000  1
  Ni  Ni9  1  0.000000  0.500000  0.500000  1
  Ni  Ni10  1  0.500000  0.000000  0.500000  1
  Ni  Ni11  1  0.067553  0.288864  0.000000  1
  Ni  Ni12  1  0.932447  0.711136  0.000000  1
  Ni  Ni13  1  0.711136  0.932447  0.000000  1
  Ni  Ni14  1  0.288864  0.067553  0.000000  1
  Ni  Ni15  1  0.119148  0.119148  0.500000  1
  Ni  Ni16  1  0.880852  0.880852  0.500000  1
  C  C17  1  0.000000  0.500000  0.000000  1
  C  C18  1  0.500000  0.000000  0.000000  1
  C  C19  1  0.442940  0.557060  0.000000  1
  C  C20  1  0.557060  0.442940  0.000000  1
