# generated using pymatgen
data_Lu12CoTc2As
_symmetry_space_group_name_H-M   'P 1'
_cell_length_a   6.15149338
_cell_length_b   7.27738314
_cell_length_c   8.95083800
_cell_angle_alpha   90.00000000
_cell_angle_beta   90.00000000
_cell_angle_gamma   90.63150368
_symmetry_Int_Tables_number   1
_chemical_formula_structural   Lu12CoTc2As
_chemical_formula_sum   'Lu12 Co1 Tc2 As1'
_cell_volume   400.67580558
_cell_formula_units_Z   1
loop_
 _symmetry_equiv_pos_site_id
 _symmetry_equiv_pos_as_xyz
  1  'x, y, z'
loop_
 _atom_site_type_symbol
 _atom_site_label
 _atom_site_symmetry_multiplicity
 _atom_site_fract_x
 _atom_site_fract_y
 _atom_site_fract_z
 _atom_site_occupancy
  Lu  Lu0  1  0.344392  0.669436  0.058058  1
  Lu  Lu1  1  0.159377  0.189373  0.443046  1
  Lu  Lu2  1  0.664876  0.326102  0.565701  1
  Lu  Lu3  1  0.827083  0.815915  0.934226  1
  Lu  Lu4  1  0.664876  0.326102  0.934299  1
  Lu  Lu5  1  0.827083  0.815915  0.565774  1
  Lu  Lu6  1  0.344392  0.669436  0.441942  1
  Lu  Lu7  1  0.159377  0.189373  0.056954  1
  Lu  Lu8  1  0.871958  0.524572  0.250000  1
  Lu  Lu9  1  0.620066  0.044977  0.250000  1
  Lu  Lu10  1  0.134798  0.465161  0.750000  1
  Lu  Lu11  1  0.373897  0.957341  0.750000  1
  Co  Co12  1  0.531741  0.620953  0.750000  1
  Tc  Tc13  1  0.453062  0.386546  0.250000  1
  Tc  Tc14  1  0.963251  0.115164  0.750000  1
  As  As15  1  0.059771  0.883633  0.250000  1
