# generated using pymatgen
data_GeB6H
_symmetry_space_group_name_H-M   'P 1'
_cell_length_a   6.42928746
_cell_length_b   6.42928844
_cell_length_c   8.51714400
_cell_angle_alpha   90.00000000
_cell_angle_beta   90.00000000
_cell_angle_gamma   57.79264642
_symmetry_Int_Tables_number   1
_chemical_formula_structural   GeB6H
_chemical_formula_sum   'Ge4 B24 H4'
_cell_volume   297.88878401
_cell_formula_units_Z   4
loop_
 _symmetry_equiv_pos_site_id
 _symmetry_equiv_pos_as_xyz
  1  'x, y, z'
loop_
 _atom_site_type_symbol
 _atom_site_label
 _atom_site_symmetry_multiplicity
 _atom_site_fract_x
 _atom_site_fract_y
 _atom_site_fract_z
 _atom_site_occupancy
  Ge  Ge0  1  0.672887  0.672887  0.069843  1
  Ge  Ge1  1  0.172887  0.172887  0.430158  1
  Ge  Ge2  1  0.827114  0.827114  0.569842  1
  Ge  Ge3  1  0.327114  0.327114  0.930157  1
  B  B4  1  0.846458  0.305192  0.025640  1
  B  B5  1  0.305192  0.846458  0.025640  1
  B  B6  1  0.856729  0.856729  0.061659  1
  B  B7  1  0.095417  0.095417  0.138905  1
  B  B8  1  0.806270  0.122339  0.170975  1
  B  B9  1  0.122339  0.806270  0.170975  1
  B  B10  1  0.622339  0.306271  0.329026  1
  B  B11  1  0.306271  0.622339  0.329026  1
  B  B12  1  0.595417  0.595417  0.361093  1
  B  B13  1  0.356729  0.356729  0.438340  1
  B  B14  1  0.805190  0.346460  0.474361  1
  B  B15  1  0.346460  0.805190  0.474361  1
  B  B16  1  0.653539  0.194809  0.525638  1
  B  B17  1  0.194809  0.653539  0.525638  1
  B  B18  1  0.643272  0.643272  0.561658  1
  B  B19  1  0.404583  0.404583  0.638905  1
  B  B20  1  0.693729  0.377661  0.670975  1
  B  B21  1  0.377661  0.693729  0.670975  1
  B  B22  1  0.877661  0.193730  0.829026  1
  B  B23  1  0.193730  0.877661  0.829026  1
  B  B24  1  0.904584  0.904584  0.861094  1
  B  B25  1  0.143272  0.143272  0.938340  1
  B  B26  1  0.694807  0.153541  0.974363  1
  B  B27  1  0.153541  0.694807  0.974363  1
  H  H28  1  0.186872  0.186872  0.222714  1
  H  H29  1  0.686872  0.686872  0.277286  1
  H  H30  1  0.313128  0.313128  0.722714  1
  H  H31  1  0.813128  0.813128  0.777286  1
