# generated using pymatgen
data_Rb3La(BO3)2
_symmetry_space_group_name_H-M   'P 1'
_cell_length_a   5.82572100
_cell_length_b   7.28994400
_cell_length_c   9.84205900
_cell_angle_alpha   90.00000000
_cell_angle_beta   90.00000000
_cell_angle_gamma   90.00000000
_symmetry_Int_Tables_number   1
_chemical_formula_structural   Rb3La(BO3)2
_chemical_formula_sum   'Rb6 La2 B4 O12'
_cell_volume   417.98417376
_cell_formula_units_Z   2
loop_
 _symmetry_equiv_pos_site_id
 _symmetry_equiv_pos_as_xyz
  1  'x, y, z'
loop_
 _atom_site_type_symbol
 _atom_site_label
 _atom_site_symmetry_multiplicity
 _atom_site_fract_x
 _atom_site_fract_y
 _atom_site_fract_z
 _atom_site_occupancy
  Rb  Rb0  1  0.000000  0.232318  0.332800  1
  Rb  Rb1  1  0.000000  0.767682  0.667200  1
  Rb  Rb2  1  0.500000  0.732318  0.167200  1
  Rb  Rb3  1  0.500000  0.500000  0.500000  1
  Rb  Rb4  1  0.500000  0.267682  0.832800  1
  Rb  Rb5  1  0.000000  0.000000  0.000000  1
  La  La6  1  0.000000  0.500000  0.000000  1
  La  La7  1  0.500000  0.000000  0.500000  1
  B  B8  1  0.000000  0.764330  0.333559  1
  B  B9  1  0.000000  0.235670  0.666441  1
  B  B10  1  0.500000  0.735670  0.833559  1
  B  B11  1  0.500000  0.264330  0.166441  1
  O  O12  1  0.707663  0.301886  0.100334  1
  O  O13  1  0.207663  0.198114  0.600334  1
  O  O14  1  0.500000  0.191973  0.298484  1
  O  O15  1  0.707663  0.698114  0.899666  1
  O  O16  1  0.292337  0.301886  0.100334  1
  O  O17  1  0.207663  0.801886  0.399666  1
  O  O18  1  0.792337  0.198114  0.600334  1
  O  O19  1  0.292337  0.698114  0.899666  1
  O  O20  1  0.792337  0.801886  0.399666  1
  O  O21  1  0.000000  0.308027  0.798484  1
  O  O22  1  0.000000  0.691973  0.201516  1
  O  O23  1  0.500000  0.808027  0.701516  1
