# generated using pymatgen
data_Ce4Ho(In2Ru)2
_symmetry_space_group_name_H-M   'P 1'
_cell_length_a   8.26883600
_cell_length_b   18.16744000
_cell_length_c   3.66610000
_cell_angle_alpha   90.00000000
_cell_angle_beta   90.00000000
_cell_angle_gamma   90.00000000
_symmetry_Int_Tables_number   1
_chemical_formula_structural   Ce4Ho(In2Ru)2
_chemical_formula_sum   'Ce8 Ho2 In8 Ru4'
_cell_volume   550.73467360
_cell_formula_units_Z   2
loop_
 _symmetry_equiv_pos_site_id
 _symmetry_equiv_pos_as_xyz
  1  'x, y, z'
loop_
 _atom_site_type_symbol
 _atom_site_label
 _atom_site_symmetry_multiplicity
 _atom_site_fract_x
 _atom_site_fract_y
 _atom_site_fract_z
 _atom_site_occupancy
  Ce  Ce0  1  0.758216  0.276472  0.000000  1
  Ce  Ce1  1  0.241784  0.723528  0.000000  1
  Ce  Ce2  1  0.741784  0.776472  0.000000  1
  Ce  Ce3  1  0.258216  0.223528  0.000000  1
  Ce  Ce4  1  0.617756  0.090767  0.000000  1
  Ce  Ce5  1  0.382244  0.909233  0.000000  1
  Ce  Ce6  1  0.882244  0.590767  0.000000  1
  Ce  Ce7  1  0.117756  0.409233  0.000000  1
  Ho  Ho8  1  0.500000  0.500000  0.000000  1
  Ho  Ho9  1  0.000000  0.000000  0.000000  1
  In  In10  1  0.710235  0.934602  0.500000  1
  In  In11  1  0.289765  0.065398  0.500000  1
  In  In12  1  0.789765  0.434602  0.500000  1
  In  In13  1  0.210235  0.565398  0.500000  1
  In  In14  1  0.551085  0.647352  0.500000  1
  In  In15  1  0.448915  0.352648  0.500000  1
  In  In16  1  0.948915  0.147352  0.500000  1
  In  In17  1  0.051085  0.852648  0.500000  1
  Ru  Ru18  1  0.498786  0.192153  0.500000  1
  Ru  Ru19  1  0.501214  0.807847  0.500000  1
  Ru  Ru20  1  0.001214  0.692153  0.500000  1
  Ru  Ru21  1  0.998786  0.307847  0.500000  1
