# generated using pymatgen
data_PrDy2Er(WO6)2
_symmetry_space_group_name_H-M   'P 1'
_cell_length_a   5.45357500
_cell_length_b   7.78214147
_cell_length_c   11.54016058
_cell_angle_alpha   75.63000731
_cell_angle_beta   90.00000000
_cell_angle_gamma   90.00000000
_symmetry_Int_Tables_number   1
_chemical_formula_structural   PrDy2Er(WO6)2
_chemical_formula_sum   'Pr2 Dy4 Er2 W4 O24'
_cell_volume   474.44679180
_cell_formula_units_Z   2
loop_
 _symmetry_equiv_pos_site_id
 _symmetry_equiv_pos_as_xyz
  1  'x, y, z'
loop_
 _atom_site_type_symbol
 _atom_site_label
 _atom_site_symmetry_multiplicity
 _atom_site_fract_x
 _atom_site_fract_y
 _atom_site_fract_z
 _atom_site_occupancy
  Pr  Pr0  1  0.685743  0.500000  0.250000  1
  Pr  Pr1  1  0.314870  0.500000  0.750000  1
  Dy  Dy2  1  0.185274  0.202924  0.423476  1
  Dy  Dy3  1  0.185274  0.797076  0.076524  1
  Dy  Dy4  1  0.742883  0.000000  0.250000  1
  Dy  Dy5  1  0.257553  0.000000  0.750000  1
  Er  Er6  1  0.814874  0.796069  0.577133  1
  Er  Er7  1  0.814874  0.203931  0.922867  1
  W  W8  1  0.254217  0.271683  0.115269  1
  W  W9  1  0.254217  0.728317  0.384731  1
  W  W10  1  0.746258  0.728174  0.883494  1
  W  W11  1  0.746258  0.271826  0.616506  1
  O  O12  1  0.454933  0.204359  0.272525  1
  O  O13  1  0.454933  0.795641  0.227475  1
  O  O14  1  0.546737  0.795198  0.725929  1
  O  O15  1  0.546737  0.204802  0.774071  1
  O  O16  1  0.043186  0.059437  0.103152  1
  O  O17  1  0.043186  0.940563  0.396848  1
  O  O18  1  0.954078  0.942416  0.896193  1
  O  O19  1  0.954078  0.057584  0.603807  1
  O  O20  1  0.986204  0.279745  0.230191  1
  O  O21  1  0.986204  0.720255  0.269809  1
  O  O22  1  0.014423  0.721129  0.769027  1
  O  O23  1  0.014423  0.278871  0.730973  1
  O  O24  1  0.853025  0.358348  0.455000  1
  O  O25  1  0.853025  0.641652  0.045000  1
  O  O26  1  0.144550  0.642098  0.545694  1
  O  O27  1  0.144550  0.357902  0.954306  1
  O  O28  1  0.654188  0.506647  0.613355  1
  O  O29  1  0.654188  0.493353  0.886645  1
  O  O30  1  0.347093  0.494215  0.387219  1
  O  O31  1  0.347093  0.505785  0.112781  1
  O  O32  1  0.464872  0.155743  0.570403  1
  O  O33  1  0.464872  0.844257  0.929597  1
  O  O34  1  0.535562  0.844003  0.431935  1
  O  O35  1  0.535562  0.155997  0.068065  1
