# generated using pymatgen
data_Pr5NdEr4(Sn5Rh2)4
_symmetry_space_group_name_H-M   'P 1'
_cell_length_a   14.17676400
_cell_length_b   14.17676400
_cell_length_c   4.57901000
_cell_angle_alpha   90.00000000
_cell_angle_beta   90.00000000
_cell_angle_gamma   90.00000000
_symmetry_Int_Tables_number   1
_chemical_formula_structural   Pr5NdEr4(Sn5Rh2)4
_chemical_formula_sum   'Pr5 Nd1 Er4 Sn20 Rh8'
_cell_volume   920.29234897
_cell_formula_units_Z   1
loop_
 _symmetry_equiv_pos_site_id
 _symmetry_equiv_pos_as_xyz
  1  'x, y, z'
loop_
 _atom_site_type_symbol
 _atom_site_label
 _atom_site_symmetry_multiplicity
 _atom_site_fract_x
 _atom_site_fract_y
 _atom_site_fract_z
 _atom_site_occupancy
  Pr  Pr0  1  0.000000  0.000000  0.000000  1
  Pr  Pr1  1  0.888029  0.388035  0.500000  1
  Pr  Pr2  1  0.111971  0.611965  0.500000  1
  Pr  Pr3  1  0.388035  0.111971  0.500000  1
  Pr  Pr4  1  0.611965  0.888029  0.500000  1
  Nd  Nd5  1  0.500000  0.500000  0.000000  1
  Er  Er6  1  0.676676  0.176686  0.500000  1
  Er  Er7  1  0.323324  0.823314  0.500000  1
  Er  Er8  1  0.176686  0.323324  0.500000  1
  Er  Er9  1  0.823314  0.676676  0.500000  1
  Sn  Sn10  1  0.570135  0.070150  0.000000  1
  Sn  Sn11  1  0.429865  0.929850  0.000000  1
  Sn  Sn12  1  0.070150  0.429865  0.000000  1
  Sn  Sn13  1  0.929850  0.570135  0.000000  1
  Sn  Sn14  1  0.654457  0.698387  0.000000  1
  Sn  Sn15  1  0.345543  0.301613  0.000000  1
  Sn  Sn16  1  0.154498  0.801561  0.000000  1
  Sn  Sn17  1  0.845502  0.198439  0.000000  1
  Sn  Sn18  1  0.301613  0.654457  0.000000  1
  Sn  Sn19  1  0.698387  0.345543  0.000000  1
  Sn  Sn20  1  0.198439  0.154498  0.000000  1
  Sn  Sn21  1  0.801561  0.845502  0.000000  1
  Sn  Sn22  1  0.663833  0.505977  0.500000  1
  Sn  Sn23  1  0.336167  0.494023  0.500000  1
  Sn  Sn24  1  0.164168  0.994022  0.500000  1
  Sn  Sn25  1  0.835832  0.005978  0.500000  1
  Sn  Sn26  1  0.494023  0.663833  0.500000  1
  Sn  Sn27  1  0.505977  0.336167  0.500000  1
  Sn  Sn28  1  0.005978  0.164168  0.500000  1
  Sn  Sn29  1  0.994022  0.835832  0.500000  1
  Rh  Rh30  1  0.747268  0.530073  0.000000  1
  Rh  Rh31  1  0.252732  0.469927  0.000000  1
  Rh  Rh32  1  0.247455  0.969907  0.000000  1
  Rh  Rh33  1  0.752545  0.030093  0.000000  1
  Rh  Rh34  1  0.469927  0.747268  0.000000  1
  Rh  Rh35  1  0.530073  0.252732  0.000000  1
  Rh  Rh36  1  0.030093  0.247455  0.000000  1
  Rh  Rh37  1  0.969907  0.752545  0.000000  1
