# generated using pymatgen
data_CoMo3PtN
_symmetry_space_group_name_H-M   'P 1'
_cell_length_a   6.78795365
_cell_length_b   6.78689153
_cell_length_c   6.79947815
_cell_angle_alpha   89.93736019
_cell_angle_beta   89.97726581
_cell_angle_gamma   89.76299958
_symmetry_Int_Tables_number   1
_chemical_formula_structural   CoMo3PtN
_chemical_formula_sum   'Co4 Mo12 Pt4 N4'
_cell_volume   313.24298243
_cell_formula_units_Z   4
loop_
 _symmetry_equiv_pos_site_id
 _symmetry_equiv_pos_as_xyz
  1  'x, y, z'
loop_
 _atom_site_type_symbol
 _atom_site_label
 _atom_site_symmetry_multiplicity
 _atom_site_fract_x
 _atom_site_fract_y
 _atom_site_fract_z
 _atom_site_occupancy
  Co  Co0  1  0.197833  0.182470  0.179449  1
  Co  Co1  1  0.314914  0.821764  0.696433  1
  Co  Co2  1  0.430761  0.053586  0.940865  1
  Co  Co3  1  0.810769  0.692862  0.309621  1
  Mo  Mo4  1  0.621017  0.712431  0.956699  1
  Mo  Mo5  1  0.455232  0.878829  0.294574  1
  Mo  Mo6  1  0.698468  0.948325  0.624736  1
  Mo  Mo7  1  0.537547  0.367219  0.202213  1
  Mo  Mo8  1  0.371278  0.193759  0.549918  1
  Mo  Mo9  1  0.193750  0.540012  0.372600  1
  Mo  Mo10  1  0.875480  0.303695  0.454173  1
  Mo  Mo11  1  0.057117  0.123147  0.804765  1
  Mo  Mo12  1  0.299733  0.452722  0.872529  1
  Mo  Mo13  1  0.132570  0.805905  0.040715  1
  Mo  Mo14  1  0.795957  0.044950  0.125393  1
  Mo  Mo15  1  0.959731  0.629760  0.696030  1
  Pt  Pt16  1  0.678647  0.303008  0.817036  1
  Pt  Pt17  1  0.558082  0.571502  0.556061  1
  Pt  Pt18  1  0.066865  0.935631  0.433798  1
  Pt  Pt19  1  0.943255  0.439648  0.070472  1
  N  N20  1  0.373599  0.623274  0.125412  1
  N  N21  1  0.876615  0.876624  0.873231  1
  N  N22  1  0.124312  0.373246  0.625164  1
  N  N23  1  0.626468  0.125631  0.378112  1
