# generated using pymatgen
data_Tb7Tm12ThSi16
_symmetry_space_group_name_H-M   'P 1'
_cell_length_a   7.62301747
_cell_length_b   7.62656802
_cell_length_c   14.04625600
_cell_angle_alpha   90.08829628
_cell_angle_beta   89.97994690
_cell_angle_gamma   89.95889911
_symmetry_Int_Tables_number   1
_chemical_formula_structural   Tb7Tm12ThSi16
_chemical_formula_sum   'Tb7 Tm12 Th1 Si16'
_cell_volume   816.61243363
_cell_formula_units_Z   1
loop_
 _symmetry_equiv_pos_site_id
 _symmetry_equiv_pos_as_xyz
  1  'x, y, z'
loop_
 _atom_site_type_symbol
 _atom_site_label
 _atom_site_symmetry_multiplicity
 _atom_site_fract_x
 _atom_site_fract_y
 _atom_site_fract_z
 _atom_site_occupancy
  Tb  Tb0  1  0.641100  0.993517  0.459020  1
  Tb  Tb1  1  0.358036  0.007071  0.958429  1
  Tb  Tb2  1  0.993129  0.641160  0.541282  1
  Tb  Tb3  1  0.493636  0.858759  0.209666  1
  Tb  Tb4  1  0.506101  0.140570  0.708274  1
  Tb  Tb5  1  0.858497  0.493825  0.790436  1
  Tb  Tb6  1  0.141611  0.507031  0.291611  1
  Tm  Tm7  1  0.493430  0.360844  0.123880  1
  Tm  Tm8  1  0.992494  0.139150  0.625903  1
  Tm  Tm9  1  0.859296  0.007514  0.873268  1
  Tm  Tm10  1  0.139751  0.990655  0.374558  1
  Tm  Tm11  1  0.508027  0.640026  0.623634  1
  Tm  Tm12  1  0.359872  0.493930  0.875506  1
  Tm  Tm13  1  0.638618  0.508161  0.376580  1
  Tm  Tm14  1  0.008204  0.859852  0.126139  1
  Tm  Tm15  1  0.317713  0.317801  0.500113  1
  Tm  Tm16  1  0.182233  0.818434  0.749576  1
  Tm  Tm17  1  0.817187  0.181079  0.250240  1
  Tm  Tm18  1  0.681480  0.682401  0.999739  1
  Th  Th19  1  0.008538  0.356030  0.040524  1
  Si  Si20  1  0.293279  0.940209  0.562041  1
  Si  Si21  1  0.706379  0.058667  0.062038  1
  Si  Si22  1  0.939419  0.292482  0.438250  1
  Si  Si23  1  0.441086  0.206918  0.312962  1
  Si  Si24  1  0.560041  0.793511  0.811867  1
  Si  Si25  1  0.207050  0.440019  0.687801  1
  Si  Si26  1  0.792690  0.560979  0.188215  1
  Si  Si27  1  0.060827  0.708431  0.936878  1
  Si  Si28  1  0.797428  0.846729  0.686034  1
  Si  Si29  1  0.204359  0.152053  0.188035  1
  Si  Si30  1  0.846404  0.797271  0.313980  1
  Si  Si31  1  0.346824  0.702716  0.436537  1
  Si  Si32  1  0.651846  0.297257  0.935055  1
  Si  Si33  1  0.702769  0.346839  0.563795  1
  Si  Si34  1  0.298485  0.654957  0.063707  1
  Si  Si35  1  0.152164  0.203154  0.814427  1
