# generated using pymatgen
data_Si(OF2)2
_symmetry_space_group_name_H-M   'P 1'
_cell_length_a   5.01444338
_cell_length_b   4.54065736
_cell_length_c   5.78758933
_cell_angle_alpha   99.63021152
_cell_angle_beta   92.56853050
_cell_angle_gamma   116.98841149
_symmetry_Int_Tables_number   1
_chemical_formula_structural   Si(OF2)2
_chemical_formula_sum   'Si1 O2 F4'
_cell_volume   114.67298662
_cell_formula_units_Z   1
loop_
 _symmetry_equiv_pos_site_id
 _symmetry_equiv_pos_as_xyz
  1  'x, y, z'
loop_
 _atom_site_type_symbol
 _atom_site_label
 _atom_site_symmetry_multiplicity
 _atom_site_fract_x
 _atom_site_fract_y
 _atom_site_fract_z
 _atom_site_occupancy
  Si  Si0  1  0.811951  0.689684  0.929065  1
  O  O1  1  0.421735  0.542447  0.402411  1
  O  O2  1  0.424981  0.818979  0.426791  1
  F  F3  1  0.990406  0.928239  0.174665  1
  F  F4  1  0.979413  0.843423  0.720357  1
  F  F5  1  0.797425  0.331927  0.920420  1
  F  F6  1  0.475988  0.635013  0.905363  1
