# generated using pymatgen
data_HoTm2Fe9
_symmetry_space_group_name_H-M   'P 1'
_cell_length_a   5.06713938
_cell_length_b   5.06714020
_cell_length_c   8.52841006
_cell_angle_alpha   72.71805609
_cell_angle_beta   72.71804959
_cell_angle_gamma   60.00000664
_symmetry_Int_Tables_number   1
_chemical_formula_structural   HoTm2Fe9
_chemical_formula_sum   'Ho1 Tm2 Fe9'
_cell_volume   178.13114882
_cell_formula_units_Z   1
loop_
 _symmetry_equiv_pos_site_id
 _symmetry_equiv_pos_as_xyz
  1  'x, y, z'
loop_
 _atom_site_type_symbol
 _atom_site_label
 _atom_site_symmetry_multiplicity
 _atom_site_fract_x
 _atom_site_fract_y
 _atom_site_fract_z
 _atom_site_occupancy
  Ho  Ho0  1  0.000000  0.000000  0.000000  1
  Tm  Tm1  1  0.142002  0.142002  0.573992  1
  Tm  Tm2  1  0.857998  0.857998  0.426008  1
  Fe  Fe3  1  0.081616  0.582172  0.754038  1
  Fe  Fe4  1  0.582172  0.582172  0.754038  1
  Fe  Fe5  1  0.582172  0.081616  0.754038  1
  Fe  Fe6  1  0.918384  0.417828  0.245962  1
  Fe  Fe7  1  0.417828  0.417828  0.245962  1
  Fe  Fe8  1  0.417828  0.918384  0.245962  1
  Fe  Fe9  1  0.332851  0.332851  0.001446  1
  Fe  Fe10  1  0.667149  0.667149  0.998554  1
  Fe  Fe11  1  0.500000  0.500000  0.500000  1
