# generated using pymatgen
data_YbMg(SiO3)2
_symmetry_space_group_name_H-M   'P 1'
_cell_length_a   6.63465653
_cell_length_b   6.63465607
_cell_length_c   5.30038939
_cell_angle_alpha   78.17059823
_cell_angle_beta   78.17060040
_cell_angle_gamma   84.51329133
_symmetry_Int_Tables_number   1
_chemical_formula_structural   YbMg(SiO3)2
_chemical_formula_sum   'Yb2 Mg2 Si4 O12'
_cell_volume   223.16110741
_cell_formula_units_Z   2
loop_
 _symmetry_equiv_pos_site_id
 _symmetry_equiv_pos_as_xyz
  1  'x, y, z'
loop_
 _atom_site_type_symbol
 _atom_site_label
 _atom_site_symmetry_multiplicity
 _atom_site_fract_x
 _atom_site_fract_y
 _atom_site_fract_z
 _atom_site_occupancy
  Yb  Yb0  1  0.698903  0.301097  0.750000  1
  Yb  Yb1  1  0.301097  0.698903  0.250000  1
  Mg  Mg2  1  0.091878  0.908122  0.750000  1
  Mg  Mg3  1  0.908122  0.091878  0.250000  1
  Si  Si4  1  0.807320  0.618402  0.234794  1
  Si  Si5  1  0.192680  0.381598  0.765206  1
  Si  Si6  1  0.381598  0.192680  0.265206  1
  Si  Si7  1  0.618402  0.807320  0.734794  1
  O  O8  1  0.369109  0.335080  0.497865  1
  O  O9  1  0.664920  0.630891  0.002135  1
  O  O10  1  0.630891  0.664920  0.502135  1
  O  O11  1  0.335080  0.369109  0.997865  1
  O  O12  1  0.615268  0.112000  0.173493  1
  O  O13  1  0.888000  0.384732  0.326507  1
  O  O14  1  0.384732  0.888000  0.826507  1
  O  O15  1  0.112000  0.615268  0.673493  1
  O  O16  1  0.024305  0.206824  0.854862  1
  O  O17  1  0.793176  0.975695  0.645138  1
  O  O18  1  0.975695  0.793176  0.145138  1
  O  O19  1  0.206824  0.024305  0.354862  1
