# generated using pymatgen
data_MgCu3SiAg
_symmetry_space_group_name_H-M   'P 1'
_cell_length_a   4.99582200
_cell_length_b   4.99582170
_cell_length_c   7.80823900
_cell_angle_alpha   90.00000000
_cell_angle_beta   90.00000000
_cell_angle_gamma   119.99998872
_symmetry_Int_Tables_number   1
_chemical_formula_structural   MgCu3SiAg
_chemical_formula_sum   'Mg2 Cu6 Si2 Ag2'
_cell_volume   168.77093860
_cell_formula_units_Z   2
loop_
 _symmetry_equiv_pos_site_id
 _symmetry_equiv_pos_as_xyz
  1  'x, y, z'
loop_
 _atom_site_type_symbol
 _atom_site_label
 _atom_site_symmetry_multiplicity
 _atom_site_fract_x
 _atom_site_fract_y
 _atom_site_fract_z
 _atom_site_occupancy
  Mg  Mg0  1  0.666667  0.333333  0.935839  1
  Mg  Mg1  1  0.333333  0.666667  0.435839  1
  Cu  Cu2  1  0.167914  0.335829  0.750251  1
  Cu  Cu3  1  0.832086  0.167914  0.250251  1
  Cu  Cu4  1  0.335829  0.167914  0.250251  1
  Cu  Cu5  1  0.664171  0.832086  0.750251  1
  Cu  Cu6  1  0.167914  0.832086  0.750251  1
  Cu  Cu7  1  0.832086  0.664171  0.250251  1
  Si  Si8  1  0.000000  0.000000  0.003715  1
  Si  Si9  1  0.000000  0.000000  0.503715  1
  Ag  Ag10  1  0.333333  0.666667  0.059693  1
  Ag  Ag11  1  0.666667  0.333333  0.559693  1
