# generated using pymatgen
data_Tb2Dy6In3Ru
_symmetry_space_group_name_H-M   'P 1'
_cell_length_a   10.41281400
_cell_length_b   10.40854700
_cell_length_c   7.06478904
_cell_angle_alpha   90.00313771
_cell_angle_beta   90.00000000
_cell_angle_gamma   120.01356200
_symmetry_Int_Tables_number   1
_chemical_formula_structural   Tb2Dy6In3Ru
_chemical_formula_sum   'Tb4 Dy12 In6 Ru2'
_cell_volume   663.02313247
_cell_formula_units_Z   2
loop_
 _symmetry_equiv_pos_site_id
 _symmetry_equiv_pos_as_xyz
  1  'x, y, z'
loop_
 _atom_site_type_symbol
 _atom_site_label
 _atom_site_symmetry_multiplicity
 _atom_site_fract_x
 _atom_site_fract_y
 _atom_site_fract_z
 _atom_site_occupancy
  Tb  Tb0  1  0.533451  0.066901  0.515261  1
  Tb  Tb1  1  0.933140  0.466559  0.515618  1
  Tb  Tb2  1  0.533422  0.466559  0.515618  1
  Tb  Tb3  1  0.466234  0.932469  0.015310  1
  Dy  Dy4  1  0.067707  0.533840  0.015545  1
  Dy  Dy5  1  0.466131  0.533840  0.015545  1
  Dy  Dy6  1  0.177031  0.354062  0.719810  1
  Dy  Dy7  1  0.646294  0.823064  0.719699  1
  Dy  Dy8  1  0.176770  0.823064  0.719699  1
  Dy  Dy9  1  0.822965  0.645930  0.219114  1
  Dy  Dy10  1  0.353691  0.177024  0.219364  1
  Dy  Dy11  1  0.823335  0.177024  0.219364  1
  Dy  Dy12  1  0.666759  0.333516  0.893643  1
  Dy  Dy13  1  0.333170  0.666342  0.393425  1
  Dy  Dy14  1  0.000056  0.000113  0.499634  1
  Dy  Dy15  1  0.000018  0.000038  0.999793  1
  In  In16  1  0.837276  0.674552  0.762000  1
  In  In17  1  0.325465  0.162800  0.761931  1
  In  In18  1  0.837335  0.162800  0.761931  1
  In  In19  1  0.162929  0.325857  0.261353  1
  In  In20  1  0.674324  0.837023  0.261404  1
  In  In21  1  0.162699  0.837023  0.261404  1
  Ru  Ru22  1  0.666627  0.333252  0.288817  1
  Ru  Ru23  1  0.333172  0.666347  0.788917  1
