# generated using pymatgen
data_TbTm2Fe7B2
_symmetry_space_group_name_H-M   'P 1'
_cell_length_a   5.12329202
_cell_length_b   5.12329324
_cell_length_c   14.47512000
_cell_angle_alpha   90.00000000
_cell_angle_beta   90.00000000
_cell_angle_gamma   120.00075127
_symmetry_Int_Tables_number   1
_chemical_formula_structural   TbTm2Fe7B2
_chemical_formula_sum   'Tb2 Tm4 Fe14 B4'
_cell_volume   329.03935229
_cell_formula_units_Z   2
loop_
 _symmetry_equiv_pos_site_id
 _symmetry_equiv_pos_as_xyz
  1  'x, y, z'
loop_
 _atom_site_type_symbol
 _atom_site_label
 _atom_site_symmetry_multiplicity
 _atom_site_fract_x
 _atom_site_fract_y
 _atom_site_fract_z
 _atom_site_occupancy
  Tb  Tb0  1  0.666670  0.333330  0.250000  1
  Tb  Tb1  1  0.333330  0.666670  0.750000  1
  Tm  Tm2  1  0.666671  0.333329  0.033984  1
  Tm  Tm3  1  0.333329  0.666671  0.966016  1
  Tm  Tm4  1  0.333329  0.666671  0.533984  1
  Tm  Tm5  1  0.666671  0.333329  0.466016  1
  Fe  Fe6  1  0.833851  0.667719  0.645310  1
  Fe  Fe7  1  0.833844  0.166156  0.645303  1
  Fe  Fe8  1  0.332281  0.166149  0.645310  1
  Fe  Fe9  1  0.166149  0.332281  0.354690  1
  Fe  Fe10  1  0.166156  0.833844  0.354697  1
  Fe  Fe11  1  0.667719  0.833851  0.354690  1
  Fe  Fe12  1  0.166149  0.332281  0.145310  1
  Fe  Fe13  1  0.166156  0.833844  0.145303  1
  Fe  Fe14  1  0.667719  0.833851  0.145310  1
  Fe  Fe15  1  0.833851  0.667719  0.854690  1
  Fe  Fe16  1  0.833844  0.166156  0.854697  1
  Fe  Fe17  1  0.332281  0.166149  0.854690  1
  Fe  Fe18  1  0.000000  0.000000  0.500000  1
  Fe  Fe19  1  0.000000  0.000000  0.000000  1
  B  B20  1  0.666649  0.333351  0.750000  1
  B  B21  1  0.333351  0.666649  0.250000  1
  B  B22  1  0.000000  0.000000  0.750000  1
  B  B23  1  0.000000  0.000000  0.250000  1
