# generated using pymatgen
data_Hf2CoTcSn2
_symmetry_space_group_name_H-M   'P 1'
_cell_length_a   7.45279700
_cell_length_b   7.45279716
_cell_length_c   6.83715900
_cell_angle_alpha   90.00000000
_cell_angle_beta   90.00000000
_cell_angle_gamma   119.99998718
_symmetry_Int_Tables_number   1
_chemical_formula_structural   Hf2CoTcSn2
_chemical_formula_sum   'Hf6 Co3 Tc3 Sn6'
_cell_volume   328.88567721
_cell_formula_units_Z   3
loop_
 _symmetry_equiv_pos_site_id
 _symmetry_equiv_pos_as_xyz
  1  'x, y, z'
loop_
 _atom_site_type_symbol
 _atom_site_label
 _atom_site_symmetry_multiplicity
 _atom_site_fract_x
 _atom_site_fract_y
 _atom_site_fract_z
 _atom_site_occupancy
  Hf  Hf0  1  0.003189  0.395556  0.750761  1
  Hf  Hf1  1  0.604444  0.607634  0.750761  1
  Hf  Hf2  1  0.392366  0.996811  0.750761  1
  Hf  Hf3  1  0.003549  0.395564  0.249619  1
  Hf  Hf4  1  0.604436  0.607984  0.249619  1
  Hf  Hf5  1  0.392016  0.996451  0.249619  1
  Co  Co6  1  0.000000  0.000000  0.768216  1
  Co  Co7  1  0.000000  0.000000  0.232176  1
  Co  Co8  1  0.666667  0.333333  0.997179  1
  Tc  Tc9  1  0.333333  0.666667  0.499996  1
  Tc  Tc10  1  0.666667  0.333333  0.500175  1
  Tc  Tc11  1  0.333333  0.666667  0.000387  1
  Sn  Sn12  1  0.256900  0.256106  0.500216  1
  Sn  Sn13  1  0.999206  0.743100  0.500216  1
  Sn  Sn14  1  0.990308  0.722746  0.000028  1
  Sn  Sn15  1  0.743894  0.000794  0.500216  1
  Sn  Sn16  1  0.732439  0.009692  0.000028  1
  Sn  Sn17  1  0.277254  0.267561  0.000028  1
