# generated using pymatgen
data_Dy15Pa5Rh16
_symmetry_space_group_name_H-M   'P 1'
_cell_length_a   7.43139383
_cell_length_b   7.48262192
_cell_length_c   14.44412002
_cell_angle_alpha   90.27592238
_cell_angle_beta   90.08005087
_cell_angle_gamma   90.35572249
_symmetry_Int_Tables_number   1
_chemical_formula_structural   Dy15Pa5Rh16
_chemical_formula_sum   'Dy15 Pa5 Rh16'
_cell_volume   803.15861005
_cell_formula_units_Z   1
loop_
 _symmetry_equiv_pos_site_id
 _symmetry_equiv_pos_as_xyz
  1  'x, y, z'
loop_
 _atom_site_type_symbol
 _atom_site_label
 _atom_site_symmetry_multiplicity
 _atom_site_fract_x
 _atom_site_fract_y
 _atom_site_fract_z
 _atom_site_occupancy
  Dy  Dy0  1  0.836186  0.660813  0.121290  1
  Dy  Dy1  1  0.663622  0.161446  0.879759  1
  Dy  Dy2  1  0.160345  0.336688  0.619135  1
  Dy  Dy3  1  0.506756  0.677127  0.593417  1
  Dy  Dy4  1  0.010036  0.817937  0.905943  1
  Dy  Dy5  1  0.491293  0.317537  0.093111  1
  Dy  Dy6  1  0.992574  0.182180  0.408349  1
  Dy  Dy7  1  0.488946  0.318860  0.407738  1
  Dy  Dy8  1  0.983001  0.183414  0.087658  1
  Dy  Dy9  1  0.516962  0.682749  0.910073  1
  Dy  Dy10  1  0.007760  0.817515  0.593278  1
  Dy  Dy11  1  0.821739  0.514004  0.748826  1
  Dy  Dy12  1  0.319405  0.983890  0.750179  1
  Dy  Dy13  1  0.176031  0.480426  0.247321  1
  Dy  Dy14  1  0.687104  0.017175  0.250215  1
  Pa  Pa15  1  0.661800  0.153068  0.621602  1
  Pa  Pa16  1  0.164387  0.346170  0.876405  1
  Pa  Pa17  1  0.334278  0.847325  0.122126  1
  Pa  Pa18  1  0.838634  0.654904  0.378815  1
  Pa  Pa19  1  0.339511  0.842728  0.379558  1
  Rh  Rh20  1  0.689995  0.952582  0.464429  1
  Rh  Rh21  1  0.205383  0.554414  0.036401  1
  Rh  Rh22  1  0.295579  0.054397  0.964724  1
  Rh  Rh23  1  0.803372  0.453075  0.535020  1
  Rh  Rh24  1  0.322228  0.028462  0.533203  1
  Rh  Rh25  1  0.845667  0.464097  0.953455  1
  Rh  Rh26  1  0.653771  0.961652  0.047222  1
  Rh  Rh27  1  0.170296  0.551819  0.453600  1
  Rh  Rh28  1  0.469199  0.358212  0.741052  1
  Rh  Rh29  1  0.964458  0.128885  0.753227  1
  Rh  Rh30  1  0.530487  0.639519  0.258113  1
  Rh  Rh31  1  0.043571  0.863246  0.258782  1
  Rh  Rh32  1  0.690755  0.871050  0.743113  1
  Rh  Rh33  1  0.204886  0.620509  0.757275  1
  Rh  Rh34  1  0.312965  0.122428  0.248462  1
  Rh  Rh35  1  0.797020  0.379695  0.257126  1
