# generated using pymatgen
data_KV4Br11
_symmetry_space_group_name_H-M   'P 1'
_cell_length_a   6.93244900
_cell_length_b   7.63232700
_cell_length_c   18.47371100
_cell_angle_alpha   90.00000000
_cell_angle_beta   90.00000000
_cell_angle_gamma   90.00000000
_symmetry_Int_Tables_number   1
_chemical_formula_structural   KV4Br11
_chemical_formula_sum   'K2 V8 Br22'
_cell_volume   977.45730720
_cell_formula_units_Z   2
loop_
 _symmetry_equiv_pos_site_id
 _symmetry_equiv_pos_as_xyz
  1  'x, y, z'
loop_
 _atom_site_type_symbol
 _atom_site_label
 _atom_site_symmetry_multiplicity
 _atom_site_fract_x
 _atom_site_fract_y
 _atom_site_fract_z
 _atom_site_occupancy
  K  K0  1  0.099014  0.500000  0.750000  1
  K  K1  1  0.900986  0.500000  0.250000  1
  V  V2  1  0.348719  0.000000  0.668038  1
  V  V3  1  0.651281  0.000000  0.331962  1
  V  V4  1  0.348719  0.000000  0.831962  1
  V  V5  1  0.651281  0.000000  0.168038  1
  V  V6  1  0.500000  0.257715  0.500000  1
  V  V7  1  0.500000  0.257715  0.000000  1
  V  V8  1  0.500000  0.742285  0.500000  1
  V  V9  1  0.500000  0.742285  0.000000  1
  Br  Br10  1  0.647351  0.000000  0.579538  1
  Br  Br11  1  0.352649  0.000000  0.420462  1
  Br  Br12  1  0.647351  0.000000  0.920462  1
  Br  Br13  1  0.352649  0.000000  0.079538  1
  Br  Br14  1  0.206692  0.759791  0.586849  1
  Br  Br15  1  0.793308  0.759791  0.413151  1
  Br  Br16  1  0.206692  0.759791  0.913151  1
  Br  Br17  1  0.793308  0.759791  0.086849  1
  Br  Br18  1  0.793308  0.240209  0.413151  1
  Br  Br19  1  0.206692  0.240209  0.586849  1
  Br  Br20  1  0.793308  0.240209  0.086849  1
  Br  Br21  1  0.206692  0.240209  0.913151  1
  Br  Br22  1  0.333253  0.500000  0.427489  1
  Br  Br23  1  0.666747  0.500000  0.572511  1
  Br  Br24  1  0.333253  0.500000  0.072511  1
  Br  Br25  1  0.666747  0.500000  0.927489  1
  Br  Br26  1  0.049875  0.000000  0.750000  1
  Br  Br27  1  0.950125  0.000000  0.250000  1
  Br  Br28  1  0.504444  0.233483  0.750000  1
  Br  Br29  1  0.495556  0.233483  0.250000  1
  Br  Br30  1  0.495556  0.766517  0.250000  1
  Br  Br31  1  0.504444  0.766517  0.750000  1
