# generated using pymatgen
data_Tb2Ho6Cu3Si12Rh
_symmetry_space_group_name_H-M   'P 1'
_cell_length_a   8.02596100
_cell_length_b   8.02588995
_cell_length_c   8.08111600
_cell_angle_alpha   89.99988523
_cell_angle_beta   90.00005706
_cell_angle_gamma   119.99918734
_symmetry_Int_Tables_number   1
_chemical_formula_structural   Tb2Ho6Cu3Si12Rh
_chemical_formula_sum   'Tb2 Ho6 Cu3 Si12 Rh1'
_cell_volume   450.81231805
_cell_formula_units_Z   1
loop_
 _symmetry_equiv_pos_site_id
 _symmetry_equiv_pos_as_xyz
  1  'x, y, z'
loop_
 _atom_site_type_symbol
 _atom_site_label
 _atom_site_symmetry_multiplicity
 _atom_site_fract_x
 _atom_site_fract_y
 _atom_site_fract_z
 _atom_site_occupancy
  Tb  Tb0  1  0.000001  0.000006  0.249940  1
  Tb  Tb1  1  0.000001  0.000005  0.750118  1
  Ho  Ho2  1  0.499988  0.500018  0.248152  1
  Ho  Ho3  1  0.499987  0.999979  0.248160  1
  Ho  Ho4  1  0.000018  0.500013  0.248155  1
  Ho  Ho5  1  0.498522  0.501485  0.751824  1
  Ho  Ho6  1  0.498521  0.997049  0.751815  1
  Ho  Ho7  1  0.002954  0.501480  0.751822  1
  Cu  Cu8  1  0.333311  0.666635  0.497804  1
  Cu  Cu9  1  0.666662  0.333363  0.502387  1
  Cu  Cu10  1  0.666703  0.333248  0.998362  1
  Si  Si11  1  0.169187  0.830817  0.500176  1
  Si  Si12  1  0.169179  0.338363  0.500177  1
  Si  Si13  1  0.661639  0.830824  0.500178  1
  Si  Si14  1  0.830673  0.169328  0.499757  1
  Si  Si15  1  0.830682  0.661372  0.499757  1
  Si  Si16  1  0.338643  0.169327  0.499757  1
  Si  Si17  1  0.831728  0.168282  0.999270  1
  Si  Si18  1  0.831724  0.663450  0.999269  1
  Si  Si19  1  0.336538  0.168275  0.999269  1
  Si  Si20  1  0.167775  0.832228  0.000865  1
  Si  Si21  1  0.167778  0.335555  0.000865  1
  Si  Si22  1  0.664446  0.832225  0.000865  1
  Rh  Rh23  1  0.333340  0.666671  0.001257  1
