# generated using pymatgen
data_Ho4As5Ir7Au
_symmetry_space_group_name_H-M   'P 1'
_cell_length_a   7.30426251
_cell_length_b   7.30426223
_cell_length_c   7.30426290
_cell_angle_alpha   107.29076813
_cell_angle_beta   110.57233469
_cell_angle_gamma   110.57232691
_symmetry_Int_Tables_number   1
_chemical_formula_structural   Ho4As5Ir7Au
_chemical_formula_sum   'Ho4 As5 Ir7 Au1'
_cell_volume   299.66597266
_cell_formula_units_Z   1
loop_
 _symmetry_equiv_pos_site_id
 _symmetry_equiv_pos_as_xyz
  1  'x, y, z'
loop_
 _atom_site_type_symbol
 _atom_site_label
 _atom_site_symmetry_multiplicity
 _atom_site_fract_x
 _atom_site_fract_y
 _atom_site_fract_z
 _atom_site_occupancy
  Ho  Ho0  1  0.000000  0.990794  0.491868  1
  Ho  Ho1  1  0.000000  0.491868  0.990794  1
  Ho  Ho2  1  0.498926  0.990794  0.990794  1
  Ho  Ho3  1  0.501074  0.491868  0.491868  1
  As  As4  1  0.685103  0.683407  0.998305  1
  As  As5  1  0.314897  0.998305  0.313202  1
  As  As6  1  0.000000  0.332966  0.332966  1
  As  As7  1  0.314897  0.313202  0.998305  1
  As  As8  1  0.685103  0.998305  0.683407  1
  Ir  Ir9  1  0.746329  0.237244  0.490914  1
  Ir  Ir10  1  0.746329  0.490914  0.237244  1
  Ir  Ir11  1  0.500000  0.244389  0.744389  1
  Ir  Ir12  1  0.253671  0.490914  0.744585  1
  Ir  Ir13  1  0.253671  0.744585  0.490914  1
  Ir  Ir14  1  0.500000  0.744389  0.244389  1
  Ir  Ir15  1  0.000000  0.041512  0.041512  1
  Au  Au16  1  0.000000  0.714542  0.714542  1
