# generated using pymatgen
data_Dy5Ho3Ti6Nb6Si15As
_symmetry_space_group_name_H-M   'P 1'
_cell_length_a   7.05631923
_cell_length_b   7.04911913
_cell_length_c   12.96304200
_cell_angle_alpha   89.98678375
_cell_angle_beta   89.82153501
_cell_angle_gamma   89.94761427
_symmetry_Int_Tables_number   1
_chemical_formula_structural   Dy5Ho3Ti6Nb6Si15As
_chemical_formula_sum   'Dy5 Ho3 Ti6 Nb6 Si15 As1'
_cell_volume   644.78911738
_cell_formula_units_Z   1
loop_
 _symmetry_equiv_pos_site_id
 _symmetry_equiv_pos_as_xyz
  1  'x, y, z'
loop_
 _atom_site_type_symbol
 _atom_site_label
 _atom_site_symmetry_multiplicity
 _atom_site_fract_x
 _atom_site_fract_y
 _atom_site_fract_z
 _atom_site_occupancy
  Dy  Dy0  1  0.342208  0.000699  0.465699  1
  Dy  Dy1  1  0.498238  0.842940  0.717420  1
  Dy  Dy2  1  0.501683  0.157323  0.216459  1
  Dy  Dy3  1  0.840562  0.498624  0.283250  1
  Dy  Dy4  1  0.158530  0.499963  0.782951  1
  Ho  Ho5  1  0.659239  0.996424  0.967862  1
  Ho  Ho6  1  0.997544  0.344212  0.531967  1
  Ho  Ho7  1  0.999408  0.659404  0.033082  1
  Ti  Ti8  1  0.509097  0.347530  0.626003  1
  Ti  Ti9  1  0.654873  0.493812  0.875743  1
  Ti  Ti10  1  0.347029  0.508062  0.375557  1
  Ti  Ti11  1  0.846908  0.991637  0.374295  1
  Ti  Ti12  1  0.008223  0.151864  0.125255  1
  Ti  Ti13  1  0.988966  0.843442  0.624545  1
  Nb  Nb14  1  0.326953  0.327699  0.000196  1
  Nb  Nb15  1  0.172208  0.827529  0.250310  1
  Nb  Nb16  1  0.825515  0.173078  0.750003  1
  Nb  Nb17  1  0.672328  0.671814  0.500284  1
  Nb  Nb18  1  0.153412  0.008140  0.875070  1
  Nb  Nb19  1  0.492175  0.652530  0.124003  1
  Si  Si20  1  0.368730  0.704199  0.931995  1
  Si  Si21  1  0.629979  0.297551  0.434764  1
  Si  Si22  1  0.705315  0.365611  0.066839  1
  Si  Si23  1  0.296592  0.631185  0.565792  1
  Si  Si24  1  0.798186  0.868879  0.183902  1
  Si  Si25  1  0.130949  0.203452  0.316678  1
  Si  Si26  1  0.865896  0.795050  0.816459  1
  Si  Si27  1  0.292205  0.953835  0.064107  1
  Si  Si28  1  0.547450  0.792197  0.314300  1
  Si  Si29  1  0.461844  0.211157  0.817515  1
  Si  Si30  1  0.791650  0.546723  0.686233  1
  Si  Si31  1  0.206593  0.451972  0.187245  1
  Si  Si32  1  0.708635  0.047547  0.563118  1
  Si  Si33  1  0.952087  0.294522  0.936777  1
  Si  Si34  1  0.046585  0.708276  0.436467  1
  As  As35  1  0.202203  0.131118  0.677852  1
