# generated using pymatgen
data_Er5Co19Si11P
_symmetry_space_group_name_H-M   'P 1'
_cell_length_a   12.09564012
_cell_length_b   12.12472130
_cell_length_c   3.71060600
_cell_angle_alpha   90.00000000
_cell_angle_beta   90.00000000
_cell_angle_gamma   120.07956429
_symmetry_Int_Tables_number   1
_chemical_formula_structural   Er5Co19Si11P
_chemical_formula_sum   'Er5 Co19 Si11 P1'
_cell_volume   470.89854085
_cell_formula_units_Z   1
loop_
 _symmetry_equiv_pos_site_id
 _symmetry_equiv_pos_as_xyz
  1  'x, y, z'
loop_
 _atom_site_type_symbol
 _atom_site_label
 _atom_site_symmetry_multiplicity
 _atom_site_fract_x
 _atom_site_fract_y
 _atom_site_fract_z
 _atom_site_occupancy
  Er  Er0  1  0.667298  0.333442  0.000000  1
  Er  Er1  1  0.332702  0.666145  0.000000  1
  Er  Er2  1  0.184728  0.185738  0.500000  1
  Er  Er3  1  0.815272  0.001010  0.500000  1
  Er  Er4  1  0.000000  0.814019  0.500000  1
  Co  Co5  1  0.823585  0.197385  0.000000  1
  Co  Co6  1  0.802548  0.622412  0.000000  1
  Co  Co7  1  0.377509  0.180205  0.000000  1
  Co  Co8  1  0.197452  0.819865  0.000000  1
  Co  Co9  1  0.622491  0.802697  0.000000  1
  Co  Co10  1  0.176415  0.373801  0.000000  1
  Co  Co11  1  0.558430  0.558879  0.000000  1
  Co  Co12  1  0.441570  0.000449  0.000000  1
  Co  Co13  1  0.000000  0.441532  0.000000  1
  Co  Co14  1  0.645131  0.123942  0.500000  1
  Co  Co15  1  0.876783  0.520158  0.500000  1
  Co  Co16  1  0.479109  0.356264  0.500000  1
  Co  Co17  1  0.123217  0.643375  0.500000  1
  Co  Co18  1  0.520891  0.877155  0.500000  1
  Co  Co19  1  0.354869  0.478812  0.500000  1
  Co  Co20  1  0.718476  0.718459  0.500000  1
  Co  Co21  1  0.281524  0.999983  0.500000  1
  Co  Co22  1  0.000000  0.278153  0.500000  1
  Co  Co23  1  0.000000  0.004719  0.000000  1
  Si  Si24  1  0.370431  0.370824  0.000000  1
  Si  Si25  1  0.629569  0.000393  0.000000  1
  Si  Si26  1  0.000000  0.629121  0.000000  1
  Si  Si27  1  0.840079  0.318365  0.500000  1
  Si  Si28  1  0.682304  0.521465  0.500000  1
  Si  Si29  1  0.479069  0.161247  0.500000  1
  Si  Si30  1  0.317696  0.839162  0.500000  1
  Si  Si31  1  0.520931  0.682178  0.500000  1
  Si  Si32  1  0.159921  0.478286  0.500000  1
  Si  Si33  1  0.817388  0.817164  0.000000  1
  Si  Si34  1  0.182612  0.999776  0.000000  1
  P  P35  1  0.000000  0.183419  0.000000  1
