# generated using pymatgen
data_Rb3Tb8(CuSe5)3
_symmetry_space_group_name_H-M   'P 1'
_cell_length_a   9.40780031
_cell_length_b   9.40779988
_cell_length_c   18.64825800
_cell_angle_alpha   81.35597912
_cell_angle_beta   81.35597952
_cell_angle_gamma   96.97971159
_symmetry_Int_Tables_number   1
_chemical_formula_structural   Rb3Tb8(CuSe5)3
_chemical_formula_sum   'Rb6 Tb16 Cu6 Se30'
_cell_volume   1595.58342651
_cell_formula_units_Z   2
loop_
 _symmetry_equiv_pos_site_id
 _symmetry_equiv_pos_as_xyz
  1  'x, y, z'
loop_
 _atom_site_type_symbol
 _atom_site_label
 _atom_site_symmetry_multiplicity
 _atom_site_fract_x
 _atom_site_fract_y
 _atom_site_fract_z
 _atom_site_occupancy
  Rb  Rb0  1  0.557474  0.109197  0.246432  1
  Rb  Rb1  1  0.890803  0.442526  0.253568  1
  Rb  Rb2  1  0.225500  0.774500  0.250000  1
  Rb  Rb3  1  0.109197  0.557474  0.746432  1
  Rb  Rb4  1  0.442526  0.890803  0.753568  1
  Rb  Rb5  1  0.774500  0.225500  0.750000  1
  Tb  Tb6  1  0.675985  0.177322  0.500525  1
  Tb  Tb7  1  0.324015  0.822678  0.499475  1
  Tb  Tb8  1  0.822678  0.324015  0.999475  1
  Tb  Tb9  1  0.177322  0.675985  0.000525  1
  Tb  Tb10  1  0.797809  0.768281  0.899234  1
  Tb  Tb11  1  0.474073  0.424323  0.897326  1
  Tb  Tb12  1  0.145303  0.094316  0.898424  1
  Tb  Tb13  1  0.202191  0.231719  0.100766  1
  Tb  Tb14  1  0.854697  0.905684  0.101576  1
  Tb  Tb15  1  0.525927  0.575677  0.102674  1
  Tb  Tb16  1  0.905684  0.854697  0.601576  1
  Tb  Tb17  1  0.575677  0.525927  0.602674  1
  Tb  Tb18  1  0.231719  0.202191  0.600766  1
  Tb  Tb19  1  0.094316  0.145303  0.398424  1
  Tb  Tb20  1  0.768281  0.797809  0.399234  1
  Tb  Tb21  1  0.424323  0.474073  0.397326  1
  Cu  Cu22  1  0.278514  0.384637  0.256973  1
  Cu  Cu23  1  0.615363  0.721486  0.243027  1
  Cu  Cu24  1  0.951016  0.048984  0.250000  1
  Cu  Cu25  1  0.384637  0.278514  0.756973  1
  Cu  Cu26  1  0.721486  0.615363  0.743027  1
  Cu  Cu27  1  0.048984  0.951016  0.750000  1
  Se  Se28  1  0.142718  0.446952  0.366944  1
  Se  Se29  1  0.481110  0.783393  0.362936  1
  Se  Se30  1  0.807783  0.110518  0.363481  1
  Se  Se31  1  0.518890  0.216607  0.637064  1
  Se  Se32  1  0.857282  0.553048  0.633056  1
  Se  Se33  1  0.192217  0.889482  0.636519  1
  Se  Se34  1  0.216607  0.518890  0.137064  1
  Se  Se35  1  0.553048  0.857282  0.133056  1
  Se  Se36  1  0.889482  0.192217  0.136519  1
  Se  Se37  1  0.446952  0.142718  0.866944  1
  Se  Se38  1  0.783393  0.481110  0.862936  1
  Se  Se39  1  0.110518  0.807783  0.863481  1
  Se  Se40  1  0.543252  0.456748  0.250000  1
  Se  Se41  1  0.875834  0.790310  0.250336  1
  Se  Se42  1  0.209690  0.124166  0.249664  1
  Se  Se43  1  0.124166  0.209690  0.749664  1
  Se  Se44  1  0.456748  0.543252  0.750000  1
  Se  Se45  1  0.790310  0.875834  0.750336  1
  Se  Se46  1  0.380709  0.150288  0.453772  1
  Se  Se47  1  0.701982  0.483995  0.451158  1
  Se  Se48  1  0.049217  0.831196  0.451229  1
  Se  Se49  1  0.298018  0.516005  0.548842  1
  Se  Se50  1  0.619291  0.849712  0.546228  1
  Se  Se51  1  0.950783  0.168804  0.548771  1
  Se  Se52  1  0.516005  0.298018  0.048842  1
  Se  Se53  1  0.849712  0.619291  0.046228  1
  Se  Se54  1  0.168804  0.950783  0.048771  1
  Se  Se55  1  0.150288  0.380709  0.953772  1
  Se  Se56  1  0.483995  0.701982  0.951158  1
  Se  Se57  1  0.831196  0.049217  0.951229  1
