# generated using pymatgen
data_LiDy3(P3Ir4)2
_symmetry_space_group_name_H-M   'P 1'
_cell_length_a   3.94589400
_cell_length_b   11.32349100
_cell_length_c   12.74983700
_cell_angle_alpha   90.00000000
_cell_angle_beta   90.00000000
_cell_angle_gamma   90.00000000
_symmetry_Int_Tables_number   1
_chemical_formula_structural   LiDy3(P3Ir4)2
_chemical_formula_sum   'Li2 Dy6 P12 Ir16'
_cell_volume   569.67923070
_cell_formula_units_Z   2
loop_
 _symmetry_equiv_pos_site_id
 _symmetry_equiv_pos_as_xyz
  1  'x, y, z'
loop_
 _atom_site_type_symbol
 _atom_site_label
 _atom_site_symmetry_multiplicity
 _atom_site_fract_x
 _atom_site_fract_y
 _atom_site_fract_z
 _atom_site_occupancy
  Li  Li0  1  0.500000  0.500000  0.154673  1
  Li  Li1  1  0.000000  0.000000  0.845327  1
  Dy  Dy2  1  0.000000  0.500000  0.516113  1
  Dy  Dy3  1  0.500000  0.000000  0.483887  1
  Dy  Dy4  1  0.500000  0.816996  0.202962  1
  Dy  Dy5  1  0.500000  0.183004  0.202962  1
  Dy  Dy6  1  0.000000  0.683004  0.797038  1
  Dy  Dy7  1  0.000000  0.316996  0.797038  1
  P  P8  1  0.500000  0.500000  0.879502  1
  P  P9  1  0.000000  0.000000  0.120498  1
  P  P10  1  0.500000  0.500000  0.343735  1
  P  P11  1  0.000000  0.000000  0.656265  1
  P  P12  1  0.500000  0.313923  0.618747  1
  P  P13  1  0.500000  0.686077  0.618747  1
  P  P14  1  0.000000  0.186077  0.381253  1
  P  P15  1  0.000000  0.813923  0.381253  1
  P  P16  1  0.500000  0.843569  0.892756  1
  P  P17  1  0.500000  0.156431  0.892756  1
  P  P18  1  0.000000  0.656431  0.107244  1
  P  P19  1  0.000000  0.343569  0.107244  1
  Ir  Ir20  1  0.500000  0.500000  0.699308  1
  Ir  Ir21  1  0.000000  0.000000  0.300692  1
  Ir  Ir22  1  0.000000  0.500000  0.980536  1
  Ir  Ir23  1  0.500000  0.000000  0.019464  1
  Ir  Ir24  1  0.500000  0.333095  0.995508  1
  Ir  Ir25  1  0.500000  0.666905  0.995508  1
  Ir  Ir26  1  0.000000  0.166905  0.004492  1
  Ir  Ir27  1  0.000000  0.833095  0.004492  1
  Ir  Ir28  1  0.500000  0.287298  0.428731  1
  Ir  Ir29  1  0.500000  0.712702  0.428731  1
  Ir  Ir30  1  0.000000  0.212702  0.571269  1
  Ir  Ir31  1  0.000000  0.787298  0.571269  1
  Ir  Ir32  1  0.500000  0.874396  0.711053  1
  Ir  Ir33  1  0.500000  0.125604  0.711053  1
  Ir  Ir34  1  0.000000  0.625604  0.288947  1
  Ir  Ir35  1  0.000000  0.374396  0.288947  1
