# generated using pymatgen
data_Er6Tm4In8IrPt3
_symmetry_space_group_name_H-M   'P 1'
_cell_length_a   3.59691000
_cell_length_b   8.10678576
_cell_length_c   18.13840100
_cell_angle_alpha   89.97502310
_cell_angle_beta   90.00000000
_cell_angle_gamma   90.00000000
_symmetry_Int_Tables_number   1
_chemical_formula_structural   Er6Tm4In8IrPt3
_chemical_formula_sum   'Er6 Tm4 In8 Ir1 Pt3'
_cell_volume   528.90445494
_cell_formula_units_Z   1
loop_
 _symmetry_equiv_pos_site_id
 _symmetry_equiv_pos_as_xyz
  1  'x, y, z'
loop_
 _atom_site_type_symbol
 _atom_site_label
 _atom_site_symmetry_multiplicity
 _atom_site_fract_x
 _atom_site_fract_y
 _atom_site_fract_z
 _atom_site_occupancy
  Er  Er0  1  0.000000  0.236856  0.222095  1
  Er  Er1  1  0.000000  0.757787  0.779625  1
  Er  Er2  1  0.000000  0.257334  0.720895  1
  Er  Er3  1  0.000000  0.750876  0.279633  1
  Er  Er4  1  0.000000  0.999729  0.000238  1
  Er  Er5  1  0.000000  0.500439  0.499581  1
  Tm  Tm6  1  0.000000  0.114669  0.412026  1
  Tm  Tm7  1  0.000000  0.883054  0.585313  1
  Tm  Tm8  1  0.000000  0.383503  0.914773  1
  Tm  Tm9  1  0.000000  0.616800  0.086113  1
  In  In10  1  0.500000  0.422433  0.351160  1
  In  In11  1  0.500000  0.576901  0.648682  1
  In  In12  1  0.500000  0.076964  0.851586  1
  In  In13  1  0.500000  0.925407  0.149297  1
  In  In14  1  0.500000  0.292362  0.066092  1
  In  In15  1  0.500000  0.707534  0.933742  1
  In  In16  1  0.500000  0.207884  0.566409  1
  In  In17  1  0.500000  0.793510  0.432335  1
  Ir  Ir18  1  0.500000  0.022321  0.304117  1
  Pt  Pt19  1  0.500000  0.975051  0.696259  1
  Pt  Pt20  1  0.500000  0.475176  0.803739  1
  Pt  Pt21  1  0.500000  0.523411  0.196291  1
