# generated using pymatgen
data_SmGaSiIr3
_symmetry_space_group_name_H-M   'P 1'
_cell_length_a   6.79080890
_cell_length_b   6.77899675
_cell_length_c   6.79080800
_cell_angle_alpha   130.84374657
_cell_angle_beta   112.57208218
_cell_angle_gamma   87.89274856
_symmetry_Int_Tables_number   1
_chemical_formula_structural   SmGaSiIr3
_chemical_formula_sum   'Sm2 Ga2 Si2 Ir6'
_cell_volume   207.84900949
_cell_formula_units_Z   2
loop_
 _symmetry_equiv_pos_site_id
 _symmetry_equiv_pos_as_xyz
  1  'x, y, z'
loop_
 _atom_site_type_symbol
 _atom_site_label
 _atom_site_symmetry_multiplicity
 _atom_site_fract_x
 _atom_site_fract_y
 _atom_site_fract_z
 _atom_site_occupancy
  Sm  Sm0  1  0.251188  0.982263  0.731077  1
  Sm  Sm1  1  0.748812  0.017737  0.268923  1
  Ga  Ga2  1  0.073028  0.296989  0.223960  1
  Ga  Ga3  1  0.926972  0.703011  0.776040  1
  Si  Si4  1  0.407354  0.633821  0.226467  1
  Si  Si5  1  0.592646  0.366179  0.773533  1
  Ir  Ir6  1  0.500000  0.500000  0.500000  1
  Ir  Ir7  1  0.000000  0.500000  0.000000  1
  Ir  Ir8  1  0.284979  0.000000  0.284979  1
  Ir  Ir9  1  0.715021  0.000000  0.715021  1
  Ir  Ir10  1  0.257044  0.500000  0.757044  1
  Ir  Ir11  1  0.742956  0.500000  0.242956  1
