# generated using pymatgen
data_Tb7Y5Co4SnRu
_symmetry_space_group_name_H-M   'P 1'
_cell_length_a   8.32692300
_cell_length_b   8.33189747
_cell_length_c   8.32692277
_cell_angle_alpha   111.22493091
_cell_angle_beta   110.47123777
_cell_angle_gamma   106.72895398
_symmetry_Int_Tables_number   1
_chemical_formula_structural   Tb7Y5Co4SnRu
_chemical_formula_sum   'Tb7 Y5 Co4 Sn1 Ru1'
_cell_volume   444.07864629
_cell_formula_units_Z   1
loop_
 _symmetry_equiv_pos_site_id
 _symmetry_equiv_pos_as_xyz
  1  'x, y, z'
loop_
 _atom_site_type_symbol
 _atom_site_label
 _atom_site_symmetry_multiplicity
 _atom_site_fract_x
 _atom_site_fract_y
 _atom_site_fract_z
 _atom_site_occupancy
  Tb  Tb0  1  0.312303  0.618877  0.306575  1
  Tb  Tb1  1  0.687834  0.994963  0.307129  1
  Tb  Tb2  1  0.312583  0.006160  0.693576  1
  Tb  Tb3  1  0.596185  0.789506  0.807404  1
  Tb  Tb4  1  0.403556  0.210669  0.193046  1
  Tb  Tb5  1  0.982105  0.789506  0.193320  1
  Tb  Tb6  1  0.017622  0.210669  0.807114  1
  Y  Y7  1  0.814143  0.709087  0.523409  1
  Y  Y8  1  0.185627  0.290830  0.476545  1
  Y  Y9  1  0.185678  0.709087  0.894946  1
  Y  Y10  1  0.814283  0.290830  0.105201  1
  Y  Y11  1  0.687345  0.381967  0.694622  1
  Co  Co12  1  0.619454  0.999050  0.618964  1
  Co  Co13  1  0.380086  0.999050  0.379596  1
  Co  Co14  1  0.111530  0.611638  0.500108  1
  Co  Co15  1  0.889454  0.388853  0.499399  1
  Sn  Sn16  1  0.500354  0.499902  0.999550  1
  Ru  Ru17  1  0.999855  0.999350  0.999495  1
