# generated using pymatgen
data_DyErU2(B4Ru)4
_symmetry_space_group_name_H-M   'P 1'
_cell_length_a   3.54825800
_cell_length_b   5.96555012
_cell_length_c   11.54367204
_cell_angle_alpha   89.90449585
_cell_angle_beta   90.00000000
_cell_angle_gamma   90.00000000
_symmetry_Int_Tables_number   1
_chemical_formula_structural   DyErU2(B4Ru)4
_chemical_formula_sum   'Dy1 Er1 U2 B16 Ru4'
_cell_volume   244.34815578
_cell_formula_units_Z   1
loop_
 _symmetry_equiv_pos_site_id
 _symmetry_equiv_pos_as_xyz
  1  'x, y, z'
loop_
 _atom_site_type_symbol
 _atom_site_label
 _atom_site_symmetry_multiplicity
 _atom_site_fract_x
 _atom_site_fract_y
 _atom_site_fract_z
 _atom_site_occupancy
  Dy  Dy0  1  0.000000  0.129150  0.148385  1
  Er  Er1  1  0.000000  0.870645  0.851553  1
  U  U2  1  0.000000  0.628611  0.349378  1
  U  U3  1  0.000000  0.371408  0.650780  1
  B  B4  1  0.500000  0.788783  0.187403  1
  B  B5  1  0.500000  0.210239  0.812649  1
  B  B6  1  0.500000  0.291470  0.313319  1
  B  B7  1  0.500000  0.708767  0.687048  1
  B  B8  1  0.500000  0.863799  0.030577  1
  B  B9  1  0.500000  0.136030  0.968701  1
  B  B10  1  0.500000  0.368136  0.467451  1
  B  B11  1  0.500000  0.631963  0.532707  1
  B  B12  1  0.500000  0.885563  0.453005  1
  B  B13  1  0.500000  0.114346  0.547231  1
  B  B14  1  0.500000  0.387088  0.045833  1
  B  B15  1  0.500000  0.613779  0.953572  1
  B  B16  1  0.500000  0.974671  0.307953  1
  B  B17  1  0.500000  0.024937  0.692505  1
  B  B18  1  0.500000  0.474586  0.192060  1
  B  B19  1  0.500000  0.526084  0.807871  1
  Ru  Ru20  1  0.000000  0.638880  0.094603  1
  Ru  Ru21  1  0.000000  0.361121  0.904830  1
  Ru  Ru22  1  0.000000  0.141292  0.407130  1
  Ru  Ru23  1  0.000000  0.858650  0.593457  1
