# generated using pymatgen
data_Ca2TbDy3(Si3Ru)8
_symmetry_space_group_name_H-M   'P 1'
_cell_length_a   10.14372749
_cell_length_b   10.14372744
_cell_length_c   8.15860661
_cell_angle_alpha   89.97142161
_cell_angle_beta   90.02857680
_cell_angle_gamma   132.58922501
_symmetry_Int_Tables_number   1
_chemical_formula_structural   Ca2TbDy3(Si3Ru)8
_chemical_formula_sum   'Ca2 Tb1 Dy3 Si24 Ru8'
_cell_volume   618.04665522
_cell_formula_units_Z   1
loop_
 _symmetry_equiv_pos_site_id
 _symmetry_equiv_pos_as_xyz
  1  'x, y, z'
loop_
 _atom_site_type_symbol
 _atom_site_label
 _atom_site_symmetry_multiplicity
 _atom_site_fract_x
 _atom_site_fract_y
 _atom_site_fract_z
 _atom_site_occupancy
  Ca  Ca0  1  0.500221  0.000221  0.750000  1
  Ca  Ca1  1  0.999689  0.499689  0.250000  1
  Tb  Tb2  1  0.496068  0.996068  0.250000  1
  Dy  Dy3  1  0.499850  0.500103  0.500044  1
  Dy  Dy4  1  0.000103  0.999850  0.999956  1
  Dy  Dy5  1  0.003864  0.503864  0.750000  1
  Si  Si6  1  0.794855  0.205926  0.500256  1
  Si  Si7  1  0.293592  0.705574  0.999640  1
  Si  Si8  1  0.205574  0.793592  0.500360  1
  Si  Si9  1  0.705926  0.294855  0.999744  1
  Si  Si10  1  0.329935  0.336593  0.832864  1
  Si  Si11  1  0.663460  0.670090  0.167192  1
  Si  Si12  1  0.170090  0.163460  0.332808  1
  Si  Si13  1  0.836593  0.829935  0.667136  1
  Si  Si14  1  0.120344  0.886462  0.727611  1
  Si  Si15  1  0.112508  0.878590  0.272834  1
  Si  Si16  1  0.608644  0.375373  0.228170  1
  Si  Si17  1  0.625629  0.392317  0.771959  1
  Si  Si18  1  0.875373  0.108644  0.271830  1
  Si  Si19  1  0.892317  0.125629  0.728041  1
  Si  Si20  1  0.386462  0.620344  0.772389  1
  Si  Si21  1  0.378590  0.612508  0.227166  1
  Si  Si22  1  0.343701  0.110319  0.502462  1
  Si  Si23  1  0.889002  0.655455  0.497677  1
  Si  Si24  1  0.388937  0.155968  0.007327  1
  Si  Si25  1  0.844922  0.611709  0.992623  1
  Si  Si26  1  0.655968  0.888937  0.492673  1
  Si  Si27  1  0.111709  0.344922  0.507377  1
  Si  Si28  1  0.610319  0.843701  0.997538  1
  Si  Si29  1  0.155455  0.389002  0.002323  1
  Ru  Ru30  1  0.669262  0.330143  0.500343  1
  Ru  Ru31  1  0.168819  0.831957  0.000089  1
  Ru  Ru32  1  0.331957  0.668819  0.499911  1
  Ru  Ru33  1  0.830143  0.169262  0.999657  1
  Ru  Ru34  1  0.126013  0.126703  0.625949  1
  Ru  Ru35  1  0.873448  0.873955  0.374077  1
  Ru  Ru36  1  0.373955  0.373448  0.125923  1
  Ru  Ru37  1  0.626703  0.626013  0.874051  1
