# generated using pymatgen
data_TbTeO3F
_symmetry_space_group_name_H-M   'P 1'
_cell_length_a   4.41741735
_cell_length_b   6.77831569
_cell_length_c   7.08305300
_cell_angle_alpha   92.47423713
_cell_angle_beta   95.60462146
_cell_angle_gamma   96.75905502
_symmetry_Int_Tables_number   1
_chemical_formula_structural   TbTeO3F
_chemical_formula_sum   'Tb2 Te2 O6 F2'
_cell_volume   209.28365452
_cell_formula_units_Z   2
loop_
 _symmetry_equiv_pos_site_id
 _symmetry_equiv_pos_as_xyz
  1  'x, y, z'
loop_
 _atom_site_type_symbol
 _atom_site_label
 _atom_site_symmetry_multiplicity
 _atom_site_fract_x
 _atom_site_fract_y
 _atom_site_fract_z
 _atom_site_occupancy
  Tb  Tb0  1  0.455017  0.374874  0.242385  1
  Tb  Tb1  1  0.544984  0.625129  0.757618  1
  Te  Te2  1  0.703223  0.871303  0.283529  1
  Te  Te3  1  0.296772  0.128700  0.716476  1
  O  O4  1  0.630582  0.672165  0.081402  1
  O  O5  1  0.391951  0.029599  0.223168  1
  O  O6  1  0.493884  0.682141  0.433211  1
  O  O7  1  0.506105  0.317858  0.566788  1
  O  O8  1  0.608041  0.970400  0.776825  1
  O  O9  1  0.369441  0.327842  0.918602  1
  F  F10  1  0.953505  0.343335  0.261735  1
  F  F11  1  0.046491  0.656655  0.738260  1
