# generated using pymatgen
data_Tc3HSeS3
_symmetry_space_group_name_H-M   'P 1'
_cell_length_a   10.52162000
_cell_length_b   6.44729158
_cell_length_c   10.14118939
_cell_angle_alpha   70.17549001
_cell_angle_beta   90.00000000
_cell_angle_gamma   90.00000000
_symmetry_Int_Tables_number   1
_chemical_formula_structural   Tc3HSeS3
_chemical_formula_sum   'Tc12 H4 Se4 S12'
_cell_volume   647.16717110
_cell_formula_units_Z   4
loop_
 _symmetry_equiv_pos_site_id
 _symmetry_equiv_pos_as_xyz
  1  'x, y, z'
loop_
 _atom_site_type_symbol
 _atom_site_label
 _atom_site_symmetry_multiplicity
 _atom_site_fract_x
 _atom_site_fract_y
 _atom_site_fract_z
 _atom_site_occupancy
  Tc  Tc0  1  0.620101  0.997804  0.367174  1
  Tc  Tc1  1  0.879899  0.997804  0.867174  1
  Tc  Tc2  1  0.379899  0.002196  0.632826  1
  Tc  Tc3  1  0.120101  0.002196  0.132826  1
  Tc  Tc4  1  0.370427  0.989857  0.379085  1
  Tc  Tc5  1  0.129573  0.989857  0.879085  1
  Tc  Tc6  1  0.629573  0.010143  0.620915  1
  Tc  Tc7  1  0.870427  0.010143  0.120915  1
  Tc  Tc8  1  0.502695  0.694895  0.571599  1
  Tc  Tc9  1  0.997305  0.694895  0.071599  1
  Tc  Tc10  1  0.497305  0.305105  0.428401  1
  Tc  Tc11  1  0.002695  0.305105  0.928401  1
  H  H12  1  0.234780  0.986449  0.269536  1
  H  H13  1  0.265220  0.986449  0.769536  1
  H  H14  1  0.765220  0.013551  0.730464  1
  H  H15  1  0.734780  0.013551  0.230464  1
  Se  Se16  1  0.742530  0.714612  0.557883  1
  Se  Se17  1  0.757470  0.714612  0.057883  1
  Se  Se18  1  0.257470  0.285388  0.442117  1
  Se  Se19  1  0.242530  0.285388  0.942117  1
  S  S20  1  0.493484  0.718610  0.321777  1
  S  S21  1  0.006516  0.718610  0.821777  1
  S  S22  1  0.506516  0.281390  0.678223  1
  S  S23  1  0.993484  0.281390  0.178223  1
  S  S24  1  0.275711  0.716291  0.576335  1
  S  S25  1  0.224289  0.716291  0.076335  1
  S  S26  1  0.724289  0.283709  0.423665  1
  S  S27  1  0.775711  0.283709  0.923665  1
  S  S28  1  0.489223  0.265243  0.202968  1
  S  S29  1  0.010777  0.265243  0.702968  1
  S  S30  1  0.510777  0.734757  0.797032  1
  S  S31  1  0.989223  0.734757  0.297032  1
