# generated using pymatgen
data_CsLa3Te8
_symmetry_space_group_name_H-M   'P 1'
_cell_length_a   14.40361388
_cell_length_b   13.00252000
_cell_length_c   9.05294700
_cell_angle_alpha   90.00000000
_cell_angle_beta   98.97702153
_cell_angle_gamma   90.00000000
_symmetry_Int_Tables_number   1
_chemical_formula_structural   CsLa3Te8
_chemical_formula_sum   'Cs4 La12 Te32'
_cell_volume   1674.69782606
_cell_formula_units_Z   4
loop_
 _symmetry_equiv_pos_site_id
 _symmetry_equiv_pos_as_xyz
  1  'x, y, z'
loop_
 _atom_site_type_symbol
 _atom_site_label
 _atom_site_symmetry_multiplicity
 _atom_site_fract_x
 _atom_site_fract_y
 _atom_site_fract_z
 _atom_site_occupancy
  Cs  Cs0  1  0.964812  0.909617  0.241752  1
  Cs  Cs1  1  0.035186  0.409625  0.258249  1
  Cs  Cs2  1  0.964813  0.590375  0.741750  1
  Cs  Cs3  1  0.035188  0.090383  0.758248  1
  La  La4  1  0.353117  0.415342  0.082135  1
  La  La5  1  0.351494  0.750582  0.088124  1
  La  La6  1  0.354803  0.083968  0.095009  1
  La  La7  1  0.645167  0.583948  0.405028  1
  La  La8  1  0.648514  0.250630  0.411847  1
  La  La9  1  0.646850  0.915341  0.417860  1
  La  La10  1  0.353150  0.084658  0.582139  1
  La  La11  1  0.351487  0.749370  0.588154  1
  La  La12  1  0.354833  0.416053  0.594972  1
  La  La13  1  0.645198  0.916033  0.904991  1
  La  La14  1  0.648506  0.249419  0.911876  1
  La  La15  1  0.646882  0.584658  0.917865  1
  Te  Te16  1  0.177399  0.915490  0.035688  1
  Te  Te17  1  0.180202  0.249321  0.044949  1
  Te  Te18  1  0.177280  0.585354  0.053213  1
  Te  Te19  1  0.585964  0.415633  0.144536  1
  Te  Te20  1  0.582979  0.754763  0.145564  1
  Te  Te21  1  0.587531  0.079118  0.148462  1
  Te  Te22  1  0.824306  0.601132  0.206112  1
  Te  Te23  1  0.828781  0.231072  0.206527  1
  Te  Te24  1  0.171225  0.731067  0.293480  1
  Te  Te25  1  0.175692  0.101134  0.293897  1
  Te  Te26  1  0.412462  0.579113  0.351522  1
  Te  Te27  1  0.417026  0.254773  0.354431  1
  Te  Te28  1  0.414012  0.915610  0.355448  1
  Te  Te29  1  0.822708  0.085361  0.446782  1
  Te  Te30  1  0.819775  0.749317  0.455052  1
  Te  Te31  1  0.822607  0.415509  0.464326  1
  Te  Te32  1  0.177393  0.584492  0.535674  1
  Te  Te33  1  0.180225  0.250682  0.544949  1
  Te  Te34  1  0.177292  0.914639  0.553219  1
  Te  Te35  1  0.585989  0.084390  0.644551  1
  Te  Te36  1  0.582974  0.745227  0.645569  1
  Te  Te37  1  0.587538  0.420886  0.648479  1
  Te  Te38  1  0.824307  0.898866  0.706103  1
  Te  Te39  1  0.828776  0.268932  0.706520  1
  Te  Te40  1  0.171219  0.768928  0.793473  1
  Te  Te41  1  0.175693  0.398867  0.793888  1
  Te  Te42  1  0.412468  0.920881  0.851538  1
  Te  Te43  1  0.417021  0.245237  0.854437  1
  Te  Te44  1  0.414036  0.584368  0.855463  1
  Te  Te45  1  0.822720  0.414645  0.946787  1
  Te  Te46  1  0.819798  0.750678  0.955051  1
  Te  Te47  1  0.822601  0.084510  0.964311  1
