# generated using pymatgen
data_DyHo2Er(Ga3Ir)6
_symmetry_space_group_name_H-M   'P 1'
_cell_length_a   7.58389600
_cell_length_b   7.58483188
_cell_length_c   9.47380600
_cell_angle_alpha   90.00000000
_cell_angle_beta   90.00000000
_cell_angle_gamma   119.98928824
_symmetry_Int_Tables_number   1
_chemical_formula_structural   DyHo2Er(Ga3Ir)6
_chemical_formula_sum   'Dy1 Ho2 Er1 Ga18 Ir6'
_cell_volume   471.99816914
_cell_formula_units_Z   1
loop_
 _symmetry_equiv_pos_site_id
 _symmetry_equiv_pos_as_xyz
  1  'x, y, z'
loop_
 _atom_site_type_symbol
 _atom_site_label
 _atom_site_symmetry_multiplicity
 _atom_site_fract_x
 _atom_site_fract_y
 _atom_site_fract_z
 _atom_site_occupancy
  Dy  Dy0  1  0.002940  0.332120  0.250000  1
  Ho  Ho1  1  0.997251  0.668097  0.750000  1
  Ho  Ho2  1  0.668069  0.997331  0.750000  1
  Er  Er3  1  0.332127  0.002830  0.250000  1
  Ga  Ga4  1  0.127060  0.127047  0.750000  1
  Ga  Ga5  1  0.873102  0.872968  0.250000  1
  Ga  Ga6  1  0.998953  0.333911  0.581087  1
  Ga  Ga7  1  0.001192  0.666366  0.419005  1
  Ga  Ga8  1  0.001192  0.666366  0.080995  1
  Ga  Ga9  1  0.333924  0.998949  0.919105  1
  Ga  Ga10  1  0.998953  0.333911  0.918913  1
  Ga  Ga11  1  0.665778  0.000925  0.080982  1
  Ga  Ga12  1  0.665778  0.000925  0.419018  1
  Ga  Ga13  1  0.333924  0.998949  0.580895  1
  Ga  Ga14  1  0.332452  0.332196  0.064858  1
  Ga  Ga15  1  0.667629  0.667634  0.934849  1
  Ga  Ga16  1  0.667629  0.667634  0.565151  1
  Ga  Ga17  1  0.332452  0.332196  0.435142  1
  Ga  Ga18  1  0.339413  0.546581  0.750000  1
  Ga  Ga19  1  0.660399  0.453315  0.250000  1
  Ga  Ga20  1  0.546480  0.339340  0.750000  1
  Ga  Ga21  1  0.453468  0.660704  0.250000  1
  Ir  Ir22  1  0.671455  0.328326  0.499733  1
  Ir  Ir23  1  0.328323  0.671505  0.499740  1
  Ir  Ir24  1  0.328323  0.671505  0.000260  1
  Ir  Ir25  1  0.671455  0.328326  0.000267  1
  Ir  Ir26  1  0.000139  0.000020  0.499784  1
  Ir  Ir27  1  0.000139  0.000020  0.000216  1
