# generated using pymatgen
data_CaTb6Co5Sn23Ru
_symmetry_space_group_name_H-M   'P 1'
_cell_length_a   9.75329085
_cell_length_b   9.75329100
_cell_length_c   10.00383793
_cell_angle_alpha   90.13354628
_cell_angle_beta   89.86645310
_cell_angle_gamma   119.91808772
_symmetry_Int_Tables_number   1
_chemical_formula_structural   CaTb6Co5Sn23Ru
_chemical_formula_sum   'Ca1 Tb6 Co5 Sn23 Ru1'
_cell_volume   824.81383695
_cell_formula_units_Z   1
loop_
 _symmetry_equiv_pos_site_id
 _symmetry_equiv_pos_as_xyz
  1  'x, y, z'
loop_
 _atom_site_type_symbol
 _atom_site_label
 _atom_site_symmetry_multiplicity
 _atom_site_fract_x
 _atom_site_fract_y
 _atom_site_fract_z
 _atom_site_occupancy
  Ca  Ca0  1  0.996960  0.003040  0.003303  1
  Tb  Tb1  1  0.479896  0.520104  0.306390  1
  Tb  Tb2  1  0.520751  0.479249  0.693276  1
  Tb  Tb3  1  0.481002  0.959227  0.305651  1
  Tb  Tb4  1  0.519432  0.040750  0.694415  1
  Tb  Tb5  1  0.040773  0.518998  0.305651  1
  Tb  Tb6  1  0.959250  0.480568  0.694415  1
  Co  Co7  1  0.168955  0.831045  0.800967  1
  Co  Co8  1  0.830770  0.660744  0.198485  1
  Co  Co9  1  0.170692  0.338871  0.799744  1
  Co  Co10  1  0.339256  0.169230  0.198485  1
  Co  Co11  1  0.661129  0.829308  0.799744  1
  Sn  Sn12  1  0.344252  0.999423  0.999655  1
  Sn  Sn13  1  0.649567  0.996259  0.996425  1
  Sn  Sn14  1  0.003741  0.350433  0.996425  1
  Sn  Sn15  1  0.000577  0.655748  0.999655  1
  Sn  Sn16  1  0.653775  0.653937  0.999720  1
  Sn  Sn17  1  0.346063  0.346225  0.999720  1
  Sn  Sn18  1  0.333361  0.666639  0.814833  1
  Sn  Sn19  1  0.665258  0.334742  0.183537  1
  Sn  Sn20  1  0.999916  0.000084  0.501647  1
  Sn  Sn21  1  0.780486  0.219514  0.458615  1
  Sn  Sn22  1  0.217253  0.782747  0.547105  1
  Sn  Sn23  1  0.782223  0.564269  0.452258  1
  Sn  Sn24  1  0.217964  0.435733  0.547212  1
  Sn  Sn25  1  0.435731  0.217777  0.452258  1
  Sn  Sn26  1  0.564267  0.782036  0.547212  1
  Sn  Sn27  1  0.333632  0.666368  0.115242  1
  Sn  Sn28  1  0.666420  0.333580  0.882864  1
  Sn  Sn29  1  0.117382  0.882618  0.271391  1
  Sn  Sn30  1  0.882964  0.117036  0.728071  1
  Sn  Sn31  1  0.122363  0.234361  0.275512  1
  Sn  Sn32  1  0.883317  0.766305  0.727332  1
  Sn  Sn33  1  0.765639  0.877637  0.275512  1
  Sn  Sn34  1  0.233695  0.116683  0.727332  1
  Ru  Ru35  1  0.831291  0.168709  0.199944  1
