# generated using pymatgen
data_Er4Mo3WN8
_symmetry_space_group_name_H-M   'P 1'
_cell_length_a   3.18392400
_cell_length_b   5.67552911
_cell_length_c   10.54365821
_cell_angle_alpha   89.97700365
_cell_angle_beta   90.00000000
_cell_angle_gamma   90.00000000
_symmetry_Int_Tables_number   1
_chemical_formula_structural   Er4Mo3WN8
_chemical_formula_sum   'Er4 Mo3 W1 N8'
_cell_volume   190.52866862
_cell_formula_units_Z   1
loop_
 _symmetry_equiv_pos_site_id
 _symmetry_equiv_pos_as_xyz
  1  'x, y, z'
loop_
 _atom_site_type_symbol
 _atom_site_label
 _atom_site_symmetry_multiplicity
 _atom_site_fract_x
 _atom_site_fract_y
 _atom_site_fract_z
 _atom_site_occupancy
  Er  Er0  1  0.250000  0.079749  0.853717  1
  Er  Er1  1  0.250000  0.579518  0.646712  1
  Er  Er2  1  0.750000  0.919847  0.146291  1
  Er  Er3  1  0.750000  0.420213  0.354590  1
  Mo  Mo4  1  0.250000  0.932599  0.406170  1
  Mo  Mo5  1  0.750000  0.568748  0.905745  1
  Mo  Mo6  1  0.750000  0.067528  0.593599  1
  W  W7  1  0.250000  0.431867  0.094662  1
  N  N8  1  0.250000  0.166248  0.246875  1
  N  N9  1  0.250000  0.661732  0.250339  1
  N  N10  1  0.750000  0.837328  0.750833  1
  N  N11  1  0.750000  0.335884  0.748677  1
  N  N12  1  0.250000  0.762479  0.995178  1
  N  N13  1  0.250000  0.262226  0.505487  1
  N  N14  1  0.750000  0.235875  0.007035  1
  N  N15  1  0.750000  0.738157  0.494090  1
