# generated using pymatgen
data_Y2Zn14CoPd2
_symmetry_space_group_name_H-M   'P 1'
_cell_length_a   6.78648640
_cell_length_b   6.78648687
_cell_length_c   6.76781230
_cell_angle_alpha   82.90641129
_cell_angle_beta   82.90641267
_cell_angle_gamma   82.33436899
_symmetry_Int_Tables_number   1
_chemical_formula_structural   Y2Zn14CoPd2
_chemical_formula_sum   'Y2 Zn14 Co1 Pd2'
_cell_volume   304.73069550
_cell_formula_units_Z   1
loop_
 _symmetry_equiv_pos_site_id
 _symmetry_equiv_pos_as_xyz
  1  'x, y, z'
loop_
 _atom_site_type_symbol
 _atom_site_label
 _atom_site_symmetry_multiplicity
 _atom_site_fract_x
 _atom_site_fract_y
 _atom_site_fract_z
 _atom_site_occupancy
  Y  Y0  1  0.666477  0.666477  0.661437  1
  Y  Y1  1  0.333523  0.333523  0.338563  1
  Zn  Zn2  1  0.351825  0.351825  0.836112  1
  Zn  Zn3  1  0.847880  0.343482  0.352882  1
  Zn  Zn4  1  0.097956  0.097956  0.114721  1
  Zn  Zn5  1  0.902044  0.902044  0.885279  1
  Zn  Zn6  1  0.299597  0.700403  0.000000  1
  Zn  Zn7  1  0.710209  0.000245  0.300312  1
  Zn  Zn8  1  0.999755  0.289791  0.699688  1
  Zn  Zn9  1  0.700403  0.299597  0.000000  1
  Zn  Zn10  1  0.289791  0.999755  0.699688  1
  Zn  Zn11  1  0.000245  0.710209  0.300312  1
  Zn  Zn12  1  0.152120  0.656518  0.647118  1
  Zn  Zn13  1  0.648175  0.648175  0.163888  1
  Zn  Zn14  1  0.656518  0.152120  0.647118  1
  Zn  Zn15  1  0.343482  0.847880  0.352882  1
  Co  Co16  1  0.000000  0.000000  0.500000  1
  Pd  Pd17  1  0.000000  0.500000  0.000000  1
  Pd  Pd18  1  0.500000  0.000000  0.000000  1
