# generated using pymatgen
data_La3Cd3IrPd2
_symmetry_space_group_name_H-M   'P 1'
_cell_length_a   7.81032300
_cell_length_b   7.81032364
_cell_length_c   4.10221700
_cell_angle_alpha   90.00000000
_cell_angle_beta   90.00000000
_cell_angle_gamma   120.00001001
_symmetry_Int_Tables_number   1
_chemical_formula_structural   La3Cd3IrPd2
_chemical_formula_sum   'La3 Cd3 Ir1 Pd2'
_cell_volume   216.71413706
_cell_formula_units_Z   1
loop_
 _symmetry_equiv_pos_site_id
 _symmetry_equiv_pos_as_xyz
  1  'x, y, z'
loop_
 _atom_site_type_symbol
 _atom_site_label
 _atom_site_symmetry_multiplicity
 _atom_site_fract_x
 _atom_site_fract_y
 _atom_site_fract_z
 _atom_site_occupancy
  La  La0  1  0.417793  0.404257  0.500000  1
  La  La1  1  0.595743  0.013537  0.500000  1
  La  La2  1  0.986463  0.582207  0.500000  1
  Cd  Cd3  1  0.750595  0.751381  0.000000  1
  Cd  Cd4  1  0.248619  0.999214  0.000000  1
  Cd  Cd5  1  0.000786  0.249405  0.000000  1
  Ir  Ir6  1  0.666667  0.333333  0.000000  1
  Pd  Pd7  1  0.333333  0.666667  0.000000  1
  Pd  Pd8  1  0.000000  0.000000  0.500000  1
