# generated using pymatgen
data_Th10Si2SnBi5
_symmetry_space_group_name_H-M   'P 1'
_cell_length_a   9.64300305
_cell_length_b   9.64123214
_cell_length_c   6.61235500
_cell_angle_alpha   90.00000000
_cell_angle_beta   90.00000000
_cell_angle_gamma   119.99392710
_symmetry_Int_Tables_number   1
_chemical_formula_structural   Th10Si2SnBi5
_chemical_formula_sum   'Th10 Si2 Sn1 Bi5'
_cell_volume   532.42471958
_cell_formula_units_Z   1
loop_
 _symmetry_equiv_pos_site_id
 _symmetry_equiv_pos_as_xyz
  1  'x, y, z'
loop_
 _atom_site_type_symbol
 _atom_site_label
 _atom_site_symmetry_multiplicity
 _atom_site_fract_x
 _atom_site_fract_y
 _atom_site_fract_z
 _atom_site_occupancy
  Th  Th0  1  0.000000  0.745133  0.750000  1
  Th  Th1  1  0.253430  0.253404  0.750000  1
  Th  Th2  1  0.330191  0.665984  0.498268  1
  Th  Th3  1  0.669809  0.335793  0.498268  1
  Th  Th4  1  0.748891  0.744869  0.250000  1
  Th  Th5  1  0.746570  0.999974  0.750000  1
  Th  Th6  1  0.000000  0.255710  0.250000  1
  Th  Th7  1  0.251109  0.995979  0.250000  1
  Th  Th8  1  0.330191  0.665984  0.001732  1
  Th  Th9  1  0.669809  0.335793  0.001732  1
  Si  Si10  1  0.000000  0.000679  0.999698  1
  Si  Si11  1  0.000000  0.000679  0.500302  1
  Sn  Sn12  1  0.000000  0.608958  0.250000  1
  Bi  Bi13  1  0.608376  0.608469  0.750000  1
  Bi  Bi14  1  0.000000  0.392089  0.750000  1
  Bi  Bi15  1  0.391624  0.000093  0.750000  1
  Bi  Bi16  1  0.608744  0.999576  0.250000  1
  Bi  Bi17  1  0.391256  0.390832  0.250000  1
