# generated using pymatgen
data_Ca20In3Ga8Sb
_symmetry_space_group_name_H-M   'P 1'
_cell_length_a   8.14965600
_cell_length_b   8.14965600
_cell_length_c   14.63468500
_cell_angle_alpha   90.00000000
_cell_angle_beta   90.00000000
_cell_angle_gamma   90.00000000
_symmetry_Int_Tables_number   1
_chemical_formula_structural   Ca20In3Ga8Sb
_chemical_formula_sum   'Ca20 In3 Ga8 Sb1'
_cell_volume   971.99030654
_cell_formula_units_Z   1
loop_
 _symmetry_equiv_pos_site_id
 _symmetry_equiv_pos_as_xyz
  1  'x, y, z'
loop_
 _atom_site_type_symbol
 _atom_site_label
 _atom_site_symmetry_multiplicity
 _atom_site_fract_x
 _atom_site_fract_y
 _atom_site_fract_z
 _atom_site_occupancy
  Ca  Ca0  1  0.675970  0.172945  0.108766  1
  Ca  Ca1  1  0.176015  0.674163  0.610198  1
  Ca  Ca2  1  0.324030  0.827055  0.108766  1
  Ca  Ca3  1  0.823985  0.325837  0.610198  1
  Ca  Ca4  1  0.827055  0.675970  0.108766  1
  Ca  Ca5  1  0.325837  0.176015  0.610198  1
  Ca  Ca6  1  0.172945  0.324030  0.108766  1
  Ca  Ca7  1  0.674163  0.823985  0.610198  1
  Ca  Ca8  1  0.827055  0.324030  0.891234  1
  Ca  Ca9  1  0.325837  0.823985  0.389802  1
  Ca  Ca10  1  0.172945  0.675970  0.891234  1
  Ca  Ca11  1  0.674163  0.176015  0.389802  1
  Ca  Ca12  1  0.675970  0.827055  0.891234  1
  Ca  Ca13  1  0.176015  0.325837  0.389802  1
  Ca  Ca14  1  0.324030  0.172945  0.891234  1
  Ca  Ca15  1  0.823985  0.674163  0.389802  1
  Ca  Ca16  1  0.500000  0.500000  0.752169  1
  Ca  Ca17  1  0.000000  0.000000  0.251275  1
  Ca  Ca18  1  0.000000  0.000000  0.748725  1
  Ca  Ca19  1  0.500000  0.500000  0.247831  1
  In  In20  1  0.500000  0.500000  0.500000  1
  In  In21  1  0.500000  0.500000  0.000000  1
  In  In22  1  0.000000  0.000000  0.500000  1
  Ga  Ga23  1  0.611759  0.112454  0.752406  1
  Ga  Ga24  1  0.112454  0.611759  0.247594  1
  Ga  Ga25  1  0.887546  0.388241  0.247594  1
  Ga  Ga26  1  0.388241  0.887546  0.752406  1
  Ga  Ga27  1  0.887546  0.611759  0.752406  1
  Ga  Ga28  1  0.388241  0.112454  0.247594  1
  Ga  Ga29  1  0.112454  0.388241  0.752406  1
  Ga  Ga30  1  0.611759  0.887546  0.247594  1
  Sb  Sb31  1  0.000000  0.000000  0.000000  1
