# generated using pymatgen
data_Ho13Er3(AgRh)4
_symmetry_space_group_name_H-M   'P 1'
_cell_length_a   9.48687537
_cell_length_b   9.47555170
_cell_length_c   9.44339979
_cell_angle_alpha   60.19143504
_cell_angle_beta   60.07228521
_cell_angle_gamma   60.37575861
_symmetry_Int_Tables_number   1
_chemical_formula_structural   Ho13Er3(AgRh)4
_chemical_formula_sum   'Ho13 Er3 Ag4 Rh4'
_cell_volume   603.15083504
_cell_formula_units_Z   1
loop_
 _symmetry_equiv_pos_site_id
 _symmetry_equiv_pos_as_xyz
  1  'x, y, z'
loop_
 _atom_site_type_symbol
 _atom_site_label
 _atom_site_symmetry_multiplicity
 _atom_site_fract_x
 _atom_site_fract_y
 _atom_site_fract_z
 _atom_site_occupancy
  Ho  Ho0  1  0.188089  0.188089  0.811911  1
  Ho  Ho1  1  0.435415  0.065289  0.064153  1
  Ho  Ho2  1  0.435045  0.065458  0.434836  1
  Ho  Ho3  1  0.065458  0.435045  0.064661  1
  Ho  Ho4  1  0.646838  0.058103  0.647467  1
  Ho  Ho5  1  0.187938  0.812468  0.812003  1
  Ho  Ho6  1  0.064631  0.064631  0.435369  1
  Ho  Ho7  1  0.812468  0.187938  0.187591  1
  Ho  Ho8  1  0.812650  0.812650  0.187350  1
  Ho  Ho9  1  0.646518  0.646635  0.059429  1
  Ho  Ho10  1  0.646635  0.646518  0.647419  1
  Ho  Ho11  1  0.065289  0.435415  0.435143  1
  Ho  Ho12  1  0.058103  0.646838  0.647592  1
  Er  Er13  1  0.812635  0.187948  0.812222  1
  Er  Er14  1  0.435537  0.435537  0.064463  1
  Er  Er15  1  0.187948  0.812635  0.187195  1
  Ag  Ag16  1  0.417186  0.746970  0.417891  1
  Ag  Ag17  1  0.417475  0.417544  0.747301  1
  Ag  Ag18  1  0.746970  0.417186  0.417955  1
  Ag  Ag19  1  0.417544  0.417475  0.417681  1
  Rh  Rh20  1  0.856411  0.429800  0.856857  1
  Rh  Rh21  1  0.856866  0.856550  0.429853  1
  Rh  Rh22  1  0.429800  0.856411  0.856930  1
  Rh  Rh23  1  0.856550  0.856866  0.856729  1
