# generated using pymatgen
data_Rb6MoP4
_symmetry_space_group_name_H-M   'P 1'
_cell_length_a   10.48382621
_cell_length_b   10.48382553
_cell_length_c   8.40576710
_cell_angle_alpha   90.02484448
_cell_angle_beta   90.02485123
_cell_angle_gamma   120.07151872
_symmetry_Int_Tables_number   1
_chemical_formula_structural   Rb6MoP4
_chemical_formula_sum   'Rb12 Mo2 P8'
_cell_volume   799.52856487
_cell_formula_units_Z   2
loop_
 _symmetry_equiv_pos_site_id
 _symmetry_equiv_pos_as_xyz
  1  'x, y, z'
loop_
 _atom_site_type_symbol
 _atom_site_label
 _atom_site_symmetry_multiplicity
 _atom_site_fract_x
 _atom_site_fract_y
 _atom_site_fract_z
 _atom_site_occupancy
  Rb  Rb0  1  0.467467  0.934903  0.500199  1
  Rb  Rb1  1  0.934903  0.467467  0.000199  1
  Rb  Rb2  1  0.466742  0.532884  0.499398  1
  Rb  Rb3  1  0.067789  0.533787  0.498125  1
  Rb  Rb4  1  0.532884  0.466742  0.999398  1
  Rb  Rb5  1  0.533787  0.067789  0.998125  1
  Rb  Rb6  1  0.852994  0.147561  0.681010  1
  Rb  Rb7  1  0.291518  0.144906  0.680155  1
  Rb  Rb8  1  0.853670  0.705864  0.682071  1
  Rb  Rb9  1  0.147561  0.852994  0.181010  1
  Rb  Rb10  1  0.705864  0.853670  0.182071  1
  Rb  Rb11  1  0.144906  0.291518  0.180155  1
  Mo  Mo12  1  0.666524  0.333156  0.392186  1
  Mo  Mo13  1  0.333156  0.666524  0.892186  1
  P  P14  1  0.666498  0.333399  0.668723  1
  P  P15  1  0.333399  0.666498  0.168723  1
  P  P16  1  0.789308  0.211186  0.304034  1
  P  P17  1  0.421499  0.210623  0.303598  1
  P  P18  1  0.789502  0.578219  0.304789  1
  P  P19  1  0.211186  0.789308  0.804034  1
  P  P20  1  0.578219  0.789502  0.804789  1
  P  P21  1  0.210623  0.421499  0.803598  1
