# generated using pymatgen
data_SmEr4(CoO6)2
_symmetry_space_group_name_H-M   'P 1'
_cell_length_a   6.73871252
_cell_length_b   6.73871283
_cell_length_c   7.16667229
_cell_angle_alpha   74.61899351
_cell_angle_beta   74.61899387
_cell_angle_gamma   50.28038681
_symmetry_Int_Tables_number   1
_chemical_formula_structural   SmEr4(CoO6)2
_chemical_formula_sum   'Sm1 Er4 Co2 O12'
_cell_volume   239.33712607
_cell_formula_units_Z   1
loop_
 _symmetry_equiv_pos_site_id
 _symmetry_equiv_pos_as_xyz
  1  'x, y, z'
loop_
 _atom_site_type_symbol
 _atom_site_label
 _atom_site_symmetry_multiplicity
 _atom_site_fract_x
 _atom_site_fract_y
 _atom_site_fract_z
 _atom_site_occupancy
  Sm  Sm0  1  0.000000  0.000000  0.500000  1
  Er  Er1  1  0.306216  0.306216  0.355840  1
  Er  Er2  1  0.693784  0.693784  0.644160  1
  Er  Er3  1  0.306402  0.306402  0.836708  1
  Er  Er4  1  0.693598  0.693598  0.163292  1
  Co  Co5  1  0.755000  0.245000  0.000000  1
  Co  Co6  1  0.245000  0.755000  0.000000  1
  O  O7  1  0.900093  0.418082  0.922369  1
  O  O8  1  0.418082  0.900093  0.922369  1
  O  O9  1  0.099907  0.581918  0.077631  1
  O  O10  1  0.581918  0.099907  0.077631  1
  O  O11  1  0.095722  0.590276  0.580079  1
  O  O12  1  0.590276  0.095722  0.580079  1
  O  O13  1  0.904278  0.409724  0.419921  1
  O  O14  1  0.409724  0.904278  0.419921  1
  O  O15  1  0.001164  0.001164  0.830386  1
  O  O16  1  0.998836  0.998836  0.169614  1
  O  O17  1  0.499975  0.499975  0.822227  1
  O  O18  1  0.500025  0.500025  0.177773  1
