# generated using pymatgen
data_Dy2Lu2BeOs7
_symmetry_space_group_name_H-M   'P 1'
_cell_length_a   5.22790774
_cell_length_b   5.22790793
_cell_length_c   8.75933113
_cell_angle_alpha   89.81017872
_cell_angle_beta   90.18982218
_cell_angle_gamma   118.79562829
_symmetry_Int_Tables_number   1
_chemical_formula_structural   Dy2Lu2BeOs7
_chemical_formula_sum   'Dy2 Lu2 Be1 Os7'
_cell_volume   209.79634139
_cell_formula_units_Z   1
loop_
 _symmetry_equiv_pos_site_id
 _symmetry_equiv_pos_as_xyz
  1  'x, y, z'
loop_
 _atom_site_type_symbol
 _atom_site_label
 _atom_site_symmetry_multiplicity
 _atom_site_fract_x
 _atom_site_fract_y
 _atom_site_fract_z
 _atom_site_occupancy
  Dy  Dy0  1  0.670242  0.329758  0.935959  1
  Dy  Dy1  1  0.334281  0.665719  0.065982  1
  Lu  Lu2  1  0.332993  0.667007  0.435794  1
  Lu  Lu3  1  0.669171  0.330829  0.562935  1
  Be  Be4  1  0.829265  0.170735  0.253497  1
  Os  Os5  1  0.003258  0.996742  0.495638  1
  Os  Os6  1  0.005479  0.994521  0.003467  1
  Os  Os7  1  0.820515  0.654543  0.252593  1
  Os  Os8  1  0.345457  0.179485  0.252593  1
  Os  Os9  1  0.164730  0.835270  0.747889  1
  Os  Os10  1  0.172993  0.348384  0.746828  1
  Os  Os11  1  0.651616  0.827007  0.746828  1
