# generated using pymatgen
data_Dy8Er2Os3Rh
_symmetry_space_group_name_H-M   'P 1'
_cell_length_a   6.34596772
_cell_length_b   7.34709225
_cell_length_c   8.42887900
_cell_angle_alpha   96.82181112
_cell_angle_beta   112.23621774
_cell_angle_gamma   90.02281197
_symmetry_Int_Tables_number   1
_chemical_formula_structural   Dy8Er2Os3Rh
_chemical_formula_sum   'Dy8 Er2 Os3 Rh1'
_cell_volume   360.75008576
_cell_formula_units_Z   1
loop_
 _symmetry_equiv_pos_site_id
 _symmetry_equiv_pos_as_xyz
  1  'x, y, z'
loop_
 _atom_site_type_symbol
 _atom_site_label
 _atom_site_symmetry_multiplicity
 _atom_site_fract_x
 _atom_site_fract_y
 _atom_site_fract_z
 _atom_site_occupancy
  Dy  Dy0  1  0.791940  0.584738  0.817944  1
  Dy  Dy1  1  0.974385  0.916641  0.183037  1
  Dy  Dy2  1  0.209562  0.417251  0.188604  1
  Dy  Dy3  1  0.025141  0.082216  0.818731  1
  Dy  Dy4  1  0.205686  0.685889  0.563757  1
  Dy  Dy5  1  0.642884  0.816530  0.435461  1
  Dy  Dy6  1  0.790081  0.314841  0.431947  1
  Dy  Dy7  1  0.360053  0.180865  0.562559  1
  Er  Er8  1  0.423524  0.752090  0.001866  1
  Er  Er9  1  0.579434  0.249155  0.000584  1
  Os  Os10  1  0.603147  0.923135  0.782477  1
  Os  Os11  1  0.820839  0.575419  0.218014  1
  Os  Os12  1  0.394704  0.077576  0.215999  1
  Rh  Rh13  1  0.178621  0.423650  0.779022  1
