# generated using pymatgen
data_CeLuP7Ru12
_symmetry_space_group_name_H-M   'P 1'
_cell_length_a   9.43890100
_cell_length_b   9.43889884
_cell_length_c   3.94004100
_cell_angle_alpha   90.00000000
_cell_angle_beta   90.00000000
_cell_angle_gamma   119.99999611
_symmetry_Int_Tables_number   1
_chemical_formula_structural   CeLuP7Ru12
_chemical_formula_sum   'Ce1 Lu1 P7 Ru12'
_cell_volume   304.00039821
_cell_formula_units_Z   1
loop_
 _symmetry_equiv_pos_site_id
 _symmetry_equiv_pos_as_xyz
  1  'x, y, z'
loop_
 _atom_site_type_symbol
 _atom_site_label
 _atom_site_symmetry_multiplicity
 _atom_site_fract_x
 _atom_site_fract_y
 _atom_site_fract_z
 _atom_site_occupancy
  Ce  Ce0  1  0.333333  0.666667  0.000000  1
  Lu  Lu1  1  0.666667  0.333333  0.500000  1
  P  P2  1  0.603664  0.717208  0.500000  1
  P  P3  1  0.000000  0.000000  0.000000  1
  P  P4  1  0.282792  0.886456  0.500000  1
  P  P5  1  0.113544  0.396336  0.500000  1
  P  P6  1  0.884806  0.572994  0.000000  1
  P  P7  1  0.427006  0.311813  0.000000  1
  P  P8  1  0.688187  0.115194  0.000000  1
  Ru  Ru9  1  0.556147  0.948573  0.500000  1
  Ru  Ru10  1  0.392427  0.443853  0.500000  1
  Ru  Ru11  1  0.912935  0.120768  0.500000  1
  Ru  Ru12  1  0.207833  0.087065  0.500000  1
  Ru  Ru13  1  0.879232  0.792167  0.500000  1
  Ru  Ru14  1  0.727131  0.891259  0.000000  1
  Ru  Ru15  1  0.108741  0.835870  0.000000  1
  Ru  Ru16  1  0.164130  0.272869  0.000000  1
  Ru  Ru17  1  0.425969  0.069727  0.000000  1
  Ru  Ru18  1  0.930273  0.356243  0.000000  1
  Ru  Ru19  1  0.643757  0.574031  0.000000  1
  Ru  Ru20  1  0.051427  0.607573  0.500000  1
