# generated using pymatgen
data_Sr4CoAgH12
_symmetry_space_group_name_H-M   'P 1'
_cell_length_a   7.53359726
_cell_length_b   7.53359625
_cell_length_c   5.52040504
_cell_angle_alpha   90.00479946
_cell_angle_beta   90.00479313
_cell_angle_gamma   137.05221245
_symmetry_Int_Tables_number   1
_chemical_formula_structural   Sr4CoAgH12
_chemical_formula_sum   'Sr4 Co1 Ag1 H12'
_cell_volume   213.46870272
_cell_formula_units_Z   1
loop_
 _symmetry_equiv_pos_site_id
 _symmetry_equiv_pos_as_xyz
  1  'x, y, z'
loop_
 _atom_site_type_symbol
 _atom_site_label
 _atom_site_symmetry_multiplicity
 _atom_site_fract_x
 _atom_site_fract_y
 _atom_site_fract_z
 _atom_site_occupancy
  Sr  Sr0  1  0.146268  0.853732  0.500000  1
  Sr  Sr1  1  0.646994  0.353006  0.000000  1
  Sr  Sr2  1  0.853732  0.146268  0.500000  1
  Sr  Sr3  1  0.353006  0.646994  0.000000  1
  Co  Co4  1  0.500000  0.500000  0.500000  1
  Ag  Ag5  1  0.000000  0.000000  0.000000  1
  H  H6  1  0.999924  0.500023  0.749399  1
  H  H7  1  0.499977  0.000076  0.250601  1
  H  H8  1  0.000076  0.499977  0.250601  1
  H  H9  1  0.500023  0.999924  0.749399  1
  H  H10  1  0.388681  0.611319  0.500000  1
  H  H11  1  0.876409  0.123591  0.000000  1
  H  H12  1  0.611319  0.388681  0.500000  1
  H  H13  1  0.123591  0.876409  0.000000  1
  H  H14  1  0.297309  0.297309  0.702872  1
  H  H15  1  0.702691  0.702691  0.297128  1
  H  H16  1  0.297115  0.297115  0.297187  1
  H  H17  1  0.702885  0.702885  0.702813  1
