# generated using pymatgen
data_CeGd5PaO12
_symmetry_space_group_name_H-M   'P 1'
_cell_length_a   6.66775885
_cell_length_b   6.71368116
_cell_length_c   6.69480923
_cell_angle_alpha   99.36459477
_cell_angle_beta   99.03832372
_cell_angle_gamma   99.42308246
_symmetry_Int_Tables_number   1
_chemical_formula_structural   CeGd5PaO12
_chemical_formula_sum   'Ce1 Gd5 Pa1 O12'
_cell_volume   286.46611140
_cell_formula_units_Z   1
loop_
 _symmetry_equiv_pos_site_id
 _symmetry_equiv_pos_as_xyz
  1  'x, y, z'
loop_
 _atom_site_type_symbol
 _atom_site_label
 _atom_site_symmetry_multiplicity
 _atom_site_fract_x
 _atom_site_fract_y
 _atom_site_fract_z
 _atom_site_occupancy
  Ce  Ce0  1  0.857843  0.394555  0.685764  1
  Gd  Gd1  1  0.606843  0.311873  0.141954  1
  Gd  Gd2  1  0.310541  0.137065  0.607784  1
  Gd  Gd3  1  0.686245  0.856601  0.391096  1
  Gd  Gd4  1  0.392715  0.691694  0.859420  1
  Gd  Gd5  1  0.144310  0.609321  0.311438  1
  Pa  Pa6  1  0.999350  0.001614  0.001295  1
  O  O7  1  0.925110  0.058737  0.687210  1
  O  O8  1  0.943205  0.314694  0.072871  1
  O  O9  1  0.590371  0.180248  0.434085  1
  O  O10  1  0.822388  0.567539  0.421409  1
  O  O11  1  0.313555  0.074238  0.944890  1
  O  O12  1  0.575943  0.415476  0.816933  1
  O  O13  1  0.432055  0.583540  0.175589  1
  O  O14  1  0.686514  0.925576  0.055511  1
  O  O15  1  0.170421  0.428033  0.588056  1
  O  O16  1  0.414101  0.821053  0.568685  1
  O  O17  1  0.053456  0.684326  0.922769  1
  O  O18  1  0.075034  0.943816  0.313239  1
