# generated using pymatgen
data_Pr3MnSe2N3
_symmetry_space_group_name_H-M   'P 1'
_cell_length_a   10.46337588
_cell_length_b   11.53043042
_cell_length_c   11.53042900
_cell_angle_alpha   111.26938920
_cell_angle_beta   107.60697529
_cell_angle_gamma   107.60697007
_symmetry_Int_Tables_number   1
_chemical_formula_structural   Pr3MnSe2N3
_chemical_formula_sum   'Pr18 Mn6 Se12 N18'
_cell_volume   1094.50934661
_cell_formula_units_Z   6
loop_
 _symmetry_equiv_pos_site_id
 _symmetry_equiv_pos_as_xyz
  1  'x, y, z'
loop_
 _atom_site_type_symbol
 _atom_site_label
 _atom_site_symmetry_multiplicity
 _atom_site_fract_x
 _atom_site_fract_y
 _atom_site_fract_z
 _atom_site_occupancy
  Pr  Pr0  1  0.666341  0.373011  0.059426  1
  Pr  Pr1  1  0.868447  0.835930  0.121815  1
  Pr  Pr2  1  0.032577  0.285909  0.164080  1
  Pr  Pr3  1  0.161126  0.722422  0.212177  1
  Pr  Pr4  1  0.438784  0.489712  0.277648  1
  Pr  Pr5  1  0.246345  0.117116  0.275199  1
  Pr  Pr6  1  0.606894  0.940513  0.313561  1
  Pr  Pr7  1  0.720787  0.319626  0.375343  1
  Pr  Pr8  1  0.044693  0.212402  0.486383  1
  Pr  Pr9  1  0.948929  0.787796  0.510203  1
  Pr  Pr10  1  0.293468  0.686541  0.626933  1
  Pr  Pr11  1  0.401077  0.055792  0.680311  1
  Pr  Pr12  1  0.746589  0.878188  0.713990  1
  Pr  Pr13  1  0.558345  0.513636  0.725934  1
  Pr  Pr14  1  0.832474  0.274059  0.787751  1
  Pr  Pr15  1  0.971090  0.725024  0.842061  1
  Pr  Pr16  1  0.129056  0.157907  0.882922  1
  Pr  Pr17  1  0.345310  0.624605  0.944167  1
  Mn  Mn18  1  0.291568  0.893881  0.080534  1
  Mn  Mn19  1  0.397617  0.186604  0.106069  1
  Mn  Mn20  1  0.780945  0.074660  0.171562  1
  Mn  Mn21  1  0.211045  0.919434  0.813328  1
  Mn  Mn22  1  0.609431  0.828479  0.903043  1
  Mn  Mn23  1  0.706163  0.096816  0.925277  1
  Se  Se24  1  0.162147  0.456684  0.039892  1
  Se  Se25  1  0.651639  0.670623  0.209602  1
  Se  Se26  1  0.980956  0.538782  0.329365  1
  Se  Se27  1  0.121918  0.960377  0.416947  1
  Se  Se28  1  0.291614  0.415132  0.458530  1
  Se  Se29  1  0.442091  0.790730  0.461229  1
  Se  Se30  1  0.556059  0.204546  0.529092  1
  Se  Se31  1  0.705274  0.582951  0.543401  1
  Se  Se32  1  0.876587  0.043596  0.585045  1
  Se  Se33  1  0.026722  0.470728  0.675716  1
  Se  Se34  1  0.351280  0.324411  0.795256  1
  Se  Se35  1  0.833078  0.541503  0.956496  1
  N  N36  1  0.649643  0.887723  0.086414  1
  N  N37  1  0.761864  0.198797  0.112340  1
  N  N38  1  0.115060  0.867365  0.100615  1
  N  N39  1  0.247725  0.233181  0.132736  1
  N  N40  1  0.349089  0.792157  0.145860  1
  N  N41  1  0.426810  0.072946  0.169010  1
  N  N42  1  0.557004  0.353744  0.207835  1
  N  N43  1  0.977315  0.098067  0.226152  1
  N  N44  1  0.792702  0.145037  0.348820  1
  N  N45  1  0.203247  0.854112  0.646170  1
  N  N46  1  0.014385  0.899438  0.766690  1
  N  N47  1  0.443939  0.651189  0.796235  1
  N  N48  1  0.563067  0.913507  0.801128  1
  N  N49  1  0.647633  0.203700  0.854916  1
  N  N50  1  0.751205  0.773910  0.871853  1
  N  N51  1  0.879283  0.128084  0.901984  1
  N  N52  1  0.257811  0.830974  0.903988  1
  N  N53  1  0.353751  0.095934  0.926963  1
