# generated using pymatgen
data_TbDy3(Si5Os3)2
_symmetry_space_group_name_H-M   'P 1'
_cell_length_a   8.14096839
_cell_length_b   8.14159728
_cell_length_c   5.80361567
_cell_angle_alpha   70.50148203
_cell_angle_beta   70.46884668
_cell_angle_gamma   93.93486070
_symmetry_Int_Tables_number   1
_chemical_formula_structural   TbDy3(Si5Os3)2
_chemical_formula_sum   'Tb1 Dy3 Si10 Os6'
_cell_volume   334.63676668
_cell_formula_units_Z   1
loop_
 _symmetry_equiv_pos_site_id
 _symmetry_equiv_pos_as_xyz
  1  'x, y, z'
loop_
 _atom_site_type_symbol
 _atom_site_label
 _atom_site_symmetry_multiplicity
 _atom_site_fract_x
 _atom_site_fract_y
 _atom_site_fract_z
 _atom_site_occupancy
  Tb  Tb0  1  0.867747  0.602750  0.753397  1
  Dy  Dy1  1  0.399342  0.130535  0.745937  1
  Dy  Dy2  1  0.130933  0.398503  0.246591  1
  Dy  Dy3  1  0.601585  0.867962  0.254641  1
  Si  Si4  1  0.068844  0.261110  0.834260  1
  Si  Si5  1  0.737699  0.933767  0.666233  1
  Si  Si6  1  0.932579  0.738817  0.165577  1
  Si  Si7  1  0.261636  0.067906  0.334128  1
  Si  Si8  1  0.206567  0.793558  0.749799  1
  Si  Si9  1  0.793383  0.206393  0.250623  1
  Si  Si10  1  0.511934  0.486754  0.749979  1
  Si  Si11  1  0.487232  0.511976  0.250028  1
  Si  Si12  1  0.774582  0.225452  0.749483  1
  Si  Si13  1  0.225568  0.774430  0.250034  1
  Os  Os14  1  0.255780  0.543566  0.631202  1
  Os  Os15  1  0.455965  0.743825  0.868804  1
  Os  Os16  1  0.744233  0.456531  0.368391  1
  Os  Os17  1  0.544099  0.255309  0.130967  1
  Os  Os18  1  0.002364  0.998294  0.749875  1
  Os  Os19  1  0.997928  0.002561  0.250053  1
