# generated using pymatgen
data_Ca20Zn8GaPb3
_symmetry_space_group_name_H-M   'P 1'
_cell_length_a   8.03088500
_cell_length_b   8.03088500
_cell_length_c   14.98290300
_cell_angle_alpha   90.00000000
_cell_angle_beta   90.00000000
_cell_angle_gamma   90.00000000
_symmetry_Int_Tables_number   1
_chemical_formula_structural   Ca20Zn8GaPb3
_chemical_formula_sum   'Ca20 Zn8 Ga1 Pb3'
_cell_volume   966.32403529
_cell_formula_units_Z   1
loop_
 _symmetry_equiv_pos_site_id
 _symmetry_equiv_pos_as_xyz
  1  'x, y, z'
loop_
 _atom_site_type_symbol
 _atom_site_label
 _atom_site_symmetry_multiplicity
 _atom_site_fract_x
 _atom_site_fract_y
 _atom_site_fract_z
 _atom_site_occupancy
  Ca  Ca0  1  0.677446  0.166389  0.103041  1
  Ca  Ca1  1  0.171415  0.671736  0.606234  1
  Ca  Ca2  1  0.322554  0.833611  0.103041  1
  Ca  Ca3  1  0.828585  0.328264  0.606234  1
  Ca  Ca4  1  0.833611  0.677446  0.103041  1
  Ca  Ca5  1  0.328264  0.171415  0.606234  1
  Ca  Ca6  1  0.166389  0.322554  0.103041  1
  Ca  Ca7  1  0.671736  0.828585  0.606234  1
  Ca  Ca8  1  0.833611  0.322554  0.896959  1
  Ca  Ca9  1  0.328264  0.828585  0.393766  1
  Ca  Ca10  1  0.166389  0.677446  0.896959  1
  Ca  Ca11  1  0.671736  0.171415  0.393766  1
  Ca  Ca12  1  0.677446  0.833611  0.896959  1
  Ca  Ca13  1  0.171415  0.328264  0.393766  1
  Ca  Ca14  1  0.322554  0.166389  0.896959  1
  Ca  Ca15  1  0.828585  0.671736  0.393766  1
  Ca  Ca16  1  0.500000  0.500000  0.755571  1
  Ca  Ca17  1  0.000000  0.000000  0.248820  1
  Ca  Ca18  1  0.000000  0.000000  0.751180  1
  Ca  Ca19  1  0.500000  0.500000  0.244429  1
  Zn  Zn20  1  0.613395  0.114138  0.751384  1
  Zn  Zn21  1  0.114138  0.613395  0.248616  1
  Zn  Zn22  1  0.885862  0.386605  0.248616  1
  Zn  Zn23  1  0.386605  0.885862  0.751384  1
  Zn  Zn24  1  0.885862  0.613395  0.751384  1
  Zn  Zn25  1  0.386605  0.114138  0.248616  1
  Zn  Zn26  1  0.114138  0.386605  0.751384  1
  Zn  Zn27  1  0.613395  0.885862  0.248616  1
  Ga  Ga28  1  0.000000  0.000000  0.000000  1
  Pb  Pb29  1  0.500000  0.500000  0.500000  1
  Pb  Pb30  1  0.500000  0.500000  0.000000  1
  Pb  Pb31  1  0.000000  0.000000  0.500000  1
