# generated using pymatgen
data_PrEr5HfCo17P12
_symmetry_space_group_name_H-M   'P 1'
_cell_length_a   3.70533500
_cell_length_b   10.60077400
_cell_length_c   12.29439100
_cell_angle_alpha   90.00000000
_cell_angle_beta   90.00000000
_cell_angle_gamma   90.00000000
_symmetry_Int_Tables_number   1
_chemical_formula_structural   PrEr5HfCo17P12
_chemical_formula_sum   'Pr1 Er5 Hf1 Co17 P12'
_cell_volume   482.91653457
_cell_formula_units_Z   1
loop_
 _symmetry_equiv_pos_site_id
 _symmetry_equiv_pos_as_xyz
  1  'x, y, z'
loop_
 _atom_site_type_symbol
 _atom_site_label
 _atom_site_symmetry_multiplicity
 _atom_site_fract_x
 _atom_site_fract_y
 _atom_site_fract_z
 _atom_site_occupancy
  Pr  Pr0  1  0.500000  0.000000  0.476977  1
  Er  Er1  1  0.000000  0.500000  0.528250  1
  Er  Er2  1  0.500000  0.821077  0.206167  1
  Er  Er3  1  0.500000  0.178923  0.206167  1
  Er  Er4  1  0.000000  0.682056  0.796258  1
  Er  Er5  1  0.000000  0.317944  0.796258  1
  Hf  Hf6  1  0.500000  0.500000  0.153422  1
  Co  Co7  1  0.000000  0.000000  0.840079  1
  Co  Co8  1  0.500000  0.500000  0.703047  1
  Co  Co9  1  0.000000  0.000000  0.292737  1
  Co  Co10  1  0.000000  0.500000  0.984105  1
  Co  Co11  1  0.500000  0.000000  0.012964  1
  Co  Co12  1  0.500000  0.327961  0.989133  1
  Co  Co13  1  0.500000  0.672039  0.989133  1
  Co  Co14  1  0.000000  0.162592  0.002232  1
  Co  Co15  1  0.000000  0.837408  0.002232  1
  Co  Co16  1  0.500000  0.297743  0.433464  1
  Co  Co17  1  0.500000  0.702257  0.433464  1
  Co  Co18  1  0.000000  0.206278  0.571475  1
  Co  Co19  1  0.000000  0.793722  0.571475  1
  Co  Co20  1  0.500000  0.879189  0.709925  1
  Co  Co21  1  0.500000  0.120811  0.709925  1
  Co  Co22  1  0.000000  0.621629  0.293736  1
  Co  Co23  1  0.000000  0.378371  0.293736  1
  P  P24  1  0.500000  0.500000  0.881110  1
  P  P25  1  0.000000  0.000000  0.115674  1
  P  P26  1  0.500000  0.500000  0.360666  1
  P  P27  1  0.000000  0.000000  0.659825  1
  P  P28  1  0.500000  0.310704  0.618153  1
  P  P29  1  0.500000  0.689296  0.618153  1
  P  P30  1  0.000000  0.192917  0.384316  1
  P  P31  1  0.000000  0.807083  0.384316  1
  P  P32  1  0.500000  0.850662  0.889655  1
  P  P33  1  0.500000  0.149338  0.889655  1
  P  P34  1  0.000000  0.664249  0.101057  1
  P  P35  1  0.000000  0.335751  0.101057  1
