# generated using pymatgen
data_Tb2Tm2SiBr6
_symmetry_space_group_name_H-M   'P 1'
_cell_length_a   4.03935200
_cell_length_b   13.18259100
_cell_length_c   13.93480700
_cell_angle_alpha   90.00000000
_cell_angle_beta   90.00000000
_cell_angle_gamma   90.00000000
_symmetry_Int_Tables_number   1
_chemical_formula_structural   Tb2Tm2SiBr6
_chemical_formula_sum   'Tb4 Tm4 Si2 Br12'
_cell_volume   742.01628427
_cell_formula_units_Z   2
loop_
 _symmetry_equiv_pos_site_id
 _symmetry_equiv_pos_as_xyz
  1  'x, y, z'
loop_
 _atom_site_type_symbol
 _atom_site_label
 _atom_site_symmetry_multiplicity
 _atom_site_fract_x
 _atom_site_fract_y
 _atom_site_fract_z
 _atom_site_occupancy
  Tb  Tb0  1  0.000000  0.118890  0.579059  1
  Tb  Tb1  1  0.000000  0.881110  0.420941  1
  Tb  Tb2  1  0.000000  0.618890  0.920941  1
  Tb  Tb3  1  0.000000  0.381110  0.079059  1
  Tm  Tm4  1  0.500000  0.117565  0.341747  1
  Tm  Tm5  1  0.500000  0.882435  0.658253  1
  Tm  Tm6  1  0.500000  0.617565  0.158253  1
  Tm  Tm7  1  0.500000  0.382435  0.841747  1
  Si  Si8  1  0.500000  0.000000  0.500000  1
  Si  Si9  1  0.500000  0.500000  0.000000  1
  Br  Br10  1  0.500000  0.241458  0.164921  1
  Br  Br11  1  0.500000  0.758542  0.835079  1
  Br  Br12  1  0.500000  0.741458  0.335079  1
  Br  Br13  1  0.500000  0.258542  0.664921  1
  Br  Br14  1  0.000000  0.254658  0.408811  1
  Br  Br15  1  0.000000  0.745342  0.591189  1
  Br  Br16  1  0.000000  0.754658  0.091189  1
  Br  Br17  1  0.000000  0.245342  0.908811  1
  Br  Br18  1  0.000000  0.004587  0.242574  1
  Br  Br19  1  0.000000  0.995413  0.757426  1
  Br  Br20  1  0.000000  0.504587  0.257426  1
  Br  Br21  1  0.000000  0.495413  0.742574  1
