# generated using pymatgen
data_Np(PS3)2
_symmetry_space_group_name_H-M   'P 1'
_cell_length_a   7.03555800
_cell_length_b   7.03555800
_cell_length_c   9.72050700
_cell_angle_alpha   90.00000000
_cell_angle_beta   90.00000000
_cell_angle_gamma   90.00000000
_symmetry_Int_Tables_number   1
_chemical_formula_structural   Np(PS3)2
_chemical_formula_sum   'Np2 P4 S12'
_cell_volume   481.15611837
_cell_formula_units_Z   2
loop_
 _symmetry_equiv_pos_site_id
 _symmetry_equiv_pos_as_xyz
  1  'x, y, z'
loop_
 _atom_site_type_symbol
 _atom_site_label
 _atom_site_symmetry_multiplicity
 _atom_site_fract_x
 _atom_site_fract_y
 _atom_site_fract_z
 _atom_site_occupancy
  Np  Np0  1  0.000000  0.000000  0.750000  1
  Np  Np1  1  0.000000  0.000000  0.250000  1
  P  P2  1  0.654457  0.057740  0.000000  1
  P  P3  1  0.345543  0.942260  0.000000  1
  P  P4  1  0.057740  0.345543  0.500000  1
  P  P5  1  0.942260  0.654457  0.500000  1
  S  S6  1  0.208352  0.314433  0.675771  1
  S  S7  1  0.685567  0.208352  0.175771  1
  S  S8  1  0.171233  0.175092  0.000000  1
  S  S9  1  0.824908  0.171233  0.500000  1
  S  S10  1  0.175092  0.828767  0.500000  1
  S  S11  1  0.828767  0.824908  0.000000  1
  S  S12  1  0.208352  0.314433  0.324229  1
  S  S13  1  0.685567  0.208352  0.824229  1
  S  S14  1  0.314433  0.791648  0.824229  1
  S  S15  1  0.791648  0.685567  0.324229  1
  S  S16  1  0.791648  0.685567  0.675771  1
  S  S17  1  0.314433  0.791648  0.175771  1
