# generated using pymatgen
data_Zr4Zn2B4Ir7Ru3
_symmetry_space_group_name_H-M   'P 1'
_cell_length_a   9.42635306
_cell_length_b   9.45708402
_cell_length_c   3.10002800
_cell_angle_alpha   90.00000000
_cell_angle_beta   90.00000000
_cell_angle_gamma   89.90808184
_symmetry_Int_Tables_number   1
_chemical_formula_structural   Zr4Zn2B4Ir7Ru3
_chemical_formula_sum   'Zr4 Zn2 B4 Ir7 Ru3'
_cell_volume   276.35416027
_cell_formula_units_Z   1
loop_
 _symmetry_equiv_pos_site_id
 _symmetry_equiv_pos_as_xyz
  1  'x, y, z'
loop_
 _atom_site_type_symbol
 _atom_site_label
 _atom_site_symmetry_multiplicity
 _atom_site_fract_x
 _atom_site_fract_y
 _atom_site_fract_z
 _atom_site_occupancy
  Zr  Zr0  1  0.669721  0.177037  0.000000  1
  Zr  Zr1  1  0.325100  0.826373  0.000000  1
  Zr  Zr2  1  0.179544  0.324978  0.000000  1
  Zr  Zr3  1  0.825641  0.673861  0.000000  1
  Zn  Zn4  1  0.999914  0.000492  0.000000  1
  Zn  Zn5  1  0.499342  0.496784  0.000000  1
  B  B6  1  0.124256  0.623601  0.000000  1
  B  B7  1  0.876452  0.376267  0.000000  1
  B  B8  1  0.622844  0.876046  0.000000  1
  B  B9  1  0.377340  0.126809  0.000000  1
  Ir  Ir10  1  0.216695  0.069045  0.500000  1
  Ir  Ir11  1  0.782454  0.929844  0.500000  1
  Ir  Ir12  1  0.068973  0.783059  0.500000  1
  Ir  Ir13  1  0.718092  0.430921  0.500000  1
  Ir  Ir14  1  0.929553  0.217203  0.500000  1
  Ir  Ir15  1  0.283583  0.572194  0.500000  1
  Ir  Ir16  1  0.570169  0.715812  0.500000  1
  Ru  Ru17  1  0.429536  0.281873  0.500000  1
  Ru  Ru18  1  0.499177  0.998356  0.500000  1
  Ru  Ru19  1  0.001612  0.499444  0.500000  1
