# generated using pymatgen
data_Na12Cr7FeN16
_symmetry_space_group_name_H-M   'P 1'
_cell_length_a   5.56070900
_cell_length_b   9.73662628
_cell_length_c   9.43229094
_cell_angle_alpha   90.38145546
_cell_angle_beta   90.00000000
_cell_angle_gamma   90.00000000
_symmetry_Int_Tables_number   1
_chemical_formula_structural   Na12Cr7FeN16
_chemical_formula_sum   'Na12 Cr7 Fe1 N16'
_cell_volume   510.67692225
_cell_formula_units_Z   1
loop_
 _symmetry_equiv_pos_site_id
 _symmetry_equiv_pos_as_xyz
  1  'x, y, z'
loop_
 _atom_site_type_symbol
 _atom_site_label
 _atom_site_symmetry_multiplicity
 _atom_site_fract_x
 _atom_site_fract_y
 _atom_site_fract_z
 _atom_site_occupancy
  Na  Na0  1  0.639925  0.157885  0.418648  1
  Na  Na1  1  0.859732  0.844197  0.417221  1
  Na  Na2  1  0.639925  0.342115  0.081352  1
  Na  Na3  1  0.859732  0.655803  0.082779  1
  Na  Na4  1  0.358512  0.843178  0.582948  1
  Na  Na5  1  0.140425  0.158777  0.583667  1
  Na  Na6  1  0.358512  0.656822  0.917052  1
  Na  Na7  1  0.140425  0.341223  0.916333  1
  Na  Na8  1  0.749809  0.500646  0.410329  1
  Na  Na9  1  0.749809  0.999354  0.089671  1
  Na  Na10  1  0.249490  0.500043  0.589496  1
  Na  Na11  1  0.249490  0.999957  0.910504  1
  Cr  Cr12  1  0.749331  0.494822  0.738209  1
  Cr  Cr13  1  0.749331  0.005178  0.761791  1
  Cr  Cr14  1  0.250017  0.500056  0.262515  1
  Cr  Cr15  1  0.250017  0.999944  0.237485  1
  Cr  Cr16  1  0.799508  0.750000  0.750000  1
  Cr  Cr17  1  0.303965  0.750000  0.250000  1
  Cr  Cr18  1  0.195649  0.250000  0.250000  1
  Fe  Fe19  1  0.699875  0.250000  0.750000  1
  N  N20  1  0.889629  0.360180  0.640268  1
  N  N21  1  0.614172  0.637660  0.640210  1
  N  N22  1  0.889629  0.139820  0.859732  1
  N  N23  1  0.614172  0.862340  0.859790  1
  N  N24  1  0.117259  0.641492  0.361792  1
  N  N25  1  0.383119  0.359921  0.361398  1
  N  N26  1  0.117259  0.858508  0.138208  1
  N  N27  1  0.383119  0.140079  0.138602  1
  N  N28  1  0.544590  0.394897  0.838013  1
  N  N29  1  0.954819  0.606565  0.836364  1
  N  N30  1  0.544590  0.105103  0.661987  1
  N  N31  1  0.954819  0.893435  0.663636  1
  N  N32  1  0.458795  0.605289  0.163889  1
  N  N33  1  0.040876  0.393954  0.164150  1
  N  N34  1  0.458795  0.894711  0.336111  1
  N  N35  1  0.040876  0.106046  0.335850  1
