# generated using pymatgen
data_Th3Al2ZnPdPt2
_symmetry_space_group_name_H-M   'P 1'
_cell_length_a   7.30192759
_cell_length_b   7.30192685
_cell_length_c   4.16796700
_cell_angle_alpha   90.00000000
_cell_angle_beta   90.00000000
_cell_angle_gamma   119.20787530
_symmetry_Int_Tables_number   1
_chemical_formula_structural   Th3Al2ZnPdPt2
_chemical_formula_sum   'Th3 Al2 Zn1 Pd1 Pt2'
_cell_volume   193.97304427
_cell_formula_units_Z   1
loop_
 _symmetry_equiv_pos_site_id
 _symmetry_equiv_pos_as_xyz
  1  'x, y, z'
loop_
 _atom_site_type_symbol
 _atom_site_label
 _atom_site_symmetry_multiplicity
 _atom_site_fract_x
 _atom_site_fract_y
 _atom_site_fract_z
 _atom_site_occupancy
  Th  Th0  1  0.422615  0.422615  0.500000  1
  Th  Th1  1  0.582620  0.996330  0.500000  1
  Th  Th2  1  0.996330  0.582620  0.500000  1
  Al  Al3  1  0.233043  0.000758  0.000000  1
  Al  Al4  1  0.000758  0.233043  0.000000  1
  Zn  Zn5  1  0.761599  0.761599  0.000000  1
  Pd  Pd6  1  0.013278  0.013278  0.500000  1
  Pt  Pt7  1  0.665801  0.323956  0.000000  1
  Pt  Pt8  1  0.323956  0.665801  0.000000  1
