# generated using pymatgen
data_Dy6Y10Cd4TcNi3
_symmetry_space_group_name_H-M   'P 1'
_cell_length_a   9.62381513
_cell_length_b   9.63299325
_cell_length_c   9.63299245
_cell_angle_alpha   59.35613808
_cell_angle_beta   59.46371209
_cell_angle_gamma   59.46371157
_symmetry_Int_Tables_number   1
_chemical_formula_structural   Dy6Y10Cd4TcNi3
_chemical_formula_sum   'Dy6 Y10 Cd4 Tc1 Ni3'
_cell_volume   623.25105779
_cell_formula_units_Z   1
loop_
 _symmetry_equiv_pos_site_id
 _symmetry_equiv_pos_as_xyz
  1  'x, y, z'
loop_
 _atom_site_type_symbol
 _atom_site_label
 _atom_site_symmetry_multiplicity
 _atom_site_fract_x
 _atom_site_fract_y
 _atom_site_fract_z
 _atom_site_occupancy
  Dy  Dy0  1  0.597516  0.597295  0.597295  1
  Dy  Dy1  1  0.601495  0.601319  0.204629  1
  Dy  Dy2  1  0.601495  0.204629  0.601319  1
  Dy  Dy3  1  0.204632  0.601483  0.601483  1
  Dy  Dy4  1  0.061595  0.437661  0.437661  1
  Dy  Dy5  1  0.437415  0.060655  0.060655  1
  Y  Y6  1  0.437760  0.061203  0.437860  1
  Y  Y7  1  0.060437  0.437470  0.060512  1
  Y  Y8  1  0.437760  0.437860  0.061203  1
  Y  Y9  1  0.060437  0.060512  0.437470  1
  Y  Y10  1  0.186294  0.814671  0.814671  1
  Y  Y11  1  0.805829  0.189068  0.189068  1
  Y  Y12  1  0.814432  0.186595  0.814611  1
  Y  Y13  1  0.189206  0.805415  0.189318  1
  Y  Y14  1  0.814432  0.814611  0.186595  1
  Y  Y15  1  0.189206  0.189318  0.805415  1
  Cd  Cd16  1  0.829796  0.829530  0.829530  1
  Cd  Cd17  1  0.829629  0.829908  0.506224  1
  Cd  Cd18  1  0.829629  0.506224  0.829908  1
  Cd  Cd19  1  0.506333  0.829620  0.829620  1
  Tc  Tc20  1  0.393152  0.395493  0.395493  1
  Ni  Ni21  1  0.393540  0.391748  0.824292  1
  Ni  Ni22  1  0.393540  0.824292  0.391748  1
  Ni  Ni23  1  0.824437  0.393414  0.393414  1
