# generated using pymatgen
data_GdTmSi2O7
_symmetry_space_group_name_H-M   'P 1'
_cell_length_a   5.70749742
_cell_length_b   5.70749727
_cell_length_c   4.77193900
_cell_angle_alpha   82.79246214
_cell_angle_beta   82.79245708
_cell_angle_gamma   105.23227919
_symmetry_Int_Tables_number   1
_chemical_formula_structural   GdTmSi2O7
_chemical_formula_sum   'Gd1 Tm1 Si2 O7'
_cell_volume   146.75003789
_cell_formula_units_Z   1
loop_
 _symmetry_equiv_pos_site_id
 _symmetry_equiv_pos_as_xyz
  1  'x, y, z'
loop_
 _atom_site_type_symbol
 _atom_site_label
 _atom_site_symmetry_multiplicity
 _atom_site_fract_x
 _atom_site_fract_y
 _atom_site_fract_z
 _atom_site_occupancy
  Gd  Gd0  1  0.303012  0.696988  0.500000  1
  Tm  Tm1  1  0.688989  0.311011  0.500000  1
  Si  Si2  1  0.217374  0.216061  0.088434  1
  Si  Si3  1  0.783939  0.782626  0.911566  1
  O  O4  1  0.379463  0.379689  0.785805  1
  O  O5  1  0.620311  0.620537  0.214195  1
  O  O6  1  0.018539  0.981461  0.000000  1
  O  O7  1  0.072893  0.376313  0.273686  1
  O  O8  1  0.390229  0.098435  0.284125  1
  O  O9  1  0.901565  0.609771  0.715875  1
  O  O10  1  0.623687  0.927107  0.726314  1
