# generated using pymatgen
data_Ta9Nb(Ga3B)2
_symmetry_space_group_name_H-M   'P 1'
_cell_length_a   7.78977100
_cell_length_b   7.78977162
_cell_length_c   5.34774800
_cell_angle_alpha   90.00000000
_cell_angle_beta   90.00000000
_cell_angle_gamma   120.00000162
_symmetry_Int_Tables_number   1
_chemical_formula_structural   Ta9Nb(Ga3B)2
_chemical_formula_sum   'Ta9 Nb1 Ga6 B2'
_cell_volume   281.02889408
_cell_formula_units_Z   1
loop_
 _symmetry_equiv_pos_site_id
 _symmetry_equiv_pos_as_xyz
  1  'x, y, z'
loop_
 _atom_site_type_symbol
 _atom_site_label
 _atom_site_symmetry_multiplicity
 _atom_site_fract_x
 _atom_site_fract_y
 _atom_site_fract_z
 _atom_site_occupancy
  Ta  Ta0  1  0.242306  0.000447  0.250232  1
  Ta  Ta1  1  0.758141  0.000447  0.749768  1
  Ta  Ta2  1  0.999553  0.241859  0.250232  1
  Ta  Ta3  1  0.999553  0.757694  0.749768  1
  Ta  Ta4  1  0.758141  0.757694  0.250232  1
  Ta  Ta5  1  0.242306  0.241859  0.749768  1
  Ta  Ta6  1  0.666667  0.333333  0.000000  1
  Ta  Ta7  1  0.666667  0.333333  0.500000  1
  Ta  Ta8  1  0.333333  0.666667  0.500000  1
  Nb  Nb9  1  0.333333  0.666667  0.000000  1
  Ga  Ga10  1  0.598298  0.999833  0.250107  1
  Ga  Ga11  1  0.401536  0.999833  0.749893  1
  Ga  Ga12  1  0.000167  0.598464  0.250107  1
  Ga  Ga13  1  0.000167  0.401702  0.749893  1
  Ga  Ga14  1  0.401536  0.401702  0.250107  1
  Ga  Ga15  1  0.598298  0.598464  0.749893  1
  B  B16  1  0.000000  0.000000  0.000000  1
  B  B17  1  0.000000  0.000000  0.500000  1
