# generated using pymatgen
data_Li8Dy5Ho3(Sn3Sb)2
_symmetry_space_group_name_H-M   'P 1'
_cell_length_a   9.38079903
_cell_length_b   9.38459683
_cell_length_c   7.23442314
_cell_angle_alpha   89.99995946
_cell_angle_beta   90.07351203
_cell_angle_gamma   120.01344383
_symmetry_Int_Tables_number   1
_chemical_formula_structural   Li8Dy5Ho3(Sn3Sb)2
_chemical_formula_sum   'Li8 Dy5 Ho3 Sn6 Sb2'
_cell_volume   551.48113975
_cell_formula_units_Z   1
loop_
 _symmetry_equiv_pos_site_id
 _symmetry_equiv_pos_as_xyz
  1  'x, y, z'
loop_
 _atom_site_type_symbol
 _atom_site_label
 _atom_site_symmetry_multiplicity
 _atom_site_fract_x
 _atom_site_fract_y
 _atom_site_fract_z
 _atom_site_occupancy
  Li  Li0  1  0.167097  0.333801  0.285134  1
  Li  Li1  1  0.167096  0.833296  0.285135  1
  Li  Li2  1  0.666260  0.833131  0.285290  1
  Li  Li3  1  0.832385  0.666121  0.785852  1
  Li  Li4  1  0.832385  0.166262  0.785853  1
  Li  Li5  1  0.334186  0.167092  0.786967  1
  Li  Li6  1  0.334226  0.667113  0.674402  1
  Li  Li7  1  0.666707  0.333353  0.176319  1
  Dy  Dy8  1  0.513626  0.023671  0.492096  1
  Dy  Dy9  1  0.513625  0.489954  0.492097  1
  Dy  Dy10  1  0.975735  0.487866  0.490885  1
  Dy  Dy11  1  0.490369  0.978392  0.995261  1
  Dy  Dy12  1  0.490368  0.511977  0.995260  1
  Ho  Ho13  1  0.019846  0.509922  0.996585  1
  Ho  Ho14  1  0.998075  0.999037  0.496852  1
  Ho  Ho15  1  0.998030  0.999014  0.002674  1
  Sn  Sn16  1  0.667132  0.833565  0.731957  1
  Sn  Sn17  1  0.834430  0.667257  0.232034  1
  Sn  Sn18  1  0.834427  0.167171  0.232032  1
  Sn  Sn19  1  0.332694  0.166347  0.231983  1
  Sn  Sn20  1  0.332220  0.666117  0.259492  1
  Sn  Sn21  1  0.667389  0.333692  0.760588  1
  Sb  Sb22  1  0.165847  0.333007  0.733610  1
  Sb  Sb23  1  0.165847  0.832839  0.733610  1
