# generated using pymatgen
data_Th3In3IrPd2
_symmetry_space_group_name_H-M   'P 1'
_cell_length_a   7.72875800
_cell_length_b   7.72875820
_cell_length_c   4.09579500
_cell_angle_alpha   90.00000000
_cell_angle_beta   90.00000000
_cell_angle_gamma   119.99999914
_symmetry_Int_Tables_number   1
_chemical_formula_structural   Th3In3IrPd2
_chemical_formula_sum   'Th3 In3 Ir1 Pd2'
_cell_volume   211.87917652
_cell_formula_units_Z   1
loop_
 _symmetry_equiv_pos_site_id
 _symmetry_equiv_pos_as_xyz
  1  'x, y, z'
loop_
 _atom_site_type_symbol
 _atom_site_label
 _atom_site_symmetry_multiplicity
 _atom_site_fract_x
 _atom_site_fract_y
 _atom_site_fract_z
 _atom_site_occupancy
  Th  Th0  1  0.011684  0.588870  0.000000  1
  Th  Th1  1  0.411130  0.422814  0.000000  1
  Th  Th2  1  0.577186  0.988316  0.000000  1
  In  In3  1  0.754127  0.748472  0.500000  1
  In  In4  1  0.994345  0.245873  0.500000  1
  In  In5  1  0.251528  0.005655  0.500000  1
  Ir  Ir6  1  0.333333  0.666667  0.500000  1
  Pd  Pd7  1  0.000000  0.000000  0.000000  1
  Pd  Pd8  1  0.666667  0.333333  0.500000  1
