# generated using pymatgen
data_Tb12Co5Pb
_symmetry_space_group_name_H-M   'P 1'
_cell_length_a   8.31196079
_cell_length_b   8.31196166
_cell_length_c   8.31196156
_cell_angle_alpha   110.79386758
_cell_angle_beta   110.58620219
_cell_angle_gamma   107.06023494
_symmetry_Int_Tables_number   1
_chemical_formula_structural   Tb12Co5Pb
_chemical_formula_sum   'Tb12 Co5 Pb1'
_cell_volume   441.48205866
_cell_formula_units_Z   1
loop_
 _symmetry_equiv_pos_site_id
 _symmetry_equiv_pos_as_xyz
  1  'x, y, z'
loop_
 _atom_site_type_symbol
 _atom_site_label
 _atom_site_symmetry_multiplicity
 _atom_site_fract_x
 _atom_site_fract_y
 _atom_site_fract_z
 _atom_site_occupancy
  Tb  Tb0  1  0.814964  0.707179  0.522143  1
  Tb  Tb1  1  0.185036  0.292821  0.477857  1
  Tb  Tb2  1  0.185036  0.707179  0.892216  1
  Tb  Tb3  1  0.814964  0.292821  0.107784  1
  Tb  Tb4  1  0.686873  0.379816  0.692944  1
  Tb  Tb5  1  0.313127  0.620184  0.307056  1
  Tb  Tb6  1  0.686873  0.993929  0.307056  1
  Tb  Tb7  1  0.313127  0.006071  0.692944  1
  Tb  Tb8  1  0.601572  0.794231  0.807342  1
  Tb  Tb9  1  0.398428  0.205769  0.192658  1
  Tb  Tb10  1  0.986889  0.794231  0.192658  1
  Tb  Tb11  1  0.013111  0.205769  0.807342  1
  Co  Co12  1  0.621253  0.000000  0.621253  1
  Co  Co13  1  0.378747  0.000000  0.378747  1
  Co  Co14  1  0.112137  0.612137  0.500000  1
  Co  Co15  1  0.887863  0.387863  0.500000  1
  Co  Co16  1  0.000000  0.000000  0.000000  1
  Pb  Pb17  1  0.500000  0.500000  0.000000  1
