# generated using pymatgen
data_Ho12ZnCo4Hg
_symmetry_space_group_name_H-M   'P 1'
_cell_length_a   8.27510626
_cell_length_b   8.27510627
_cell_length_c   8.27510680
_cell_angle_alpha   111.96014743
_cell_angle_beta   109.89270530
_cell_angle_gamma   106.60539337
_symmetry_Int_Tables_number   1
_chemical_formula_structural   Ho12ZnCo4Hg
_chemical_formula_sum   'Ho12 Zn1 Co4 Hg1'
_cell_volume   435.25037422
_cell_formula_units_Z   1
loop_
 _symmetry_equiv_pos_site_id
 _symmetry_equiv_pos_as_xyz
  1  'x, y, z'
loop_
 _atom_site_type_symbol
 _atom_site_label
 _atom_site_symmetry_multiplicity
 _atom_site_fract_x
 _atom_site_fract_y
 _atom_site_fract_z
 _atom_site_occupancy
  Ho  Ho0  1  0.960037  0.263642  0.696395  1
  Ho  Ho1  1  0.039963  0.736358  0.303605  1
  Ho  Ho2  1  0.674498  0.861169  0.186671  1
  Ho  Ho3  1  0.325502  0.512174  0.186671  1
  Ho  Ho4  1  0.325502  0.138831  0.813329  1
  Ho  Ho5  1  0.674498  0.487826  0.813329  1
  Ho  Ho6  1  0.567247  0.263642  0.303605  1
  Ho  Ho7  1  0.432753  0.736358  0.696395  1
  Ho  Ho8  1  0.179588  0.779733  0.959321  1
  Ho  Ho9  1  0.820412  0.779733  0.600146  1
  Ho  Ho10  1  0.179588  0.220267  0.399854  1
  Ho  Ho11  1  0.820412  0.220267  0.040679  1
  Zn  Zn12  1  0.000000  0.500000  0.500000  1
  Co  Co13  1  0.114670  0.114670  0.000000  1
  Co  Co14  1  0.885330  0.885330  0.000000  1
  Co  Co15  1  0.663837  0.500000  0.163837  1
  Co  Co16  1  0.336163  0.500000  0.836163  1
  Hg  Hg17  1  0.500000  0.000000  0.500000  1
