# generated using pymatgen
data_Y10Ga4IrRu5
_symmetry_space_group_name_H-M   'P 1'
_cell_length_a   8.34825590
_cell_length_b   8.36796829
_cell_length_c   8.36796834
_cell_angle_alpha   109.49407058
_cell_angle_beta   109.68043533
_cell_angle_gamma   109.33496838
_symmetry_Int_Tables_number   1
_chemical_formula_structural   Y10Ga4IrRu5
_chemical_formula_sum   'Y10 Ga4 Ir1 Ru5'
_cell_volume   449.46549067
_cell_formula_units_Z   1
loop_
 _symmetry_equiv_pos_site_id
 _symmetry_equiv_pos_as_xyz
  1  'x, y, z'
loop_
 _atom_site_type_symbol
 _atom_site_label
 _atom_site_symmetry_multiplicity
 _atom_site_fract_x
 _atom_site_fract_y
 _atom_site_fract_z
 _atom_site_occupancy
  Y  Y0  1  0.250000  0.681526  0.431526  1
  Y  Y1  1  0.750000  0.818142  0.068142  1
  Y  Y2  1  0.434253  0.251362  0.680643  1
  Y  Y3  1  0.680739  0.431563  0.249480  1
  Y  Y4  1  0.065747  0.746391  0.817109  1
  Y  Y5  1  0.819261  0.068741  0.750824  1
  Y  Y6  1  0.216193  0.217731  0.218269  1
  Y  Y7  1  0.500186  0.999635  0.284093  1
  Y  Y8  1  0.283807  0.502077  0.001538  1
  Y  Y9  1  0.999814  0.283906  0.499448  1
  Ga  Ga10  1  0.587123  0.587571  0.586921  1
  Ga  Ga11  1  0.500512  0.998280  0.911657  1
  Ga  Ga12  1  0.912877  0.499798  0.000448  1
  Ga  Ga13  1  0.999488  0.911146  0.497768  1
  Ir  Ir14  1  0.250000  0.124655  0.874655  1
  Ru  Ru15  1  0.750000  0.376426  0.626426  1
  Ru  Ru16  1  0.871782  0.249988  0.122243  1
  Ru  Ru17  1  0.123921  0.874296  0.250226  1
  Ru  Ru18  1  0.628217  0.750461  0.378205  1
  Ru  Ru19  1  0.376079  0.626304  0.750375  1
