# generated using pymatgen
data_Cs2Li6Tb3HoS10
_symmetry_space_group_name_H-M   'P 1'
_cell_length_a   4.04418200
_cell_length_b   7.64108361
_cell_length_c   16.95338342
_cell_angle_alpha   89.95471213
_cell_angle_beta   90.00000000
_cell_angle_gamma   74.65479011
_symmetry_Int_Tables_number   1
_chemical_formula_structural   Cs2Li6Tb3HoS10
_chemical_formula_sum   'Cs2 Li6 Tb3 Ho1 S10'
_cell_volume   505.21481126
_cell_formula_units_Z   1
loop_
 _symmetry_equiv_pos_site_id
 _symmetry_equiv_pos_as_xyz
  1  'x, y, z'
loop_
 _atom_site_type_symbol
 _atom_site_label
 _atom_site_symmetry_multiplicity
 _atom_site_fract_x
 _atom_site_fract_y
 _atom_site_fract_z
 _atom_site_occupancy
  Cs  Cs0  1  0.568111  0.863778  0.249907  1
  Cs  Cs1  1  0.431922  0.136157  0.750121  1
  Li  Li2  1  0.079952  0.840097  0.041544  1
  Li  Li3  1  0.854651  0.290699  0.249982  1
  Li  Li4  1  0.079817  0.840366  0.458292  1
  Li  Li5  1  0.920225  0.159550  0.541725  1
  Li  Li6  1  0.145489  0.709024  0.750341  1
  Li  Li7  1  0.920109  0.159783  0.958126  1
  Tb  Tb8  1  0.304996  0.390007  0.093860  1
  Tb  Tb9  1  0.305118  0.389763  0.405838  1
  Tb  Tb10  1  0.694934  0.610133  0.594564  1
  Ho  Ho11  1  0.694699  0.610603  0.905920  1
  S  S12  1  0.675244  0.649512  0.066538  1
  S  S13  1  0.929782  0.140436  0.109049  1
  S  S14  1  0.268498  0.463005  0.249933  1
  S  S15  1  0.929812  0.140376  0.390897  1
  S  S16  1  0.675173  0.649653  0.432415  1
  S  S17  1  0.324828  0.350345  0.567777  1
  S  S18  1  0.070234  0.859533  0.609069  1
  S  S19  1  0.731105  0.537790  0.751041  1
  S  S20  1  0.071785  0.856432  0.891153  1
  S  S21  1  0.323523  0.352954  0.931907  1
