# generated using pymatgen
data_Cs3Rb9(InTe3)4
_symmetry_space_group_name_H-M   'P 1'
_cell_length_a   15.25387135
_cell_length_b   9.25968232
_cell_length_c   11.83104303
_cell_angle_alpha   52.75659266
_cell_angle_beta   89.74105935
_cell_angle_gamma   89.67707346
_symmetry_Int_Tables_number   1
_chemical_formula_structural   Cs3Rb9(InTe3)4
_chemical_formula_sum   'Cs3 Rb9 In4 Te12'
_cell_volume   1330.28298580
_cell_formula_units_Z   1
loop_
 _symmetry_equiv_pos_site_id
 _symmetry_equiv_pos_as_xyz
  1  'x, y, z'
loop_
 _atom_site_type_symbol
 _atom_site_label
 _atom_site_symmetry_multiplicity
 _atom_site_fract_x
 _atom_site_fract_y
 _atom_site_fract_z
 _atom_site_occupancy
  Cs  Cs0  1  0.311860  0.154992  0.066093  1
  Cs  Cs1  1  0.686494  0.847183  0.933818  1
  Cs  Cs2  1  0.814425  0.847801  0.434884  1
  Rb  Rb3  1  0.895199  0.314026  0.405228  1
  Rb  Rb4  1  0.610947  0.360288  0.474577  1
  Rb  Rb5  1  0.111399  0.639372  0.026014  1
  Rb  Rb6  1  0.387438  0.640933  0.525907  1
  Rb  Rb7  1  0.890079  0.359840  0.974182  1
  Rb  Rb8  1  0.607862  0.311979  0.906603  1
  Rb  Rb9  1  0.107984  0.686057  0.594297  1
  Rb  Rb10  1  0.391698  0.688764  0.093167  1
  Rb  Rb11  1  0.187976  0.149774  0.571618  1
  In  In12  1  0.068214  0.941695  0.162137  1
  In  In13  1  0.565005  0.053732  0.338691  1
  In  In14  1  0.431336  0.951468  0.659969  1
  In  In15  1  0.934629  0.053334  0.837640  1
  Te  Te16  1  0.400350  0.191313  0.357080  1
  Te  Te17  1  0.902712  0.813082  0.140764  1
  Te  Te18  1  0.595331  0.811684  0.642105  1
  Te  Te19  1  0.100370  0.181978  0.857524  1
  Te  Te20  1  0.694719  0.324064  0.198618  1
  Te  Te21  1  0.194972  0.663556  0.307120  1
  Te  Te22  1  0.300205  0.685137  0.797906  1
  Te  Te23  1  0.804958  0.324953  0.698012  1
  Te  Te24  1  0.549599  0.856205  0.232315  1
  Te  Te25  1  0.053879  0.143284  0.265539  1
  Te  Te26  1  0.449026  0.146462  0.768088  1
  Te  Te27  1  0.951334  0.857041  0.730104  1
