# generated using pymatgen
data_NdZn2CdAu3
_symmetry_space_group_name_H-M   'P 1'
_cell_length_a   5.36035300
_cell_length_b   8.95966300
_cell_length_c   11.33709700
_cell_angle_alpha   90.00000000
_cell_angle_beta   90.00000000
_cell_angle_gamma   90.00000000
_symmetry_Int_Tables_number   1
_chemical_formula_structural   NdZn2CdAu3
_chemical_formula_sum   'Nd4 Zn8 Cd4 Au12'
_cell_volume   544.48626379
_cell_formula_units_Z   4
loop_
 _symmetry_equiv_pos_site_id
 _symmetry_equiv_pos_as_xyz
  1  'x, y, z'
loop_
 _atom_site_type_symbol
 _atom_site_label
 _atom_site_symmetry_multiplicity
 _atom_site_fract_x
 _atom_site_fract_y
 _atom_site_fract_z
 _atom_site_occupancy
  Nd  Nd0  1  0.260266  0.255685  0.561276  1
  Nd  Nd1  1  0.239734  0.755685  0.938724  1
  Nd  Nd2  1  0.760266  0.744315  0.438724  1
  Nd  Nd3  1  0.739734  0.244315  0.061276  1
  Zn  Zn4  1  0.257085  0.815989  0.250716  1
  Zn  Zn5  1  0.242915  0.315989  0.249284  1
  Zn  Zn6  1  0.757085  0.184011  0.749284  1
  Zn  Zn7  1  0.742915  0.684011  0.750716  1
  Zn  Zn8  1  0.993238  0.430942  0.813723  1
  Zn  Zn9  1  0.506762  0.930942  0.686277  1
  Zn  Zn10  1  0.493238  0.569058  0.186277  1
  Zn  Zn11  1  0.006762  0.069058  0.313723  1
  Cd  Cd12  1  0.253218  0.139243  0.855577  1
  Cd  Cd13  1  0.246782  0.639243  0.644423  1
  Cd  Cd14  1  0.753218  0.860757  0.144423  1
  Cd  Cd15  1  0.746782  0.360757  0.355577  1
  Au  Au16  1  0.274913  0.551624  0.410144  1
  Au  Au17  1  0.225087  0.051624  0.089856  1
  Au  Au18  1  0.774913  0.448376  0.589856  1
  Au  Au19  1  0.725087  0.948376  0.910144  1
  Au  Au20  1  0.254850  0.905842  0.479145  1
  Au  Au21  1  0.245150  0.405842  0.020855  1
  Au  Au22  1  0.754850  0.094158  0.520855  1
  Au  Au23  1  0.745150  0.594158  0.979145  1
  Au  Au24  1  0.983120  0.573883  0.200469  1
  Au  Au25  1  0.516880  0.073883  0.299531  1
  Au  Au26  1  0.483120  0.426117  0.799531  1
  Au  Au27  1  0.016880  0.926117  0.700469  1
