# generated using pymatgen
data_Er2Sc2ReTcB12
_symmetry_space_group_name_H-M   'P 1'
_cell_length_a   3.57099200
_cell_length_b   8.98702897
_cell_length_c   11.34998033
_cell_angle_alpha   90.04002856
_cell_angle_beta   90.00000000
_cell_angle_gamma   90.00000000
_symmetry_Int_Tables_number   1
_chemical_formula_structural   Er2Sc2ReTcB12
_chemical_formula_sum   'Er4 Sc4 Re2 Tc2 B24'
_cell_volume   364.25038686
_cell_formula_units_Z   2
loop_
 _symmetry_equiv_pos_site_id
 _symmetry_equiv_pos_as_xyz
  1  'x, y, z'
loop_
 _atom_site_type_symbol
 _atom_site_label
 _atom_site_symmetry_multiplicity
 _atom_site_fract_x
 _atom_site_fract_y
 _atom_site_fract_z
 _atom_site_occupancy
  Er  Er0  1  0.000000  0.322205  0.414189  1
  Er  Er1  1  0.000000  0.677795  0.585811  1
  Er  Er2  1  0.000000  0.821422  0.086201  1
  Er  Er3  1  0.000000  0.178578  0.913799  1
  Sc  Sc4  1  0.000000  0.943477  0.370269  1
  Sc  Sc5  1  0.000000  0.056523  0.629731  1
  Sc  Sc6  1  0.000000  0.444419  0.130151  1
  Sc  Sc7  1  0.000000  0.555581  0.869849  1
  Re  Re8  1  0.000000  0.140409  0.181483  1
  Re  Re9  1  0.000000  0.859591  0.818517  1
  Tc  Tc10  1  0.000000  0.640549  0.318862  1
  Tc  Tc11  1  0.000000  0.359451  0.681138  1
  B  B12  1  0.500000  0.554166  0.433057  1
  B  B13  1  0.500000  0.445834  0.566943  1
  B  B14  1  0.500000  0.054034  0.066884  1
  B  B15  1  0.500000  0.945966  0.933116  1
  B  B16  1  0.500000  0.753978  0.419027  1
  B  B17  1  0.500000  0.246022  0.580973  1
  B  B18  1  0.500000  0.254523  0.080757  1
  B  B19  1  0.500000  0.745477  0.919243  1
  B  B20  1  0.500000  0.794854  0.264883  1
  B  B21  1  0.500000  0.205146  0.735117  1
  B  B22  1  0.500000  0.295427  0.235319  1
  B  B23  1  0.500000  0.704573  0.764681  1
  B  B24  1  0.500000  0.629211  0.183187  1
  B  B25  1  0.500000  0.370789  0.816813  1
  B  B26  1  0.500000  0.129156  0.317159  1
  B  B27  1  0.500000  0.870844  0.682841  1
  B  B28  1  0.500000  0.980659  0.213449  1
  B  B29  1  0.500000  0.019341  0.786551  1
  B  B30  1  0.500000  0.481389  0.286721  1
  B  B31  1  0.500000  0.518611  0.713279  1
  B  B32  1  0.500000  0.596014  0.026494  1
  B  B33  1  0.500000  0.403986  0.973506  1
  B  B34  1  0.500000  0.095851  0.473575  1
  B  B35  1  0.500000  0.904149  0.526425  1
