# generated using pymatgen
data_PmPr(SiAu)2
_symmetry_space_group_name_H-M   'P 1'
_cell_length_a   6.03345708
_cell_length_b   6.03345663
_cell_length_c   6.03345800
_cell_angle_alpha   138.63252683
_cell_angle_beta   102.75507758
_cell_angle_gamma   91.64631801
_symmetry_Int_Tables_number   1
_chemical_formula_structural   PmPr(SiAu)2
_chemical_formula_sum   'Pm1 Pr1 Si2 Au2'
_cell_volume   134.97702907
_cell_formula_units_Z   1
loop_
 _symmetry_equiv_pos_site_id
 _symmetry_equiv_pos_as_xyz
  1  'x, y, z'
loop_
 _atom_site_type_symbol
 _atom_site_label
 _atom_site_symmetry_multiplicity
 _atom_site_fract_x
 _atom_site_fract_y
 _atom_site_fract_z
 _atom_site_occupancy
  Pm  Pm0  1  0.001702  0.000000  0.001702  1
  Pr  Pr1  1  0.501436  0.500000  0.001436  1
  Si  Si2  1  0.914895  0.250928  0.663968  1
  Si  Si3  1  0.413039  0.749071  0.663967  1
  Au  Au4  1  0.585442  0.250980  0.334463  1
  Au  Au5  1  0.083483  0.749019  0.334463  1
