# generated using pymatgen
data_Cs3Ti2I9
_symmetry_space_group_name_H-M   'P 1'
_cell_length_a   8.40323100
_cell_length_b   8.40323117
_cell_length_c   20.48706500
_cell_angle_alpha   90.00000000
_cell_angle_beta   90.00000000
_cell_angle_gamma   119.99999541
_symmetry_Int_Tables_number   1
_chemical_formula_structural   Cs3Ti2I9
_chemical_formula_sum   'Cs6 Ti4 I18'
_cell_volume   1252.86134535
_cell_formula_units_Z   2
loop_
 _symmetry_equiv_pos_site_id
 _symmetry_equiv_pos_as_xyz
  1  'x, y, z'
loop_
 _atom_site_type_symbol
 _atom_site_label
 _atom_site_symmetry_multiplicity
 _atom_site_fract_x
 _atom_site_fract_y
 _atom_site_fract_z
 _atom_site_occupancy
  Cs  Cs0  1  0.666667  0.333333  0.073543  1
  Cs  Cs1  1  0.333333  0.666667  0.573543  1
  Cs  Cs2  1  0.333333  0.666667  0.926457  1
  Cs  Cs3  1  0.666667  0.333333  0.426457  1
  Cs  Cs4  1  0.000000  0.000000  0.250000  1
  Cs  Cs5  1  0.000000  0.000000  0.750000  1
  Ti  Ti6  1  0.666667  0.333333  0.836739  1
  Ti  Ti7  1  0.666667  0.333333  0.663261  1
  Ti  Ti8  1  0.333333  0.666667  0.163261  1
  Ti  Ti9  1  0.333333  0.666667  0.336739  1
  I  I10  1  0.174381  0.825619  0.089643  1
  I  I11  1  0.825619  0.651239  0.910357  1
  I  I12  1  0.825619  0.174381  0.910357  1
  I  I13  1  0.825619  0.651239  0.589643  1
  I  I14  1  0.348761  0.174381  0.910357  1
  I  I15  1  0.651239  0.825619  0.410357  1
  I  I16  1  0.174381  0.348761  0.410357  1
  I  I17  1  0.174381  0.825619  0.410357  1
  I  I18  1  0.489787  0.979574  0.250000  1
  I  I19  1  0.510213  0.489787  0.750000  1
  I  I20  1  0.979574  0.489787  0.750000  1
  I  I21  1  0.020426  0.510213  0.250000  1
  I  I22  1  0.489787  0.510213  0.250000  1
  I  I23  1  0.510213  0.020426  0.750000  1
  I  I24  1  0.348761  0.174381  0.589643  1
  I  I25  1  0.825619  0.174381  0.589643  1
  I  I26  1  0.174381  0.348761  0.089643  1
  I  I27  1  0.651239  0.825619  0.089643  1
