# generated using pymatgen
data_Y3Lu9IrOs3
_symmetry_space_group_name_H-M   'P 1'
_cell_length_a   7.35060473
_cell_length_b   8.83830300
_cell_length_c   6.23228992
_cell_angle_alpha   90.00000000
_cell_angle_beta   89.81077785
_cell_angle_gamma   90.00000000
_symmetry_Int_Tables_number   1
_chemical_formula_structural   Y3Lu9IrOs3
_chemical_formula_sum   'Y3 Lu9 Ir1 Os3'
_cell_volume   404.89017221
_cell_formula_units_Z   1
loop_
 _symmetry_equiv_pos_site_id
 _symmetry_equiv_pos_as_xyz
  1  'x, y, z'
loop_
 _atom_site_type_symbol
 _atom_site_label
 _atom_site_symmetry_multiplicity
 _atom_site_fract_x
 _atom_site_fract_y
 _atom_site_fract_z
 _atom_site_occupancy
  Y  Y0  1  0.536116  0.250000  0.876551  1
  Y  Y1  1  0.037581  0.250000  0.625359  1
  Y  Y2  1  0.464187  0.750000  0.123531  1
  Lu  Lu3  1  0.674524  0.061125  0.337352  1
  Lu  Lu4  1  0.174404  0.439642  0.166732  1
  Lu  Lu5  1  0.324197  0.563380  0.663246  1
  Lu  Lu6  1  0.826055  0.934787  0.830471  1
  Lu  Lu7  1  0.324197  0.936620  0.663246  1
  Lu  Lu8  1  0.826055  0.565213  0.830471  1
  Lu  Lu9  1  0.674524  0.438875  0.337352  1
  Lu  Lu10  1  0.174404  0.060358  0.166732  1
  Lu  Lu11  1  0.961360  0.750000  0.372910  1
  Ir  Ir12  1  0.884071  0.250000  0.049285  1
  Os  Os13  1  0.383239  0.250000  0.453055  1
  Os  Os14  1  0.114902  0.750000  0.961008  1
  Os  Os15  1  0.620184  0.750000  0.542696  1
