# generated using pymatgen
data_CdGa4SnBr16
_symmetry_space_group_name_H-M   'P 1'
_cell_length_a   10.69607214
_cell_length_b   10.69607223
_cell_length_c   12.89681100
_cell_angle_alpha   55.11772152
_cell_angle_beta   55.11772120
_cell_angle_gamma   49.96292561
_symmetry_Int_Tables_number   1
_chemical_formula_structural   CdGa4SnBr16
_chemical_formula_sum   'Cd1 Ga4 Sn1 Br16'
_cell_volume   876.44863372
_cell_formula_units_Z   1
loop_
 _symmetry_equiv_pos_site_id
 _symmetry_equiv_pos_as_xyz
  1  'x, y, z'
loop_
 _atom_site_type_symbol
 _atom_site_label
 _atom_site_symmetry_multiplicity
 _atom_site_fract_x
 _atom_site_fract_y
 _atom_site_fract_z
 _atom_site_occupancy
  Cd  Cd0  1  0.996904  0.003096  0.750000  1
  Ga  Ga1  1  0.659513  0.165627  0.030648  1
  Ga  Ga2  1  0.338489  0.836557  0.959199  1
  Ga  Ga3  1  0.834373  0.340487  0.469352  1
  Ga  Ga4  1  0.163443  0.661511  0.540801  1
  Sn  Sn5  1  0.999866  0.000134  0.250000  1
  Br  Br6  1  0.877478  0.802376  0.538500  1
  Br  Br7  1  0.120965  0.182529  0.480430  1
  Br  Br8  1  0.693503  0.623353  0.457361  1
  Br  Br9  1  0.622061  0.690919  0.947231  1
  Br  Br10  1  0.817471  0.879035  0.019570  1
  Br  Br11  1  0.846255  0.342457  0.278258  1
  Br  Br12  1  0.171242  0.703888  0.164705  1
  Br  Br13  1  0.296112  0.828758  0.335295  1
  Br  Br14  1  0.150614  0.675245  0.726136  1
  Br  Br15  1  0.309081  0.377939  0.552769  1
  Br  Br16  1  0.657543  0.153745  0.221742  1
  Br  Br17  1  0.197624  0.122522  0.961500  1
  Br  Br18  1  0.376647  0.306497  0.042639  1
  Br  Br19  1  0.324755  0.849386  0.773864  1
  Br  Br20  1  0.710454  0.164391  0.670772  1
  Br  Br21  1  0.835609  0.289546  0.829228  1
