# generated using pymatgen
data_CeDy4(TcB3)2
_symmetry_space_group_name_H-M   'P 1'
_cell_length_a   5.53284795
_cell_length_b   5.53284793
_cell_length_c   8.39961201
_cell_angle_alpha   70.77058849
_cell_angle_beta   70.77058914
_cell_angle_gamma   59.99997948
_symmetry_Int_Tables_number   1
_chemical_formula_structural   CeDy4(TcB3)2
_chemical_formula_sum   'Ce1 Dy4 Tc2 B6'
_cell_volume   205.95119232
_cell_formula_units_Z   1
loop_
 _symmetry_equiv_pos_site_id
 _symmetry_equiv_pos_as_xyz
  1  'x, y, z'
loop_
 _atom_site_type_symbol
 _atom_site_label
 _atom_site_symmetry_multiplicity
 _atom_site_fract_x
 _atom_site_fract_y
 _atom_site_fract_z
 _atom_site_occupancy
  Ce  Ce0  1  0.000000  0.000000  0.000000  1
  Dy  Dy1  1  0.248947  0.248947  0.253160  1
  Dy  Dy2  1  0.751053  0.751053  0.746840  1
  Dy  Dy3  1  0.417777  0.417777  0.746670  1
  Dy  Dy4  1  0.582223  0.582223  0.253330  1
  Tc  Tc5  1  0.108166  0.108166  0.675501  1
  Tc  Tc6  1  0.891834  0.891834  0.324499  1
  B  B7  1  0.170857  0.829143  0.500000  1
  B  B8  1  0.829143  0.500000  0.500000  1
  B  B9  1  0.500000  0.170857  0.500000  1
  B  B10  1  0.170857  0.500000  0.500000  1
  B  B11  1  0.500000  0.829143  0.500000  1
  B  B12  1  0.829143  0.170857  0.500000  1
