# generated using pymatgen
data_Dy10SiSn6Au
_symmetry_space_group_name_H-M   'P 1'
_cell_length_a   9.13027500
_cell_length_b   9.13027380
_cell_length_c   6.74179400
_cell_angle_alpha   90.00000000
_cell_angle_beta   90.00000000
_cell_angle_gamma   120.00000071
_symmetry_Int_Tables_number   1
_chemical_formula_structural   Dy10SiSn6Au
_chemical_formula_sum   'Dy10 Si1 Sn6 Au1'
_cell_volume   486.71391959
_cell_formula_units_Z   1
loop_
 _symmetry_equiv_pos_site_id
 _symmetry_equiv_pos_as_xyz
  1  'x, y, z'
loop_
 _atom_site_type_symbol
 _atom_site_label
 _atom_site_symmetry_multiplicity
 _atom_site_fract_x
 _atom_site_fract_y
 _atom_site_fract_z
 _atom_site_occupancy
  Dy  Dy0  1  0.666667  0.333333  0.000000  1
  Dy  Dy1  1  0.333333  0.666667  0.000000  1
  Dy  Dy2  1  0.333333  0.666667  0.500000  1
  Dy  Dy3  1  0.666667  0.333333  0.500000  1
  Dy  Dy4  1  0.745418  0.745418  0.734099  1
  Dy  Dy5  1  0.254582  0.000000  0.734099  1
  Dy  Dy6  1  0.000000  0.254582  0.734099  1
  Dy  Dy7  1  0.254582  0.254582  0.265901  1
  Dy  Dy8  1  0.745418  0.000000  0.265901  1
  Dy  Dy9  1  0.000000  0.745418  0.265901  1
  Si  Si10  1  0.000000  0.000000  0.500000  1
  Sn  Sn11  1  0.393432  0.393432  0.750440  1
  Sn  Sn12  1  0.606568  0.000000  0.750440  1
  Sn  Sn13  1  0.000000  0.606568  0.750440  1
  Sn  Sn14  1  0.606568  0.606568  0.249560  1
  Sn  Sn15  1  0.393432  0.000000  0.249560  1
  Sn  Sn16  1  0.000000  0.393432  0.249560  1
  Au  Au17  1  0.000000  0.000000  0.000000  1
