# generated using pymatgen
data_Er4MgPd11
_symmetry_space_group_name_H-M   'P 1'
_cell_length_a   4.19535000
_cell_length_b   5.80540510
_cell_length_c   11.62305600
_cell_angle_alpha   86.79185934
_cell_angle_beta   90.00000000
_cell_angle_gamma   90.00000000
_symmetry_Int_Tables_number   1
_chemical_formula_structural   Er4MgPd11
_chemical_formula_sum   'Er4 Mg1 Pd11'
_cell_volume   282.64408936
_cell_formula_units_Z   1
loop_
 _symmetry_equiv_pos_site_id
 _symmetry_equiv_pos_as_xyz
  1  'x, y, z'
loop_
 _atom_site_type_symbol
 _atom_site_label
 _atom_site_symmetry_multiplicity
 _atom_site_fract_x
 _atom_site_fract_y
 _atom_site_fract_z
 _atom_site_occupancy
  Er  Er0  1  0.500000  0.754834  0.376259  1
  Er  Er1  1  0.500000  0.715954  0.860256  1
  Er  Er2  1  0.500000  0.284046  0.139744  1
  Er  Er3  1  0.500000  0.245166  0.623741  1
  Mg  Mg4  1  0.000000  0.000000  0.000000  1
  Pd  Pd5  1  0.000000  0.012992  0.248388  1
  Pd  Pd6  1  0.000000  0.987008  0.751612  1
  Pd  Pd7  1  0.000000  0.500000  0.000000  1
  Pd  Pd8  1  0.000000  0.500000  0.500000  1
  Pd  Pd9  1  0.000000  0.516624  0.250295  1
  Pd  Pd10  1  0.000000  0.483376  0.749705  1
  Pd  Pd11  1  0.500000  0.253461  0.377829  1
  Pd  Pd12  1  0.500000  0.224890  0.882797  1
  Pd  Pd13  1  0.500000  0.775110  0.117203  1
  Pd  Pd14  1  0.500000  0.746539  0.622171  1
  Pd  Pd15  1  0.000000  0.000000  0.500000  1
