# generated using pymatgen
data_LaCe3(SnRh2)2
_symmetry_space_group_name_H-M   'P 1'
_cell_length_a   7.65749357
_cell_length_b   7.65749323
_cell_length_c   3.81469000
_cell_angle_alpha   90.00000000
_cell_angle_beta   90.00000000
_cell_angle_gamma   89.09265824
_symmetry_Int_Tables_number   1
_chemical_formula_structural   LaCe3(SnRh2)2
_chemical_formula_sum   'La1 Ce3 Sn2 Rh4'
_cell_volume   223.65471294
_cell_formula_units_Z   1
loop_
 _symmetry_equiv_pos_site_id
 _symmetry_equiv_pos_as_xyz
  1  'x, y, z'
loop_
 _atom_site_type_symbol
 _atom_site_label
 _atom_site_symmetry_multiplicity
 _atom_site_fract_x
 _atom_site_fract_y
 _atom_site_fract_z
 _atom_site_occupancy
  La  La0  1  0.327594  0.827594  0.500000  1
  Ce  Ce1  1  0.172614  0.330328  0.500000  1
  Ce  Ce2  1  0.672016  0.172016  0.500000  1
  Ce  Ce3  1  0.830328  0.672614  0.500000  1
  Sn  Sn4  1  0.999753  0.004963  0.000000  1
  Sn  Sn5  1  0.504963  0.499753  0.000000  1
  Rh  Rh6  1  0.120647  0.620647  0.000000  1
  Rh  Rh7  1  0.647922  0.866787  0.000000  1
  Rh  Rh8  1  0.366787  0.147922  0.000000  1
  Rh  Rh9  1  0.857376  0.357376  0.000000  1
