# generated using pymatgen
data_NbTc5(SeS)4
_symmetry_space_group_name_H-M   'P 1'
_cell_length_a   6.54945548
_cell_length_b   6.63520959
_cell_length_c   6.67387892
_cell_angle_alpha   93.16387747
_cell_angle_beta   93.39714037
_cell_angle_gamma   94.05864652
_symmetry_Int_Tables_number   1
_chemical_formula_structural   NbTc5(SeS)4
_chemical_formula_sum   'Nb1 Tc5 Se4 S4'
_cell_volume   288.27704458
_cell_formula_units_Z   1
loop_
 _symmetry_equiv_pos_site_id
 _symmetry_equiv_pos_as_xyz
  1  'x, y, z'
loop_
 _atom_site_type_symbol
 _atom_site_label
 _atom_site_symmetry_multiplicity
 _atom_site_fract_x
 _atom_site_fract_y
 _atom_site_fract_z
 _atom_site_occupancy
  Nb  Nb0  1  0.590483  0.454761  0.771582  1
  Tc  Tc1  1  0.445594  0.764039  0.583444  1
  Tc  Tc2  1  0.770522  0.593469  0.451322  1
  Tc  Tc3  1  0.412779  0.549034  0.234324  1
  Tc  Tc4  1  0.551585  0.230516  0.413664  1
  Tc  Tc5  1  0.226674  0.409855  0.545742  1
  Se  Se6  1  0.739738  0.371772  0.134087  1
  Se  Se7  1  0.360474  0.116949  0.729013  1
  Se  Se8  1  0.792317  0.806164  0.778159  1
  Se  Se9  1  0.212965  0.210727  0.215409  1
  S  S10  1  0.871849  0.290127  0.614885  1
  S  S11  1  0.271024  0.620460  0.863825  1
  S  S12  1  0.620280  0.868022  0.288980  1
  S  S13  1  0.133716  0.714106  0.375564  1
