# generated using pymatgen
data_Sr5ThP17Pd6
_symmetry_space_group_name_H-M   'P 1'
_cell_length_a   9.17356726
_cell_length_b   9.13551160
_cell_length_c   9.17356803
_cell_angle_alpha   109.91007632
_cell_angle_beta   108.76791870
_cell_angle_gamma   109.91008365
_symmetry_Int_Tables_number   1
_chemical_formula_structural   Sr5ThP17Pd6
_chemical_formula_sum   'Sr5 Th1 P17 Pd6'
_cell_volume   590.48132655
_cell_formula_units_Z   1
loop_
 _symmetry_equiv_pos_site_id
 _symmetry_equiv_pos_as_xyz
  1  'x, y, z'
loop_
 _atom_site_type_symbol
 _atom_site_label
 _atom_site_symmetry_multiplicity
 _atom_site_fract_x
 _atom_site_fract_y
 _atom_site_fract_z
 _atom_site_occupancy
  Sr  Sr0  1  0.273823  0.000000  0.273823  1
  Sr  Sr1  1  0.001790  0.715011  0.716579  1
  Sr  Sr2  1  0.001567  0.284989  0.286779  1
  Sr  Sr3  1  0.716579  0.715011  0.001790  1
  Sr  Sr4  1  0.286779  0.284989  0.001567  1
  Th  Th5  1  0.728145  0.000000  0.728145  1
  P  P6  1  0.778919  0.783483  0.425470  1
  P  P7  1  0.641987  0.216517  0.995435  1
  P  P8  1  0.218886  0.638574  0.001385  1
  P  P9  1  0.362893  0.580755  0.362893  1
  P  P10  1  0.638690  0.000000  0.216494  1
  P  P11  1  0.001385  0.638574  0.218886  1
  P  P12  1  0.580312  0.361426  0.362811  1
  P  P13  1  0.425470  0.783483  0.778919  1
  P  P14  1  0.782138  0.419245  0.782138  1
  P  P15  1  0.216494  0.000000  0.638690  1
  P  P16  1  0.995435  0.216517  0.641987  1
  P  P17  1  0.362811  0.361426  0.580312  1
  P  P18  1  0.000064  0.000000  0.441079  1
  P  P19  1  0.441079  0.000000  0.000064  1
  P  P20  1  0.996061  0.432427  0.996061  1
  P  P21  1  0.563636  0.567573  0.563636  1
  P  P22  1  0.983875  0.000000  0.983875  1
  Pd  Pd23  1  0.250642  0.500000  0.750642  1
  Pd  Pd24  1  0.500090  0.753264  0.253122  1
  Pd  Pd25  1  0.499859  0.246736  0.746826  1
  Pd  Pd26  1  0.746826  0.246736  0.499859  1
  Pd  Pd27  1  0.253122  0.753264  0.500090  1
  Pd  Pd28  1  0.750642  0.500000  0.250642  1
