# generated using pymatgen
data_Sr6MoRhO12
_symmetry_space_group_name_H-M   'P 1'
_cell_length_a   6.12802863
_cell_length_b   5.87279959
_cell_length_c   10.29601103
_cell_angle_alpha   54.95720463
_cell_angle_beta   89.75511941
_cell_angle_gamma   90.04080016
_symmetry_Int_Tables_number   1
_chemical_formula_structural   Sr6MoRhO12
_chemical_formula_sum   'Sr6 Mo1 Rh1 O12'
_cell_volume   303.36463753
_cell_formula_units_Z   1
loop_
 _symmetry_equiv_pos_site_id
 _symmetry_equiv_pos_as_xyz
  1  'x, y, z'
loop_
 _atom_site_type_symbol
 _atom_site_label
 _atom_site_symmetry_multiplicity
 _atom_site_fract_x
 _atom_site_fract_y
 _atom_site_fract_z
 _atom_site_occupancy
  Sr  Sr0  1  0.500000  0.500000  0.500000  1
  Sr  Sr1  1  0.949226  0.726636  0.256913  1
  Sr  Sr2  1  0.447254  0.265526  0.247352  1
  Sr  Sr3  1  0.000000  0.500000  0.000000  1
  Sr  Sr4  1  0.552746  0.734474  0.752648  1
  Sr  Sr5  1  0.050774  0.273364  0.743087  1
  Mo  Mo6  1  0.500000  0.000000  0.000000  1
  Rh  Rh7  1  0.000000  0.000000  0.500000  1
  O  O8  1  0.452109  0.116012  0.781868  1
  O  O9  1  0.236025  0.765702  0.066503  1
  O  O10  1  0.178244  0.315649  0.454963  1
  O  O11  1  0.674166  0.684748  0.044593  1
  O  O12  1  0.735480  0.236025  0.434983  1
  O  O13  1  0.951994  0.883697  0.719459  1
  O  O14  1  0.048006  0.116303  0.280541  1
  O  O15  1  0.264520  0.763975  0.565017  1
  O  O16  1  0.325834  0.315252  0.955407  1
  O  O17  1  0.821756  0.684351  0.545037  1
  O  O18  1  0.763975  0.234298  0.933497  1
  O  O19  1  0.547891  0.883988  0.218132  1
