# generated using pymatgen
data_TmBeOs2C
_symmetry_space_group_name_H-M   'P 1'
_cell_length_a   5.61620710
_cell_length_b   5.61620646
_cell_length_c   7.00756300
_cell_angle_alpha   90.00000000
_cell_angle_beta   90.00000000
_cell_angle_gamma   140.33888741
_symmetry_Int_Tables_number   1
_chemical_formula_structural   TmBeOs2C
_chemical_formula_sum   'Tm2 Be2 Os4 C2'
_cell_volume   141.07203452
_cell_formula_units_Z   2
loop_
 _symmetry_equiv_pos_site_id
 _symmetry_equiv_pos_as_xyz
  1  'x, y, z'
loop_
 _atom_site_type_symbol
 _atom_site_label
 _atom_site_symmetry_multiplicity
 _atom_site_fract_x
 _atom_site_fract_y
 _atom_site_fract_z
 _atom_site_occupancy
  Tm  Tm0  1  0.544659  0.455341  0.250000  1
  Tm  Tm1  1  0.455341  0.544659  0.750000  1
  Be  Be2  1  0.269779  0.730221  0.250000  1
  Be  Be3  1  0.730221  0.269779  0.750000  1
  Os  Os4  1  0.824026  0.175974  0.058889  1
  Os  Os5  1  0.175974  0.824026  0.941111  1
  Os  Os6  1  0.175974  0.824026  0.558889  1
  Os  Os7  1  0.824026  0.175974  0.441111  1
  C  C8  1  0.000000  0.000000  0.000000  1
  C  C9  1  0.000000  0.000000  0.500000  1
