# generated using pymatgen
data_ErTm19(CoSb2)4
_symmetry_space_group_name_H-M   'P 1'
_cell_length_a   7.75181600
_cell_length_b   8.70261600
_cell_length_c   12.02736000
_cell_angle_alpha   90.00000000
_cell_angle_beta   89.99992017
_cell_angle_gamma   90.00000000
_symmetry_Int_Tables_number   1
_chemical_formula_structural   ErTm19(CoSb2)4
_chemical_formula_sum   'Er1 Tm19 Co4 Sb8'
_cell_volume   811.37867050
_cell_formula_units_Z   1
loop_
 _symmetry_equiv_pos_site_id
 _symmetry_equiv_pos_as_xyz
  1  'x, y, z'
loop_
 _atom_site_type_symbol
 _atom_site_label
 _atom_site_symmetry_multiplicity
 _atom_site_fract_x
 _atom_site_fract_y
 _atom_site_fract_z
 _atom_site_occupancy
  Er  Er0  1  0.877322  0.750000  0.808068  1
  Tm  Tm1  1  0.157774  0.750000  0.204496  1
  Tm  Tm2  1  0.657772  0.250000  0.295554  1
  Tm  Tm3  1  0.842246  0.250000  0.795528  1
  Tm  Tm4  1  0.342354  0.750000  0.704406  1
  Tm  Tm5  1  0.450061  0.750000  0.998109  1
  Tm  Tm6  1  0.950087  0.250000  0.501829  1
  Tm  Tm7  1  0.549752  0.250000  0.001916  1
  Tm  Tm8  1  0.049928  0.750000  0.498081  1
  Tm  Tm9  1  0.622240  0.750000  0.308446  1
  Tm  Tm10  1  0.122273  0.250000  0.191612  1
  Tm  Tm11  1  0.377772  0.250000  0.691567  1
  Tm  Tm12  1  0.823760  0.962493  0.065795  1
  Tm  Tm13  1  0.323753  0.037704  0.434371  1
  Tm  Tm14  1  0.176430  0.461922  0.934455  1
  Tm  Tm15  1  0.676220  0.537704  0.565572  1
  Tm  Tm16  1  0.176430  0.038078  0.934455  1
  Tm  Tm17  1  0.676220  0.962296  0.565572  1
  Tm  Tm18  1  0.823760  0.537507  0.065795  1
  Tm  Tm19  1  0.323753  0.462296  0.434371  1
  Co  Co20  1  0.430811  0.750000  0.490581  1
  Co  Co21  1  0.930776  0.250000  0.009456  1
  Co  Co22  1  0.569194  0.250000  0.509377  1
  Co  Co23  1  0.069336  0.750000  0.990788  1
  Sb  Sb24  1  0.931170  0.991492  0.327441  1
  Sb  Sb25  1  0.431188  0.008482  0.172564  1
  Sb  Sb26  1  0.069102  0.491298  0.672466  1
  Sb  Sb27  1  0.568527  0.508330  0.827429  1
  Sb  Sb28  1  0.069102  0.008702  0.672466  1
  Sb  Sb29  1  0.568527  0.991670  0.827429  1
  Sb  Sb30  1  0.931170  0.508508  0.327441  1
  Sb  Sb31  1  0.431188  0.491518  0.172564  1
