# generated using pymatgen
data_Ta7Mo4
_symmetry_space_group_name_H-M   'P 1'
_cell_length_a   3.21146568
_cell_length_b   3.21146637
_cell_length_c   18.23168900
_cell_angle_alpha   85.04191927
_cell_angle_beta   85.04191820
_cell_angle_gamma   90.33727738
_symmetry_Int_Tables_number   1
_chemical_formula_structural   Ta7Mo4
_chemical_formula_sum   'Ta7 Mo4'
_cell_volume   186.61135090
_cell_formula_units_Z   1
loop_
 _symmetry_equiv_pos_site_id
 _symmetry_equiv_pos_as_xyz
  1  'x, y, z'
loop_
 _atom_site_type_symbol
 _atom_site_label
 _atom_site_symmetry_multiplicity
 _atom_site_fract_x
 _atom_site_fract_y
 _atom_site_fract_z
 _atom_site_occupancy
  Ta  Ta0  1  0.119309  0.119309  0.139598  1
  Ta  Ta1  1  0.862673  0.862673  0.687442  1
  Ta  Ta2  1  0.668797  0.668797  0.040946  1
  Ta  Ta3  1  0.411208  0.411208  0.588722  1
  Ta  Ta4  1  0.036352  0.036352  0.314444  1
  Ta  Ta5  1  0.766855  0.766855  0.864197  1
  Ta  Ta6  1  0.491462  0.491462  0.413887  1
  Mo  Mo7  1  0.577017  0.577017  0.227230  1
  Mo  Mo8  1  0.315519  0.315519  0.773841  1
  Mo  Mo9  1  0.217399  0.217399  0.954539  1
  Mo  Mo10  1  0.951949  0.951949  0.501052  1
