# generated using pymatgen
data_Y3Tm5Cd2OsPt
_symmetry_space_group_name_H-M   'P 1'
_cell_length_a   9.59044729
_cell_length_b   9.59048805
_cell_length_c   9.65952892
_cell_angle_alpha   59.64732978
_cell_angle_beta   59.64724501
_cell_angle_gamma   59.51837395
_symmetry_Int_Tables_number   1
_chemical_formula_structural   Y3Tm5Cd2OsPt
_chemical_formula_sum   'Y6 Tm10 Cd4 Os2 Pt2'
_cell_volume   622.58073165
_cell_formula_units_Z   2
loop_
 _symmetry_equiv_pos_site_id
 _symmetry_equiv_pos_as_xyz
  1  'x, y, z'
loop_
 _atom_site_type_symbol
 _atom_site_label
 _atom_site_symmetry_multiplicity
 _atom_site_fract_x
 _atom_site_fract_y
 _atom_site_fract_z
 _atom_site_occupancy
  Y  Y0  1  0.940128  0.554905  0.565509  1
  Y  Y1  1  0.555380  0.938790  0.940491  1
  Y  Y2  1  0.554909  0.940127  0.565513  1
  Y  Y3  1  0.938791  0.555381  0.940484  1
  Y  Y4  1  0.562226  0.562230  0.939620  1
  Y  Y5  1  0.941206  0.941202  0.559046  1
  Tm  Tm6  1  0.349145  0.349142  0.351694  1
  Tm  Tm7  1  0.350336  0.350337  0.948640  1
  Tm  Tm8  1  0.346332  0.956026  0.349324  1
  Tm  Tm9  1  0.956032  0.346321  0.349326  1
  Tm  Tm10  1  0.814815  0.187272  0.189605  1
  Tm  Tm11  1  0.186223  0.815727  0.807344  1
  Tm  Tm12  1  0.187272  0.814815  0.189608  1
  Tm  Tm13  1  0.815725  0.186223  0.807347  1
  Tm  Tm14  1  0.187225  0.187219  0.811982  1
  Tm  Tm15  1  0.809489  0.809495  0.189959  1
  Cd  Cd16  1  0.579370  0.579379  0.580198  1
  Cd  Cd17  1  0.579632  0.579629  0.259284  1
  Cd  Cd18  1  0.580639  0.256355  0.581148  1
  Cd  Cd19  1  0.256352  0.580638  0.581145  1
  Os  Os20  1  0.144126  0.144122  0.138261  1
  Os  Os21  1  0.144679  0.144675  0.574083  1
  Pt  Pt22  1  0.144809  0.575163  0.140206  1
  Pt  Pt23  1  0.575162  0.144831  0.140184  1
