# generated using pymatgen
data_Y4Sc4IrRh3
_symmetry_space_group_name_H-M   'P 1'
_cell_length_a   4.25679400
_cell_length_b   7.20000119
_cell_length_c   8.75762733
_cell_angle_alpha   90.38193570
_cell_angle_beta   90.00000000
_cell_angle_gamma   90.00000000
_symmetry_Int_Tables_number   1
_chemical_formula_structural   Y4Sc4IrRh3
_chemical_formula_sum   'Y4 Sc4 Ir1 Rh3'
_cell_volume   268.40587194
_cell_formula_units_Z   1
loop_
 _symmetry_equiv_pos_site_id
 _symmetry_equiv_pos_as_xyz
  1  'x, y, z'
loop_
 _atom_site_type_symbol
 _atom_site_label
 _atom_site_symmetry_multiplicity
 _atom_site_fract_x
 _atom_site_fract_y
 _atom_site_fract_z
 _atom_site_occupancy
  Y  Y0  1  0.250000  0.984195  0.325187  1
  Y  Y1  1  0.250000  0.482665  0.173539  1
  Y  Y2  1  0.750000  0.020369  0.677131  1
  Y  Y3  1  0.750000  0.511497  0.826301  1
  Sc  Sc4  1  0.250000  0.359944  0.567525  1
  Sc  Sc5  1  0.250000  0.859252  0.933626  1
  Sc  Sc6  1  0.750000  0.640904  0.435032  1
  Sc  Sc7  1  0.750000  0.140259  0.064665  1
  Ir  Ir8  1  0.250000  0.236613  0.896312  1
  Rh  Rh9  1  0.250000  0.739974  0.598800  1
  Rh  Rh10  1  0.750000  0.761446  0.101919  1
  Rh  Rh11  1  0.750000  0.262880  0.399964  1
