# generated using pymatgen
data_LaThUFe2Si7
_symmetry_space_group_name_H-M   'P 1'
_cell_length_a   12.40722322
_cell_length_b   12.40722386
_cell_length_c   4.14214300
_cell_angle_alpha   90.00000000
_cell_angle_beta   90.00000000
_cell_angle_gamma   160.87015143
_symmetry_Int_Tables_number   1
_chemical_formula_structural   LaThUFe2Si7
_chemical_formula_sum   'La1 Th1 U1 Fe2 Si7'
_cell_volume   208.96048611
_cell_formula_units_Z   1
loop_
 _symmetry_equiv_pos_site_id
 _symmetry_equiv_pos_as_xyz
  1  'x, y, z'
loop_
 _atom_site_type_symbol
 _atom_site_label
 _atom_site_symmetry_multiplicity
 _atom_site_fract_x
 _atom_site_fract_y
 _atom_site_fract_z
 _atom_site_occupancy
  La  La0  1  0.316798  0.683202  0.000000  1
  Th  Th1  1  0.682037  0.317963  0.000000  1
  U  U2  1  0.999858  0.000142  0.500000  1
  Fe  Fe3  1  0.122851  0.877149  0.500000  1
  Fe  Fe4  1  0.878717  0.121283  0.500000  1
  Si  Si5  1  0.220153  0.779847  0.500000  1
  Si  Si6  1  0.779026  0.220974  0.500000  1
  Si  Si7  1  0.083412  0.916588  0.000000  1
  Si  Si8  1  0.916779  0.083221  0.000000  1
  Si  Si9  1  0.416663  0.583337  0.500000  1
  Si  Si10  1  0.500290  0.499710  0.000000  1
  Si  Si11  1  0.583417  0.416583  0.500000  1
