# generated using pymatgen
data_Tb10TlBi4Sb
_symmetry_space_group_name_H-M   'P 1'
_cell_length_a   9.11523100
_cell_length_b   9.11522941
_cell_length_c   6.43351600
_cell_angle_alpha   90.00000000
_cell_angle_beta   90.00000000
_cell_angle_gamma   119.76594894
_symmetry_Int_Tables_number   1
_chemical_formula_structural   Tb10TlBi4Sb
_chemical_formula_sum   'Tb10 Tl1 Bi4 Sb1'
_cell_volume   464.01683701
_cell_formula_units_Z   1
loop_
 _symmetry_equiv_pos_site_id
 _symmetry_equiv_pos_as_xyz
  1  'x, y, z'
loop_
 _atom_site_type_symbol
 _atom_site_label
 _atom_site_symmetry_multiplicity
 _atom_site_fract_x
 _atom_site_fract_y
 _atom_site_fract_z
 _atom_site_occupancy
  Tb  Tb0  1  0.661703  0.337334  0.000791  1
  Tb  Tb1  1  0.337334  0.661703  0.000791  1
  Tb  Tb2  1  0.337334  0.661703  0.499209  1
  Tb  Tb3  1  0.661703  0.337334  0.499209  1
  Tb  Tb4  1  0.753810  0.753810  0.750000  1
  Tb  Tb5  1  0.241814  0.005974  0.750000  1
  Tb  Tb6  1  0.005974  0.241814  0.750000  1
  Tb  Tb7  1  0.243604  0.243604  0.250000  1
  Tb  Tb8  1  0.757318  0.996481  0.250000  1
  Tb  Tb9  1  0.996481  0.757318  0.250000  1
  Tl  Tl10  1  0.393239  0.393239  0.750000  1
  Bi  Bi11  1  0.610522  0.003055  0.750000  1
  Bi  Bi12  1  0.003055  0.610522  0.750000  1
  Bi  Bi13  1  0.389660  0.996114  0.250000  1
  Bi  Bi14  1  0.996114  0.389660  0.250000  1
  Sb  Sb15  1  0.610332  0.610332  0.250000  1
