# generated using pymatgen
data_Tb16AlAg3Pt4
_symmetry_space_group_name_H-M   'P 1'
_cell_length_a   9.66296270
_cell_length_b   9.66064100
_cell_length_c   9.66064000
_cell_angle_alpha   59.99999657
_cell_angle_beta   60.00794427
_cell_angle_gamma   60.00794803
_symmetry_Int_Tables_number   1
_chemical_formula_structural   Tb16AlAg3Pt4
_chemical_formula_sum   'Tb16 Al1 Ag3 Pt4'
_cell_volume   637.76295190
_cell_formula_units_Z   1
loop_
 _symmetry_equiv_pos_site_id
 _symmetry_equiv_pos_as_xyz
  1  'x, y, z'
loop_
 _atom_site_type_symbol
 _atom_site_label
 _atom_site_symmetry_multiplicity
 _atom_site_fract_x
 _atom_site_fract_y
 _atom_site_fract_z
 _atom_site_occupancy
  Tb  Tb0  1  0.354895  0.354365  0.354365  1
  Tb  Tb1  1  0.354848  0.354373  0.936408  1
  Tb  Tb2  1  0.354848  0.936408  0.354373  1
  Tb  Tb3  1  0.933171  0.355625  0.355625  1
  Tb  Tb4  1  0.811548  0.188783  0.188783  1
  Tb  Tb5  1  0.190271  0.807978  0.807978  1
  Tb  Tb6  1  0.190350  0.807964  0.193750  1
  Tb  Tb7  1  0.811553  0.188818  0.810829  1
  Tb  Tb8  1  0.190350  0.193750  0.807964  1
  Tb  Tb9  1  0.811553  0.810829  0.188818  1
  Tb  Tb10  1  0.934213  0.565227  0.565227  1
  Tb  Tb11  1  0.564559  0.935472  0.935472  1
  Tb  Tb12  1  0.564557  0.935415  0.564535  1
  Tb  Tb13  1  0.934134  0.565218  0.935378  1
  Tb  Tb14  1  0.564557  0.564535  0.935415  1
  Tb  Tb15  1  0.934134  0.935378  0.565218  1
  Al  Al16  1  0.263337  0.578891  0.578891  1
  Ag  Ag17  1  0.578797  0.583886  0.583886  1
  Ag  Ag18  1  0.578824  0.583908  0.253368  1
  Ag  Ag19  1  0.578824  0.253368  0.583908  1
  Pt  Pt20  1  0.143731  0.144219  0.144219  1
  Pt  Pt21  1  0.143806  0.144212  0.567851  1
  Pt  Pt22  1  0.143806  0.567851  0.144212  1
  Pt  Pt23  1  0.569339  0.143526  0.143526  1
