# generated using pymatgen
data_LuSc5Ti7Al9Os7
_symmetry_space_group_name_H-M   'P 1'
_cell_length_a   8.93248541
_cell_length_b   8.93248652
_cell_length_c   8.94421647
_cell_angle_alpha   59.45928773
_cell_angle_beta   59.45928154
_cell_angle_gamma   59.60995814
_symmetry_Int_Tables_number   1
_chemical_formula_structural   LuSc5Ti7Al9Os7
_chemical_formula_sum   'Lu1 Sc5 Ti7 Al9 Os7'
_cell_volume   498.99756296
_cell_formula_units_Z   1
loop_
 _symmetry_equiv_pos_site_id
 _symmetry_equiv_pos_as_xyz
  1  'x, y, z'
loop_
 _atom_site_type_symbol
 _atom_site_label
 _atom_site_symmetry_multiplicity
 _atom_site_fract_x
 _atom_site_fract_y
 _atom_site_fract_z
 _atom_site_occupancy
  Lu  Lu0  1  0.704386  0.704386  0.294443  1
  Sc  Sc1  1  0.290608  0.714975  0.290649  1
  Sc  Sc2  1  0.714975  0.290608  0.290649  1
  Sc  Sc3  1  0.291440  0.291440  0.714223  1
  Sc  Sc4  1  0.707815  0.290548  0.708244  1
  Sc  Sc5  1  0.290548  0.707815  0.708244  1
  Ti  Ti6  1  0.881028  0.881028  0.361824  1
  Ti  Ti7  1  0.880915  0.360973  0.880291  1
  Ti  Ti8  1  0.360973  0.880915  0.880291  1
  Ti  Ti9  1  0.877912  0.877912  0.875608  1
  Ti  Ti10  1  0.122634  0.122634  0.634304  1
  Ti  Ti11  1  0.124459  0.633634  0.121786  1
  Ti  Ti12  1  0.633634  0.124459  0.121786  1
  Al  Al13  1  0.118161  0.118161  0.117904  1
  Al  Al14  1  0.665220  0.665220  0.000418  1
  Al  Al15  1  0.664986  0.003262  0.665038  1
  Al  Al16  1  0.003262  0.664986  0.665038  1
  Al  Al17  1  0.666250  0.666250  0.668181  1
  Al  Al18  1  0.332969  0.332969  0.998598  1
  Al  Al19  1  0.330490  0.001911  0.332523  1
  Al  Al20  1  0.001911  0.330490  0.332523  1
  Al  Al21  1  0.336424  0.336424  0.336635  1
  Os  Os22  1  0.996346  0.996346  0.997064  1
  Os  Os23  1  0.999805  0.999805  0.503215  1
  Os  Os24  1  0.500084  0.999383  0.500976  1
  Os  Os25  1  0.999383  0.500084  0.500976  1
  Os  Os26  1  0.500243  0.500243  0.999181  1
  Os  Os27  1  0.000407  0.502732  0.999694  1
  Os  Os28  1  0.502732  0.000407  0.999694  1
