# generated using pymatgen
data_SrTa8MnS16
_symmetry_space_group_name_H-M   'P 1'
_cell_length_a   6.71060300
_cell_length_b   6.71060267
_cell_length_c   13.78087400
_cell_angle_alpha   90.00000000
_cell_angle_beta   90.00000000
_cell_angle_gamma   120.00000657
_symmetry_Int_Tables_number   1
_chemical_formula_structural   SrTa8MnS16
_chemical_formula_sum   'Sr1 Ta8 Mn1 S16'
_cell_volume   537.44055712
_cell_formula_units_Z   1
loop_
 _symmetry_equiv_pos_site_id
 _symmetry_equiv_pos_as_xyz
  1  'x, y, z'
loop_
 _atom_site_type_symbol
 _atom_site_label
 _atom_site_symmetry_multiplicity
 _atom_site_fract_x
 _atom_site_fract_y
 _atom_site_fract_z
 _atom_site_occupancy
  Sr  Sr0  1  0.000000  0.000000  0.500000  1
  Ta  Ta1  1  0.505141  0.494859  0.774342  1
  Ta  Ta2  1  0.010279  0.505141  0.225658  1
  Ta  Ta3  1  0.494859  0.989721  0.225658  1
  Ta  Ta4  1  0.505141  0.010279  0.774342  1
  Ta  Ta5  1  0.989721  0.494859  0.774342  1
  Ta  Ta6  1  0.494859  0.505141  0.225658  1
  Ta  Ta7  1  0.000000  0.000000  0.774414  1
  Ta  Ta8  1  0.000000  0.000000  0.225586  1
  Mn  Mn9  1  0.000000  0.000000  0.000000  1
  S  S10  1  0.831802  0.168198  0.338106  1
  S  S11  1  0.831802  0.663603  0.338106  1
  S  S12  1  0.336397  0.168198  0.338106  1
  S  S13  1  0.663570  0.831784  0.886457  1
  S  S14  1  0.168198  0.336397  0.661894  1
  S  S15  1  0.168216  0.831784  0.886457  1
  S  S16  1  0.168216  0.336430  0.886457  1
  S  S17  1  0.831784  0.168216  0.113543  1
  S  S18  1  0.336430  0.168216  0.113543  1
  S  S19  1  0.663603  0.831802  0.661894  1
  S  S20  1  0.333333  0.666667  0.111125  1
  S  S21  1  0.666667  0.333333  0.657537  1
  S  S22  1  0.666667  0.333333  0.888875  1
  S  S23  1  0.333333  0.666667  0.342463  1
  S  S24  1  0.831784  0.663570  0.113543  1
  S  S25  1  0.168198  0.831802  0.661894  1
