# generated using pymatgen
data_Ta16AlV3Te16
_symmetry_space_group_name_H-M   'P 1'
_cell_length_a   4.90716100
_cell_length_b   11.11371604
_cell_length_c   19.44213707
_cell_angle_alpha   90.00985299
_cell_angle_beta   90.00000000
_cell_angle_gamma   90.00000000
_symmetry_Int_Tables_number   1
_chemical_formula_structural   Ta16AlV3Te16
_chemical_formula_sum   'Ta16 Al1 V3 Te16'
_cell_volume   1060.31180721
_cell_formula_units_Z   1
loop_
 _symmetry_equiv_pos_site_id
 _symmetry_equiv_pos_as_xyz
  1  'x, y, z'
loop_
 _atom_site_type_symbol
 _atom_site_label
 _atom_site_symmetry_multiplicity
 _atom_site_fract_x
 _atom_site_fract_y
 _atom_site_fract_z
 _atom_site_occupancy
  Ta  Ta0  1  0.498808  0.564124  0.383590  1
  Ta  Ta1  1  0.498808  0.435876  0.616410  1
  Ta  Ta2  1  0.499976  0.064311  0.116716  1
  Ta  Ta3  1  0.499976  0.935689  0.883284  1
  Ta  Ta4  1  0.498457  0.703938  0.536523  1
  Ta  Ta5  1  0.498457  0.296062  0.463477  1
  Ta  Ta6  1  0.500003  0.204526  0.963375  1
  Ta  Ta7  1  0.500003  0.795474  0.036625  1
  Ta  Ta8  1  0.001658  0.689479  0.443406  1
  Ta  Ta9  1  0.001658  0.310521  0.556594  1
  Ta  Ta10  1  0.000012  0.189887  0.056717  1
  Ta  Ta11  1  0.000012  0.810113  0.943283  1
  Ta  Ta12  1  0.001059  0.401277  0.391816  1
  Ta  Ta13  1  0.001059  0.598723  0.608184  1
  Ta  Ta14  1  0.000049  0.901008  0.108358  1
  Ta  Ta15  1  0.000049  0.098992  0.891642  1
  Al  Al16  1  0.249955  0.500000  0.500000  1
  V  V17  1  0.749213  0.000000  0.000000  1
  V  V18  1  0.749975  0.500000  0.500000  1
  V  V19  1  0.250809  0.000000  0.000000  1
  Te  Te20  1  0.996704  0.843646  0.561781  1
  Te  Te21  1  0.996704  0.156354  0.438219  1
  Te  Te22  1  0.000041  0.343913  0.938150  1
  Te  Te23  1  0.000041  0.656087  0.061850  1
  Te  Te24  1  0.503059  0.333500  0.317709  1
  Te  Te25  1  0.503059  0.666500  0.682291  1
  Te  Te26  1  0.499955  0.833484  0.182445  1
  Te  Te27  1  0.499955  0.166516  0.817555  1
  Te  Te28  1  0.503305  0.819664  0.404686  1
  Te  Te29  1  0.503305  0.180336  0.595314  1
  Te  Te30  1  0.499942  0.319905  0.095390  1
  Te  Te31  1  0.499942  0.680095  0.904610  1
  Te  Te32  1  0.996962  0.607786  0.303545  1
  Te  Te33  1  0.996962  0.392214  0.696455  1
  Te  Te34  1  0.000035  0.107817  0.196529  1
  Te  Te35  1  0.000035  0.892183  0.803471  1
