# generated using pymatgen
data_Dy3SnGeRh2
_symmetry_space_group_name_H-M   'P 1'
_cell_length_a   5.66437900
_cell_length_b   8.12758900
_cell_length_c   13.31811200
_cell_angle_alpha   90.00000000
_cell_angle_beta   90.00000000
_cell_angle_gamma   90.00000000
_symmetry_Int_Tables_number   1
_chemical_formula_structural   Dy3SnGeRh2
_chemical_formula_sum   'Dy12 Sn4 Ge4 Rh8'
_cell_volume   613.13583684
_cell_formula_units_Z   4
loop_
 _symmetry_equiv_pos_site_id
 _symmetry_equiv_pos_as_xyz
  1  'x, y, z'
loop_
 _atom_site_type_symbol
 _atom_site_label
 _atom_site_symmetry_multiplicity
 _atom_site_fract_x
 _atom_site_fract_y
 _atom_site_fract_z
 _atom_site_occupancy
  Dy  Dy0  1  0.633295  0.255777  0.250000  1
  Dy  Dy1  1  0.366705  0.744223  0.750000  1
  Dy  Dy2  1  0.366705  0.755777  0.250000  1
  Dy  Dy3  1  0.633295  0.244223  0.750000  1
  Dy  Dy4  1  0.157833  0.396248  0.101068  1
  Dy  Dy5  1  0.842167  0.603752  0.898932  1
  Dy  Dy6  1  0.842167  0.603752  0.601068  1
  Dy  Dy7  1  0.842167  0.896248  0.398932  1
  Dy  Dy8  1  0.157833  0.396248  0.398932  1
  Dy  Dy9  1  0.157833  0.103752  0.601068  1
  Dy  Dy10  1  0.157833  0.103752  0.898932  1
  Dy  Dy11  1  0.842167  0.896248  0.101068  1
  Sn  Sn12  1  0.671812  0.250000  0.000000  1
  Sn  Sn13  1  0.328188  0.750000  0.000000  1
  Sn  Sn14  1  0.328188  0.750000  0.500000  1
  Sn  Sn15  1  0.671812  0.250000  0.500000  1
  Ge  Ge16  1  0.121320  0.111680  0.250000  1
  Ge  Ge17  1  0.878680  0.888320  0.750000  1
  Ge  Ge18  1  0.878680  0.611680  0.250000  1
  Ge  Ge19  1  0.121320  0.388320  0.750000  1
  Rh  Rh20  1  0.368478  0.043294  0.098763  1
  Rh  Rh21  1  0.631522  0.956706  0.901237  1
  Rh  Rh22  1  0.631522  0.956706  0.598763  1
  Rh  Rh23  1  0.631522  0.543294  0.401237  1
  Rh  Rh24  1  0.368478  0.043294  0.401237  1
  Rh  Rh25  1  0.368478  0.456706  0.598763  1
  Rh  Rh26  1  0.368478  0.456706  0.901237  1
  Rh  Rh27  1  0.631522  0.543294  0.098763  1
