# generated using pymatgen
data_LiMnTlSe2
_symmetry_space_group_name_H-M   'P 1'
_cell_length_a   4.27257500
_cell_length_b   7.61595311
_cell_length_c   4.27257500
_cell_angle_alpha   73.70985622
_cell_angle_beta   90.00000000
_cell_angle_gamma   106.29014378
_symmetry_Int_Tables_number   1
_chemical_formula_structural   LiMnTlSe2
_chemical_formula_sum   'Li1 Mn1 Tl1 Se2'
_cell_volume   127.62157402
_cell_formula_units_Z   1
loop_
 _symmetry_equiv_pos_site_id
 _symmetry_equiv_pos_as_xyz
  1  'x, y, z'
loop_
 _atom_site_type_symbol
 _atom_site_label
 _atom_site_symmetry_multiplicity
 _atom_site_fract_x
 _atom_site_fract_y
 _atom_site_fract_z
 _atom_site_occupancy
  Li  Li0  1  0.250000  0.500000  0.250000  1
  Mn  Mn1  1  0.750000  0.500000  0.750000  1
  Tl  Tl2  1  0.000000  0.000000  0.000000  1
  Se  Se3  1  0.647168  0.294337  0.352832  1
  Se  Se4  1  0.352832  0.705663  0.647168  1
