# generated using pymatgen
data_LiTc3P4W3
_symmetry_space_group_name_H-M   'P 1'
_cell_length_a   7.57437600
_cell_length_b   7.57437634
_cell_length_c   3.16390200
_cell_angle_alpha   90.00000000
_cell_angle_beta   90.00000000
_cell_angle_gamma   119.99998979
_symmetry_Int_Tables_number   1
_chemical_formula_structural   LiTc3P4W3
_chemical_formula_sum   'Li1 Tc3 P4 W3'
_cell_volume   157.19815300
_cell_formula_units_Z   1
loop_
 _symmetry_equiv_pos_site_id
 _symmetry_equiv_pos_as_xyz
  1  'x, y, z'
loop_
 _atom_site_type_symbol
 _atom_site_label
 _atom_site_symmetry_multiplicity
 _atom_site_fract_x
 _atom_site_fract_y
 _atom_site_fract_z
 _atom_site_occupancy
  Li  Li0  1  0.000000  0.000000  0.000000  1
  Tc  Tc1  1  0.196872  0.803128  0.500000  1
  Tc  Tc2  1  0.196872  0.393744  0.500000  1
  Tc  Tc3  1  0.606256  0.803128  0.500000  1
  P  P4  1  0.831716  0.168284  0.500000  1
  P  P5  1  0.336569  0.168284  0.500000  1
  P  P6  1  0.333333  0.666667  0.000000  1
  P  P7  1  0.831716  0.663431  0.500000  1
  W  W8  1  0.544005  0.088009  0.000000  1
  W  W9  1  0.911991  0.455995  0.000000  1
  W  W10  1  0.544005  0.455995  0.000000  1
