# generated using pymatgen
data_Pr3Ho(In2Pd3)4
_symmetry_space_group_name_H-M   'P 1'
_cell_length_a   4.67371900
_cell_length_b   9.99841269
_cell_length_c   10.37573673
_cell_angle_alpha   90.04276053
_cell_angle_beta   90.00000000
_cell_angle_gamma   90.00000000
_symmetry_Int_Tables_number   1
_chemical_formula_structural   Pr3Ho(In2Pd3)4
_chemical_formula_sum   'Pr3 Ho1 In8 Pd12'
_cell_volume   484.85566999
_cell_formula_units_Z   1
loop_
 _symmetry_equiv_pos_site_id
 _symmetry_equiv_pos_as_xyz
  1  'x, y, z'
loop_
 _atom_site_type_symbol
 _atom_site_label
 _atom_site_symmetry_multiplicity
 _atom_site_fract_x
 _atom_site_fract_y
 _atom_site_fract_z
 _atom_site_occupancy
  Pr  Pr0  1  0.250000  0.057391  0.230100  1
  Pr  Pr1  1  0.750000  0.557111  0.269877  1
  Pr  Pr2  1  0.750000  0.943562  0.769285  1
  Ho  Ho3  1  0.250000  0.441455  0.724002  1
  In  In4  1  0.250000  0.883332  0.517012  1
  In  In5  1  0.250000  0.615444  0.012580  1
  In  In6  1  0.750000  0.116451  0.484500  1
  In  In7  1  0.750000  0.384397  0.983592  1
  In  In8  1  0.250000  0.161403  0.892873  1
  In  In9  1  0.250000  0.341785  0.396007  1
  In  In10  1  0.750000  0.841702  0.104898  1
  In  In11  1  0.750000  0.656463  0.607887  1
  Pd  Pd12  1  0.250000  0.147976  0.619781  1
  Pd  Pd13  1  0.250000  0.356671  0.119564  1
  Pd  Pd14  1  0.750000  0.856275  0.381073  1
  Pd  Pd15  1  0.750000  0.639266  0.878442  1
  Pd  Pd16  1  0.250000  0.732536  0.742179  1
  Pd  Pd17  1  0.250000  0.759509  0.242316  1
  Pd  Pd18  1  0.750000  0.261292  0.258584  1
  Pd  Pd19  1  0.750000  0.245898  0.758420  1
  Pd  Pd20  1  0.250000  0.895477  0.973254  1
  Pd  Pd21  1  0.250000  0.603437  0.478495  1
  Pd  Pd22  1  0.750000  0.106674  0.024957  1
  Pd  Pd23  1  0.750000  0.394496  0.530321  1
