# generated using pymatgen
data_Sm3B6OsRh7
_symmetry_space_group_name_H-M   'P 1'
_cell_length_a   10.01816610
_cell_length_b   9.18093362
_cell_length_c   5.60421837
_cell_angle_alpha   81.43075439
_cell_angle_beta   64.98512123
_cell_angle_gamma   33.58411611
_symmetry_Int_Tables_number   1
_chemical_formula_structural   Sm3B6OsRh7
_chemical_formula_sum   'Sm3 B6 Os1 Rh7'
_cell_volume   236.18742333
_cell_formula_units_Z   1
loop_
 _symmetry_equiv_pos_site_id
 _symmetry_equiv_pos_as_xyz
  1  'x, y, z'
loop_
 _atom_site_type_symbol
 _atom_site_label
 _atom_site_symmetry_multiplicity
 _atom_site_fract_x
 _atom_site_fract_y
 _atom_site_fract_z
 _atom_site_occupancy
  Sm  Sm0  1  0.000000  0.000000  0.000000  1
  Sm  Sm1  1  0.180720  0.180720  0.819280  1
  Sm  Sm2  1  0.819280  0.819280  0.180720  1
  B  B3  1  0.820327  0.528255  0.488547  1
  B  B4  1  0.162871  0.488547  0.528255  1
  B  B5  1  0.488547  0.162871  0.820327  1
  B  B6  1  0.669351  0.330649  0.669351  1
  B  B7  1  0.528255  0.820327  0.162871  1
  B  B8  1  0.330649  0.669351  0.330649  1
  Os  Os9  1  0.750000  0.750000  0.750000  1
  Rh  Rh10  1  0.414402  0.414402  0.585598  1
  Rh  Rh11  1  0.584725  0.584725  0.915275  1
  Rh  Rh12  1  0.085676  0.085676  0.414324  1
  Rh  Rh13  1  0.915275  0.915275  0.584725  1
  Rh  Rh14  1  0.585598  0.585598  0.414402  1
  Rh  Rh15  1  0.250000  0.250000  0.250000  1
  Rh  Rh16  1  0.414324  0.414324  0.085676  1
