# generated using pymatgen
data_Tb16Ga6FeCo
_symmetry_space_group_name_H-M   'P 1'
_cell_length_a   10.07227300
_cell_length_b   10.05974044
_cell_length_c   6.96132018
_cell_angle_alpha   90.02240637
_cell_angle_beta   90.00000000
_cell_angle_gamma   120.04121644
_symmetry_Int_Tables_number   1
_chemical_formula_structural   Tb16Ga6FeCo
_chemical_formula_sum   'Tb16 Ga6 Fe1 Co1'
_cell_volume   610.59878709
_cell_formula_units_Z   1
loop_
 _symmetry_equiv_pos_site_id
 _symmetry_equiv_pos_as_xyz
  1  'x, y, z'
loop_
 _atom_site_type_symbol
 _atom_site_label
 _atom_site_symmetry_multiplicity
 _atom_site_fract_x
 _atom_site_fract_y
 _atom_site_fract_z
 _atom_site_occupancy
  Tb  Tb0  1  0.666685  0.333373  0.171275  1
  Tb  Tb1  1  0.999967  0.999935  0.268128  1
  Tb  Tb2  1  0.461694  0.923390  0.292618  1
  Tb  Tb3  1  0.076788  0.538350  0.292610  1
  Tb  Tb4  1  0.461562  0.538350  0.292610  1
  Tb  Tb5  1  0.345296  0.172658  0.488834  1
  Tb  Tb6  1  0.827361  0.172658  0.488834  1
  Tb  Tb7  1  0.827567  0.655135  0.488906  1
  Tb  Tb8  1  0.333319  0.666639  0.670630  1
  Tb  Tb9  1  0.000022  0.000045  0.769344  1
  Tb  Tb10  1  0.537023  0.074046  0.792733  1
  Tb  Tb11  1  0.537129  0.462947  0.792824  1
  Tb  Tb12  1  0.925819  0.462947  0.792824  1
  Tb  Tb13  1  0.172672  0.827376  0.989356  1
  Tb  Tb14  1  0.654705  0.827376  0.989356  1
  Tb  Tb15  1  0.172458  0.344916  0.989535  1
  Ga  Ga16  1  0.835922  0.671845  0.041065  1
  Ga  Ga17  1  0.327827  0.163922  0.040980  1
  Ga  Ga18  1  0.836092  0.163922  0.040980  1
  Ga  Ga19  1  0.163165  0.326328  0.541403  1
  Ga  Ga20  1  0.162957  0.836924  0.541335  1
  Ga  Ga21  1  0.673966  0.836924  0.541335  1
  Fe  Fe22  1  0.333331  0.666662  0.052815  1
  Co  Co23  1  0.666668  0.333338  0.555673  1
