# generated using pymatgen
data_TbU6InF30
_symmetry_space_group_name_H-M   'P 1'
_cell_length_a   8.60331329
_cell_length_b   8.62839129
_cell_length_c   8.60331424
_cell_angle_alpha   100.22870244
_cell_angle_beta   99.89314168
_cell_angle_gamma   100.22870390
_symmetry_Int_Tables_number   1
_chemical_formula_structural   TbU6InF30
_chemical_formula_sum   'Tb1 U6 In1 F30'
_cell_volume   604.72129486
_cell_formula_units_Z   1
loop_
 _symmetry_equiv_pos_site_id
 _symmetry_equiv_pos_as_xyz
  1  'x, y, z'
loop_
 _atom_site_type_symbol
 _atom_site_label
 _atom_site_symmetry_multiplicity
 _atom_site_fract_x
 _atom_site_fract_y
 _atom_site_fract_z
 _atom_site_occupancy
  Tb  Tb0  1  0.821432  0.250000  0.678568  1
  U  U1  1  0.181756  0.750000  0.318244  1
  U  U2  1  0.246863  0.676548  0.819305  1
  U  U3  1  0.680695  0.823452  0.253137  1
  U  U4  1  0.749731  0.750000  0.750269  1
  U  U5  1  0.319299  0.180959  0.748537  1
  U  U6  1  0.751463  0.319041  0.180701  1
  In  In7  1  0.251033  0.250000  0.248967  1
  F  F8  1  0.959437  0.543056  0.251718  1
  F  F9  1  0.814282  0.346749  0.447505  1
  F  F10  1  0.487701  0.724120  0.718115  1
  F  F11  1  0.354840  0.451073  0.817112  1
  F  F12  1  0.011551  0.783212  0.775293  1
  F  F13  1  0.749586  0.035372  0.461405  1
  F  F14  1  0.948758  0.847193  0.318325  1
  F  F15  1  0.226026  0.222231  0.994147  1
  F  F16  1  0.773770  0.005421  0.773927  1
  F  F17  1  0.319861  0.944560  0.845216  1
  F  F18  1  0.277528  0.274282  0.503716  1
  F  F19  1  0.452279  0.816071  0.355421  1
  F  F20  1  0.535725  0.250000  0.964275  1
  F  F21  1  0.273285  0.506612  0.274648  1
  F  F22  1  0.144579  0.683929  0.047721  1
  F  F23  1  0.838870  0.315727  0.949265  1
  F  F24  1  0.726073  0.494579  0.726230  1
  F  F25  1  0.460043  0.750000  0.039957  1
  F  F26  1  0.550735  0.184273  0.661130  1
  F  F27  1  0.724707  0.716788  0.488449  1
  F  F28  1  0.682888  0.048927  0.145160  1
  F  F29  1  0.225352  0.993388  0.226715  1
  F  F30  1  0.781885  0.775880  0.012299  1
  F  F31  1  0.052495  0.153251  0.685718  1
  F  F32  1  0.248282  0.956944  0.540563  1
  F  F33  1  0.996284  0.225718  0.222472  1
  F  F34  1  0.654784  0.555440  0.180139  1
  F  F35  1  0.505853  0.277769  0.273974  1
  F  F36  1  0.181675  0.652807  0.551242  1
  F  F37  1  0.038595  0.464628  0.750414  1
