# generated using pymatgen
data_Nd4Ga4Ir2PdPt
_symmetry_space_group_name_H-M   'P 1'
_cell_length_a   4.49039500
_cell_length_b   7.09638217
_cell_length_c   7.85155296
_cell_angle_alpha   89.84814413
_cell_angle_beta   90.00000000
_cell_angle_gamma   90.00000000
_symmetry_Int_Tables_number   1
_chemical_formula_structural   Nd4Ga4Ir2PdPt
_chemical_formula_sum   'Nd4 Ga4 Ir2 Pd1 Pt1'
_cell_volume   250.19324552
_cell_formula_units_Z   1
loop_
 _symmetry_equiv_pos_site_id
 _symmetry_equiv_pos_as_xyz
  1  'x, y, z'
loop_
 _atom_site_type_symbol
 _atom_site_label
 _atom_site_symmetry_multiplicity
 _atom_site_fract_x
 _atom_site_fract_y
 _atom_site_fract_z
 _atom_site_occupancy
  Nd  Nd0  1  0.250000  0.032096  0.687278  1
  Nd  Nd1  1  0.250000  0.528014  0.814059  1
  Nd  Nd2  1  0.750000  0.978630  0.306078  1
  Nd  Nd3  1  0.750000  0.477949  0.193540  1
  Ga  Ga4  1  0.250000  0.155619  0.074039  1
  Ga  Ga5  1  0.250000  0.656669  0.426836  1
  Ga  Ga6  1  0.750000  0.839434  0.932453  1
  Ga  Ga7  1  0.750000  0.336469  0.567576  1
  Ir  Ir8  1  0.250000  0.279638  0.392117  1
  Ir  Ir9  1  0.250000  0.778407  0.107228  1
  Pd  Pd10  1  0.750000  0.716940  0.606952  1
  Pt  Pt11  1  0.750000  0.220135  0.891846  1
