# generated using pymatgen
data_Yb7Sm(Sc3Pt4)4
_symmetry_space_group_name_H-M   'P 1'
_cell_length_a   7.30454152
_cell_length_b   7.36127906
_cell_length_c   13.95382971
_cell_angle_alpha   90.05048461
_cell_angle_beta   90.02520844
_cell_angle_gamma   89.96444279
_symmetry_Int_Tables_number   1
_chemical_formula_structural   Yb7Sm(Sc3Pt4)4
_chemical_formula_sum   'Yb7 Sm1 Sc12 Pt16'
_cell_volume   750.30764004
_cell_formula_units_Z   1
loop_
 _symmetry_equiv_pos_site_id
 _symmetry_equiv_pos_as_xyz
  1  'x, y, z'
loop_
 _atom_site_type_symbol
 _atom_site_label
 _atom_site_symmetry_multiplicity
 _atom_site_fract_x
 _atom_site_fract_y
 _atom_site_fract_z
 _atom_site_occupancy
  Yb  Yb0  1  0.993782  0.824811  0.907887  1
  Yb  Yb1  1  0.507937  0.325277  0.093514  1
  Yb  Yb2  1  0.008655  0.175289  0.405530  1
  Yb  Yb3  1  0.508554  0.323334  0.404820  1
  Yb  Yb4  1  0.007308  0.175416  0.093409  1
  Yb  Yb5  1  0.491895  0.675052  0.905689  1
  Yb  Yb6  1  0.992933  0.825584  0.593770  1
  Sm  Sm7  1  0.491873  0.674306  0.594014  1
  Sc  Sc8  1  0.654282  0.167163  0.624031  1
  Sc  Sc9  1  0.152824  0.335122  0.876084  1
  Sc  Sc10  1  0.346187  0.834018  0.123376  1
  Sc  Sc11  1  0.848265  0.665237  0.375326  1
  Sc  Sc12  1  0.344691  0.836103  0.373608  1
  Sc  Sc13  1  0.845755  0.664154  0.124430  1
  Sc  Sc14  1  0.654358  0.166173  0.877247  1
  Sc  Sc15  1  0.149554  0.332883  0.625775  1
  Sc  Sc16  1  0.817138  0.505220  0.751668  1
  Sc  Sc17  1  0.315726  0.997024  0.751308  1
  Sc  Sc18  1  0.184387  0.494709  0.249619  1
  Sc  Sc19  1  0.683364  0.004228  0.248995  1
  Pt  Pt20  1  0.672915  0.954530  0.453110  1
  Pt  Pt21  1  0.173198  0.543179  0.047324  1
  Pt  Pt22  1  0.327427  0.044068  0.952830  1
  Pt  Pt23  1  0.825007  0.459461  0.546128  1
  Pt  Pt24  1  0.327021  0.044321  0.546461  1
  Pt  Pt25  1  0.826123  0.457182  0.953126  1
  Pt  Pt26  1  0.673508  0.956162  0.047199  1
  Pt  Pt27  1  0.177593  0.543065  0.455042  1
  Pt  Pt28  1  0.452349  0.367524  0.750309  1
  Pt  Pt29  1  0.951789  0.128369  0.751633  1
  Pt  Pt30  1  0.546631  0.629570  0.249785  1
  Pt  Pt31  1  0.045496  0.870465  0.248779  1
  Pt  Pt32  1  0.679674  0.865311  0.749773  1
  Pt  Pt33  1  0.178188  0.635969  0.749767  1
  Pt  Pt34  1  0.320785  0.134539  0.248618  1
  Pt  Pt35  1  0.822827  0.365181  0.250013  1
