# generated using pymatgen
data_YbTa4Ru4W
_symmetry_space_group_name_H-M   'P 1'
_cell_length_a   3.20553900
_cell_length_b   3.20553900
_cell_length_c   16.49111700
_cell_angle_alpha   90.00000000
_cell_angle_beta   90.00000000
_cell_angle_gamma   90.00000000
_symmetry_Int_Tables_number   1
_chemical_formula_structural   YbTa4Ru4W
_chemical_formula_sum   'Yb1 Ta4 Ru4 W1'
_cell_volume   169.45414754
_cell_formula_units_Z   1
loop_
 _symmetry_equiv_pos_site_id
 _symmetry_equiv_pos_as_xyz
  1  'x, y, z'
loop_
 _atom_site_type_symbol
 _atom_site_label
 _atom_site_symmetry_multiplicity
 _atom_site_fract_x
 _atom_site_fract_y
 _atom_site_fract_z
 _atom_site_occupancy
  Yb  Yb0  1  0.000000  0.000000  0.500000  1
  Ta  Ta1  1  0.000000  0.000000  0.902477  1
  Ta  Ta2  1  0.000000  0.000000  0.097523  1
  Ta  Ta3  1  0.000000  0.000000  0.296165  1
  Ta  Ta4  1  0.000000  0.000000  0.703835  1
  Ru  Ru5  1  0.500000  0.500000  0.195246  1
  Ru  Ru6  1  0.500000  0.500000  0.379204  1
  Ru  Ru7  1  0.500000  0.500000  0.620796  1
  Ru  Ru8  1  0.500000  0.500000  0.804754  1
  W  W9  1  0.500000  0.500000  0.000000  1
