# generated using pymatgen
data_NaSr21Al7GaSn6
_symmetry_space_group_name_H-M   'P 1'
_cell_length_a   12.26502681
_cell_length_b   12.26502788
_cell_length_c   12.26502692
_cell_angle_alpha   60.07480229
_cell_angle_beta   60.07480293
_cell_angle_gamma   60.07479574
_symmetry_Int_Tables_number   1
_chemical_formula_structural   NaSr21Al7GaSn6
_chemical_formula_sum   'Na1 Sr21 Al7 Ga1 Sn6'
_cell_volume   1306.85108472
_cell_formula_units_Z   1
loop_
 _symmetry_equiv_pos_site_id
 _symmetry_equiv_pos_as_xyz
  1  'x, y, z'
loop_
 _atom_site_type_symbol
 _atom_site_label
 _atom_site_symmetry_multiplicity
 _atom_site_fract_x
 _atom_site_fract_y
 _atom_site_fract_z
 _atom_site_occupancy
  Na  Na0  1  0.499985  0.499985  0.499985  1
  Sr  Sr1  1  0.870641  0.870641  0.388105  1
  Sr  Sr2  1  0.610924  0.129882  0.129882  1
  Sr  Sr3  1  0.870641  0.388105  0.870641  1
  Sr  Sr4  1  0.129445  0.129445  0.129445  1
  Sr  Sr5  1  0.388105  0.870641  0.870641  1
  Sr  Sr6  1  0.870657  0.870657  0.870657  1
  Sr  Sr7  1  0.169470  0.830616  0.500008  1
  Sr  Sr8  1  0.830225  0.500096  0.500096  1
  Sr  Sr9  1  0.129882  0.129882  0.610924  1
  Sr  Sr10  1  0.830616  0.169470  0.500008  1
  Sr  Sr11  1  0.169793  0.499182  0.499182  1
  Sr  Sr12  1  0.129882  0.610924  0.129882  1
  Sr  Sr13  1  0.499182  0.499182  0.169793  1
  Sr  Sr14  1  0.500008  0.169470  0.830616  1
  Sr  Sr15  1  0.500008  0.830616  0.169470  1
  Sr  Sr16  1  0.500096  0.500096  0.830225  1
  Sr  Sr17  1  0.499182  0.169793  0.499182  1
  Sr  Sr18  1  0.169470  0.500008  0.830616  1
  Sr  Sr19  1  0.999959  0.999959  0.999959  1
  Sr  Sr20  1  0.500096  0.830225  0.500096  1
  Sr  Sr21  1  0.830616  0.500008  0.169470  1
  Al  Al22  1  0.694445  0.916559  0.694445  1
  Al  Al23  1  0.694445  0.694445  0.916559  1
  Al  Al24  1  0.694485  0.694485  0.694485  1
  Al  Al25  1  0.305413  0.084005  0.305413  1
  Al  Al26  1  0.916559  0.694445  0.694445  1
  Al  Al27  1  0.305413  0.305413  0.084005  1
  Al  Al28  1  0.084005  0.305413  0.305413  1
  Ga  Ga29  1  0.306304  0.306304  0.306304  1
  Sn  Sn30  1  0.783949  0.216091  0.783949  1
  Sn  Sn31  1  0.783855  0.216101  0.216101  1
  Sn  Sn32  1  0.216101  0.783855  0.216101  1
  Sn  Sn33  1  0.216091  0.783949  0.783949  1
  Sn  Sn34  1  0.783949  0.783949  0.216091  1
  Sn  Sn35  1  0.216101  0.216101  0.783855  1
