# generated using pymatgen
data_Pr2P4Ir2RuRh
_symmetry_space_group_name_H-M   'P 1'
_cell_length_a   4.22435600
_cell_length_b   4.22435600
_cell_length_c   9.53854000
_cell_angle_alpha   90.00000000
_cell_angle_beta   90.00000000
_cell_angle_gamma   90.00000000
_symmetry_Int_Tables_number   1
_chemical_formula_structural   Pr2P4Ir2RuRh
_chemical_formula_sum   'Pr2 P4 Ir2 Ru1 Rh1'
_cell_volume   170.21699772
_cell_formula_units_Z   1
loop_
 _symmetry_equiv_pos_site_id
 _symmetry_equiv_pos_as_xyz
  1  'x, y, z'
loop_
 _atom_site_type_symbol
 _atom_site_label
 _atom_site_symmetry_multiplicity
 _atom_site_fract_x
 _atom_site_fract_y
 _atom_site_fract_z
 _atom_site_occupancy
  Pr  Pr0  1  0.000000  0.500000  0.260435  1
  Pr  Pr1  1  0.500000  0.000000  0.739565  1
  P  P2  1  0.000000  0.000000  0.500000  1
  P  P3  1  0.500000  0.500000  0.500000  1
  P  P4  1  0.000000  0.500000  0.866720  1
  P  P5  1  0.500000  0.000000  0.133280  1
  Ir  Ir6  1  0.000000  0.500000  0.612010  1
  Ir  Ir7  1  0.500000  0.000000  0.387990  1
  Ru  Ru8  1  0.000000  0.000000  0.000000  1
  Rh  Rh9  1  0.500000  0.500000  0.000000  1
