# generated using pymatgen
data_Tb2BeSi4Ni
_symmetry_space_group_name_H-M   'P 1'
_cell_length_a   8.47694582
_cell_length_b   8.47694581
_cell_length_c   3.92936200
_cell_angle_alpha   90.00000000
_cell_angle_beta   90.00000000
_cell_angle_gamma   152.55225493
_symmetry_Int_Tables_number   1
_chemical_formula_structural   Tb2BeSi4Ni
_chemical_formula_sum   'Tb2 Be1 Si4 Ni1'
_cell_volume   130.15016817
_cell_formula_units_Z   1
loop_
 _symmetry_equiv_pos_site_id
 _symmetry_equiv_pos_as_xyz
  1  'x, y, z'
loop_
 _atom_site_type_symbol
 _atom_site_label
 _atom_site_symmetry_multiplicity
 _atom_site_fract_x
 _atom_site_fract_y
 _atom_site_fract_z
 _atom_site_occupancy
  Tb  Tb0  1  0.102060  0.897940  0.250000  1
  Tb  Tb1  1  0.892993  0.107007  0.750000  1
  Be  Be2  1  0.326995  0.673005  0.250000  1
  Si  Si3  1  0.750176  0.249824  0.250000  1
  Si  Si4  1  0.248447  0.751553  0.750000  1
  Si  Si5  1  0.461209  0.538791  0.250000  1
  Si  Si6  1  0.540188  0.459812  0.750000  1
  Ni  Ni7  1  0.677931  0.322069  0.750000  1
