# generated using pymatgen
data_DyEr11TlNi6
_symmetry_space_group_name_H-M   'P 1'
_cell_length_a   8.28479917
_cell_length_b   8.27566033
_cell_length_c   8.27566200
_cell_angle_alpha   109.43515069
_cell_angle_beta   109.43958868
_cell_angle_gamma   109.49420275
_symmetry_Int_Tables_number   1
_chemical_formula_structural   DyEr11TlNi6
_chemical_formula_sum   'Dy1 Er11 Tl1 Ni6'
_cell_volume   437.02355473
_cell_formula_units_Z   1
loop_
 _symmetry_equiv_pos_site_id
 _symmetry_equiv_pos_as_xyz
  1  'x, y, z'
loop_
 _atom_site_type_symbol
 _atom_site_label
 _atom_site_symmetry_multiplicity
 _atom_site_fract_x
 _atom_site_fract_y
 _atom_site_fract_z
 _atom_site_occupancy
  Dy  Dy0  1  0.886398  0.187592  0.698807  1
  Er  Er1  1  0.812714  0.697359  0.510643  1
  Er  Er2  1  0.188053  0.302152  0.489655  1
  Er  Er3  1  0.188053  0.698399  0.885901  1
  Er  Er4  1  0.812714  0.302071  0.115356  1
  Er  Er5  1  0.697610  0.510401  0.812424  1
  Er  Er6  1  0.303016  0.489830  0.188202  1
  Er  Er7  1  0.697610  0.885185  0.187210  1
  Er  Er8  1  0.303016  0.114814  0.813186  1
  Er  Er9  1  0.509783  0.812057  0.697726  1
  Er  Er10  1  0.489576  0.187398  0.302178  1
  Er  Er11  1  0.113951  0.812347  0.301604  1
  Tl  Tl12  1  0.000039  0.999757  0.000284  1
  Ni  Ni13  1  0.875420  0.375841  0.499579  1
  Ni  Ni14  1  0.125010  0.624906  0.500103  1
  Ni  Ni15  1  0.376106  0.500430  0.875675  1
  Ni  Ni16  1  0.625370  0.500661  0.124709  1
  Ni  Ni17  1  0.497781  0.874678  0.373657  1
  Ni  Ni18  1  0.497781  0.124124  0.623103  1
