# generated using pymatgen
data_Yb3Ho(Al5Pt3)4
_symmetry_space_group_name_H-M   'P 1'
_cell_length_a   4.10137900
_cell_length_b   7.45881995
_cell_length_c   20.48234164
_cell_angle_alpha   90.33720456
_cell_angle_beta   90.00000000
_cell_angle_gamma   90.00000000
_symmetry_Int_Tables_number   1
_chemical_formula_structural   Yb3Ho(Al5Pt3)4
_chemical_formula_sum   'Yb3 Ho1 Al20 Pt12'
_cell_volume   626.57362733
_cell_formula_units_Z   1
loop_
 _symmetry_equiv_pos_site_id
 _symmetry_equiv_pos_as_xyz
  1  'x, y, z'
loop_
 _atom_site_type_symbol
 _atom_site_label
 _atom_site_symmetry_multiplicity
 _atom_site_fract_x
 _atom_site_fract_y
 _atom_site_fract_z
 _atom_site_occupancy
  Yb  Yb0  1  0.250000  0.115366  0.639396  1
  Yb  Yb1  1  0.750000  0.883496  0.360403  1
  Yb  Yb2  1  0.250000  0.383557  0.139170  1
  Ho  Ho3  1  0.750000  0.610572  0.860549  1
  Al  Al4  1  0.750000  0.351576  0.381705  1
  Al  Al5  1  0.750000  0.883139  0.983465  1
  Al  Al6  1  0.750000  0.687355  0.200414  1
  Al  Al7  1  0.250000  0.871813  0.492934  1
  Al  Al8  1  0.250000  0.628894  0.991458  1
  Al  Al9  1  0.250000  0.314809  0.799320  1
  Al  Al10  1  0.750000  0.071371  0.209512  1
  Al  Al11  1  0.250000  0.648434  0.619046  1
  Al  Al12  1  0.250000  0.572062  0.290336  1
  Al  Al13  1  0.250000  0.187791  0.299327  1
  Al  Al14  1  0.750000  0.147343  0.882130  1
  Al  Al15  1  0.250000  0.928096  0.790536  1
  Al  Al16  1  0.750000  0.369714  0.007748  1
  Al  Al17  1  0.750000  0.616952  0.483664  1
  Al  Al18  1  0.750000  0.128900  0.508025  1
  Al  Al19  1  0.250000  0.117461  0.016049  1
  Al  Al20  1  0.250000  0.855455  0.117814  1
  Al  Al21  1  0.250000  0.383056  0.516590  1
  Al  Al22  1  0.750000  0.429029  0.709817  1
  Al  Al23  1  0.750000  0.812772  0.700919  1
  Pt  Pt24  1  0.750000  0.382442  0.258457  1
  Pt  Pt25  1  0.250000  0.881525  0.241441  1
  Pt  Pt26  1  0.250000  0.618583  0.742549  1
  Pt  Pt27  1  0.750000  0.119426  0.758968  1
  Pt  Pt28  1  0.250000  0.160599  0.426223  1
  Pt  Pt29  1  0.750000  0.418547  0.585004  1
  Pt  Pt30  1  0.750000  0.082156  0.085269  1
  Pt  Pt31  1  0.250000  0.916063  0.914247  1
  Pt  Pt32  1  0.750000  0.839320  0.573640  1
  Pt  Pt33  1  0.250000  0.339269  0.925552  1
  Pt  Pt34  1  0.750000  0.660893  0.073299  1
  Pt  Pt35  1  0.250000  0.582163  0.415026  1
