# generated using pymatgen
data_Tm9Lu3InGaCo4
_symmetry_space_group_name_H-M   'P 1'
_cell_length_a   8.20285344
_cell_length_b   8.19963966
_cell_length_c   8.20285318
_cell_angle_alpha   111.57158738
_cell_angle_beta   110.24602845
_cell_angle_gamma   106.65096859
_symmetry_Int_Tables_number   1
_chemical_formula_structural   Tm9Lu3InGaCo4
_chemical_formula_sum   'Tm9 Lu3 In1 Ga1 Co4'
_cell_volume   423.80879522
_cell_formula_units_Z   1
loop_
 _symmetry_equiv_pos_site_id
 _symmetry_equiv_pos_as_xyz
  1  'x, y, z'
loop_
 _atom_site_type_symbol
 _atom_site_label
 _atom_site_symmetry_multiplicity
 _atom_site_fract_x
 _atom_site_fract_y
 _atom_site_fract_z
 _atom_site_occupancy
  Tm  Tm0  1  0.434799  0.228409  0.205762  1
  Tm  Tm1  1  0.565803  0.771388  0.795109  1
  Tm  Tm2  1  0.022647  0.228409  0.793610  1
  Tm  Tm3  1  0.976278  0.771388  0.205585  1
  Tm  Tm4  1  0.184824  0.283723  0.469399  1
  Tm  Tm5  1  0.815653  0.716015  0.531148  1
  Tm  Tm6  1  0.184867  0.716015  0.900363  1
  Tm  Tm7  1  0.814324  0.283723  0.098898  1
  Tm  Tm8  1  0.316491  0.620754  0.304261  1
  Lu  Lu9  1  0.683391  0.378052  0.694662  1
  Lu  Lu10  1  0.316733  0.011902  0.695169  1
  Lu  Lu11  1  0.683539  0.988784  0.305244  1
  In  In12  1  0.500191  0.499944  0.999753  1
  Ga  Ga13  1  0.000166  0.000239  0.000074  1
  Co  Co14  1  0.374686  0.000779  0.374678  1
  Co  Co15  1  0.626100  0.000779  0.626093  1
  Co  Co16  1  0.113254  0.613450  0.500196  1
  Co  Co17  1  0.886253  0.386249  0.499996  1
