# generated using pymatgen
data_Sc4Co7P12Ir10Ru3
_symmetry_space_group_name_H-M   'P 1'
_cell_length_a   3.79667500
_cell_length_b   10.56692057
_cell_length_c   12.13041625
_cell_angle_alpha   90.00716432
_cell_angle_beta   90.00000000
_cell_angle_gamma   90.00000000
_symmetry_Int_Tables_number   1
_chemical_formula_structural   Sc4Co7P12Ir10Ru3
_chemical_formula_sum   'Sc4 Co7 P12 Ir10 Ru3'
_cell_volume   486.66214517
_cell_formula_units_Z   1
loop_
 _symmetry_equiv_pos_site_id
 _symmetry_equiv_pos_as_xyz
  1  'x, y, z'
loop_
 _atom_site_type_symbol
 _atom_site_label
 _atom_site_symmetry_multiplicity
 _atom_site_fract_x
 _atom_site_fract_y
 _atom_site_fract_z
 _atom_site_occupancy
  Sc  Sc0  1  0.250000  0.581499  0.711618  1
  Sc  Sc1  1  0.250000  0.913862  0.209787  1
  Sc  Sc2  1  0.750000  0.417234  0.287902  1
  Sc  Sc3  1  0.750000  0.087363  0.793677  1
  Co  Co4  1  0.250000  0.614826  0.198711  1
  Co  Co5  1  0.750000  0.114900  0.300343  1
  Co  Co6  1  0.750000  0.383023  0.802323  1
  Co  Co7  1  0.250000  0.461479  0.933702  1
  Co  Co8  1  0.250000  0.036136  0.427402  1
  Co  Co9  1  0.750000  0.536982  0.068466  1
  Co  Co10  1  0.750000  0.962174  0.563880  1
  P  P11  1  0.250000  0.432188  0.112803  1
  P  P12  1  0.250000  0.076993  0.603913  1
  P  P13  1  0.750000  0.564468  0.889202  1
  P  P14  1  0.750000  0.930686  0.384808  1
  P  P15  1  0.250000  0.271365  0.871194  1
  P  P16  1  0.250000  0.228301  0.368751  1
  P  P17  1  0.750000  0.727392  0.130017  1
  P  P18  1  0.750000  0.768134  0.627107  1
  P  P19  1  0.250000  0.598378  0.377458  1
  P  P20  1  0.250000  0.901924  0.889389  1
  P  P21  1  0.750000  0.404486  0.623910  1
  P  P22  1  0.750000  0.099333  0.121126  1
  Ir  Ir23  1  0.750000  0.223386  0.509132  1
  Ir  Ir24  1  0.250000  0.410106  0.472684  1
  Ir  Ir25  1  0.250000  0.092694  0.979147  1
  Ir  Ir26  1  0.750000  0.588523  0.523098  1
  Ir  Ir27  1  0.750000  0.908906  0.024467  1
  Ir  Ir28  1  0.250000  0.230110  0.180305  1
  Ir  Ir29  1  0.250000  0.271946  0.680487  1
  Ir  Ir30  1  0.750000  0.763146  0.820333  1
  Ir  Ir31  1  0.750000  0.727819  0.319525  1
  Ir  Ir32  1  0.250000  0.891537  0.701644  1
  Ru  Ru33  1  0.250000  0.716971  0.991302  1
  Ru  Ru34  1  0.250000  0.779345  0.489487  1
  Ru  Ru35  1  0.750000  0.282392  0.010901  1
