# generated using pymatgen
data_Pa2PbF11
_symmetry_space_group_name_H-M   'P 1'
_cell_length_a   9.06615979
_cell_length_b   9.06615906
_cell_length_c   9.06616045
_cell_angle_alpha   123.34543950
_cell_angle_beta   107.23926124
_cell_angle_gamma   98.85602395
_symmetry_Int_Tables_number   1
_chemical_formula_structural   Pa2PbF11
_chemical_formula_sum   'Pa4 Pb2 F22'
_cell_volume   545.65108384
_cell_formula_units_Z   2
loop_
 _symmetry_equiv_pos_site_id
 _symmetry_equiv_pos_as_xyz
  1  'x, y, z'
loop_
 _atom_site_type_symbol
 _atom_site_label
 _atom_site_symmetry_multiplicity
 _atom_site_fract_x
 _atom_site_fract_y
 _atom_site_fract_z
 _atom_site_occupancy
  Pa  Pa0  1  0.681118  0.146218  0.827336  1
  Pa  Pa1  1  0.318882  0.853782  0.172664  1
  Pa  Pa2  1  0.181118  0.353782  0.534901  1
  Pa  Pa3  1  0.818882  0.646218  0.465099  1
  Pb  Pb4  1  0.750000  0.750000  0.000000  1
  Pb  Pb5  1  0.250000  0.250000  0.000000  1
  F  F6  1  0.500000  0.000000  0.500000  1
  F  F7  1  0.000000  0.500000  0.500000  1
  F  F8  1  0.783504  0.370963  0.154468  1
  F  F9  1  0.216496  0.629037  0.845532  1
  F  F10  1  0.283504  0.129037  0.412541  1
  F  F11  1  0.716496  0.870963  0.587459  1
  F  F12  1  0.706751  0.395257  0.842685  1
  F  F13  1  0.552573  0.864066  0.157315  1
  F  F14  1  0.947427  0.104743  0.311494  1
  F  F15  1  0.793249  0.635934  0.688506  1
  F  F16  1  0.293249  0.604743  0.157315  1
  F  F17  1  0.447427  0.135934  0.842685  1
  F  F18  1  0.052573  0.895257  0.688506  1
  F  F19  1  0.206751  0.364066  0.311494  1
  F  F20  1  0.946083  0.231209  0.910333  1
  F  F21  1  0.320876  0.035750  0.089667  1
  F  F22  1  0.179124  0.268791  0.714873  1
  F  F23  1  0.553917  0.464250  0.285127  1
  F  F24  1  0.053917  0.768791  0.089667  1
  F  F25  1  0.679124  0.964250  0.910333  1
  F  F26  1  0.820876  0.731209  0.285127  1
  F  F27  1  0.446083  0.535750  0.714873  1
