# generated using pymatgen
data_LaGaAu5
_symmetry_space_group_name_H-M   'P 1'
_cell_length_a   5.79774050
_cell_length_b   5.79774009
_cell_length_c   5.79774093
_cell_angle_alpha   102.50144398
_cell_angle_beta   102.50144603
_cell_angle_gamma   124.54626033
_symmetry_Int_Tables_number   1
_chemical_formula_structural   LaGaAu5
_chemical_formula_sum   'La1 Ga1 Au5'
_cell_volume   142.08828017
_cell_formula_units_Z   1
loop_
 _symmetry_equiv_pos_site_id
 _symmetry_equiv_pos_as_xyz
  1  'x, y, z'
loop_
 _atom_site_type_symbol
 _atom_site_label
 _atom_site_symmetry_multiplicity
 _atom_site_fract_x
 _atom_site_fract_y
 _atom_site_fract_z
 _atom_site_occupancy
  La  La0  1  0.000000  0.000000  0.000000  1
  Ga  Ga1  1  0.750000  0.250000  0.500000  1
  Au  Au2  1  0.304486  0.695514  0.000000  1
  Au  Au3  1  0.695514  0.304486  0.000000  1
  Au  Au4  1  0.695514  0.695514  0.391027  1
  Au  Au5  1  0.304486  0.304486  0.608973  1
  Au  Au6  1  0.250000  0.750000  0.500000  1
