# generated using pymatgen
data_Dy3Ga7Cu4
_symmetry_space_group_name_H-M   'P 1'
_cell_length_a   8.00602736
_cell_length_b   8.00602697
_cell_length_c   9.37490354
_cell_angle_alpha   54.46520950
_cell_angle_beta   54.46520979
_cell_angle_gamma   30.59473800
_symmetry_Int_Tables_number   1
_chemical_formula_structural   Dy3Ga7Cu4
_chemical_formula_sum   'Dy3 Ga7 Cu4'
_cell_volume   244.08181513
_cell_formula_units_Z   1
loop_
 _symmetry_equiv_pos_site_id
 _symmetry_equiv_pos_as_xyz
  1  'x, y, z'
loop_
 _atom_site_type_symbol
 _atom_site_label
 _atom_site_symmetry_multiplicity
 _atom_site_fract_x
 _atom_site_fract_y
 _atom_site_fract_z
 _atom_site_occupancy
  Dy  Dy0  1  0.303135  0.303135  0.703527  1
  Dy  Dy1  1  0.696865  0.696865  0.296473  1
  Dy  Dy2  1  0.000000  0.000000  0.000000  1
  Ga  Ga3  1  0.860139  0.860139  0.419097  1
  Ga  Ga4  1  0.139861  0.139861  0.580903  1
  Ga  Ga5  1  0.139559  0.139559  0.131822  1
  Ga  Ga6  1  0.860441  0.860441  0.868178  1
  Ga  Ga7  1  0.000000  0.000000  0.500000  1
  Ga  Ga8  1  0.344449  0.344449  0.277740  1
  Ga  Ga9  1  0.655551  0.655551  0.722260  1
  Cu  Cu10  1  0.497795  0.497795  0.308515  1
  Cu  Cu11  1  0.502205  0.502205  0.691485  1
  Cu  Cu12  1  0.657230  0.657230  0.982306  1
  Cu  Cu13  1  0.342770  0.342770  0.017694  1
