# generated using pymatgen
data_KPtF5
_symmetry_space_group_name_H-M   'P 1'
_cell_length_a   5.53312200
_cell_length_b   7.83806900
_cell_length_c   10.99482800
_cell_angle_alpha   90.00000000
_cell_angle_beta   90.00000000
_cell_angle_gamma   90.00000000
_symmetry_Int_Tables_number   1
_chemical_formula_structural   KPtF5
_chemical_formula_sum   'K4 Pt4 F20'
_cell_volume   476.83460781
_cell_formula_units_Z   4
loop_
 _symmetry_equiv_pos_site_id
 _symmetry_equiv_pos_as_xyz
  1  'x, y, z'
loop_
 _atom_site_type_symbol
 _atom_site_label
 _atom_site_symmetry_multiplicity
 _atom_site_fract_x
 _atom_site_fract_y
 _atom_site_fract_z
 _atom_site_occupancy
  K  K0  1  0.500000  0.885100  0.952593  1
  K  K1  1  0.500000  0.114900  0.452593  1
  K  K2  1  0.000000  0.329852  0.113300  1
  K  K3  1  0.000000  0.670148  0.613300  1
  Pt  Pt4  1  0.000000  0.858472  0.238304  1
  Pt  Pt5  1  0.500000  0.568932  0.341049  1
  Pt  Pt6  1  0.500000  0.431068  0.841049  1
  Pt  Pt7  1  0.000000  0.141528  0.738304  1
  F  F8  1  0.257797  0.541459  0.940138  1
  F  F9  1  0.750777  0.667894  0.223689  1
  F  F10  1  0.241049  0.037205  0.238908  1
  F  F11  1  0.750777  0.332106  0.723689  1
  F  F12  1  0.500000  0.234543  0.952038  1
  F  F13  1  0.758951  0.962795  0.738908  1
  F  F14  1  0.500000  0.630916  0.732583  1
  F  F15  1  0.241049  0.962795  0.738908  1
  F  F16  1  0.000000  0.863446  0.059805  1
  F  F17  1  0.758951  0.037205  0.238908  1
  F  F18  1  0.500000  0.369084  0.232583  1
  F  F19  1  0.742203  0.458541  0.440138  1
  F  F20  1  0.249223  0.667894  0.223689  1
  F  F21  1  0.000000  0.853314  0.416366  1
  F  F22  1  0.000000  0.136554  0.559805  1
  F  F23  1  0.249223  0.332106  0.723689  1
  F  F24  1  0.000000  0.146686  0.916366  1
  F  F25  1  0.257797  0.458541  0.440138  1
  F  F26  1  0.500000  0.765457  0.452038  1
  F  F27  1  0.742203  0.541459  0.940138  1
