# generated using pymatgen
data_Dy7Ho3InSb5
_symmetry_space_group_name_H-M   'P 1'
_cell_length_a   6.35922602
_cell_length_b   8.99825159
_cell_length_c   8.97897035
_cell_angle_alpha   120.06578757
_cell_angle_beta   90.00541951
_cell_angle_gamma   90.00387929
_symmetry_Int_Tables_number   1
_chemical_formula_structural   Dy7Ho3InSb5
_chemical_formula_sum   'Dy7 Ho3 In1 Sb5'
_cell_volume   444.66328486
_cell_formula_units_Z   1
loop_
 _symmetry_equiv_pos_site_id
 _symmetry_equiv_pos_as_xyz
  1  'x, y, z'
loop_
 _atom_site_type_symbol
 _atom_site_label
 _atom_site_symmetry_multiplicity
 _atom_site_fract_x
 _atom_site_fract_y
 _atom_site_fract_z
 _atom_site_occupancy
  Dy  Dy0  1  0.000902  0.334762  0.668639  1
  Dy  Dy1  1  0.750007  0.242942  0.999938  1
  Dy  Dy2  1  0.750037  0.754531  0.758058  1
  Dy  Dy3  1  0.749926  0.996616  0.242034  1
  Dy  Dy4  1  0.250112  0.757697  0.999935  1
  Dy  Dy5  1  0.250028  0.246366  0.245058  1
  Dy  Dy6  1  0.249993  0.001591  0.755158  1
  Ho  Ho7  1  0.499149  0.334749  0.668560  1
  Ho  Ho8  1  0.499267  0.666195  0.331357  1
  Ho  Ho9  1  0.000644  0.666110  0.331150  1
  In  In10  1  0.749556  0.605064  0.000398  1
  Sb  Sb11  1  0.749607  0.390087  0.390633  1
  Sb  Sb12  1  0.749646  0.998724  0.609100  1
  Sb  Sb13  1  0.250485  0.391899  0.000360  1
  Sb  Sb14  1  0.250299  0.611446  0.609374  1
  Sb  Sb15  1  0.250344  0.001221  0.390248  1
