# generated using pymatgen
data_PrYHo2(MoN3)4
_symmetry_space_group_name_H-M   'P 1'
_cell_length_a   7.24812613
_cell_length_b   7.24812541
_cell_length_c   6.19542744
_cell_angle_alpha   75.44603551
_cell_angle_beta   75.44603216
_cell_angle_gamma   82.51014068
_symmetry_Int_Tables_number   1
_chemical_formula_structural   PrYHo2(MoN3)4
_chemical_formula_sum   'Pr1 Y1 Ho2 Mo4 N12'
_cell_volume   304.14008959
_cell_formula_units_Z   1
loop_
 _symmetry_equiv_pos_site_id
 _symmetry_equiv_pos_as_xyz
  1  'x, y, z'
loop_
 _atom_site_type_symbol
 _atom_site_label
 _atom_site_symmetry_multiplicity
 _atom_site_fract_x
 _atom_site_fract_y
 _atom_site_fract_z
 _atom_site_occupancy
  Pr  Pr0  1  0.690232  0.309768  0.250000  1
  Y  Y1  1  0.305554  0.694446  0.750000  1
  Ho  Ho2  1  0.918536  0.081464  0.750000  1
  Ho  Ho3  1  0.089693  0.910307  0.250000  1
  Mo  Mo4  1  0.801920  0.618976  0.748553  1
  Mo  Mo5  1  0.195870  0.382681  0.247512  1
  Mo  Mo6  1  0.617319  0.804130  0.252488  1
  Mo  Mo7  1  0.381024  0.198080  0.751447  1
  N  N8  1  0.222844  0.995221  0.853591  1
  N  N9  1  0.340967  0.370296  0.476863  1
  N  N10  1  0.647860  0.629399  0.529022  1
  N  N11  1  0.622260  0.110443  0.663814  1
  N  N12  1  0.004779  0.777156  0.646409  1
  N  N13  1  0.786829  0.995398  0.146494  1
  N  N14  1  0.101315  0.621467  0.154457  1
  N  N15  1  0.889557  0.377740  0.836186  1
  N  N16  1  0.004602  0.213171  0.353506  1
  N  N17  1  0.370601  0.352140  0.970978  1
  N  N18  1  0.629704  0.659033  0.023137  1
  N  N19  1  0.378533  0.898685  0.345543  1
