# generated using pymatgen
data_Hf4FeBi2
_symmetry_space_group_name_H-M   'P 1'
_cell_length_a   8.23782605
_cell_length_b   8.23782693
_cell_length_c   8.23782701
_cell_angle_alpha   95.93932399
_cell_angle_beta   95.93932778
_cell_angle_gamma   142.47140103
_symmetry_Int_Tables_number   1
_chemical_formula_structural   Hf4FeBi2
_chemical_formula_sum   'Hf8 Fe2 Bi4'
_cell_volume   322.43976702
_cell_formula_units_Z   2
loop_
 _symmetry_equiv_pos_site_id
 _symmetry_equiv_pos_as_xyz
  1  'x, y, z'
loop_
 _atom_site_type_symbol
 _atom_site_label
 _atom_site_symmetry_multiplicity
 _atom_site_fract_x
 _atom_site_fract_y
 _atom_site_fract_z
 _atom_site_occupancy
  Hf  Hf0  1  0.580384  0.692280  0.272664  1
  Hf  Hf1  1  0.919616  0.192280  0.111896  1
  Hf  Hf2  1  0.307720  0.580384  0.888104  1
  Hf  Hf3  1  0.807720  0.919616  0.727336  1
  Hf  Hf4  1  0.692280  0.419616  0.111896  1
  Hf  Hf5  1  0.080384  0.807720  0.888104  1
  Hf  Hf6  1  0.419616  0.307720  0.727336  1
  Hf  Hf7  1  0.192280  0.080384  0.272664  1
  Fe  Fe8  1  0.750000  0.750000  0.000000  1
  Fe  Fe9  1  0.250000  0.250000  0.000000  1
  Bi  Bi10  1  0.361448  0.861448  0.222897  1
  Bi  Bi11  1  0.138552  0.361448  0.500000  1
  Bi  Bi12  1  0.638552  0.138552  0.777103  1
  Bi  Bi13  1  0.861448  0.638552  0.500000  1
