# generated using pymatgen
data_Y3Er5(CdNi)2
_symmetry_space_group_name_H-M   'P 1'
_cell_length_a   9.51634430
_cell_length_b   9.51634486
_cell_length_c   9.51634500
_cell_angle_alpha   60.00000300
_cell_angle_beta   60.00000104
_cell_angle_gamma   59.99999663
_symmetry_Int_Tables_number   1
_chemical_formula_structural   Y3Er5(CdNi)2
_chemical_formula_sum   'Y6 Er10 Cd4 Ni4'
_cell_volume   609.39024935
_cell_formula_units_Z   2
loop_
 _symmetry_equiv_pos_site_id
 _symmetry_equiv_pos_as_xyz
  1  'x, y, z'
loop_
 _atom_site_type_symbol
 _atom_site_label
 _atom_site_symmetry_multiplicity
 _atom_site_fract_x
 _atom_site_fract_y
 _atom_site_fract_z
 _atom_site_occupancy
  Y  Y0  1  0.187237  0.812763  0.812763  1
  Y  Y1  1  0.812763  0.187237  0.187237  1
  Y  Y2  1  0.812763  0.187237  0.812763  1
  Y  Y3  1  0.187237  0.812763  0.187237  1
  Y  Y4  1  0.812763  0.812763  0.187237  1
  Y  Y5  1  0.187237  0.187237  0.812763  1
  Er  Er6  1  0.598150  0.598150  0.598150  1
  Er  Er7  1  0.598150  0.598150  0.205548  1
  Er  Er8  1  0.598150  0.205548  0.598150  1
  Er  Er9  1  0.205548  0.598150  0.598150  1
  Er  Er10  1  0.062110  0.437890  0.437890  1
  Er  Er11  1  0.437890  0.062110  0.062110  1
  Er  Er12  1  0.437890  0.062110  0.437890  1
  Er  Er13  1  0.062110  0.437890  0.062110  1
  Er  Er14  1  0.437890  0.437890  0.062110  1
  Er  Er15  1  0.062110  0.062110  0.437890  1
  Cd  Cd16  1  0.830720  0.830720  0.830720  1
  Cd  Cd17  1  0.830720  0.830720  0.507837  1
  Cd  Cd18  1  0.830720  0.507837  0.830720  1
  Cd  Cd19  1  0.507837  0.830720  0.830720  1
  Ni  Ni20  1  0.392348  0.392348  0.392348  1
  Ni  Ni21  1  0.392348  0.392348  0.822958  1
  Ni  Ni22  1  0.392348  0.822958  0.392348  1
  Ni  Ni23  1  0.822958  0.392348  0.392348  1
