# generated using pymatgen
data_TbYb2Y5(B6Os)4
_symmetry_space_group_name_H-M   'P 1'
_cell_length_a   3.65252700
_cell_length_b   9.16989201
_cell_length_c   11.56149039
_cell_angle_alpha   90.00597605
_cell_angle_beta   90.00000000
_cell_angle_gamma   90.00000000
_symmetry_Int_Tables_number   1
_chemical_formula_structural   TbYb2Y5(B6Os)4
_chemical_formula_sum   'Tb1 Yb2 Y5 B24 Os4'
_cell_volume   387.23221149
_cell_formula_units_Z   1
loop_
 _symmetry_equiv_pos_site_id
 _symmetry_equiv_pos_as_xyz
  1  'x, y, z'
loop_
 _atom_site_type_symbol
 _atom_site_label
 _atom_site_symmetry_multiplicity
 _atom_site_fract_x
 _atom_site_fract_y
 _atom_site_fract_z
 _atom_site_occupancy
  Tb  Tb0  1  0.000000  0.324487  0.414170  1
  Yb  Yb1  1  0.000000  0.677030  0.586321  1
  Yb  Yb2  1  0.000000  0.823090  0.086123  1
  Y  Y3  1  0.000000  0.175814  0.914212  1
  Y  Y4  1  0.000000  0.940863  0.369752  1
  Y  Y5  1  0.000000  0.056359  0.629303  1
  Y  Y6  1  0.000000  0.443580  0.129208  1
  Y  Y7  1  0.000000  0.559128  0.869892  1
  B  B8  1  0.500000  0.553715  0.433374  1
  B  B9  1  0.500000  0.446760  0.567972  1
  B  B10  1  0.500000  0.053181  0.067734  1
  B  B11  1  0.500000  0.946396  0.933413  1
  B  B12  1  0.500000  0.746836  0.418335  1
  B  B13  1  0.500000  0.252257  0.581793  1
  B  B14  1  0.500000  0.247819  0.081617  1
  B  B15  1  0.500000  0.753181  0.918269  1
  B  B16  1  0.500000  0.789174  0.265153  1
  B  B17  1  0.500000  0.209306  0.734574  1
  B  B18  1  0.500000  0.290639  0.234382  1
  B  B19  1  0.500000  0.710669  0.765274  1
  B  B20  1  0.500000  0.631083  0.185929  1
  B  B21  1  0.500000  0.368976  0.813759  1
  B  B22  1  0.500000  0.131036  0.313648  1
  B  B23  1  0.500000  0.868837  0.685953  1
  B  B24  1  0.500000  0.982931  0.211399  1
  B  B25  1  0.500000  0.016449  0.788486  1
  B  B26  1  0.500000  0.483685  0.288508  1
  B  B27  1  0.500000  0.516961  0.711556  1
  B  B28  1  0.500000  0.602273  0.028023  1
  B  B29  1  0.500000  0.397448  0.971123  1
  B  B30  1  0.500000  0.102183  0.471258  1
  B  B31  1  0.500000  0.897854  0.528060  1
  Os  Os32  1  0.000000  0.636427  0.321378  1
  Os  Os33  1  0.000000  0.361157  0.679422  1
  Os  Os34  1  0.000000  0.138693  0.179227  1
  Os  Os35  1  0.000000  0.863722  0.821401  1
