# generated using pymatgen
data_PrYSn5Pd3
_symmetry_space_group_name_H-M   'P 1'
_cell_length_a   13.64674800
_cell_length_b   13.64674757
_cell_length_c   7.40663900
_cell_angle_alpha   90.00000000
_cell_angle_beta   90.00000000
_cell_angle_gamma   160.54164344
_symmetry_Int_Tables_number   1
_chemical_formula_structural   PrYSn5Pd3
_chemical_formula_sum   'Pr2 Y2 Sn10 Pd6'
_cell_volume   459.49666154
_cell_formula_units_Z   2
loop_
 _symmetry_equiv_pos_site_id
 _symmetry_equiv_pos_as_xyz
  1  'x, y, z'
loop_
 _atom_site_type_symbol
 _atom_site_label
 _atom_site_symmetry_multiplicity
 _atom_site_fract_x
 _atom_site_fract_y
 _atom_site_fract_z
 _atom_site_occupancy
  Pr  Pr0  1  0.172526  0.827474  0.750220  1
  Pr  Pr1  1  0.827474  0.172526  0.250220  1
  Y  Y2  1  0.478310  0.521690  0.741809  1
  Y  Y3  1  0.521690  0.478310  0.241809  1
  Sn  Sn4  1  0.881087  0.118913  0.736286  1
  Sn  Sn5  1  0.118913  0.881087  0.236286  1
  Sn  Sn6  1  0.702465  0.297535  0.048211  1
  Sn  Sn7  1  0.297535  0.702465  0.548211  1
  Sn  Sn8  1  0.596987  0.403013  0.604273  1
  Sn  Sn9  1  0.403013  0.596987  0.104273  1
  Sn  Sn10  1  0.953505  0.046495  0.402604  1
  Sn  Sn11  1  0.046495  0.953505  0.902604  1
  Sn  Sn12  1  0.288824  0.711176  0.972553  1
  Sn  Sn13  1  0.711176  0.288824  0.472553  1
  Pd  Pd14  1  0.050281  0.949719  0.519989  1
  Pd  Pd15  1  0.949719  0.050281  0.019989  1
  Pd  Pd16  1  0.777567  0.222433  0.769874  1
  Pd  Pd17  1  0.222433  0.777567  0.269874  1
  Pd  Pd18  1  0.398356  0.601644  0.482177  1
  Pd  Pd19  1  0.601644  0.398356  0.982177  1
