# generated using pymatgen
data_CeTh3ZnSi6Ni
_symmetry_space_group_name_H-M   'P 1'
_cell_length_a   8.14034500
_cell_length_b   8.14034476
_cell_length_c   4.20978300
_cell_angle_alpha   90.00000000
_cell_angle_beta   90.00000000
_cell_angle_gamma   120.00000504
_symmetry_Int_Tables_number   1
_chemical_formula_structural   CeTh3ZnSi6Ni
_chemical_formula_sum   'Ce1 Th3 Zn1 Si6 Ni1'
_cell_volume   241.58831765
_cell_formula_units_Z   1
loop_
 _symmetry_equiv_pos_site_id
 _symmetry_equiv_pos_as_xyz
  1  'x, y, z'
loop_
 _atom_site_type_symbol
 _atom_site_label
 _atom_site_symmetry_multiplicity
 _atom_site_fract_x
 _atom_site_fract_y
 _atom_site_fract_z
 _atom_site_occupancy
  Ce  Ce0  1  0.000000  0.000000  0.000000  1
  Th  Th1  1  0.503240  0.496760  0.000000  1
  Th  Th2  1  0.993517  0.496760  0.000000  1
  Th  Th3  1  0.503240  0.006483  0.000000  1
  Zn  Zn4  1  0.333333  0.666667  0.500000  1
  Si  Si5  1  0.829040  0.658078  0.500000  1
  Si  Si6  1  0.164478  0.835522  0.500000  1
  Si  Si7  1  0.671042  0.835522  0.500000  1
  Si  Si8  1  0.164478  0.328958  0.500000  1
  Si  Si9  1  0.829040  0.170960  0.500000  1
  Si  Si10  1  0.341922  0.170960  0.500000  1
  Ni  Ni11  1  0.666667  0.333333  0.500000  1
