# generated using pymatgen
data_Er16Sc4Ir7Rh5
_symmetry_space_group_name_H-M   'P 1'
_cell_length_a   10.67157334
_cell_length_b   10.67157334
_cell_length_c   6.25579027
_cell_angle_alpha   90.02368248
_cell_angle_beta   90.02368248
_cell_angle_gamma   90.01671664
_symmetry_Int_Tables_number   1
_chemical_formula_structural   Er16Sc4Ir7Rh5
_chemical_formula_sum   'Er16 Sc4 Ir7 Rh5'
_cell_volume   712.42474280
_cell_formula_units_Z   1
loop_
 _symmetry_equiv_pos_site_id
 _symmetry_equiv_pos_as_xyz
  1  'x, y, z'
loop_
 _atom_site_type_symbol
 _atom_site_label
 _atom_site_symmetry_multiplicity
 _atom_site_fract_x
 _atom_site_fract_y
 _atom_site_fract_z
 _atom_site_occupancy
  Er  Er0  1  0.287668  0.086401  0.377478  1
  Er  Er1  1  0.287770  0.913483  0.877130  1
  Er  Er2  1  0.711785  0.086440  0.876782  1
  Er  Er3  1  0.711838  0.912258  0.377692  1
  Er  Er4  1  0.586392  0.787651  0.877404  1
  Er  Er5  1  0.585286  0.212608  0.377636  1
  Er  Er6  1  0.413388  0.787694  0.377516  1
  Er  Er7  1  0.413555  0.212363  0.877360  1
  Er  Er8  1  0.212349  0.413608  0.622596  1
  Er  Er9  1  0.212306  0.586612  0.122484  1
  Er  Er10  1  0.787392  0.414714  0.122364  1
  Er  Er11  1  0.787637  0.586445  0.622640  1
  Er  Er12  1  0.913599  0.712332  0.122522  1
  Er  Er13  1  0.913560  0.288215  0.623218  1
  Er  Er14  1  0.086517  0.712230  0.622870  1
  Er  Er15  1  0.087742  0.288162  0.122308  1
  Sc  Sc16  1  0.000508  0.999554  0.500732  1
  Sc  Sc17  1  0.000446  0.999492  0.999268  1
  Sc  Sc18  1  0.499995  0.499943  0.999800  1
  Sc  Sc19  1  0.500057  0.500005  0.500200  1
  Ir  Ir20  1  0.850974  0.851675  0.749893  1
  Ir  Ir21  1  0.148325  0.149026  0.750107  1
  Ir  Ir22  1  0.148790  0.851210  0.250000  1
  Ir  Ir23  1  0.649430  0.350570  0.750000  1
  Ir  Ir24  1  0.649068  0.649024  0.249967  1
  Ir  Ir25  1  0.350976  0.350932  0.250033  1
  Ir  Ir26  1  0.351043  0.648957  0.750000  1
  Rh  Rh27  1  0.850988  0.149012  0.250000  1
  Rh  Rh28  1  0.500458  0.000108  0.122677  1
  Rh  Rh29  1  0.500403  0.000135  0.622313  1
  Rh  Rh30  1  0.999865  0.499597  0.877687  1
  Rh  Rh31  1  0.999892  0.499542  0.377323  1
