# generated using pymatgen
data_Sc6C2I7
_symmetry_space_group_name_H-M   'P 1'
_cell_length_a   10.53108573
_cell_length_b   10.53108503
_cell_length_c   12.50966289
_cell_angle_alpha   58.73361586
_cell_angle_beta   58.73361779
_cell_angle_gamma   20.70651318
_symmetry_Int_Tables_number   1
_chemical_formula_structural   Sc6C2I7
_chemical_formula_sum   'Sc6 C2 I7'
_cell_volume   416.71415048
_cell_formula_units_Z   1
loop_
 _symmetry_equiv_pos_site_id
 _symmetry_equiv_pos_as_xyz
  1  'x, y, z'
loop_
 _atom_site_type_symbol
 _atom_site_label
 _atom_site_symmetry_multiplicity
 _atom_site_fract_x
 _atom_site_fract_y
 _atom_site_fract_z
 _atom_site_occupancy
  Sc  Sc0  1  0.240064  0.240064  0.789416  1
  Sc  Sc1  1  0.303966  0.303966  0.384870  1
  Sc  Sc2  1  0.140552  0.140552  0.447039  1
  Sc  Sc3  1  0.859448  0.859448  0.552961  1
  Sc  Sc4  1  0.696034  0.696034  0.615130  1
  Sc  Sc5  1  0.759936  0.759936  0.210584  1
  C  C6  1  0.280435  0.280435  0.589901  1
  C  C7  1  0.719565  0.719565  0.410099  1
  I  I8  1  0.161471  0.161471  0.188339  1
  I  I9  1  0.838529  0.838529  0.811661  1
  I  I10  1  0.063690  0.063690  0.712500  1
  I  I11  1  0.936310  0.936310  0.287500  1
  I  I12  1  0.500000  0.500000  0.500000  1
  I  I13  1  0.381007  0.381007  0.079264  1
  I  I14  1  0.618993  0.618993  0.920736  1
