# generated using pymatgen
data_Hf2Pa(ZnPd)3
_symmetry_space_group_name_H-M   'P 1'
_cell_length_a   7.27165184
_cell_length_b   7.27165341
_cell_length_c   3.58314700
_cell_angle_alpha   90.00000000
_cell_angle_beta   90.00000000
_cell_angle_gamma   120.75318140
_symmetry_Int_Tables_number   1
_chemical_formula_structural   Hf2Pa(ZnPd)3
_chemical_formula_sum   'Hf2 Pa1 Zn3 Pd3'
_cell_volume   162.82276115
_cell_formula_units_Z   1
loop_
 _symmetry_equiv_pos_site_id
 _symmetry_equiv_pos_as_xyz
  1  'x, y, z'
loop_
 _atom_site_type_symbol
 _atom_site_label
 _atom_site_symmetry_multiplicity
 _atom_site_fract_x
 _atom_site_fract_y
 _atom_site_fract_z
 _atom_site_occupancy
  Hf  Hf0  1  0.401964  0.001938  0.000000  1
  Hf  Hf1  1  0.001938  0.401964  0.000000  1
  Pa  Pa2  1  0.597234  0.597234  0.000000  1
  Zn  Zn3  1  0.250526  0.250526  0.500000  1
  Zn  Zn4  1  0.738694  0.014384  0.500000  1
  Zn  Zn5  1  0.014384  0.738694  0.500000  1
  Pd  Pd6  1  0.995773  0.995773  0.000000  1
  Pd  Pd7  1  0.665760  0.333730  0.500000  1
  Pd  Pd8  1  0.333730  0.665760  0.500000  1
