# generated using pymatgen
data_Er16Tl4In2FeCo
_symmetry_space_group_name_H-M   'P 1'
_cell_length_a   10.27029900
_cell_length_b   10.27497706
_cell_length_c   7.02684904
_cell_angle_alpha   89.98970790
_cell_angle_beta   90.00000000
_cell_angle_gamma   119.98493074
_symmetry_Int_Tables_number   1
_chemical_formula_structural   Er16Tl4In2FeCo
_chemical_formula_sum   'Er16 Tl4 In2 Fe1 Co1'
_cell_volume   642.27515209
_cell_formula_units_Z   1
loop_
 _symmetry_equiv_pos_site_id
 _symmetry_equiv_pos_as_xyz
  1  'x, y, z'
loop_
 _atom_site_type_symbol
 _atom_site_label
 _atom_site_symmetry_multiplicity
 _atom_site_fract_x
 _atom_site_fract_y
 _atom_site_fract_z
 _atom_site_occupancy
  Er  Er0  1  0.536306  0.072612  0.791023  1
  Er  Er1  1  0.926411  0.464029  0.792184  1
  Er  Er2  1  0.537618  0.464029  0.792184  1
  Er  Er3  1  0.463724  0.927449  0.294386  1
  Er  Er4  1  0.072924  0.536452  0.294001  1
  Er  Er5  1  0.463527  0.536452  0.294001  1
  Er  Er6  1  0.821249  0.642498  0.495115  1
  Er  Er7  1  0.357170  0.178809  0.495451  1
  Er  Er8  1  0.821639  0.178809  0.495451  1
  Er  Er9  1  0.178691  0.357383  0.994634  1
  Er  Er10  1  0.642622  0.821579  0.996407  1
  Er  Er11  1  0.178956  0.821579  0.996407  1
  Er  Er12  1  0.666571  0.333141  0.180347  1
  Er  Er13  1  0.333552  0.667105  0.682065  1
  Er  Er14  1  0.999295  0.998590  0.777551  1
  Er  Er15  1  0.999278  0.998556  0.279823  1
  Tl  Tl16  1  0.837401  0.674803  0.042424  1
  Tl  Tl17  1  0.325453  0.162795  0.041984  1
  Tl  Tl18  1  0.837341  0.162795  0.041984  1
  Tl  Tl19  1  0.163168  0.326336  0.542454  1
  In  In20  1  0.674022  0.837117  0.541572  1
  In  In21  1  0.163095  0.837117  0.541572  1
  Fe  Fe22  1  0.666735  0.333469  0.566194  1
  Co  Co23  1  0.333249  0.666499  0.066690  1
