# generated using pymatgen
data_La5Nd7Th4(CdIr)4
_symmetry_space_group_name_H-M   'P 1'
_cell_length_a   10.04047912
_cell_length_b   10.04047962
_cell_length_c   10.03812200
_cell_angle_alpha   60.00776720
_cell_angle_beta   60.00776557
_cell_angle_gamma   60.14218779
_symmetry_Int_Tables_number   1
_chemical_formula_structural   La5Nd7Th4(CdIr)4
_chemical_formula_sum   'La5 Nd7 Th4 Cd4 Ir4'
_cell_volume   716.41053432
_cell_formula_units_Z   1
loop_
 _symmetry_equiv_pos_site_id
 _symmetry_equiv_pos_as_xyz
  1  'x, y, z'
loop_
 _atom_site_type_symbol
 _atom_site_label
 _atom_site_symmetry_multiplicity
 _atom_site_fract_x
 _atom_site_fract_y
 _atom_site_fract_z
 _atom_site_occupancy
  La  La0  1  0.806398  0.191778  0.193945  1
  La  La1  1  0.191778  0.806398  0.807880  1
  La  La2  1  0.191778  0.806398  0.193945  1
  La  La3  1  0.806398  0.191778  0.807880  1
  La  La4  1  0.193771  0.193771  0.806229  1
  Nd  Nd5  1  0.806000  0.806000  0.194000  1
  Nd  Nd6  1  0.937479  0.562956  0.563126  1
  Nd  Nd7  1  0.562956  0.937479  0.936440  1
  Nd  Nd8  1  0.562956  0.937479  0.563126  1
  Nd  Nd9  1  0.937479  0.562956  0.936440  1
  Nd  Nd10  1  0.562869  0.562869  0.937131  1
  Nd  Nd11  1  0.937082  0.937082  0.562918  1
  Th  Th12  1  0.345811  0.345811  0.346107  1
  Th  Th13  1  0.345811  0.345811  0.962272  1
  Th  Th14  1  0.347582  0.960942  0.345739  1
  Th  Th15  1  0.960942  0.347582  0.345739  1
  Cd  Cd16  1  0.580936  0.580936  0.579181  1
  Cd  Cd17  1  0.580936  0.580936  0.258945  1
  Cd  Cd18  1  0.580750  0.259177  0.580035  1
  Cd  Cd19  1  0.259177  0.580750  0.580035  1
  Ir  Ir20  1  0.145605  0.145605  0.145595  1
  Ir  Ir21  1  0.145605  0.145605  0.563193  1
  Ir  Ir22  1  0.146119  0.563782  0.145049  1
  Ir  Ir23  1  0.563782  0.146119  0.145049  1
