# generated using pymatgen
data_Tb3Ho3(BiO7)2
_symmetry_space_group_name_H-M   'P 1'
_cell_length_a   6.56413657
_cell_length_b   6.54596655
_cell_length_c   7.71587547
_cell_angle_alpha   106.90882665
_cell_angle_beta   89.73294620
_cell_angle_gamma   98.78477343
_symmetry_Int_Tables_number   1
_chemical_formula_structural   Tb3Ho3(BiO7)2
_chemical_formula_sum   'Tb3 Ho3 Bi2 O14'
_cell_volume   313.20919596
_cell_formula_units_Z   1
loop_
 _symmetry_equiv_pos_site_id
 _symmetry_equiv_pos_as_xyz
  1  'x, y, z'
loop_
 _atom_site_type_symbol
 _atom_site_label
 _atom_site_symmetry_multiplicity
 _atom_site_fract_x
 _atom_site_fract_y
 _atom_site_fract_z
 _atom_site_occupancy
  Tb  Tb0  1  0.727190  0.462006  0.116810  1
  Tb  Tb1  1  0.733420  0.475652  0.613128  1
  Tb  Tb2  1  0.266234  0.524602  0.387438  1
  Ho  Ho3  1  0.461967  0.005528  0.251725  1
  Ho  Ho4  1  0.537435  0.993975  0.748129  1
  Ho  Ho5  1  0.273382  0.537995  0.882815  1
  Bi  Bi6  1  0.000319  0.000539  0.500442  1
  Bi  Bi7  1  0.000614  0.000202  0.999673  1
  O  O8  1  0.444763  0.650245  0.166217  1
  O  O9  1  0.551891  0.349594  0.832208  1
  O  O10  1  0.302851  0.921301  0.951060  1
  O  O11  1  0.697389  0.077006  0.048707  1
  O  O12  1  0.299722  0.924399  0.513017  1
  O  O13  1  0.700663  0.075543  0.486882  1
  O  O14  1  0.544388  0.361230  0.344584  1
  O  O15  1  0.454455  0.638575  0.656990  1
  O  O16  1  0.926740  0.666582  0.959958  1
  O  O17  1  0.075807  0.333737  0.038335  1
  O  O18  1  0.071203  0.350396  0.621957  1
  O  O19  1  0.929916  0.650540  0.379878  1
  O  O20  1  0.872809  0.901157  0.724649  1
  O  O21  1  0.126840  0.099196  0.275397  1
