# generated using pymatgen
data_LuHf3(Co5As3)4
_symmetry_space_group_name_H-M   'P 1'
_cell_length_a   3.71498900
_cell_length_b   12.08873791
_cell_length_c   10.59116379
_cell_angle_alpha   90.04439931
_cell_angle_beta   90.00000000
_cell_angle_gamma   90.00000000
_symmetry_Int_Tables_number   1
_chemical_formula_structural   LuHf3(Co5As3)4
_chemical_formula_sum   'Lu1 Hf3 Co20 As12'
_cell_volume   475.64402790
_cell_formula_units_Z   1
loop_
 _symmetry_equiv_pos_site_id
 _symmetry_equiv_pos_as_xyz
  1  'x, y, z'
loop_
 _atom_site_type_symbol
 _atom_site_label
 _atom_site_symmetry_multiplicity
 _atom_site_fract_x
 _atom_site_fract_y
 _atom_site_fract_z
 _atom_site_occupancy
  Lu  Lu0  1  0.750000  0.702628  0.080127  1
  Hf  Hf1  1  0.250000  0.298691  0.922901  1
  Hf  Hf2  1  0.250000  0.798726  0.577564  1
  Hf  Hf3  1  0.750000  0.201310  0.423081  1
  Co  Co4  1  0.750000  0.698660  0.389039  1
  Co  Co5  1  0.250000  0.300862  0.611725  1
  Co  Co6  1  0.250000  0.802644  0.884324  1
  Co  Co7  1  0.750000  0.199211  0.112135  1
  Co  Co8  1  0.750000  0.994704  0.217160  1
  Co  Co9  1  0.250000  0.005140  0.782330  1
  Co  Co10  1  0.250000  0.504358  0.717022  1
  Co  Co11  1  0.750000  0.494641  0.283497  1
  Co  Co12  1  0.750000  0.679651  0.782419  1
  Co  Co13  1  0.250000  0.319068  0.216948  1
  Co  Co14  1  0.250000  0.820828  0.285785  1
  Co  Co15  1  0.750000  0.180591  0.716010  1
  Co  Co16  1  0.750000  0.932223  0.968207  1
  Co  Co17  1  0.250000  0.071565  0.030054  1
  Co  Co18  1  0.250000  0.569905  0.470933  1
  Co  Co19  1  0.750000  0.429311  0.530144  1
  Co  Co20  1  0.750000  0.984362  0.589999  1
  Co  Co21  1  0.250000  0.015965  0.410124  1
  Co  Co22  1  0.250000  0.511441  0.089949  1
  Co  Co23  1  0.750000  0.483125  0.908046  1
  As  As24  1  0.750000  0.615041  0.586771  1
  As  As25  1  0.250000  0.384586  0.413102  1
  As  As26  1  0.250000  0.886886  0.086497  1
  As  As27  1  0.750000  0.116101  0.912678  1
  As  As28  1  0.750000  0.888878  0.400828  1
  As  As29  1  0.250000  0.110953  0.599677  1
  As  As30  1  0.250000  0.610671  0.900092  1
  As  As31  1  0.750000  0.388974  0.099483  1
  As  As32  1  0.750000  0.870254  0.765232  1
  As  As33  1  0.250000  0.129618  0.234777  1
  As  As34  1  0.250000  0.628639  0.267245  1
  As  As35  1  0.750000  0.369786  0.734096  1
