# generated using pymatgen
data_SrFe3Sb12Rh
_symmetry_space_group_name_H-M   'P 1'
_cell_length_a   8.04559674
_cell_length_b   8.04559601
_cell_length_c   8.02320600
_cell_angle_alpha   109.41485710
_cell_angle_beta   109.41485525
_cell_angle_gamma   109.52752902
_symmetry_Int_Tables_number   1
_chemical_formula_structural   SrFe3Sb12Rh
_chemical_formula_sum   'Sr1 Fe3 Sb12 Rh1'
_cell_volume   400.07751914
_cell_formula_units_Z   1
loop_
 _symmetry_equiv_pos_site_id
 _symmetry_equiv_pos_as_xyz
  1  'x, y, z'
loop_
 _atom_site_type_symbol
 _atom_site_label
 _atom_site_symmetry_multiplicity
 _atom_site_fract_x
 _atom_site_fract_y
 _atom_site_fract_z
 _atom_site_occupancy
  Sr  Sr0  1  0.000000  0.000000  0.000000  1
  Fe  Fe1  1  0.500000  0.000000  0.000000  1
  Fe  Fe2  1  0.000000  0.500000  0.000000  1
  Fe  Fe3  1  0.500000  0.500000  0.500000  1
  Sb  Sb4  1  0.347391  0.181730  0.847340  1
  Sb  Sb5  1  0.652609  0.818270  0.152660  1
  Sb  Sb6  1  0.664626  0.502191  0.836113  1
  Sb  Sb7  1  0.335374  0.497809  0.163887  1
  Sb  Sb8  1  0.181730  0.834338  0.334389  1
  Sb  Sb9  1  0.818270  0.165662  0.665611  1
  Sb  Sb10  1  0.502191  0.837564  0.666078  1
  Sb  Sb11  1  0.497809  0.162436  0.333922  1
  Sb  Sb12  1  0.837564  0.335374  0.171487  1
  Sb  Sb13  1  0.162436  0.664626  0.828513  1
  Sb  Sb14  1  0.834338  0.652609  0.499950  1
  Sb  Sb15  1  0.165662  0.347391  0.500050  1
  Rh  Rh16  1  0.000000  0.000000  0.500000  1
