# generated using pymatgen
data_Nd2Tm4Ga17Pd5
_symmetry_space_group_name_H-M   'P 1'
_cell_length_a   8.19294872
_cell_length_b   8.19294915
_cell_length_c   15.79329376
_cell_angle_alpha   76.07766377
_cell_angle_beta   76.07766257
_cell_angle_gamma   30.08883607
_symmetry_Int_Tables_number   1
_chemical_formula_structural   Nd2Tm4Ga17Pd5
_chemical_formula_sum   'Nd2 Tm4 Ga17 Pd5'
_cell_volume   514.72088128
_cell_formula_units_Z   1
loop_
 _symmetry_equiv_pos_site_id
 _symmetry_equiv_pos_as_xyz
  1  'x, y, z'
loop_
 _atom_site_type_symbol
 _atom_site_label
 _atom_site_symmetry_multiplicity
 _atom_site_fract_x
 _atom_site_fract_y
 _atom_site_fract_z
 _atom_site_occupancy
  Nd  Nd0  1  0.753087  0.753087  0.750359  1
  Nd  Nd1  1  0.246913  0.246913  0.249641  1
  Tm  Tm2  1  0.599109  0.599109  0.596621  1
  Tm  Tm3  1  0.090254  0.090254  0.092580  1
  Tm  Tm4  1  0.909746  0.909746  0.907420  1
  Tm  Tm5  1  0.400891  0.400891  0.403379  1
  Ga  Ga6  1  0.821745  0.821745  0.538411  1
  Ga  Ga7  1  0.326676  0.326676  0.041804  1
  Ga  Ga8  1  0.673324  0.673324  0.958196  1
  Ga  Ga9  1  0.178255  0.178255  0.461589  1
  Ga  Ga10  1  0.543541  0.543541  0.826487  1
  Ga  Ga11  1  0.037913  0.037913  0.322490  1
  Ga  Ga12  1  0.962087  0.962087  0.677510  1
  Ga  Ga13  1  0.456459  0.456459  0.173513  1
  Ga  Ga14  1  0.269272  0.269272  0.898580  1
  Ga  Ga15  1  0.761890  0.761890  0.395798  1
  Ga  Ga16  1  0.238110  0.238110  0.604202  1
  Ga  Ga17  1  0.730728  0.730728  0.101420  1
  Ga  Ga18  1  0.400027  0.400027  0.764894  1
  Ga  Ga19  1  0.894560  0.894560  0.266559  1
  Ga  Ga20  1  0.105440  0.105440  0.733441  1
  Ga  Ga21  1  0.599973  0.599973  0.235106  1
  Ga  Ga22  1  0.000000  0.000000  0.500000  1
  Pd  Pd23  1  0.105917  0.105917  0.896327  1
  Pd  Pd24  1  0.592978  0.592978  0.405227  1
  Pd  Pd25  1  0.407022  0.407022  0.594773  1
  Pd  Pd26  1  0.894083  0.894083  0.103673  1
  Pd  Pd27  1  0.500000  0.500000  0.000000  1
