# generated using pymatgen
data_Pa8VS17
_symmetry_space_group_name_H-M   'P 1'
_cell_length_a   7.87041607
_cell_length_b   7.87040739
_cell_length_c   10.42535272
_cell_angle_alpha   80.64424341
_cell_angle_beta   80.64434108
_cell_angle_gamma   64.97677465
_symmetry_Int_Tables_number   1
_chemical_formula_structural   Pa8VS17
_chemical_formula_sum   'Pa8 V1 S17'
_cell_volume   574.19603405
_cell_formula_units_Z   1
loop_
 _symmetry_equiv_pos_site_id
 _symmetry_equiv_pos_as_xyz
  1  'x, y, z'
loop_
 _atom_site_type_symbol
 _atom_site_label
 _atom_site_symmetry_multiplicity
 _atom_site_fract_x
 _atom_site_fract_y
 _atom_site_fract_z
 _atom_site_occupancy
  Pa  Pa0  1  0.817302  0.300340  0.297602  1
  Pa  Pa1  1  0.300341  0.817304  0.297604  1
  Pa  Pa2  1  0.182698  0.699660  0.702398  1
  Pa  Pa3  1  0.699659  0.182696  0.702396  1
  Pa  Pa4  1  0.203806  0.203806  0.542556  1
  Pa  Pa5  1  0.796194  0.796194  0.457444  1
  Pa  Pa6  1  0.682959  0.682959  0.982380  1
  Pa  Pa7  1  0.317041  0.317041  0.017620  1
  V  V8  1  0.000000  0.000000  0.000000  1
  S  S9  1  0.821170  0.432843  0.534600  1
  S  S10  1  0.432844  0.821170  0.534599  1
  S  S11  1  0.178830  0.567157  0.465400  1
  S  S12  1  0.567156  0.178830  0.465401  1
  S  S13  1  0.941889  0.324027  0.028911  1
  S  S14  1  0.324028  0.941889  0.028911  1
  S  S15  1  0.058111  0.675973  0.971089  1
  S  S16  1  0.675972  0.058111  0.971089  1
  S  S17  1  0.212513  0.212513  0.276833  1
  S  S18  1  0.787487  0.787487  0.723167  1
  S  S19  1  0.059699  0.059700  0.771913  1
  S  S20  1  0.940301  0.940300  0.228087  1
  S  S21  1  0.302577  0.302577  0.756031  1
  S  S22  1  0.697423  0.697423  0.243969  1
  S  S23  1  0.520657  0.520657  0.832088  1
  S  S24  1  0.479343  0.479343  0.167912  1
  S  S25  1  0.000000  0.000000  0.500000  1
