# generated using pymatgen
data_TbHo5(RuI3)2
_symmetry_space_group_name_H-M   'P 1'
_cell_length_a   4.21141100
_cell_length_b   8.89072021
_cell_length_c   12.34657025
_cell_angle_alpha   94.12176614
_cell_angle_beta   90.00000000
_cell_angle_gamma   90.00000000
_symmetry_Int_Tables_number   1
_chemical_formula_structural   TbHo5(RuI3)2
_chemical_formula_sum   'Tb1 Ho5 Ru2 I6'
_cell_volume   461.09049067
_cell_formula_units_Z   1
loop_
 _symmetry_equiv_pos_site_id
 _symmetry_equiv_pos_as_xyz
  1  'x, y, z'
loop_
 _atom_site_type_symbol
 _atom_site_label
 _atom_site_symmetry_multiplicity
 _atom_site_fract_x
 _atom_site_fract_y
 _atom_site_fract_z
 _atom_site_occupancy
  Tb  Tb0  1  0.750000  0.264718  0.602759  1
  Ho  Ho1  1  0.250000  0.740193  0.397465  1
  Ho  Ho2  1  0.750000  0.871316  0.625490  1
  Ho  Ho3  1  0.250000  0.128829  0.373525  1
  Ho  Ho4  1  0.750000  0.896561  0.187411  1
  Ho  Ho5  1  0.250000  0.101056  0.813063  1
  Ru  Ru6  1  0.750000  0.945193  0.407884  1
  Ru  Ru7  1  0.250000  0.054961  0.591784  1
  I  I8  1  0.750000  0.424680  0.366102  1
  I  I9  1  0.250000  0.577223  0.633280  1
  I  I10  1  0.750000  0.861613  0.890037  1
  I  I11  1  0.250000  0.135793  0.109465  1
  I  I12  1  0.750000  0.353896  0.865426  1
  I  I13  1  0.250000  0.643969  0.136308  1
