# generated using pymatgen
data_Li4Ac3ErSi8
_symmetry_space_group_name_H-M   'P 1'
_cell_length_a   3.95018100
_cell_length_b   7.88392636
_cell_length_c   10.90721823
_cell_angle_alpha   90.07338334
_cell_angle_beta   90.00000000
_cell_angle_gamma   90.00000000
_symmetry_Int_Tables_number   1
_chemical_formula_structural   Li4Ac3ErSi8
_chemical_formula_sum   'Li4 Ac3 Er1 Si8'
_cell_volume   339.68252188
_cell_formula_units_Z   1
loop_
 _symmetry_equiv_pos_site_id
 _symmetry_equiv_pos_as_xyz
  1  'x, y, z'
loop_
 _atom_site_type_symbol
 _atom_site_label
 _atom_site_symmetry_multiplicity
 _atom_site_fract_x
 _atom_site_fract_y
 _atom_site_fract_z
 _atom_site_occupancy
  Li  Li0  1  0.250000  0.992823  0.389558  1
  Li  Li1  1  0.250000  0.501004  0.113552  1
  Li  Li2  1  0.750000  0.000895  0.605409  1
  Li  Li3  1  0.750000  0.503816  0.888698  1
  Ac  Ac4  1  0.250000  0.144391  0.868192  1
  Ac  Ac5  1  0.250000  0.636013  0.631743  1
  Ac  Ac6  1  0.750000  0.862709  0.136016  1
  Er  Er7  1  0.750000  0.368804  0.367092  1
  Si  Si8  1  0.250000  0.222642  0.561930  1
  Si  Si9  1  0.250000  0.718591  0.924917  1
  Si  Si10  1  0.750000  0.764179  0.423474  1
  Si  Si11  1  0.750000  0.291406  0.087584  1
  Si  Si12  1  0.250000  0.653047  0.322622  1
  Si  Si13  1  0.250000  0.179340  0.189259  1
  Si  Si14  1  0.750000  0.327857  0.666155  1
  Si  Si15  1  0.750000  0.832483  0.823799  1
