# generated using pymatgen
data_AgSe2O5
_symmetry_space_group_name_H-M   'P 1'
_cell_length_a   7.10290474
_cell_length_b   7.10290519
_cell_length_c   7.71145574
_cell_angle_alpha   73.87302358
_cell_angle_beta   73.87302560
_cell_angle_gamma   51.21854852
_symmetry_Int_Tables_number   1
_chemical_formula_structural   AgSe2O5
_chemical_formula_sum   'Ag2 Se4 O10'
_cell_volume   288.53611918
_cell_formula_units_Z   2
loop_
 _symmetry_equiv_pos_site_id
 _symmetry_equiv_pos_as_xyz
  1  'x, y, z'
loop_
 _atom_site_type_symbol
 _atom_site_label
 _atom_site_symmetry_multiplicity
 _atom_site_fract_x
 _atom_site_fract_y
 _atom_site_fract_z
 _atom_site_occupancy
  Ag  Ag0  1  0.000000  0.000000  0.500000  1
  Ag  Ag1  1  0.000000  0.000000  0.000000  1
  Se  Se2  1  0.529149  0.740082  0.681972  1
  Se  Se3  1  0.259918  0.470851  0.818028  1
  Se  Se4  1  0.740082  0.529149  0.181972  1
  Se  Se5  1  0.470851  0.259918  0.318028  1
  O  O6  1  0.895461  0.359393  0.362453  1
  O  O7  1  0.640607  0.104539  0.137547  1
  O  O8  1  0.104539  0.640607  0.637547  1
  O  O9  1  0.359393  0.895461  0.862453  1
  O  O10  1  0.464556  0.535444  0.250000  1
  O  O11  1  0.535444  0.464556  0.750000  1
  O  O12  1  0.359211  0.893566  0.507815  1
  O  O13  1  0.106434  0.640789  0.992185  1
  O  O14  1  0.640789  0.106434  0.492185  1
  O  O15  1  0.893566  0.359211  0.007815  1
