# generated using pymatgen
data_NaHfScSe4
_symmetry_space_group_name_H-M   'P 1'
_cell_length_a   3.86432100
_cell_length_b   6.66400514
_cell_length_c   7.53789280
_cell_angle_alpha   72.92013223
_cell_angle_beta   90.00000000
_cell_angle_gamma   90.00000000
_symmetry_Int_Tables_number   1
_chemical_formula_structural   NaHfScSe4
_chemical_formula_sum   'Na1 Hf1 Sc1 Se4'
_cell_volume   185.55353987
_cell_formula_units_Z   1
loop_
 _symmetry_equiv_pos_site_id
 _symmetry_equiv_pos_as_xyz
  1  'x, y, z'
loop_
 _atom_site_type_symbol
 _atom_site_label
 _atom_site_symmetry_multiplicity
 _atom_site_fract_x
 _atom_site_fract_y
 _atom_site_fract_z
 _atom_site_occupancy
  Na  Na0  1  0.000000  0.500000  0.500000  1
  Hf  Hf1  1  0.500000  0.500000  0.000000  1
  Sc  Sc2  1  0.000000  0.000000  0.000000  1
  Se  Se3  1  0.500000  0.759812  0.214804  1
  Se  Se4  1  0.000000  0.264585  0.212733  1
  Se  Se5  1  0.500000  0.240188  0.785196  1
  Se  Se6  1  0.000000  0.735415  0.787267  1
