# generated using pymatgen
data_YTh2(InPt)3
_symmetry_space_group_name_H-M   'P 1'
_cell_length_a   7.72286805
_cell_length_b   7.72286815
_cell_length_c   4.03602000
_cell_angle_alpha   90.00000000
_cell_angle_beta   90.00000000
_cell_angle_gamma   120.11729417
_symmetry_Int_Tables_number   1
_chemical_formula_structural   YTh2(InPt)3
_chemical_formula_sum   'Y1 Th2 In3 Pt3'
_cell_volume   208.22201972
_cell_formula_units_Z   1
loop_
 _symmetry_equiv_pos_site_id
 _symmetry_equiv_pos_as_xyz
  1  'x, y, z'
loop_
 _atom_site_type_symbol
 _atom_site_label
 _atom_site_symmetry_multiplicity
 _atom_site_fract_x
 _atom_site_fract_y
 _atom_site_fract_z
 _atom_site_occupancy
  Y  Y0  1  0.595048  0.595048  0.500000  1
  Th  Th1  1  0.408850  0.999771  0.500000  1
  Th  Th2  1  0.999771  0.408850  0.500000  1
  In  In3  1  0.744520  0.990089  0.000000  1
  In  In4  1  0.262415  0.262415  0.000000  1
  In  In5  1  0.990089  0.744520  0.000000  1
  Pt  Pt6  1  0.005735  0.005735  0.500000  1
  Pt  Pt7  1  0.667656  0.325917  0.000000  1
  Pt  Pt8  1  0.325917  0.667656  0.000000  1
