# generated using pymatgen
data_Ac4MgCdGe4
_symmetry_space_group_name_H-M   'P 1'
_cell_length_a   7.90180500
_cell_length_b   7.90204917
_cell_length_c   4.60852200
_cell_angle_alpha   90.00000000
_cell_angle_beta   90.00000000
_cell_angle_gamma   89.95750335
_symmetry_Int_Tables_number   1
_chemical_formula_structural   Ac4MgCdGe4
_chemical_formula_sum   'Ac4 Mg1 Cd1 Ge4'
_cell_volume   287.75811606
_cell_formula_units_Z   1
loop_
 _symmetry_equiv_pos_site_id
 _symmetry_equiv_pos_as_xyz
  1  'x, y, z'
loop_
 _atom_site_type_symbol
 _atom_site_label
 _atom_site_symmetry_multiplicity
 _atom_site_fract_x
 _atom_site_fract_y
 _atom_site_fract_z
 _atom_site_occupancy
  Ac  Ac0  1  0.816996  0.321838  0.000000  1
  Ac  Ac1  1  0.321889  0.182917  0.000000  1
  Ac  Ac2  1  0.183004  0.678162  0.000000  1
  Ac  Ac3  1  0.678111  0.817083  0.000000  1
  Mg  Mg4  1  0.000000  0.000000  0.500000  1
  Cd  Cd5  1  0.500000  0.500000  0.500000  1
  Ge  Ge6  1  0.621403  0.111060  0.500000  1
  Ge  Ge7  1  0.378597  0.888940  0.500000  1
  Ge  Ge8  1  0.888943  0.621402  0.500000  1
  Ge  Ge9  1  0.111057  0.378598  0.500000  1
