# generated using pymatgen
data_Tm10Sn6HN
_symmetry_space_group_name_H-M   'P 1'
_cell_length_a   8.78506100
_cell_length_b   8.78505938
_cell_length_c   6.38401500
_cell_angle_alpha   90.00000000
_cell_angle_beta   90.00000000
_cell_angle_gamma   119.99999479
_symmetry_Int_Tables_number   1
_chemical_formula_structural   Tm10Sn6HN
_chemical_formula_sum   'Tm10 Sn6 H1 N1'
_cell_volume   426.69154395
_cell_formula_units_Z   1
loop_
 _symmetry_equiv_pos_site_id
 _symmetry_equiv_pos_as_xyz
  1  'x, y, z'
loop_
 _atom_site_type_symbol
 _atom_site_label
 _atom_site_symmetry_multiplicity
 _atom_site_fract_x
 _atom_site_fract_y
 _atom_site_fract_z
 _atom_site_occupancy
  Tm  Tm0  1  0.666667  0.333333  0.000000  1
  Tm  Tm1  1  0.333333  0.666667  0.000000  1
  Tm  Tm2  1  0.333333  0.666667  0.500000  1
  Tm  Tm3  1  0.666667  0.333333  0.500000  1
  Tm  Tm4  1  0.774079  0.774079  0.727584  1
  Tm  Tm5  1  0.225921  0.000000  0.727584  1
  Tm  Tm6  1  0.000000  0.225921  0.727584  1
  Tm  Tm7  1  0.225921  0.225921  0.272416  1
  Tm  Tm8  1  0.774079  0.000000  0.272416  1
  Tm  Tm9  1  0.000000  0.774079  0.272416  1
  Sn  Sn10  1  0.398681  0.398681  0.751124  1
  Sn  Sn11  1  0.601319  0.000000  0.751124  1
  Sn  Sn12  1  0.000000  0.601319  0.751124  1
  Sn  Sn13  1  0.601319  0.601319  0.248876  1
  Sn  Sn14  1  0.398681  0.000000  0.248876  1
  Sn  Sn15  1  0.000000  0.398681  0.248876  1
  H  H16  1  0.000000  0.000000  0.000000  1
  N  N17  1  0.000000  0.000000  0.500000  1
