# generated using pymatgen
data_CsPaBr4O
_symmetry_space_group_name_H-M   'P 1'
_cell_length_a   7.87004947
_cell_length_b   7.87005045
_cell_length_c   8.88626737
_cell_angle_alpha   109.25374678
_cell_angle_beta   109.25375046
_cell_angle_gamma   30.99915025
_symmetry_Int_Tables_number   1
_chemical_formula_structural   CsPaBr4O
_chemical_formula_sum   'Cs1 Pa1 Br4 O1'
_cell_volume   266.35384987
_cell_formula_units_Z   1
loop_
 _symmetry_equiv_pos_site_id
 _symmetry_equiv_pos_as_xyz
  1  'x, y, z'
loop_
 _atom_site_type_symbol
 _atom_site_label
 _atom_site_symmetry_multiplicity
 _atom_site_fract_x
 _atom_site_fract_y
 _atom_site_fract_z
 _atom_site_occupancy
  Cs  Cs0  1  0.993721  0.006280  0.000000  1
  Pa  Pa1  1  0.504258  0.495742  0.500000  1
  Br  Br2  1  0.363162  0.363568  0.197106  1
  Br  Br3  1  0.631476  0.633981  0.350202  1
  Br  Br4  1  0.366018  0.368524  0.649798  1
  Br  Br5  1  0.636432  0.636838  0.802893  1
  O  O6  1  0.004374  0.995626  0.500000  1
