# generated using pymatgen
data_Pr18Ho2Si15Hg
_symmetry_space_group_name_H-M   'P 1'
_cell_length_a   7.91128625
_cell_length_b   7.92123193
_cell_length_c   15.31146105
_cell_angle_alpha   90.02828971
_cell_angle_beta   89.67201564
_cell_angle_gamma   89.85782286
_symmetry_Int_Tables_number   1
_chemical_formula_structural   Pr18Ho2Si15Hg
_chemical_formula_sum   'Pr18 Ho2 Si15 Hg1'
_cell_volume   959.50657038
_cell_formula_units_Z   1
loop_
 _symmetry_equiv_pos_site_id
 _symmetry_equiv_pos_as_xyz
  1  'x, y, z'
loop_
 _atom_site_type_symbol
 _atom_site_label
 _atom_site_symmetry_multiplicity
 _atom_site_fract_x
 _atom_site_fract_y
 _atom_site_fract_z
 _atom_site_occupancy
  Pr  Pr0  1  0.797614  0.187709  0.752757  1
  Pr  Pr1  1  0.693361  0.690600  0.497543  1
  Pr  Pr2  1  0.373828  0.012263  0.447459  1
  Pr  Pr3  1  0.491649  0.868428  0.699623  1
  Pr  Pr4  1  0.510738  0.123698  0.197143  1
  Pr  Pr5  1  0.878889  0.488445  0.300244  1
  Pr  Pr6  1  0.120213  0.517972  0.804547  1
  Pr  Pr7  1  0.625898  0.986449  0.951926  1
  Pr  Pr8  1  0.001659  0.384098  0.546775  1
  Pr  Pr9  1  0.990366  0.626154  0.053516  1
  Pr  Pr10  1  0.129671  0.978949  0.881307  1
  Pr  Pr11  1  0.520741  0.629791  0.126882  1
  Pr  Pr12  1  0.484630  0.378308  0.626317  1
  Pr  Pr13  1  0.628803  0.520799  0.876904  1
  Pr  Pr14  1  0.373808  0.481503  0.370277  1
  Pr  Pr15  1  0.872015  0.020145  0.374918  1
  Pr  Pr16  1  0.982267  0.128120  0.124154  1
  Pr  Pr17  1  0.010830  0.860230  0.620047  1
  Ho  Ho18  1  0.310104  0.311411  0.000308  1
  Ho  Ho19  1  0.190554  0.812255  0.249615  1
  Si  Si20  1  0.329475  0.690745  0.955858  1
  Si  Si21  1  0.663020  0.302799  0.450549  1
  Si  Si22  1  0.694791  0.330548  0.047581  1
  Si  Si23  1  0.306967  0.670320  0.543961  1
  Si  Si24  1  0.810417  0.829456  0.204055  1
  Si  Si25  1  0.171836  0.191893  0.295623  1
  Si  Si26  1  0.834016  0.804071  0.798992  1
  Si  Si27  1  0.287304  0.922639  0.064068  1
  Si  Si28  1  0.574872  0.789257  0.308419  1
  Si  Si29  1  0.427585  0.212925  0.821046  1
  Si  Si30  1  0.786288  0.577112  0.691574  1
  Si  Si31  1  0.214690  0.422542  0.187046  1
  Si  Si32  1  0.709097  0.079122  0.559142  1
  Si  Si33  1  0.928406  0.290002  0.942532  1
  Si  Si34  1  0.083218  0.715094  0.434181  1
  Hg  Hg35  1  0.190379  0.164149  0.693114  1
