# generated using pymatgen
data_Sm2PaP4Pd7
_symmetry_space_group_name_H-M   'P 1'
_cell_length_a   8.02376071
_cell_length_b   8.02376103
_cell_length_c   9.49663808
_cell_angle_alpha   55.16585863
_cell_angle_beta   55.16585840
_cell_angle_gamma   29.26043529
_symmetry_Int_Tables_number   1
_chemical_formula_structural   Sm2PaP4Pd7
_chemical_formula_sum   'Sm2 Pa1 P4 Pd7'
_cell_volume   241.20959422
_cell_formula_units_Z   1
loop_
 _symmetry_equiv_pos_site_id
 _symmetry_equiv_pos_as_xyz
  1  'x, y, z'
loop_
 _atom_site_type_symbol
 _atom_site_label
 _atom_site_symmetry_multiplicity
 _atom_site_fract_x
 _atom_site_fract_y
 _atom_site_fract_z
 _atom_site_occupancy
  Sm  Sm0  1  0.681468  0.681468  0.319200  1
  Sm  Sm1  1  0.318532  0.318532  0.680800  1
  Pa  Pa2  1  0.000000  0.000000  0.000000  1
  P  P3  1  0.348264  0.348264  0.241934  1
  P  P4  1  0.651736  0.651736  0.758066  1
  P  P5  1  0.897177  0.897177  0.824597  1
  P  P6  1  0.102823  0.102823  0.175403  1
  Pd  Pd7  1  0.307929  0.307929  0.025286  1
  Pd  Pd8  1  0.692071  0.692071  0.974714  1
  Pd  Pd9  1  0.510843  0.510843  0.711588  1
  Pd  Pd10  1  0.831398  0.831398  0.425065  1
  Pd  Pd11  1  0.489157  0.489157  0.288412  1
  Pd  Pd12  1  0.168602  0.168602  0.574935  1
  Pd  Pd13  1  0.000000  0.000000  0.500000  1
