# generated using pymatgen
data_Dy3P6SN12
_symmetry_space_group_name_H-M   'P 1'
_cell_length_a   7.34660651
_cell_length_b   7.34660643
_cell_length_c   7.34660800
_cell_angle_alpha   109.46272705
_cell_angle_beta   109.46272683
_cell_angle_gamma   109.46270294
_symmetry_Int_Tables_number   1
_chemical_formula_structural   Dy3P6SN12
_chemical_formula_sum   'Dy3 P6 S1 N12'
_cell_volume   305.33399277
_cell_formula_units_Z   1
loop_
 _symmetry_equiv_pos_site_id
 _symmetry_equiv_pos_as_xyz
  1  'x, y, z'
loop_
 _atom_site_type_symbol
 _atom_site_label
 _atom_site_symmetry_multiplicity
 _atom_site_fract_x
 _atom_site_fract_y
 _atom_site_fract_z
 _atom_site_occupancy
  Dy  Dy0  1  0.019669  0.349444  0.019669  1
  Dy  Dy1  1  0.019669  0.019669  0.349444  1
  Dy  Dy2  1  0.349444  0.019669  0.019669  1
  P  P3  1  0.506236  0.260261  0.749053  1
  P  P4  1  0.260261  0.749053  0.506236  1
  P  P5  1  0.749053  0.506236  0.260261  1
  P  P6  1  0.749053  0.260261  0.506236  1
  P  P7  1  0.506236  0.749053  0.260261  1
  P  P8  1  0.260261  0.506236  0.749053  1
  S  S9  1  0.954173  0.954173  0.954173  1
  N  N10  1  0.391532  0.670610  0.391532  1
  N  N11  1  0.670610  0.391532  0.391532  1
  N  N12  1  0.391532  0.391532  0.670610  1
  N  N13  1  0.725579  0.302346  0.725579  1
  N  N14  1  0.001031  0.586328  0.302025  1
  N  N15  1  0.302025  0.586328  0.001031  1
  N  N16  1  0.302025  0.001031  0.586328  1
  N  N17  1  0.001031  0.302025  0.586328  1
  N  N18  1  0.725579  0.725579  0.302346  1
  N  N19  1  0.586328  0.001031  0.302025  1
  N  N20  1  0.302346  0.725579  0.725579  1
  N  N21  1  0.586328  0.302025  0.001031  1
