# generated using pymatgen
data_Dy2HoGa5Co
_symmetry_space_group_name_H-M   'P 1'
_cell_length_a   6.89368796
_cell_length_b   6.89368935
_cell_length_c   4.21697900
_cell_angle_alpha   90.00000000
_cell_angle_beta   90.00000000
_cell_angle_gamma   119.77067474
_symmetry_Int_Tables_number   1
_chemical_formula_structural   Dy2HoGa5Co
_chemical_formula_sum   'Dy2 Ho1 Ga5 Co1'
_cell_volume   173.95397277
_cell_formula_units_Z   1
loop_
 _symmetry_equiv_pos_site_id
 _symmetry_equiv_pos_as_xyz
  1  'x, y, z'
loop_
 _atom_site_type_symbol
 _atom_site_label
 _atom_site_symmetry_multiplicity
 _atom_site_fract_x
 _atom_site_fract_y
 _atom_site_fract_z
 _atom_site_occupancy
  Dy  Dy0  1  0.599893  0.999583  0.000000  1
  Dy  Dy1  1  0.999583  0.599893  0.000000  1
  Ho  Ho2  1  0.397335  0.397335  0.000000  1
  Ga  Ga3  1  0.230720  0.999499  0.500000  1
  Ga  Ga4  1  0.999499  0.230720  0.500000  1
  Ga  Ga5  1  0.770142  0.770142  0.500000  1
  Ga  Ga6  1  0.334386  0.665489  0.500000  1
  Ga  Ga7  1  0.665489  0.334386  0.500000  1
  Co  Co8  1  0.002954  0.002954  0.000000  1
