# generated using pymatgen
data_YSc6Co6Sn23
_symmetry_space_group_name_H-M   'P 1'
_cell_length_a   9.54776700
_cell_length_b   9.54776881
_cell_length_c   9.82529200
_cell_angle_alpha   90.00000000
_cell_angle_beta   90.00000000
_cell_angle_gamma   120.00000411
_symmetry_Int_Tables_number   1
_chemical_formula_structural   YSc6Co6Sn23
_chemical_formula_sum   'Y1 Sc6 Co6 Sn23'
_cell_volume   775.67498610
_cell_formula_units_Z   1
loop_
 _symmetry_equiv_pos_site_id
 _symmetry_equiv_pos_as_xyz
  1  'x, y, z'
loop_
 _atom_site_type_symbol
 _atom_site_label
 _atom_site_symmetry_multiplicity
 _atom_site_fract_x
 _atom_site_fract_y
 _atom_site_fract_z
 _atom_site_occupancy
  Y  Y0  1  0.000000  0.000000  0.000000  1
  Sc  Sc1  1  0.037703  0.518851  0.307982  1
  Sc  Sc2  1  0.481149  0.962297  0.307982  1
  Sc  Sc3  1  0.481149  0.518851  0.307982  1
  Sc  Sc4  1  0.962297  0.481149  0.692018  1
  Sc  Sc5  1  0.518851  0.037703  0.692018  1
  Sc  Sc6  1  0.518851  0.481149  0.692018  1
  Co  Co7  1  0.168736  0.831264  0.801738  1
  Co  Co8  1  0.662528  0.831264  0.801738  1
  Co  Co9  1  0.168736  0.337472  0.801738  1
  Co  Co10  1  0.831264  0.168736  0.198262  1
  Co  Co11  1  0.337472  0.168736  0.198262  1
  Co  Co12  1  0.831264  0.662528  0.198262  1
  Sn  Sn13  1  0.000000  0.000000  0.500000  1
  Sn  Sn14  1  0.121775  0.878225  0.276602  1
  Sn  Sn15  1  0.756449  0.878225  0.276602  1
  Sn  Sn16  1  0.121775  0.243551  0.276602  1
  Sn  Sn17  1  0.878225  0.121775  0.723398  1
  Sn  Sn18  1  0.243551  0.121775  0.723398  1
  Sn  Sn19  1  0.878225  0.756449  0.723398  1
  Sn  Sn20  1  0.347980  0.000000  0.000000  1
  Sn  Sn21  1  0.652020  0.652020  0.000000  1
  Sn  Sn22  1  0.000000  0.347980  0.000000  1
  Sn  Sn23  1  0.347980  0.347980  0.000000  1
  Sn  Sn24  1  0.000000  0.652020  0.000000  1
  Sn  Sn25  1  0.652020  0.000000  0.000000  1
  Sn  Sn26  1  0.779414  0.558827  0.452685  1
  Sn  Sn27  1  0.779414  0.220586  0.452685  1
  Sn  Sn28  1  0.441173  0.220586  0.452685  1
  Sn  Sn29  1  0.220586  0.441173  0.547315  1
  Sn  Sn30  1  0.220586  0.779414  0.547315  1
  Sn  Sn31  1  0.558827  0.779414  0.547315  1
  Sn  Sn32  1  0.666667  0.333333  0.179206  1
  Sn  Sn33  1  0.333333  0.666667  0.820794  1
  Sn  Sn34  1  0.666667  0.333333  0.865973  1
  Sn  Sn35  1  0.333333  0.666667  0.134027  1
