# generated using pymatgen
data_Er2Tm6In3Ir
_symmetry_space_group_name_H-M   'P 1'
_cell_length_a   10.28685500
_cell_length_b   10.28789558
_cell_length_c   6.97556400
_cell_angle_alpha   89.99975655
_cell_angle_beta   90.00000000
_cell_angle_gamma   119.99665740
_symmetry_Int_Tables_number   1
_chemical_formula_structural   Er2Tm6In3Ir
_chemical_formula_sum   'Er4 Tm12 In6 Ir2'
_cell_volume   639.34276076
_cell_formula_units_Z   2
loop_
 _symmetry_equiv_pos_site_id
 _symmetry_equiv_pos_as_xyz
  1  'x, y, z'
loop_
 _atom_site_type_symbol
 _atom_site_label
 _atom_site_symmetry_multiplicity
 _atom_site_fract_x
 _atom_site_fract_y
 _atom_site_fract_z
 _atom_site_occupancy
  Er  Er0  1  0.532546  0.065094  0.514907  1
  Er  Er1  1  0.934837  0.467414  0.514753  1
  Er  Er2  1  0.532576  0.467414  0.514753  1
  Er  Er3  1  0.467345  0.934689  0.014783  1
  Tm  Tm4  1  0.065825  0.532908  0.014719  1
  Tm  Tm5  1  0.467084  0.532908  0.014719  1
  Tm  Tm6  1  0.176655  0.353310  0.721896  1
  Tm  Tm7  1  0.646851  0.823299  0.721731  1
  Tm  Tm8  1  0.176448  0.823299  0.721731  1
  Tm  Tm9  1  0.823365  0.646729  0.221186  1
  Tm  Tm10  1  0.353158  0.176760  0.221380  1
  Tm  Tm11  1  0.823603  0.176760  0.221380  1
  Tm  Tm12  1  0.666761  0.333521  0.895492  1
  Tm  Tm13  1  0.333224  0.666450  0.395234  1
  Tm  Tm14  1  0.999972  0.999944  0.500223  1
  Tm  Tm15  1  0.999994  0.999988  0.000336  1
  In  In16  1  0.837262  0.674526  0.761555  1
  In  In17  1  0.325460  0.162724  0.761488  1
  In  In18  1  0.837264  0.162724  0.761488  1
  In  In19  1  0.162878  0.325754  0.261155  1
  In  In20  1  0.674430  0.837118  0.261346  1
  In  In21  1  0.162689  0.837118  0.261346  1
  Ir  Ir22  1  0.666643  0.333285  0.289968  1
  Ir  Ir23  1  0.333131  0.666264  0.790428  1
