# generated using pymatgen
data_Pa2VTcC4
_symmetry_space_group_name_H-M   'P 1'
_cell_length_a   3.30447600
_cell_length_b   5.67180200
_cell_length_c   10.86499000
_cell_angle_alpha   90.00000000
_cell_angle_beta   90.00000000
_cell_angle_gamma   90.00000000
_symmetry_Int_Tables_number   1
_chemical_formula_structural   Pa2VTcC4
_chemical_formula_sum   'Pa4 V2 Tc2 C8'
_cell_volume   203.63526699
_cell_formula_units_Z   2
loop_
 _symmetry_equiv_pos_site_id
 _symmetry_equiv_pos_as_xyz
  1  'x, y, z'
loop_
 _atom_site_type_symbol
 _atom_site_label
 _atom_site_symmetry_multiplicity
 _atom_site_fract_x
 _atom_site_fract_y
 _atom_site_fract_z
 _atom_site_occupancy
  Pa  Pa0  1  0.250000  0.082283  0.858145  1
  Pa  Pa1  1  0.250000  0.582283  0.641855  1
  Pa  Pa2  1  0.750000  0.919694  0.142942  1
  Pa  Pa3  1  0.750000  0.419694  0.357058  1
  V  V4  1  0.250000  0.418010  0.101061  1
  V  V5  1  0.250000  0.918010  0.398939  1
  Tc  Tc6  1  0.750000  0.578637  0.902270  1
  Tc  Tc7  1  0.750000  0.078637  0.597730  1
  C  C8  1  0.250000  0.166051  0.245259  1
  C  C9  1  0.250000  0.666051  0.254741  1
  C  C10  1  0.750000  0.838064  0.751582  1
  C  C11  1  0.750000  0.338064  0.748418  1
  C  C12  1  0.250000  0.730926  0.992632  1
  C  C13  1  0.250000  0.230926  0.507368  1
  C  C14  1  0.750000  0.266333  0.014010  1
  C  C15  1  0.750000  0.766333  0.485990  1
