# generated using pymatgen
data_La14CuIr5
_symmetry_space_group_name_H-M   'P 1'
_cell_length_a   6.55696557
_cell_length_b   10.24417182
_cell_length_c   10.24417078
_cell_angle_alpha   119.83027829
_cell_angle_beta   90.04256842
_cell_angle_gamma   89.95743041
_symmetry_Int_Tables_number   1
_chemical_formula_structural   La14CuIr5
_chemical_formula_sum   'La14 Cu1 Ir5'
_cell_volume   596.93527559
_cell_formula_units_Z   1
loop_
 _symmetry_equiv_pos_site_id
 _symmetry_equiv_pos_as_xyz
  1  'x, y, z'
loop_
 _atom_site_type_symbol
 _atom_site_label
 _atom_site_symmetry_multiplicity
 _atom_site_fract_x
 _atom_site_fract_y
 _atom_site_fract_z
 _atom_site_occupancy
  La  La0  1  0.478598  0.333568  0.666432  1
  La  La1  1  0.972768  0.664155  0.335845  1
  La  La2  1  0.245268  0.124175  0.875825  1
  La  La3  1  0.242341  0.743413  0.863329  1
  La  La4  1  0.242341  0.136671  0.256587  1
  La  La5  1  0.731513  0.875060  0.124940  1
  La  La6  1  0.742576  0.249782  0.126021  1
  La  La7  1  0.742576  0.873979  0.750218  1
  La  La8  1  0.438309  0.540909  0.459091  1
  La  La9  1  0.442609  0.929729  0.469909  1
  La  La10  1  0.442609  0.530091  0.070271  1
  La  La11  1  0.934086  0.461084  0.538916  1
  La  La12  1  0.939902  0.076198  0.540835  1
  La  La13  1  0.939902  0.459165  0.923802  1
  Cu  Cu14  1  0.191384  0.812958  0.187042  1
  Ir  Ir15  1  0.195649  0.377233  0.186143  1
  Ir  Ir16  1  0.195649  0.813857  0.622767  1
  Ir  Ir17  1  0.692466  0.187821  0.812179  1
  Ir  Ir18  1  0.695726  0.625514  0.815362  1
  Ir  Ir19  1  0.695726  0.184638  0.374486  1
