# generated using pymatgen
data_Al2IrO6
_symmetry_space_group_name_H-M   'P 1'
_cell_length_a   4.45548300
_cell_length_b   4.45548300
_cell_length_c   8.88883500
_cell_angle_alpha   90.00000000
_cell_angle_beta   90.00000000
_cell_angle_gamma   90.00000000
_symmetry_Int_Tables_number   1
_chemical_formula_structural   Al2IrO6
_chemical_formula_sum   'Al4 Ir2 O12'
_cell_volume   176.45518591
_cell_formula_units_Z   2
loop_
 _symmetry_equiv_pos_site_id
 _symmetry_equiv_pos_as_xyz
  1  'x, y, z'
loop_
 _atom_site_type_symbol
 _atom_site_label
 _atom_site_symmetry_multiplicity
 _atom_site_fract_x
 _atom_site_fract_y
 _atom_site_fract_z
 _atom_site_occupancy
  Al  Al0  1  0.500000  0.500000  0.333015  1
  Al  Al1  1  0.500000  0.500000  0.666985  1
  Al  Al2  1  0.000000  0.000000  0.166985  1
  Al  Al3  1  0.000000  0.000000  0.833015  1
  Ir  Ir4  1  0.500000  0.500000  0.000000  1
  Ir  Ir5  1  0.000000  0.000000  0.500000  1
  O  O6  1  0.698363  0.698363  0.170806  1
  O  O7  1  0.698363  0.698363  0.829194  1
  O  O8  1  0.695249  0.695249  0.500000  1
  O  O9  1  0.804751  0.195249  0.000000  1
  O  O10  1  0.801637  0.198363  0.329194  1
  O  O11  1  0.801637  0.198363  0.670806  1
  O  O12  1  0.198363  0.801637  0.329194  1
  O  O13  1  0.198363  0.801637  0.670806  1
  O  O14  1  0.195249  0.804751  0.000000  1
  O  O15  1  0.304751  0.304751  0.500000  1
  O  O16  1  0.301637  0.301637  0.170806  1
  O  O17  1  0.301637  0.301637  0.829194  1
