# generated using pymatgen
data_Yb4Zn4PdPt3
_symmetry_space_group_name_H-M   'P 1'
_cell_length_a   4.17780300
_cell_length_b   7.12447080
_cell_length_c   7.94442090
_cell_angle_alpha   90.05437410
_cell_angle_beta   90.00000000
_cell_angle_gamma   90.00000000
_symmetry_Int_Tables_number   1
_chemical_formula_structural   Yb4Zn4PdPt3
_chemical_formula_sum   'Yb4 Zn4 Pd1 Pt3'
_cell_volume   236.46268562
_cell_formula_units_Z   1
loop_
 _symmetry_equiv_pos_site_id
 _symmetry_equiv_pos_as_xyz
  1  'x, y, z'
loop_
 _atom_site_type_symbol
 _atom_site_label
 _atom_site_symmetry_multiplicity
 _atom_site_fract_x
 _atom_site_fract_y
 _atom_site_fract_z
 _atom_site_occupancy
  Yb  Yb0  1  0.750000  0.473222  0.812393  1
  Yb  Yb1  1  0.250000  0.024448  0.313457  1
  Yb  Yb2  1  0.750000  0.977602  0.685433  1
  Yb  Yb3  1  0.250000  0.522929  0.188148  1
  Zn  Zn4  1  0.250000  0.649713  0.571674  1
  Zn  Zn5  1  0.250000  0.150255  0.927785  1
  Zn  Zn6  1  0.750000  0.350450  0.427378  1
  Zn  Zn7  1  0.750000  0.850313  0.072813  1
  Pd  Pd8  1  0.250000  0.774276  0.884902  1
  Pt  Pt9  1  0.250000  0.273282  0.616265  1
  Pt  Pt10  1  0.750000  0.727027  0.384704  1
  Pt  Pt11  1  0.750000  0.226482  0.115048  1
