# generated using pymatgen
data_Nb3ReB3Ru2
_symmetry_space_group_name_H-M   'P 1'
_cell_length_a   3.16698300
_cell_length_b   6.48584400
_cell_length_c   10.97313900
_cell_angle_alpha   90.00000000
_cell_angle_beta   90.00000000
_cell_angle_gamma   90.00000000
_symmetry_Int_Tables_number   1
_chemical_formula_structural   Nb3ReB3Ru2
_chemical_formula_sum   'Nb6 Re2 B6 Ru4'
_cell_volume   225.39439466
_cell_formula_units_Z   2
loop_
 _symmetry_equiv_pos_site_id
 _symmetry_equiv_pos_as_xyz
  1  'x, y, z'
loop_
 _atom_site_type_symbol
 _atom_site_label
 _atom_site_symmetry_multiplicity
 _atom_site_fract_x
 _atom_site_fract_y
 _atom_site_fract_z
 _atom_site_occupancy
  Nb  Nb0  1  0.000000  0.279438  0.955579  1
  Nb  Nb1  1  0.000000  0.720562  0.044421  1
  Nb  Nb2  1  0.000000  0.279438  0.544421  1
  Nb  Nb3  1  0.000000  0.720562  0.455579  1
  Nb  Nb4  1  0.000000  0.353689  0.250000  1
  Nb  Nb5  1  0.000000  0.646311  0.750000  1
  Re  Re6  1  0.500000  0.701731  0.250000  1
  Re  Re7  1  0.500000  0.298269  0.750000  1
  B  B8  1  0.000000  0.949867  0.250000  1
  B  B9  1  0.000000  0.050133  0.750000  1
  B  B10  1  0.500000  0.452248  0.084397  1
  B  B11  1  0.500000  0.547752  0.915603  1
  B  B12  1  0.500000  0.452248  0.415603  1
  B  B13  1  0.500000  0.547752  0.584397  1
  Ru  Ru14  1  0.500000  0.074117  0.123520  1
  Ru  Ru15  1  0.500000  0.925883  0.876480  1
  Ru  Ru16  1  0.500000  0.074117  0.376480  1
  Ru  Ru17  1  0.500000  0.925883  0.623520  1
