# generated using pymatgen
data_Ce6Al24NiOs7
_symmetry_space_group_name_H-M   'P 1'
_cell_length_a   8.89755800
_cell_length_b   8.89755914
_cell_length_c   9.51421700
_cell_angle_alpha   90.00000000
_cell_angle_beta   90.00000000
_cell_angle_gamma   120.00000319
_symmetry_Int_Tables_number   1
_chemical_formula_structural   Ce6Al24NiOs7
_chemical_formula_sum   'Ce6 Al24 Ni1 Os7'
_cell_volume   652.29700036
_cell_formula_units_Z   1
loop_
 _symmetry_equiv_pos_site_id
 _symmetry_equiv_pos_as_xyz
  1  'x, y, z'
loop_
 _atom_site_type_symbol
 _atom_site_label
 _atom_site_symmetry_multiplicity
 _atom_site_fract_x
 _atom_site_fract_y
 _atom_site_fract_z
 _atom_site_occupancy
  Ce  Ce0  1  0.194562  0.389123  0.250149  1
  Ce  Ce1  1  0.805438  0.610877  0.749851  1
  Ce  Ce2  1  0.610877  0.805438  0.250149  1
  Ce  Ce3  1  0.389123  0.194562  0.749851  1
  Ce  Ce4  1  0.194562  0.805438  0.250149  1
  Ce  Ce5  1  0.805438  0.194562  0.749851  1
  Al  Al6  1  0.333333  0.666667  0.013213  1
  Al  Al7  1  0.666667  0.333333  0.986787  1
  Al  Al8  1  0.666667  0.333333  0.513857  1
  Al  Al9  1  0.333333  0.666667  0.486143  1
  Al  Al10  1  0.162168  0.324336  0.576351  1
  Al  Al11  1  0.837832  0.675664  0.423649  1
  Al  Al12  1  0.675664  0.837832  0.576351  1
  Al  Al13  1  0.837442  0.674884  0.077243  1
  Al  Al14  1  0.324336  0.162168  0.423649  1
  Al  Al15  1  0.162558  0.325116  0.922757  1
  Al  Al16  1  0.162168  0.837832  0.576351  1
  Al  Al17  1  0.325116  0.162558  0.077243  1
  Al  Al18  1  0.837832  0.162168  0.423649  1
  Al  Al19  1  0.674884  0.837442  0.922757  1
  Al  Al20  1  0.837442  0.162558  0.077243  1
  Al  Al21  1  0.162558  0.837442  0.922757  1
  Al  Al22  1  0.561787  0.123572  0.250414  1
  Al  Al23  1  0.438213  0.876428  0.749586  1
  Al  Al24  1  0.876428  0.438213  0.250414  1
  Al  Al25  1  0.123572  0.561787  0.749586  1
  Al  Al26  1  0.561787  0.438213  0.250414  1
  Al  Al27  1  0.438213  0.561787  0.749586  1
  Al  Al28  1  0.000000  0.000000  0.243987  1
  Al  Al29  1  0.000000  0.000000  0.756013  1
  Ni  Ni30  1  0.000000  0.000000  0.000000  1
  Os  Os31  1  0.500000  0.000000  0.000000  1
  Os  Os32  1  0.000000  0.500000  0.000000  1
  Os  Os33  1  0.500000  0.000000  0.500000  1
  Os  Os34  1  0.500000  0.500000  0.000000  1
  Os  Os35  1  0.000000  0.500000  0.500000  1
  Os  Os36  1  0.500000  0.500000  0.500000  1
  Os  Os37  1  0.000000  0.000000  0.500000  1
