# generated using pymatgen
data_Nd7Ho3(Ni2Sn5)4
_symmetry_space_group_name_H-M   'P 1'
_cell_length_a   13.93111079
_cell_length_b   13.93111079
_cell_length_c   4.52222900
_cell_angle_alpha   90.00000000
_cell_angle_beta   90.00000000
_cell_angle_gamma   89.85740119
_symmetry_Int_Tables_number   1
_chemical_formula_structural   Nd7Ho3(Ni2Sn5)4
_chemical_formula_sum   'Nd7 Ho3 Ni8 Sn20'
_cell_volume   877.65270869
_cell_formula_units_Z   1
loop_
 _symmetry_equiv_pos_site_id
 _symmetry_equiv_pos_as_xyz
  1  'x, y, z'
loop_
 _atom_site_type_symbol
 _atom_site_label
 _atom_site_symmetry_multiplicity
 _atom_site_fract_x
 _atom_site_fract_y
 _atom_site_fract_z
 _atom_site_occupancy
  Nd  Nd0  1  0.999418  0.999588  0.000000  1
  Nd  Nd1  1  0.500412  0.500582  0.000000  1
  Nd  Nd2  1  0.317603  0.182397  0.500000  1
  Nd  Nd3  1  0.892153  0.607847  0.500000  1
  Nd  Nd4  1  0.106503  0.393497  0.500000  1
  Nd  Nd5  1  0.392699  0.891138  0.500000  1
  Nd  Nd6  1  0.608862  0.107301  0.500000  1
  Ho  Ho7  1  0.180466  0.680085  0.500000  1
  Ho  Ho8  1  0.819915  0.319534  0.500000  1
  Ho  Ho9  1  0.680860  0.819140  0.500000  1
  Ni  Ni10  1  0.255719  0.537424  0.000000  1
  Ni  Ni11  1  0.744101  0.464597  0.000000  1
  Ni  Ni12  1  0.755725  0.964510  0.000000  1
  Ni  Ni13  1  0.242737  0.032991  0.000000  1
  Ni  Ni14  1  0.467009  0.257263  0.000000  1
  Ni  Ni15  1  0.535490  0.744275  0.000000  1
  Ni  Ni16  1  0.035403  0.755899  0.000000  1
  Ni  Ni17  1  0.962576  0.244281  0.000000  1
  Sn  Sn18  1  0.350968  0.701379  0.000000  1
  Sn  Sn19  1  0.650497  0.299343  0.000000  1
  Sn  Sn20  1  0.850635  0.798911  0.000000  1
  Sn  Sn21  1  0.146851  0.201147  0.000000  1
  Sn  Sn22  1  0.298853  0.353149  0.000000  1
  Sn  Sn23  1  0.701089  0.649365  0.000000  1
  Sn  Sn24  1  0.200657  0.849503  0.000000  1
  Sn  Sn25  1  0.798621  0.149032  0.000000  1
  Sn  Sn26  1  0.333108  0.509176  0.500000  1
  Sn  Sn27  1  0.667079  0.490436  0.500000  1
  Sn  Sn28  1  0.833434  0.990104  0.500000  1
  Sn  Sn29  1  0.165957  0.007011  0.500000  1
  Sn  Sn30  1  0.492989  0.334043  0.500000  1
  Sn  Sn31  1  0.509896  0.666566  0.500000  1
  Sn  Sn32  1  0.009564  0.832921  0.500000  1
  Sn  Sn33  1  0.990824  0.166892  0.500000  1
  Sn  Sn34  1  0.072369  0.572806  0.000000  1
  Sn  Sn35  1  0.927194  0.427631  0.000000  1
  Sn  Sn36  1  0.573217  0.926783  0.000000  1
  Sn  Sn37  1  0.428547  0.071453  0.000000  1
