# generated using pymatgen
data_Er16Lu4Si15Se
_symmetry_space_group_name_H-M   'P 1'
_cell_length_a   7.45188686
_cell_length_b   7.58501170
_cell_length_c   14.53808500
_cell_angle_alpha   89.67322017
_cell_angle_beta   85.65229377
_cell_angle_gamma   89.87646658
_symmetry_Int_Tables_number   1
_chemical_formula_structural   Er16Lu4Si15Se
_chemical_formula_sum   'Er16 Lu4 Si15 Se1'
_cell_volume   819.35187742
_cell_formula_units_Z   1
loop_
 _symmetry_equiv_pos_site_id
 _symmetry_equiv_pos_as_xyz
  1  'x, y, z'
loop_
 _atom_site_type_symbol
 _atom_site_label
 _atom_site_symmetry_multiplicity
 _atom_site_fract_x
 _atom_site_fract_y
 _atom_site_fract_z
 _atom_site_occupancy
  Er  Er0  1  0.016795  0.832690  0.105170  1
  Er  Er1  1  0.474749  0.684926  0.398340  1
  Er  Er2  1  0.482116  0.314981  0.896565  1
  Er  Er3  1  0.025694  0.183198  0.602153  1
  Er  Er4  1  0.993027  0.169768  0.897478  1
  Er  Er5  1  0.525014  0.314678  0.601642  1
  Er  Er6  1  0.503538  0.687048  0.103970  1
  Er  Er7  1  0.973791  0.814590  0.398148  1
  Er  Er8  1  0.638409  0.838074  0.878464  1
  Er  Er9  1  0.175653  0.673851  0.623209  1
  Er  Er10  1  0.860825  0.335213  0.119708  1
  Er  Er11  1  0.325835  0.176679  0.377832  1
  Er  Er12  1  0.360115  0.167613  0.120697  1
  Er  Er13  1  0.824800  0.325936  0.377713  1
  Er  Er14  1  0.143419  0.665131  0.880849  1
  Er  Er15  1  0.675031  0.823207  0.623235  1
  Lu  Lu16  1  0.671905  0.996353  0.246608  1
  Lu  Lu17  1  0.170229  0.505983  0.245920  1
  Lu  Lu18  1  0.830496  0.492823  0.747818  1
  Lu  Lu19  1  0.327994  0.003791  0.752870  1
  Si  Si20  1  0.788441  0.632625  0.250568  1
  Si  Si21  1  0.288786  0.869951  0.252548  1
  Si  Si22  1  0.709925  0.132188  0.749025  1
  Si  Si23  1  0.208377  0.366178  0.749764  1
  Si  Si24  1  0.043172  0.112806  0.252187  1
  Si  Si25  1  0.543554  0.391992  0.250247  1
  Si  Si26  1  0.458395  0.608509  0.750811  1
  Si  Si27  1  0.957451  0.886656  0.750088  1
  Si  Si28  1  0.355711  0.971639  0.543362  1
  Si  Si29  1  0.710906  0.031409  0.042459  1
  Si  Si30  1  0.145850  0.472495  0.457563  1
  Si  Si31  1  0.211549  0.472049  0.044418  1
  Si  Si32  1  0.646204  0.027301  0.457199  1
  Si  Si33  1  0.294479  0.966993  0.956535  1
  Si  Si34  1  0.855275  0.526061  0.543416  1
  Se  Se35  1  0.782489  0.524617  0.951420  1
