# generated using pymatgen
data_TbEr3(Al8Ni3)3
_symmetry_space_group_name_H-M   'P 1'
_cell_length_a   7.27323833
_cell_length_b   7.30776982
_cell_length_c   12.70573904
_cell_angle_alpha   84.58107499
_cell_angle_beta   79.07843492
_cell_angle_gamma   59.96194460
_symmetry_Int_Tables_number   1
_chemical_formula_structural   TbEr3(Al8Ni3)3
_chemical_formula_sum   'Tb1 Er3 Al24 Ni9'
_cell_volume   574.03482845
_cell_formula_units_Z   1
loop_
 _symmetry_equiv_pos_site_id
 _symmetry_equiv_pos_as_xyz
  1  'x, y, z'
loop_
 _atom_site_type_symbol
 _atom_site_label
 _atom_site_symmetry_multiplicity
 _atom_site_fract_x
 _atom_site_fract_y
 _atom_site_fract_z
 _atom_site_occupancy
  Tb  Tb0  1  0.393489  0.168642  0.805357  1
  Er  Er1  1  0.606378  0.831031  0.195445  1
  Er  Er2  1  0.735039  0.497967  0.804877  1
  Er  Er3  1  0.264836  0.502234  0.195353  1
  Al  Al4  1  0.680586  0.833136  0.948422  1
  Al  Al5  1  0.319717  0.166398  0.052871  1
  Al  Al6  1  0.146162  0.833047  0.559230  1
  Al  Al7  1  0.854300  0.166946  0.440310  1
  Al  Al8  1  0.480464  0.166531  0.556908  1
  Al  Al9  1  0.520034  0.833139  0.442295  1
  Al  Al10  1  0.215616  0.165712  0.335684  1
  Al  Al11  1  0.785201  0.833860  0.663499  1
  Al  Al12  1  0.438700  0.507045  0.663673  1
  Al  Al13  1  0.561609  0.493212  0.335663  1
  Al  Al14  1  0.110654  0.159213  0.661959  1
  Al  Al15  1  0.889227  0.840624  0.337204  1
  Al  Al16  1  0.354194  0.497118  0.948343  1
  Al  Al17  1  0.645160  0.503947  0.052371  1
  Al  Al18  1  0.012341  0.169803  0.961525  1
  Al  Al19  1  0.986616  0.830455  0.039944  1
  Al  Al20  1  0.186468  0.499717  0.442571  1
  Al  Al21  1  0.813407  0.500171  0.557402  1
  Al  Al22  1  0.728564  0.164120  0.184533  1
  Al  Al23  1  0.271535  0.834772  0.815008  1
  Al  Al24  1  0.060580  0.627305  0.814165  1
  Al  Al25  1  0.938160  0.374179  0.186027  1
  Al  Al26  1  0.851697  0.046734  0.815541  1
  Al  Al27  1  0.149684  0.953157  0.184537  1
  Ni  Ni28  1  0.119017  0.492282  0.637884  1
  Ni  Ni29  1  0.880491  0.507585  0.362297  1
  Ni  Ni30  1  0.658946  0.170598  0.000184  1
  Ni  Ni31  1  0.340665  0.829246  0.999855  1
  Ni  Ni32  1  0.538718  0.166826  0.361914  1
  Ni  Ni33  1  0.461318  0.833067  0.636997  1
  Ni  Ni34  1  0.777854  0.174229  0.637673  1
  Ni  Ni35  1  0.222525  0.825390  0.362159  1
  Ni  Ni36  1  0.000045  0.500564  0.000321  1
