# generated using pymatgen
data_Dy7Y9Cd3AgIr4
_symmetry_space_group_name_H-M   'P 1'
_cell_length_a   9.64038497
_cell_length_b   9.64510285
_cell_length_c   9.65692399
_cell_angle_alpha   59.82656138
_cell_angle_beta   59.89561926
_cell_angle_gamma   59.93229165
_symmetry_Int_Tables_number   1
_chemical_formula_structural   Dy7Y9Cd3AgIr4
_chemical_formula_sum   'Dy7 Y9 Cd3 Ag1 Ir4'
_cell_volume   633.26852322
_cell_formula_units_Z   1
loop_
 _symmetry_equiv_pos_site_id
 _symmetry_equiv_pos_as_xyz
  1  'x, y, z'
loop_
 _atom_site_type_symbol
 _atom_site_label
 _atom_site_symmetry_multiplicity
 _atom_site_fract_x
 _atom_site_fract_y
 _atom_site_fract_z
 _atom_site_occupancy
  Dy  Dy0  1  0.348669  0.349368  0.349239  1
  Dy  Dy1  1  0.349143  0.349013  0.953872  1
  Dy  Dy2  1  0.349658  0.953227  0.348841  1
  Dy  Dy3  1  0.953779  0.349737  0.349083  1
  Dy  Dy4  1  0.809698  0.189447  0.189678  1
  Dy  Dy5  1  0.188275  0.809827  0.809669  1
  Dy  Dy6  1  0.189466  0.810027  0.189421  1
  Y  Y7  1  0.809888  0.187816  0.809918  1
  Y  Y8  1  0.189687  0.189498  0.809719  1
  Y  Y9  1  0.809817  0.810033  0.187770  1
  Y  Y10  1  0.936267  0.561766  0.561317  1
  Y  Y11  1  0.561436  0.936599  0.936785  1
  Y  Y12  1  0.561196  0.936466  0.561202  1
  Y  Y13  1  0.936802  0.561526  0.936843  1
  Y  Y14  1  0.560838  0.561319  0.936904  1
  Y  Y15  1  0.937177  0.937018  0.560979  1
  Cd  Cd16  1  0.581506  0.581396  0.259176  1
  Cd  Cd17  1  0.581236  0.259250  0.581551  1
  Cd  Cd18  1  0.259080  0.581088  0.581515  1
  Ag  Ag19  1  0.582964  0.582859  0.583010  1
  Ir  Ir20  1  0.140557  0.140941  0.143044  1
  Ir  Ir21  1  0.143769  0.141762  0.574701  1
  Ir  Ir22  1  0.144441  0.575720  0.141948  1
  Ir  Ir23  1  0.574652  0.144300  0.143815  1
