# generated using pymatgen
data_YFeB4Os3
_symmetry_space_group_name_H-M   'P 1'
_cell_length_a   4.01584300
_cell_length_b   7.48862353
_cell_length_c   7.28332806
_cell_angle_alpha   87.77526701
_cell_angle_beta   90.00000000
_cell_angle_gamma   90.00000000
_symmetry_Int_Tables_number   1
_chemical_formula_structural   YFeB4Os3
_chemical_formula_sum   'Y2 Fe2 B8 Os6'
_cell_volume   218.86742284
_cell_formula_units_Z   2
loop_
 _symmetry_equiv_pos_site_id
 _symmetry_equiv_pos_as_xyz
  1  'x, y, z'
loop_
 _atom_site_type_symbol
 _atom_site_label
 _atom_site_symmetry_multiplicity
 _atom_site_fract_x
 _atom_site_fract_y
 _atom_site_fract_z
 _atom_site_occupancy
  Y  Y0  1  0.279096  0.250000  0.250000  1
  Y  Y1  1  0.860588  0.750000  0.750000  1
  Fe  Fe2  1  0.125396  0.375596  0.635259  1
  Fe  Fe3  1  0.125396  0.124404  0.864741  1
  B  B4  1  0.351965  0.926567  0.026082  1
  B  B5  1  0.351965  0.573433  0.473918  1
  B  B6  1  0.855851  0.530896  0.083935  1
  B  B7  1  0.855851  0.969104  0.416065  1
  B  B8  1  0.625896  0.089027  0.935366  1
  B  B9  1  0.625896  0.410973  0.564634  1
  B  B10  1  0.129563  0.449807  0.916907  1
  B  B11  1  0.129563  0.050193  0.583093  1
  Os  Os12  1  0.626516  0.129986  0.619872  1
  Os  Os13  1  0.626516  0.370014  0.880128  1
  Os  Os14  1  0.857907  0.596190  0.364254  1
  Os  Os15  1  0.857907  0.903810  0.135746  1
  Os  Os16  1  0.357064  0.853711  0.401807  1
  Os  Os17  1  0.357064  0.646289  0.098193  1
