# generated using pymatgen
data_Cs2Ce(AsO4)2
_symmetry_space_group_name_H-M   'P 1'
_cell_length_a   5.56426600
_cell_length_b   5.56425982
_cell_length_c   10.05128900
_cell_angle_alpha   90.00004119
_cell_angle_beta   89.99997941
_cell_angle_gamma   120.00004861
_symmetry_Int_Tables_number   1
_chemical_formula_structural   Cs2Ce(AsO4)2
_chemical_formula_sum   'Cs2 Ce1 As2 O8'
_cell_volume   269.50539519
_cell_formula_units_Z   1
loop_
 _symmetry_equiv_pos_site_id
 _symmetry_equiv_pos_as_xyz
  1  'x, y, z'
loop_
 _atom_site_type_symbol
 _atom_site_label
 _atom_site_symmetry_multiplicity
 _atom_site_fract_x
 _atom_site_fract_y
 _atom_site_fract_z
 _atom_site_occupancy
  Cs  Cs0  1  0.666665  0.333335  0.354359  1
  Cs  Cs1  1  0.333334  0.666668  0.645640  1
  Ce  Ce2  1  0.999999  0.999999  0.999999  1
  As  As3  1  0.333335  0.666668  0.188971  1
  As  As4  1  0.666663  0.333332  0.811028  1
  O  O5  1  0.288040  0.354298  0.131148  1
  O  O6  1  0.066257  0.711959  0.131148  1
  O  O7  1  0.645700  0.933741  0.131148  1
  O  O8  1  0.333331  0.666665  0.357441  1
  O  O9  1  0.666669  0.333335  0.642559  1
  O  O10  1  0.354299  0.066259  0.868851  1
  O  O11  1  0.933744  0.288040  0.868853  1
  O  O12  1  0.711960  0.645703  0.868852  1
