# generated using pymatgen
data_CdAgP6Pd20Pb
_symmetry_space_group_name_H-M   'P 1'
_cell_length_a   8.63990593
_cell_length_b   8.63990460
_cell_length_c   8.63990500
_cell_angle_alpha   59.99999463
_cell_angle_beta   59.99999973
_cell_angle_gamma   59.99999472
_symmetry_Int_Tables_number   1
_chemical_formula_structural   CdAgP6Pd20Pb
_chemical_formula_sum   'Cd1 Ag1 P6 Pd20 Pb1'
_cell_volume   456.04940601
_cell_formula_units_Z   1
loop_
 _symmetry_equiv_pos_site_id
 _symmetry_equiv_pos_as_xyz
  1  'x, y, z'
loop_
 _atom_site_type_symbol
 _atom_site_label
 _atom_site_symmetry_multiplicity
 _atom_site_fract_x
 _atom_site_fract_y
 _atom_site_fract_z
 _atom_site_occupancy
  Cd  Cd0  1  0.750000  0.750000  0.750000  1
  Ag  Ag1  1  0.000000  0.000000  0.000000  1
  P  P2  1  0.736131  0.736131  0.263869  1
  P  P3  1  0.263869  0.263869  0.736131  1
  P  P4  1  0.263869  0.736131  0.736131  1
  P  P5  1  0.736131  0.263869  0.736131  1
  P  P6  1  0.263869  0.736131  0.263869  1
  P  P7  1  0.736131  0.263869  0.263869  1
  Pd  Pd8  1  0.616782  0.616782  0.616782  1
  Pd  Pd9  1  0.385442  0.843673  0.385442  1
  Pd  Pd10  1  0.657904  0.344868  0.998615  1
  Pd  Pd11  1  0.998615  0.344868  0.657904  1
  Pd  Pd12  1  0.657904  0.998615  0.998615  1
  Pd  Pd13  1  0.616782  0.616782  0.149654  1
  Pd  Pd14  1  0.998615  0.998615  0.657904  1
  Pd  Pd15  1  0.998615  0.344868  0.998615  1
  Pd  Pd16  1  0.657904  0.998615  0.344868  1
  Pd  Pd17  1  0.344868  0.998615  0.998615  1
  Pd  Pd18  1  0.998615  0.657904  0.998615  1
  Pd  Pd19  1  0.344868  0.998615  0.657904  1
  Pd  Pd20  1  0.998615  0.657904  0.344868  1
  Pd  Pd21  1  0.344868  0.657904  0.998615  1
  Pd  Pd22  1  0.149654  0.616782  0.616782  1
  Pd  Pd23  1  0.385442  0.385442  0.385442  1
  Pd  Pd24  1  0.843673  0.385442  0.385442  1
  Pd  Pd25  1  0.385442  0.385442  0.843673  1
  Pd  Pd26  1  0.616782  0.149654  0.616782  1
  Pd  Pd27  1  0.998615  0.998615  0.344868  1
  Pb  Pb28  1  0.250000  0.250000  0.250000  1
