# generated using pymatgen
data_Li2PPt3
_symmetry_space_group_name_H-M   'P 1'
_cell_length_a   7.18160600
_cell_length_b   7.18160600
_cell_length_c   7.18160600
_cell_angle_alpha   90.00000000
_cell_angle_beta   90.00000000
_cell_angle_gamma   90.00000000
_symmetry_Int_Tables_number   1
_chemical_formula_structural   Li2PPt3
_chemical_formula_sum   'Li8 P4 Pt12'
_cell_volume   370.39466702
_cell_formula_units_Z   4
loop_
 _symmetry_equiv_pos_site_id
 _symmetry_equiv_pos_as_xyz
  1  'x, y, z'
loop_
 _atom_site_type_symbol
 _atom_site_label
 _atom_site_symmetry_multiplicity
 _atom_site_fract_x
 _atom_site_fract_y
 _atom_site_fract_z
 _atom_site_occupancy
  Li  Li0  1  0.291542  0.291542  0.291542  1
  Li  Li1  1  0.041542  0.458458  0.541542  1
  Li  Li2  1  0.541542  0.041542  0.458458  1
  Li  Li3  1  0.458458  0.541542  0.041542  1
  Li  Li4  1  0.208458  0.708458  0.791542  1
  Li  Li5  1  0.958458  0.958458  0.958458  1
  Li  Li6  1  0.791542  0.208458  0.708458  1
  Li  Li7  1  0.708458  0.791542  0.208458  1
  P  P8  1  0.875000  0.375000  0.125000  1
  P  P9  1  0.375000  0.125000  0.875000  1
  P  P10  1  0.625000  0.625000  0.625000  1
  P  P11  1  0.125000  0.875000  0.375000  1
  Pt  Pt12  1  0.170293  0.079707  0.625000  1
  Pt  Pt13  1  0.420293  0.375000  0.670293  1
  Pt  Pt14  1  0.079707  0.625000  0.170293  1
  Pt  Pt15  1  0.920293  0.125000  0.329707  1
  Pt  Pt16  1  0.329707  0.920293  0.125000  1
  Pt  Pt17  1  0.670293  0.420293  0.375000  1
  Pt  Pt18  1  0.579707  0.875000  0.829707  1
  Pt  Pt19  1  0.625000  0.170293  0.079707  1
  Pt  Pt20  1  0.375000  0.670293  0.420293  1
  Pt  Pt21  1  0.875000  0.829707  0.579707  1
  Pt  Pt22  1  0.125000  0.329707  0.920293  1
  Pt  Pt23  1  0.829707  0.579707  0.875000  1
