# generated using pymatgen
data_Li6CePrUN6
_symmetry_space_group_name_H-M   'P 1'
_cell_length_a   6.21680500
_cell_length_b   6.21680606
_cell_length_c   5.48226100
_cell_angle_alpha   90.00000000
_cell_angle_beta   90.00000000
_cell_angle_gamma   119.99999966
_symmetry_Int_Tables_number   1
_chemical_formula_structural   Li6CePrUN6
_chemical_formula_sum   'Li6 Ce1 Pr1 U1 N6'
_cell_volume   183.49528343
_cell_formula_units_Z   1
loop_
 _symmetry_equiv_pos_site_id
 _symmetry_equiv_pos_as_xyz
  1  'x, y, z'
loop_
 _atom_site_type_symbol
 _atom_site_label
 _atom_site_symmetry_multiplicity
 _atom_site_fract_x
 _atom_site_fract_y
 _atom_site_fract_z
 _atom_site_occupancy
  Li  Li0  1  0.968567  0.637424  0.600981  1
  Li  Li1  1  0.362576  0.331143  0.600981  1
  Li  Li2  1  0.668857  0.031433  0.600981  1
  Li  Li3  1  0.003768  0.332090  0.395681  1
  Li  Li4  1  0.667910  0.671678  0.395681  1
  Li  Li5  1  0.328322  0.996232  0.395681  1
  Ce  Ce6  1  0.000000  0.000000  0.995417  1
  Pr  Pr7  1  0.333333  0.666667  0.991717  1
  U  U8  1  0.666667  0.333333  0.008994  1
  N  N9  1  0.969576  0.646676  0.228820  1
  N  N10  1  0.353324  0.322901  0.228820  1
  N  N11  1  0.677099  0.030424  0.228820  1
  N  N12  1  0.963926  0.324152  0.775809  1
  N  N13  1  0.675848  0.639774  0.775809  1
  N  N14  1  0.360226  0.036074  0.775809  1
