# generated using pymatgen
data_Ho5Lu5Pb6
_symmetry_space_group_name_H-M   'P 1'
_cell_length_a   6.50602700
_cell_length_b   8.96010595
_cell_length_c   8.96809708
_cell_angle_alpha   120.03281636
_cell_angle_beta   90.00159355
_cell_angle_gamma   89.99834576
_symmetry_Int_Tables_number   1
_chemical_formula_structural   Ho5Lu5Pb6
_chemical_formula_sum   'Ho5 Lu5 Pb6'
_cell_volume   452.60175260
_cell_formula_units_Z   1
loop_
 _symmetry_equiv_pos_site_id
 _symmetry_equiv_pos_as_xyz
  1  'x, y, z'
loop_
 _atom_site_type_symbol
 _atom_site_label
 _atom_site_symmetry_multiplicity
 _atom_site_fract_x
 _atom_site_fract_y
 _atom_site_fract_z
 _atom_site_occupancy
  Ho  Ho0  1  0.750010  0.236872  0.999729  1
  Ho  Ho1  1  0.750011  0.763150  0.762854  1
  Ho  Ho2  1  0.750009  0.000031  0.237509  1
  Ho  Ho3  1  0.250006  0.762946  0.999769  1
  Ho  Ho4  1  0.249994  0.237025  0.236827  1
  Lu  Lu5  1  0.249990  0.999971  0.763002  1
  Lu  Lu6  1  0.499886  0.333288  0.666709  1
  Lu  Lu7  1  0.499890  0.666673  0.333382  1
  Lu  Lu8  1  0.000097  0.666719  0.333370  1
  Lu  Lu9  1  0.000099  0.333320  0.666703  1
  Pb  Pb10  1  0.749988  0.604051  0.999984  1
  Pb  Pb11  1  0.750019  0.395987  0.395974  1
  Pb  Pb12  1  0.750018  0.999975  0.603875  1
  Pb  Pb13  1  0.250003  0.394636  0.999169  1
  Pb  Pb14  1  0.250014  0.605319  0.604436  1
  Pb  Pb15  1  0.249969  0.000038  0.396706  1
