# generated using pymatgen
data_Er3NiAs2Rh3
_symmetry_space_group_name_H-M   'P 1'
_cell_length_a   6.79912700
_cell_length_b   6.79912614
_cell_length_c   4.04210000
_cell_angle_alpha   90.00000000
_cell_angle_beta   90.00000000
_cell_angle_gamma   119.99999932
_symmetry_Int_Tables_number   1
_chemical_formula_structural   Er3NiAs2Rh3
_chemical_formula_sum   'Er3 Ni1 As2 Rh3'
_cell_volume   161.82437561
_cell_formula_units_Z   1
loop_
 _symmetry_equiv_pos_site_id
 _symmetry_equiv_pos_as_xyz
  1  'x, y, z'
loop_
 _atom_site_type_symbol
 _atom_site_label
 _atom_site_symmetry_multiplicity
 _atom_site_fract_x
 _atom_site_fract_y
 _atom_site_fract_z
 _atom_site_occupancy
  Er  Er0  1  0.390866  0.000000  0.500000  1
  Er  Er1  1  0.000000  0.390866  0.500000  1
  Er  Er2  1  0.609134  0.609133  0.500000  1
  Ni  Ni3  1  0.000000  0.000000  0.500000  1
  As  As4  1  0.666666  0.333333  0.000000  1
  As  As5  1  0.333334  0.666667  0.000000  1
  Rh  Rh6  1  0.764886  0.000000  0.000000  1
  Rh  Rh7  1  0.235114  0.235113  0.000000  1
  Rh  Rh8  1  0.000000  0.764887  0.000000  1
