# generated using pymatgen
data_Sc4Co18CuP12Ru
_symmetry_space_group_name_H-M   'P 1'
_cell_length_a   3.60156700
_cell_length_b   10.16533649
_cell_length_c   11.66861202
_cell_angle_alpha   90.06128621
_cell_angle_beta   90.00000000
_cell_angle_gamma   90.00000000
_symmetry_Int_Tables_number   1
_chemical_formula_structural   Sc4Co18CuP12Ru
_chemical_formula_sum   'Sc4 Co18 Cu1 P12 Ru1'
_cell_volume   427.20094899
_cell_formula_units_Z   1
loop_
 _symmetry_equiv_pos_site_id
 _symmetry_equiv_pos_as_xyz
  1  'x, y, z'
loop_
 _atom_site_type_symbol
 _atom_site_label
 _atom_site_symmetry_multiplicity
 _atom_site_fract_x
 _atom_site_fract_y
 _atom_site_fract_z
 _atom_site_occupancy
  Sc  Sc0  1  0.250000  0.582490  0.703266  1
  Sc  Sc1  1  0.250000  0.921267  0.201530  1
  Sc  Sc2  1  0.750000  0.419122  0.299129  1
  Sc  Sc3  1  0.750000  0.082063  0.792843  1
  Co  Co4  1  0.250000  0.780774  0.494928  1
  Co  Co5  1  0.750000  0.218530  0.506222  1
  Co  Co6  1  0.250000  0.407993  0.484765  1
  Co  Co7  1  0.250000  0.093274  0.982264  1
  Co  Co8  1  0.750000  0.592013  0.514608  1
  Co  Co9  1  0.750000  0.909492  0.013646  1
  Co  Co10  1  0.250000  0.221364  0.179882  1
  Co  Co11  1  0.250000  0.279142  0.672152  1
  Co  Co12  1  0.750000  0.777998  0.822535  1
  Co  Co13  1  0.750000  0.722617  0.324366  1
  Co  Co14  1  0.250000  0.883560  0.700179  1
  Co  Co15  1  0.250000  0.616712  0.203529  1
  Co  Co16  1  0.750000  0.115276  0.301350  1
  Co  Co17  1  0.750000  0.381583  0.797731  1
  Co  Co18  1  0.250000  0.460104  0.932272  1
  Co  Co19  1  0.250000  0.032431  0.431370  1
  Co  Co20  1  0.750000  0.534677  0.071145  1
  Co  Co21  1  0.750000  0.965773  0.569489  1
  Cu  Cu22  1  0.750000  0.285899  0.009906  1
  P  P23  1  0.250000  0.420978  0.119636  1
  P  P24  1  0.250000  0.080599  0.613439  1
  P  P25  1  0.750000  0.577345  0.884513  1
  P  P26  1  0.750000  0.919414  0.385962  1
  P  P27  1  0.250000  0.263555  0.860536  1
  P  P28  1  0.250000  0.233294  0.369245  1
  P  P29  1  0.750000  0.735866  0.135058  1
  P  P30  1  0.750000  0.765597  0.631403  1
  P  P31  1  0.250000  0.598946  0.391664  1
  P  P32  1  0.250000  0.906590  0.887611  1
  P  P33  1  0.750000  0.401852  0.608459  1
  P  P34  1  0.750000  0.097662  0.112036  1
  Ru  Ru35  1  0.250000  0.714143  0.991332  1
