# generated using pymatgen
data_Sr3PrAs3
_symmetry_space_group_name_H-M   'P 1'
_cell_length_a   8.19964178
_cell_length_b   8.17045927
_cell_length_c   8.14447270
_cell_angle_alpha   109.44717096
_cell_angle_beta   109.59257367
_cell_angle_gamma   109.57533439
_symmetry_Int_Tables_number   1
_chemical_formula_structural   Sr3PrAs3
_chemical_formula_sum   'Sr6 Pr2 As6'
_cell_volume   418.98409659
_cell_formula_units_Z   2
loop_
 _symmetry_equiv_pos_site_id
 _symmetry_equiv_pos_as_xyz
  1  'x, y, z'
loop_
 _atom_site_type_symbol
 _atom_site_label
 _atom_site_symmetry_multiplicity
 _atom_site_fract_x
 _atom_site_fract_y
 _atom_site_fract_z
 _atom_site_occupancy
  Sr  Sr0  1  0.128165  0.130153  0.128168  1
  Sr  Sr1  1  0.499997  0.001985  0.871832  1
  Sr  Sr2  1  0.868565  0.501483  0.001844  1
  Sr  Sr3  1  0.001582  0.867744  0.499780  1
  Sr  Sr4  1  0.366721  0.499639  0.998156  1
  Sr  Sr5  1  0.001801  0.367964  0.500220  1
  Pr  Pr6  1  0.501973  0.000881  0.374771  1
  Pr  Pr7  1  0.627202  0.626109  0.625229  1
  As  As8  1  0.623988  0.376709  0.263367  1
  As  As9  1  0.266250  0.635113  0.380834  1
  As  As10  1  0.744846  0.873284  0.121972  1
  As  As11  1  0.122874  0.751312  0.878028  1
  As  As12  1  0.385416  0.254280  0.619166  1
  As  As13  1  0.860621  0.113342  0.736633  1
