# generated using pymatgen
data_Ni(Rh2Se3)4
_symmetry_space_group_name_H-M   'P 1'
_cell_length_a   7.99320141
_cell_length_b   7.98086339
_cell_length_c   6.57583765
_cell_angle_alpha   77.93152303
_cell_angle_beta   77.04303882
_cell_angle_gamma   92.66032385
_symmetry_Int_Tables_number   1
_chemical_formula_structural   Ni(Rh2Se3)4
_chemical_formula_sum   'Ni1 Rh8 Se12'
_cell_volume   397.85378763
_cell_formula_units_Z   1
loop_
 _symmetry_equiv_pos_site_id
 _symmetry_equiv_pos_as_xyz
  1  'x, y, z'
loop_
 _atom_site_type_symbol
 _atom_site_label
 _atom_site_symmetry_multiplicity
 _atom_site_fract_x
 _atom_site_fract_y
 _atom_site_fract_z
 _atom_site_occupancy
  Ni  Ni0  1  0.782200  0.485490  0.456604  1
  Rh  Rh1  1  0.161031  0.840891  0.000109  1
  Rh  Rh2  1  0.837757  0.162199  0.002397  1
  Rh  Rh3  1  0.001049  0.002953  0.498877  1
  Rh  Rh4  1  0.352223  0.352025  0.934844  1
  Rh  Rh5  1  0.647901  0.645800  0.061388  1
  Rh  Rh6  1  0.514642  0.223497  0.545394  1
  Rh  Rh7  1  0.218390  0.514236  0.545905  1
  Rh  Rh8  1  0.487948  0.776118  0.451185  1
  Se  Se9  1  0.847127  0.434877  0.118319  1
  Se  Se10  1  0.563982  0.148731  0.897507  1
  Se  Se11  1  0.149019  0.564529  0.897518  1
  Se  Se12  1  0.434902  0.848454  0.103128  1
  Se  Se13  1  0.115888  0.118775  0.106000  1
  Se  Se14  1  0.883866  0.884528  0.891824  1
  Se  Se15  1  0.026431  0.713365  0.391133  1
  Se  Se16  1  0.290566  0.973252  0.607294  1
  Se  Se17  1  0.968625  0.289111  0.608550  1
  Se  Se18  1  0.589152  0.580052  0.723334  1
  Se  Se19  1  0.413019  0.414136  0.267303  1
  Se  Se20  1  0.714280  0.026978  0.391387  1
