# generated using pymatgen
data_GdErV6O18
_symmetry_space_group_name_H-M   'P 1'
_cell_length_a   7.46537287
_cell_length_b   8.53563382
_cell_length_c   9.61405600
_cell_angle_alpha   105.79001405
_cell_angle_beta   112.79651716
_cell_angle_gamma   63.93789726
_symmetry_Int_Tables_number   1
_chemical_formula_structural   GdErV6O18
_chemical_formula_sum   'Gd1 Er1 V6 O18'
_cell_volume   503.48901389
_cell_formula_units_Z   1
loop_
 _symmetry_equiv_pos_site_id
 _symmetry_equiv_pos_as_xyz
  1  'x, y, z'
loop_
 _atom_site_type_symbol
 _atom_site_label
 _atom_site_symmetry_multiplicity
 _atom_site_fract_x
 _atom_site_fract_y
 _atom_site_fract_z
 _atom_site_occupancy
  Gd  Gd0  1  0.686222  0.357743  0.243545  1
  Er  Er1  1  0.200952  0.858818  0.744688  1
  V  V2  1  0.746005  0.609713  0.001797  1
  V  V3  1  0.993873  0.905421  0.073428  1
  V  V4  1  0.412044  0.809603  0.419736  1
  V  V5  1  0.649957  0.106400  0.507476  1
  V  V6  1  0.180267  0.409835  0.577027  1
  V  V7  1  0.190108  0.307541  0.915425  1
  O  O8  1  0.365402  0.379312  0.060635  1
  O  O9  1  0.839001  0.120916  0.086990  1
  O  O10  1  0.857797  0.775133  0.071574  1
  O  O11  1  0.688979  0.568896  0.138563  1
  O  O12  1  0.214479  0.870601  0.242446  1
  O  O13  1  0.657598  0.170992  0.359276  1
  O  O14  1  0.008469  0.352371  0.417166  1
  O  O15  1  0.532892  0.588699  0.404258  1
  O  O16  1  0.593463  0.910169  0.450130  1
  O  O17  1  0.306423  0.881719  0.563265  1
  O  O18  1  0.133913  0.625788  0.595430  1
  O  O19  1  0.447091  0.278512  0.579459  1
  O  O20  1  0.885771  0.059222  0.642991  1
  O  O21  1  0.152814  0.370749  0.740081  1
  O  O22  1  0.526039  0.678335  0.854245  1
  O  O23  1  0.073934  0.845771  0.917961  1
  O  O24  1  0.276331  0.086255  0.898347  1
  O  O25  1  0.936967  0.408089  0.944264  1
