# generated using pymatgen
data_Ta6Be4Ru9Rh
_symmetry_space_group_name_H-M   'P 1'
_cell_length_a   9.40882190
_cell_length_b   9.40882190
_cell_length_c   3.14064400
_cell_angle_alpha   90.00000000
_cell_angle_beta   90.00000000
_cell_angle_gamma   89.49906950
_symmetry_Int_Tables_number   1
_chemical_formula_structural   Ta6Be4Ru9Rh
_chemical_formula_sum   'Ta6 Be4 Ru9 Rh1'
_cell_volume   278.01780350
_cell_formula_units_Z   1
loop_
 _symmetry_equiv_pos_site_id
 _symmetry_equiv_pos_as_xyz
  1  'x, y, z'
loop_
 _atom_site_type_symbol
 _atom_site_label
 _atom_site_symmetry_multiplicity
 _atom_site_fract_x
 _atom_site_fract_y
 _atom_site_fract_z
 _atom_site_occupancy
  Ta  Ta0  1  0.825480  0.674520  0.000000  1
  Ta  Ta1  1  0.174520  0.325480  0.000000  1
  Ta  Ta2  1  0.321232  0.821232  0.000000  1
  Ta  Ta3  1  0.678768  0.178768  0.000000  1
  Ta  Ta4  1  0.500000  0.500000  0.000000  1
  Ta  Ta5  1  0.000000  0.000000  0.000000  1
  Be  Be6  1  0.621792  0.878208  0.000000  1
  Be  Be7  1  0.378208  0.121792  0.000000  1
  Be  Be8  1  0.120303  0.620303  0.000000  1
  Be  Be9  1  0.879697  0.379697  0.000000  1
  Ru  Ru10  1  0.571903  0.713002  0.500000  1
  Ru  Ru11  1  0.428097  0.286998  0.500000  1
  Ru  Ru12  1  0.073296  0.788079  0.500000  1
  Ru  Ru13  1  0.926704  0.211921  0.500000  1
  Ru  Ru14  1  0.288079  0.573296  0.500000  1
  Ru  Ru15  1  0.711921  0.426704  0.500000  1
  Ru  Ru16  1  0.213002  0.071903  0.500000  1
  Ru  Ru17  1  0.786998  0.928097  0.500000  1
  Ru  Ru18  1  0.000000  0.500000  0.500000  1
  Rh  Rh19  1  0.500000  0.000000  0.500000  1
