# generated using pymatgen
data_Tb2DyY3RhI10
_symmetry_space_group_name_H-M   'P 1'
_cell_length_a   7.75597225
_cell_length_b   9.68130748
_cell_length_c   9.81719537
_cell_angle_alpha   107.06065547
_cell_angle_beta   96.83086573
_cell_angle_gamma   104.36094337
_symmetry_Int_Tables_number   1
_chemical_formula_structural   Tb2DyY3RhI10
_chemical_formula_sum   'Tb2 Dy1 Y3 Rh1 I10'
_cell_volume   667.90744104
_cell_formula_units_Z   1
loop_
 _symmetry_equiv_pos_site_id
 _symmetry_equiv_pos_as_xyz
  1  'x, y, z'
loop_
 _atom_site_type_symbol
 _atom_site_label
 _atom_site_symmetry_multiplicity
 _atom_site_fract_x
 _atom_site_fract_y
 _atom_site_fract_z
 _atom_site_occupancy
  Tb  Tb0  1  0.531556  0.222028  0.417510  1
  Tb  Tb1  1  0.468252  0.777883  0.582114  1
  Dy  Dy2  1  0.152734  0.375996  0.334161  1
  Y  Y3  1  0.849805  0.624854  0.666857  1
  Y  Y4  1  0.616234  0.544058  0.258555  1
  Y  Y5  1  0.383561  0.455535  0.741210  1
  Rh  Rh6  1  0.499969  0.499919  0.499933  1
  I  I7  1  0.151627  0.050116  0.228125  1
  I  I8  1  0.847179  0.950294  0.771761  1
  I  I9  1  0.243161  0.412324  0.037391  1
  I  I10  1  0.755595  0.587245  0.962879  1
  I  I11  1  0.724196  0.244755  0.156824  1
  I  I12  1  0.276081  0.755535  0.843812  1
  I  I13  1  0.046875  0.685108  0.409300  1
  I  I14  1  0.953068  0.314420  0.589755  1
  I  I15  1  0.414359  0.125439  0.677117  1
  I  I16  1  0.585748  0.874491  0.322696  1
