# generated using pymatgen
data_K4LuUTe6
_symmetry_space_group_name_H-M   'P 1'
_cell_length_a   8.00273439
_cell_length_b   8.00273453
_cell_length_c   8.61464575
_cell_angle_alpha   80.95636916
_cell_angle_beta   80.95637080
_cell_angle_gamma   120.07018691
_symmetry_Int_Tables_number   1
_chemical_formula_structural   K4LuUTe6
_chemical_formula_sum   'K4 Lu1 U1 Te6'
_cell_volume   453.20001565
_cell_formula_units_Z   1
loop_
 _symmetry_equiv_pos_site_id
 _symmetry_equiv_pos_as_xyz
  1  'x, y, z'
loop_
 _atom_site_type_symbol
 _atom_site_label
 _atom_site_symmetry_multiplicity
 _atom_site_fract_x
 _atom_site_fract_y
 _atom_site_fract_z
 _atom_site_occupancy
  K  K0  1  0.345811  0.654189  0.500000  1
  K  K1  1  0.654637  0.345363  0.500000  1
  K  K2  1  0.999614  0.000386  0.500000  1
  K  K3  1  0.499943  0.500057  0.000000  1
  Lu  Lu4  1  0.168005  0.831995  0.000000  1
  U  U5  1  0.831868  0.168132  0.000000  1
  Te  Te6  1  0.797645  0.802007  0.207657  1
  Te  Te7  1  0.432441  0.058527  0.211797  1
  Te  Te8  1  0.053705  0.423136  0.211436  1
  Te  Te9  1  0.576864  0.946295  0.788564  1
  Te  Te10  1  0.941473  0.567559  0.788203  1
  Te  Te11  1  0.197993  0.202355  0.792343  1
