# generated using pymatgen
data_Er12Co4PdPb
_symmetry_space_group_name_H-M   'P 1'
_cell_length_a   8.24933890
_cell_length_b   8.24933942
_cell_length_c   8.24933927
_cell_angle_alpha   111.39064415
_cell_angle_beta   110.23086700
_cell_angle_gamma   106.82631813
_symmetry_Int_Tables_number   1
_chemical_formula_structural   Er12Co4PdPb
_chemical_formula_sum   'Er12 Co4 Pd1 Pb1'
_cell_volume   431.41796798
_cell_formula_units_Z   1
loop_
 _symmetry_equiv_pos_site_id
 _symmetry_equiv_pos_as_xyz
  1  'x, y, z'
loop_
 _atom_site_type_symbol
 _atom_site_label
 _atom_site_symmetry_multiplicity
 _atom_site_fract_x
 _atom_site_fract_y
 _atom_site_fract_z
 _atom_site_occupancy
  Er  Er0  1  0.313397  0.618761  0.305363  1
  Er  Er1  1  0.686603  0.381240  0.694637  1
  Er  Er2  1  0.313397  0.008034  0.694637  1
  Er  Er3  1  0.686603  0.991966  0.305363  1
  Er  Er4  1  0.415123  0.213612  0.201511  1
  Er  Er5  1  0.584877  0.786388  0.798489  1
  Er  Er6  1  0.012101  0.213612  0.798489  1
  Er  Er7  1  0.987899  0.786388  0.201511  1
  Er  Er8  1  0.185651  0.291778  0.477429  1
  Er  Er9  1  0.814349  0.708222  0.522571  1
  Er  Er10  1  0.185651  0.708222  0.893873  1
  Er  Er11  1  0.814349  0.291778  0.106127  1
  Co  Co12  1  0.112522  0.612522  0.500000  1
  Co  Co13  1  0.887479  0.387479  0.500000  1
  Co  Co14  1  0.378052  0.000000  0.378052  1
  Co  Co15  1  0.621948  0.000000  0.621948  1
  Pd  Pd16  1  0.000000  0.000000  0.000000  1
  Pb  Pb17  1  0.500000  0.500000  0.000000  1
