# generated using pymatgen
data_TbTh3Co8(NiB)6
_symmetry_space_group_name_H-M   'P 1'
_cell_length_a   5.03797138
_cell_length_b   5.03672992
_cell_length_c   13.25344800
_cell_angle_alpha   90.00121496
_cell_angle_beta   90.00029355
_cell_angle_gamma   120.33374708
_symmetry_Int_Tables_number   1
_chemical_formula_structural   TbTh3Co8(NiB)6
_chemical_formula_sum   'Tb1 Th3 Co8 Ni6 B6'
_cell_volume   290.26419430
_cell_formula_units_Z   1
loop_
 _symmetry_equiv_pos_site_id
 _symmetry_equiv_pos_as_xyz
  1  'x, y, z'
loop_
 _atom_site_type_symbol
 _atom_site_label
 _atom_site_symmetry_multiplicity
 _atom_site_fract_x
 _atom_site_fract_y
 _atom_site_fract_z
 _atom_site_occupancy
  Tb  Tb0  1  0.000015  0.000035  0.499996  1
  Th  Th1  1  0.999925  0.999899  0.999984  1
  Th  Th2  1  0.999978  0.999974  0.263262  1
  Th  Th3  1  0.000023  0.000048  0.736759  1
  Co  Co4  1  0.499954  0.499948  0.159984  1
  Co  Co5  1  0.499998  0.500020  0.840014  1
  Co  Co6  1  0.500001  0.000010  0.385814  1
  Co  Co7  1  0.500002  0.500011  0.383526  1
  Co  Co8  1  0.000002  0.500012  0.385502  1
  Co  Co9  1  0.500022  0.000047  0.614174  1
  Co  Co10  1  0.500024  0.500049  0.616486  1
  Co  Co11  1  0.000024  0.500048  0.614496  1
  Ni  Ni12  1  0.338309  0.659948  0.999985  1
  Ni  Ni13  1  0.661589  0.339894  0.999996  1
  Ni  Ni14  1  0.499957  0.999951  0.155379  1
  Ni  Ni15  1  0.999946  0.499940  0.155706  1
  Ni  Ni16  1  0.500016  0.000051  0.844650  1
  Ni  Ni17  1  0.999992  0.500017  0.844280  1
  B  B18  1  0.334438  0.664863  0.499992  1
  B  B19  1  0.665589  0.335198  0.499992  1
  B  B20  1  0.334123  0.666553  0.270110  1
  B  B21  1  0.665831  0.333398  0.270114  1
  B  B22  1  0.665815  0.333382  0.729896  1
  B  B23  1  0.334224  0.666703  0.729900  1
