# generated using pymatgen
data_Nb12Al8VNi3N4
_symmetry_space_group_name_H-M   'P 1'
_cell_length_a   8.22498682
_cell_length_b   8.22498745
_cell_length_c   8.27827628
_cell_angle_alpha   60.21270969
_cell_angle_beta   60.21271724
_cell_angle_gamma   60.00000589
_symmetry_Int_Tables_number   1
_chemical_formula_structural   Nb12Al8VNi3N4
_chemical_formula_sum   'Nb12 Al8 V1 Ni3 N4'
_cell_volume   397.26862138
_cell_formula_units_Z   1
loop_
 _symmetry_equiv_pos_site_id
 _symmetry_equiv_pos_as_xyz
  1  'x, y, z'
loop_
 _atom_site_type_symbol
 _atom_site_label
 _atom_site_symmetry_multiplicity
 _atom_site_fract_x
 _atom_site_fract_y
 _atom_site_fract_z
 _atom_site_occupancy
  Nb  Nb0  1  0.808263  0.808263  0.183843  1
  Nb  Nb1  1  0.186251  0.186251  0.815449  1
  Nb  Nb2  1  0.812049  0.186251  0.815449  1
  Nb  Nb3  1  0.199631  0.808263  0.183843  1
  Nb  Nb4  1  0.186251  0.812049  0.815449  1
  Nb  Nb5  1  0.808263  0.199631  0.183843  1
  Nb  Nb6  1  0.441737  0.441737  0.066157  1
  Nb  Nb7  1  0.063749  0.063749  0.434551  1
  Nb  Nb8  1  0.437951  0.063749  0.434551  1
  Nb  Nb9  1  0.050369  0.441737  0.066157  1
  Nb  Nb10  1  0.063749  0.437951  0.434551  1
  Nb  Nb11  1  0.441737  0.050369  0.066157  1
  Al  Al12  1  0.745862  0.412948  0.428242  1
  Al  Al13  1  0.412948  0.745862  0.428242  1
  Al  Al14  1  0.414569  0.414569  0.756294  1
  Al  Al15  1  0.412948  0.412948  0.428242  1
  Al  Al16  1  0.504138  0.837052  0.821758  1
  Al  Al17  1  0.837052  0.504138  0.821758  1
  Al  Al18  1  0.835431  0.835431  0.493706  1
  Al  Al19  1  0.837052  0.837052  0.821758  1
  V  V20  1  0.625000  0.625000  0.125000  1
  Ni  Ni21  1  0.125000  0.625000  0.625000  1
  Ni  Ni22  1  0.625000  0.125000  0.625000  1
  Ni  Ni23  1  0.625000  0.625000  0.625000  1
  N  N24  1  0.625000  0.125000  0.125000  1
  N  N25  1  0.125000  0.625000  0.125000  1
  N  N26  1  0.125000  0.125000  0.625000  1
  N  N27  1  0.125000  0.125000  0.125000  1
