# generated using pymatgen
data_Tm2Be23Au3
_symmetry_space_group_name_H-M   'P 1'
_cell_length_a   7.36681200
_cell_length_b   7.36681222
_cell_length_c   7.55555775
_cell_angle_alpha   119.17702043
_cell_angle_beta   90.00000000
_cell_angle_gamma   120.00000800
_symmetry_Int_Tables_number   1
_chemical_formula_structural   Tm2Be23Au3
_chemical_formula_sum   'Tm2 Be23 Au3'
_cell_volume   293.49618014
_cell_formula_units_Z   1
loop_
 _symmetry_equiv_pos_site_id
 _symmetry_equiv_pos_as_xyz
  1  'x, y, z'
loop_
 _atom_site_type_symbol
 _atom_site_label
 _atom_site_symmetry_multiplicity
 _atom_site_fract_x
 _atom_site_fract_y
 _atom_site_fract_z
 _atom_site_occupancy
  Tm  Tm0  1  0.759054  0.518108  0.277161  1
  Tm  Tm1  1  0.244647  0.489295  0.733942  1
  Be  Be2  1  0.997255  0.994510  0.991764  1
  Be  Be3  1  0.435975  0.659697  0.237560  1
  Be  Be4  1  0.577861  0.013838  0.237560  1
  Be  Be5  1  0.223722  0.801583  0.237560  1
  Be  Be6  1  0.073789  0.015650  0.308242  1
  Be  Be7  1  0.292593  0.366380  0.308242  1
  Be  Be8  1  0.941861  0.234454  0.308242  1
  Be  Be9  1  0.788566  0.001665  0.441251  1
  Be  Be10  1  0.439586  0.228152  0.441251  1
  Be  Be11  1  0.213099  0.652684  0.441251  1
  Be  Be12  1  0.501120  0.002240  0.503360  1
  Be  Be13  1  0.212824  0.003331  0.565951  1
  Be  Be14  1  0.562619  0.775445  0.565951  1
  Be  Be15  1  0.790505  0.353126  0.565951  1
  Be  Be16  1  0.705609  0.639651  0.695540  1
  Be  Be17  1  0.055888  0.761495  0.695540  1
  Be  Be18  1  0.934042  0.989930  0.695540  1
  Be  Be19  1  0.428113  0.989305  0.764342  1
  Be  Be20  1  0.775037  0.203152  0.764342  1
  Be  Be21  1  0.561190  0.336228  0.764342  1
  Be  Be22  1  0.943467  0.621764  0.929588  1
  Be  Be23  1  0.678297  0.986121  0.929588  1
  Be  Be24  1  0.307824  0.251292  0.929588  1
  Au  Au25  1  0.317616  0.009961  0.055448  1
  Au  Au26  1  0.045488  0.363103  0.055448  1
  Au  Au27  1  0.692344  0.737831  0.055448  1
