# generated using pymatgen
data_ScV6GaO18
_symmetry_space_group_name_H-M   'P 1'
_cell_length_a   7.13943694
_cell_length_b   8.03653920
_cell_length_c   9.15143068
_cell_angle_alpha   86.52412107
_cell_angle_beta   67.18218243
_cell_angle_gamma   63.85479312
_symmetry_Int_Tables_number   1
_chemical_formula_structural   ScV6GaO18
_chemical_formula_sum   'Sc1 V6 Ga1 O18'
_cell_volume   430.58912392
_cell_formula_units_Z   1
loop_
 _symmetry_equiv_pos_site_id
 _symmetry_equiv_pos_as_xyz
  1  'x, y, z'
loop_
 _atom_site_type_symbol
 _atom_site_label
 _atom_site_symmetry_multiplicity
 _atom_site_fract_x
 _atom_site_fract_y
 _atom_site_fract_z
 _atom_site_occupancy
  Sc  Sc0  1  0.011136  0.498503  0.500030  1
  V  V1  1  0.561289  0.436209  0.176081  1
  V  V2  1  0.721498  0.748433  0.253513  1
  V  V3  1  0.148919  0.055299  0.320117  1
  V  V4  1  0.832314  0.942129  0.684612  1
  V  V5  1  0.277241  0.238846  0.764069  1
  V  V6  1  0.453127  0.564875  0.828662  1
  Ga  Ga7  1  0.987539  0.999972  0.000911  1
  O  O8  1  0.886873  0.810803  0.094341  1
  O  O9  1  0.125528  0.987162  0.159047  1
  O  O10  1  0.693251  0.199198  0.153444  1
  O  O11  1  0.734261  0.530549  0.201874  1
  O  O12  1  0.305847  0.517170  0.333600  1
  O  O13  1  0.081657  0.285210  0.334377  1
  O  O14  1  0.430536  0.921201  0.315621  1
  O  O15  1  0.813089  0.716692  0.402485  1
  O  O16  1  0.960508  0.020453  0.502195  1
  O  O17  1  0.211429  0.294719  0.602971  1
  O  O18  1  0.698475  0.501507  0.663122  1
  O  O19  1  0.958648  0.706097  0.662809  1
  O  O20  1  0.538987  0.029304  0.714958  1
  O  O21  1  0.850457  0.027143  0.840486  1
  O  O22  1  0.275824  0.796213  0.848420  1
  O  O23  1  0.313545  0.424713  0.829424  1
  O  O24  1  0.073007  0.199287  0.910194  1
  O  O25  1  0.520212  0.520512  0.000038  1
