# generated using pymatgen
data_Nb4Al6CuRh
_symmetry_space_group_name_H-M   'P 1'
_cell_length_a   5.19526300
_cell_length_b   5.19526211
_cell_length_c   7.95457900
_cell_angle_alpha   90.00000000
_cell_angle_beta   90.00000000
_cell_angle_gamma   119.99999929
_symmetry_Int_Tables_number   1
_chemical_formula_structural   Nb4Al6CuRh
_chemical_formula_sum   'Nb4 Al6 Cu1 Rh1'
_cell_volume   185.93572237
_cell_formula_units_Z   1
loop_
 _symmetry_equiv_pos_site_id
 _symmetry_equiv_pos_as_xyz
  1  'x, y, z'
loop_
 _atom_site_type_symbol
 _atom_site_label
 _atom_site_symmetry_multiplicity
 _atom_site_fract_x
 _atom_site_fract_y
 _atom_site_fract_z
 _atom_site_occupancy
  Nb  Nb0  1  0.666666  0.333333  0.071858  1
  Nb  Nb1  1  0.666666  0.333333  0.430555  1
  Nb  Nb2  1  0.333333  0.666667  0.569446  1
  Nb  Nb3  1  0.333333  0.666667  0.928142  1
  Al  Al4  1  0.169811  0.339623  0.249881  1
  Al  Al5  1  0.169810  0.830188  0.249881  1
  Al  Al6  1  0.660378  0.830188  0.249881  1
  Al  Al7  1  0.339623  0.169810  0.750119  1
  Al  Al8  1  0.830188  0.169810  0.750119  1
  Al  Al9  1  0.830188  0.660377  0.750119  1
  Cu  Cu10  1  0.000000  0.000000  0.500001  1
  Rh  Rh11  1  0.000000  0.000000  0.000000  1
