# generated using pymatgen
data_Y4Pt3RhF28
_symmetry_space_group_name_H-M   'P 1'
_cell_length_a   5.57472320
_cell_length_b   8.90571119
_cell_length_c   11.97586070
_cell_angle_alpha   62.60629843
_cell_angle_beta   90.08396883
_cell_angle_gamma   89.95999319
_symmetry_Int_Tables_number   1
_chemical_formula_structural   Y4Pt3RhF28
_chemical_formula_sum   'Y4 Pt3 Rh1 F28'
_cell_volume   527.89199461
_cell_formula_units_Z   1
loop_
 _symmetry_equiv_pos_site_id
 _symmetry_equiv_pos_as_xyz
  1  'x, y, z'
loop_
 _atom_site_type_symbol
 _atom_site_label
 _atom_site_symmetry_multiplicity
 _atom_site_fract_x
 _atom_site_fract_y
 _atom_site_fract_z
 _atom_site_occupancy
  Y  Y0  1  0.263659  0.812997  0.265980  1
  Y  Y1  1  0.737827  0.185465  0.735731  1
  Y  Y2  1  0.760872  0.186693  0.234629  1
  Y  Y3  1  0.237477  0.812523  0.763834  1
  Pt  Pt4  1  0.758949  0.727358  0.043685  1
  Pt  Pt5  1  0.242259  0.272367  0.956569  1
  Pt  Pt6  1  0.257550  0.272399  0.456837  1
  Rh  Rh7  1  0.741737  0.726550  0.543963  1
  F  F8  1  0.937029  0.706385  0.418410  1
  F  F9  1  0.061485  0.298174  0.583226  1
  F  F10  1  0.437028  0.297585  0.083941  1
  F  F11  1  0.564538  0.702823  0.915955  1
  F  F12  1  0.467071  0.725056  0.136608  1
  F  F13  1  0.534134  0.274728  0.863713  1
  F  F14  1  0.964670  0.271058  0.365579  1
  F  F15  1  0.031243  0.727004  0.638638  1
  F  F16  1  0.947870  0.746167  0.176168  1
  F  F17  1  0.052409  0.254189  0.824254  1
  F  F18  1  0.448432  0.252267  0.325829  1
  F  F19  1  0.549726  0.746490  0.672252  1
  F  F20  1  0.774190  0.479143  0.142361  1
  F  F21  1  0.230157  0.520186  0.858668  1
  F  F22  1  0.266750  0.520050  0.357495  1
  F  F23  1  0.728451  0.482569  0.641376  1
  F  F24  1  0.943211  0.279342  0.041912  1
  F  F25  1  0.057664  0.721055  0.957763  1
  F  F26  1  0.444549  0.720397  0.455180  1
  F  F27  1  0.556794  0.281804  0.541607  1
  F  F28  1  0.746426  0.969732  0.451436  1
  F  F29  1  0.257318  0.024730  0.549381  1
  F  F30  1  0.244503  0.024564  0.049486  1
  F  F31  1  0.754204  0.975303  0.950601  1
  F  F32  1  0.585285  0.971917  0.230294  1
  F  F33  1  0.415378  0.030094  0.766657  1
  F  F34  1  0.083412  0.029477  0.268182  1
  F  F35  1  0.915743  0.971361  0.731800  1
