# generated using pymatgen
data_Dy2Er2ReTcB12
_symmetry_space_group_name_H-M   'P 1'
_cell_length_a   3.66881400
_cell_length_b   9.14270785
_cell_length_c   11.52763800
_cell_angle_alpha   90.05162461
_cell_angle_beta   90.00000000
_cell_angle_gamma   90.00000000
_symmetry_Int_Tables_number   1
_chemical_formula_structural   Dy2Er2ReTcB12
_chemical_formula_sum   'Dy4 Er4 Re2 Tc2 B24'
_cell_volume   386.67018918
_cell_formula_units_Z   2
loop_
 _symmetry_equiv_pos_site_id
 _symmetry_equiv_pos_as_xyz
  1  'x, y, z'
loop_
 _atom_site_type_symbol
 _atom_site_label
 _atom_site_symmetry_multiplicity
 _atom_site_fract_x
 _atom_site_fract_y
 _atom_site_fract_z
 _atom_site_occupancy
  Dy  Dy0  1  0.000000  0.323800  0.413998  1
  Dy  Dy1  1  0.000000  0.676200  0.586002  1
  Dy  Dy2  1  0.000000  0.823292  0.086105  1
  Dy  Dy3  1  0.000000  0.176708  0.913895  1
  Er  Er4  1  0.000000  0.942372  0.369992  1
  Er  Er5  1  0.000000  0.057628  0.630008  1
  Er  Er6  1  0.000000  0.443917  0.130448  1
  Er  Er7  1  0.000000  0.556083  0.869552  1
  Re  Re8  1  0.000000  0.139067  0.179518  1
  Re  Re9  1  0.000000  0.860933  0.820482  1
  Tc  Tc10  1  0.000000  0.639111  0.320538  1
  Tc  Tc11  1  0.000000  0.360889  0.679462  1
  B  B12  1  0.500000  0.553602  0.432853  1
  B  B13  1  0.500000  0.446398  0.567147  1
  B  B14  1  0.500000  0.053505  0.067029  1
  B  B15  1  0.500000  0.946495  0.932971  1
  B  B16  1  0.500000  0.749446  0.418709  1
  B  B17  1  0.500000  0.250554  0.581291  1
  B  B18  1  0.500000  0.249932  0.081201  1
  B  B19  1  0.500000  0.750068  0.918799  1
  B  B20  1  0.500000  0.792328  0.265617  1
  B  B21  1  0.500000  0.207672  0.734383  1
  B  B22  1  0.500000  0.292726  0.234523  1
  B  B23  1  0.500000  0.707274  0.765477  1
  B  B24  1  0.500000  0.630962  0.185636  1
  B  B25  1  0.500000  0.369038  0.814364  1
  B  B26  1  0.500000  0.130702  0.314694  1
  B  B27  1  0.500000  0.869298  0.685306  1
  B  B28  1  0.500000  0.982105  0.212122  1
  B  B29  1  0.500000  0.017895  0.787878  1
  B  B30  1  0.500000  0.482539  0.287994  1
  B  B31  1  0.500000  0.517461  0.712006  1
  B  B32  1  0.500000  0.599822  0.027816  1
  B  B33  1  0.500000  0.400178  0.972184  1
  B  B34  1  0.500000  0.099629  0.472055  1
  B  B35  1  0.500000  0.900371  0.527945  1
