# generated using pymatgen
data_TbEr3(ScRh)4
_symmetry_space_group_name_H-M   'P 1'
_cell_length_a   4.23816800
_cell_length_b   7.18816778
_cell_length_c   8.67337022
_cell_angle_alpha   89.75057719
_cell_angle_beta   90.00000000
_cell_angle_gamma   90.00000000
_symmetry_Int_Tables_number   1
_chemical_formula_structural   TbEr3(ScRh)4
_chemical_formula_sum   'Tb1 Er3 Sc4 Rh4'
_cell_volume   264.22879443
_cell_formula_units_Z   1
loop_
 _symmetry_equiv_pos_site_id
 _symmetry_equiv_pos_as_xyz
  1  'x, y, z'
loop_
 _atom_site_type_symbol
 _atom_site_label
 _atom_site_symmetry_multiplicity
 _atom_site_fract_x
 _atom_site_fract_y
 _atom_site_fract_z
 _atom_site_occupancy
  Tb  Tb0  1  0.250000  0.982612  0.326543  1
  Er  Er1  1  0.250000  0.480646  0.172034  1
  Er  Er2  1  0.750000  0.019044  0.673907  1
  Er  Er3  1  0.750000  0.519064  0.826603  1
  Sc  Sc4  1  0.250000  0.360824  0.569106  1
  Sc  Sc5  1  0.250000  0.859150  0.931293  1
  Sc  Sc6  1  0.750000  0.639435  0.432053  1
  Sc  Sc7  1  0.750000  0.138883  0.066010  1
  Rh  Rh8  1  0.250000  0.244266  0.899629  1
  Rh  Rh9  1  0.250000  0.743688  0.601545  1
  Rh  Rh10  1  0.750000  0.754020  0.099419  1
  Rh  Rh11  1  0.750000  0.258366  0.401858  1
