# generated using pymatgen
data_Nd6P13Ru19Pt
_symmetry_space_group_name_H-M   'P 1'
_cell_length_a   13.31539600
_cell_length_b   13.31539656
_cell_length_c   4.02733700
_cell_angle_alpha   90.00000000
_cell_angle_beta   90.00000000
_cell_angle_gamma   119.99999727
_symmetry_Int_Tables_number   1
_chemical_formula_structural   Nd6P13Ru19Pt
_chemical_formula_sum   'Nd6 P13 Ru19 Pt1'
_cell_volume   618.38195475
_cell_formula_units_Z   1
loop_
 _symmetry_equiv_pos_site_id
 _symmetry_equiv_pos_as_xyz
  1  'x, y, z'
loop_
 _atom_site_type_symbol
 _atom_site_label
 _atom_site_symmetry_multiplicity
 _atom_site_fract_x
 _atom_site_fract_y
 _atom_site_fract_z
 _atom_site_occupancy
  Nd  Nd0  1  0.798293  0.942677  0.000000  1
  Nd  Nd1  1  0.057323  0.855617  0.000000  1
  Nd  Nd2  1  0.144383  0.201707  0.000000  1
  Nd  Nd3  1  0.522506  0.141230  0.500000  1
  Nd  Nd4  1  0.858770  0.381276  0.500000  1
  Nd  Nd5  1  0.618724  0.477494  0.500000  1
  P  P6  1  0.852024  0.789107  0.500000  1
  P  P7  1  0.210893  0.062917  0.500000  1
  P  P8  1  0.937083  0.147976  0.500000  1
  P  P9  1  0.602958  0.890473  0.500000  1
  P  P10  1  0.109527  0.712485  0.500000  1
  P  P11  1  0.287515  0.397042  0.500000  1
  P  P12  1  0.463451  0.287518  0.000000  1
  P  P13  1  0.712482  0.175933  0.000000  1
  P  P14  1  0.824067  0.536549  0.000000  1
  P  P15  1  0.374669  0.953405  0.000000  1
  P  P16  1  0.046595  0.421264  0.000000  1
  P  P17  1  0.578736  0.625331  0.000000  1
  P  P18  1  0.333333  0.666667  0.000000  1
  Ru  Ru19  1  0.526902  0.765978  0.000000  1
  Ru  Ru20  1  0.234022  0.760925  0.000000  1
  Ru  Ru21  1  0.239075  0.473098  0.000000  1
  Ru  Ru22  1  0.404546  0.813599  0.500000  1
  Ru  Ru23  1  0.186401  0.590948  0.500000  1
  Ru  Ru24  1  0.409052  0.595454  0.500000  1
  Ru  Ru25  1  0.666667  0.333333  0.000000  1
  Ru  Ru26  1  0.781444  0.690456  0.000000  1
  Ru  Ru27  1  0.309544  0.090989  0.000000  1
  Ru  Ru28  1  0.909011  0.218556  0.000000  1
  Ru  Ru29  1  0.655743  0.737636  0.500000  1
  Ru  Ru30  1  0.262364  0.918106  0.500000  1
  Ru  Ru31  1  0.081894  0.344257  0.500000  1
  Ru  Ru32  1  0.357835  0.263986  0.500000  1
  Ru  Ru33  1  0.736014  0.093849  0.500000  1
  Ru  Ru34  1  0.906151  0.642165  0.500000  1
  Ru  Ru35  1  0.561712  0.980460  0.000000  1
  Ru  Ru36  1  0.019540  0.581252  0.000000  1
  Ru  Ru37  1  0.418748  0.438288  0.000000  1
  Pt  Pt38  1  0.000000  0.000000  0.500000  1
