# generated using pymatgen
data_Cd(S8I)3
_symmetry_space_group_name_H-M   'P 1'
_cell_length_a   15.49347149
_cell_length_b   15.49347086
_cell_length_c   15.49347151
_cell_angle_alpha   118.90876550
_cell_angle_beta   118.90876135
_cell_angle_gamma   118.90876234
_symmetry_Int_Tables_number   1
_chemical_formula_structural   Cd(S8I)3
_chemical_formula_sum   'Cd1 S24 I3'
_cell_volume   1004.76680381
_cell_formula_units_Z   1
loop_
 _symmetry_equiv_pos_site_id
 _symmetry_equiv_pos_as_xyz
  1  'x, y, z'
loop_
 _atom_site_type_symbol
 _atom_site_label
 _atom_site_symmetry_multiplicity
 _atom_site_fract_x
 _atom_site_fract_y
 _atom_site_fract_z
 _atom_site_occupancy
  Cd  Cd0  1  0.083924  0.083924  0.083924  1
  S  S1  1  0.013241  0.604804  0.604804  1
  S  S2  1  0.604804  0.604804  0.013241  1
  S  S3  1  0.604804  0.013241  0.604804  1
  S  S4  1  0.238472  0.845183  0.719398  1
  S  S5  1  0.845183  0.719398  0.238472  1
  S  S6  1  0.719398  0.238472  0.845183  1
  S  S7  1  0.845183  0.238472  0.719398  1
  S  S8  1  0.238472  0.719398  0.845183  1
  S  S9  1  0.719398  0.845183  0.238472  1
  S  S10  1  0.098609  0.624112  0.446647  1
  S  S11  1  0.624112  0.446647  0.098609  1
  S  S12  1  0.446647  0.098609  0.624112  1
  S  S13  1  0.624112  0.098609  0.446647  1
  S  S14  1  0.098609  0.446647  0.624112  1
  S  S15  1  0.446647  0.624112  0.098609  1
  S  S16  1  0.359096  0.747282  0.621495  1
  S  S17  1  0.747282  0.621495  0.359096  1
  S  S18  1  0.621495  0.359096  0.747282  1
  S  S19  1  0.747282  0.359096  0.621495  1
  S  S20  1  0.359096  0.621495  0.747282  1
  S  S21  1  0.621495  0.747282  0.359096  1
  S  S22  1  0.185276  0.466896  0.466896  1
  S  S23  1  0.466896  0.466896  0.185276  1
  S  S24  1  0.466896  0.185276  0.466896  1
  I  I25  1  0.191089  0.014792  0.014792  1
  I  I26  1  0.014792  0.014792  0.191089  1
  I  I27  1  0.014792  0.191089  0.014792  1
