# generated using pymatgen
data_Th2(Ga3Ir)3
_symmetry_space_group_name_H-M   'P 1'
_cell_length_a   7.74681423
_cell_length_b   7.74681464
_cell_length_c   9.51179600
_cell_angle_alpha   90.00000000
_cell_angle_beta   90.00000000
_cell_angle_gamma   119.83312868
_symmetry_Int_Tables_number   1
_chemical_formula_structural   Th2(Ga3Ir)3
_chemical_formula_sum   'Th4 Ga18 Ir6'
_cell_volume   495.18477260
_cell_formula_units_Z   2
loop_
 _symmetry_equiv_pos_site_id
 _symmetry_equiv_pos_as_xyz
  1  'x, y, z'
loop_
 _atom_site_type_symbol
 _atom_site_label
 _atom_site_symmetry_multiplicity
 _atom_site_fract_x
 _atom_site_fract_y
 _atom_site_fract_z
 _atom_site_occupancy
  Th  Th0  1  0.996499  0.668343  0.250000  1
  Th  Th1  1  0.003501  0.331657  0.750000  1
  Th  Th2  1  0.668343  0.996499  0.250000  1
  Th  Th3  1  0.331657  0.003501  0.750000  1
  Ga  Ga4  1  0.131089  0.131089  0.250000  1
  Ga  Ga5  1  0.868911  0.868911  0.750000  1
  Ga  Ga6  1  0.003040  0.334218  0.077791  1
  Ga  Ga7  1  0.996960  0.665782  0.922209  1
  Ga  Ga8  1  0.996960  0.665782  0.577791  1
  Ga  Ga9  1  0.334218  0.003040  0.422209  1
  Ga  Ga10  1  0.003040  0.334218  0.422209  1
  Ga  Ga11  1  0.665782  0.996960  0.577791  1
  Ga  Ga12  1  0.665782  0.996960  0.922209  1
  Ga  Ga13  1  0.334218  0.003040  0.077791  1
  Ga  Ga14  1  0.336145  0.336145  0.561552  1
  Ga  Ga15  1  0.663855  0.663855  0.438448  1
  Ga  Ga16  1  0.663855  0.663855  0.061552  1
  Ga  Ga17  1  0.336145  0.336145  0.938448  1
  Ga  Ga18  1  0.338609  0.542486  0.250000  1
  Ga  Ga19  1  0.661391  0.457514  0.750000  1
  Ga  Ga20  1  0.542486  0.338609  0.250000  1
  Ga  Ga21  1  0.457514  0.661391  0.750000  1
  Ir  Ir22  1  0.672117  0.327883  0.000000  1
  Ir  Ir23  1  0.327883  0.672117  0.000000  1
  Ir  Ir24  1  0.327883  0.672117  0.500000  1
  Ir  Ir25  1  0.672117  0.327883  0.500000  1
  Ir  Ir26  1  0.000000  0.000000  0.000000  1
  Ir  Ir27  1  0.000000  0.000000  0.500000  1
