# generated using pymatgen
data_Y3Ho(Tm4Sb3)4
_symmetry_space_group_name_H-M   'P 1'
_cell_length_a   7.99291440
_cell_length_b   9.21892100
_cell_length_c   11.64216600
_cell_angle_alpha   90.00000000
_cell_angle_beta   89.98179963
_cell_angle_gamma   90.00000000
_symmetry_Int_Tables_number   1
_chemical_formula_structural   Y3Ho(Tm4Sb3)4
_chemical_formula_sum   'Y3 Ho1 Tm16 Sb12'
_cell_volume   857.86514130
_cell_formula_units_Z   1
loop_
 _symmetry_equiv_pos_site_id
 _symmetry_equiv_pos_as_xyz
  1  'x, y, z'
loop_
 _atom_site_type_symbol
 _atom_site_label
 _atom_site_symmetry_multiplicity
 _atom_site_fract_x
 _atom_site_fract_y
 _atom_site_fract_z
 _atom_site_occupancy
  Y  Y0  1  0.315503  0.250000  0.219584  1
  Y  Y1  1  0.815284  0.250000  0.280533  1
  Y  Y2  1  0.684663  0.750000  0.780553  1
  Ho  Ho3  1  0.185155  0.750000  0.718891  1
  Tm  Tm4  1  0.352414  0.750000  0.215910  1
  Tm  Tm5  1  0.852686  0.750000  0.284234  1
  Tm  Tm6  1  0.647326  0.250000  0.783944  1
  Tm  Tm7  1  0.147410  0.250000  0.715949  1
  Tm  Tm8  1  0.691840  0.561639  0.060332  1
  Tm  Tm9  1  0.191911  0.938346  0.439941  1
  Tm  Tm10  1  0.308162  0.061624  0.939583  1
  Tm  Tm11  1  0.808017  0.438385  0.560358  1
  Tm  Tm12  1  0.308162  0.438376  0.939583  1
  Tm  Tm13  1  0.808017  0.061615  0.560358  1
  Tm  Tm14  1  0.691840  0.938361  0.060332  1
  Tm  Tm15  1  0.191911  0.561654  0.439941  1
  Tm  Tm16  1  0.474256  0.250000  0.489631  1
  Tm  Tm17  1  0.974322  0.250000  0.010424  1
  Tm  Tm18  1  0.525503  0.750000  0.510817  1
  Tm  Tm19  1  0.025926  0.750000  0.989037  1
  Sb  Sb20  1  0.407256  0.750000  0.960229  1
  Sb  Sb21  1  0.907717  0.750000  0.540056  1
  Sb  Sb22  1  0.592593  0.250000  0.039466  1
  Sb  Sb23  1  0.092456  0.250000  0.460478  1
  Sb  Sb24  1  0.565977  0.994509  0.327457  1
  Sb  Sb25  1  0.065973  0.505496  0.172583  1
  Sb  Sb26  1  0.433441  0.494861  0.672812  1
  Sb  Sb27  1  0.934443  0.005163  0.827064  1
  Sb  Sb28  1  0.433441  0.005139  0.672812  1
  Sb  Sb29  1  0.934443  0.494837  0.827064  1
  Sb  Sb30  1  0.565977  0.505491  0.327457  1
  Sb  Sb31  1  0.065973  0.994504  0.172583  1
