# generated using pymatgen
data_Yb4Tc3MoO12
_symmetry_space_group_name_H-M   'P 1'
_cell_length_a   5.35568735
_cell_length_b   5.65589633
_cell_length_c   7.68987163
_cell_angle_alpha   89.79987546
_cell_angle_beta   90.11524323
_cell_angle_gamma   90.45018124
_symmetry_Int_Tables_number   1
_chemical_formula_structural   Yb4Tc3MoO12
_chemical_formula_sum   'Yb4 Tc3 Mo1 O12'
_cell_volume   232.92646569
_cell_formula_units_Z   1
loop_
 _symmetry_equiv_pos_site_id
 _symmetry_equiv_pos_as_xyz
  1  'x, y, z'
loop_
 _atom_site_type_symbol
 _atom_site_label
 _atom_site_symmetry_multiplicity
 _atom_site_fract_x
 _atom_site_fract_y
 _atom_site_fract_z
 _atom_site_occupancy
  Yb  Yb0  1  0.982982  0.061268  0.245860  1
  Yb  Yb1  1  0.478496  0.434857  0.753506  1
  Yb  Yb2  1  0.521504  0.565143  0.246494  1
  Yb  Yb3  1  0.017018  0.938732  0.754140  1
  Tc  Tc4  1  0.500000  0.000000  0.000000  1
  Tc  Tc5  1  0.500000  0.000000  0.500000  1
  Tc  Tc6  1  0.000000  0.500000  0.000000  1
  Mo  Mo7  1  0.000000  0.500000  0.500000  1
  O  O8  1  0.593546  0.027820  0.748944  1
  O  O9  1  0.196646  0.192551  0.554609  1
  O  O10  1  0.196156  0.204940  0.949208  1
  O  O11  1  0.698484  0.297522  0.051087  1
  O  O12  1  0.693150  0.299672  0.446126  1
  O  O13  1  0.110316  0.458995  0.249007  1
  O  O14  1  0.889684  0.541005  0.750993  1
  O  O15  1  0.306850  0.700328  0.553874  1
  O  O16  1  0.301516  0.702478  0.948913  1
  O  O17  1  0.803844  0.795060  0.050792  1
  O  O18  1  0.803354  0.807449  0.445391  1
  O  O19  1  0.406454  0.972180  0.251056  1
