# generated using pymatgen
data_Pr4Ga4Pd3Rh
_symmetry_space_group_name_H-M   'P 1'
_cell_length_a   4.55681900
_cell_length_b   7.15418962
_cell_length_c   7.86525377
_cell_angle_alpha   90.07698493
_cell_angle_beta   90.00000000
_cell_angle_gamma   90.00000000
_symmetry_Int_Tables_number   1
_chemical_formula_structural   Pr4Ga4Pd3Rh
_chemical_formula_sum   'Pr4 Ga4 Pd3 Rh1'
_cell_volume   256.40977215
_cell_formula_units_Z   1
loop_
 _symmetry_equiv_pos_site_id
 _symmetry_equiv_pos_as_xyz
  1  'x, y, z'
loop_
 _atom_site_type_symbol
 _atom_site_label
 _atom_site_symmetry_multiplicity
 _atom_site_fract_x
 _atom_site_fract_y
 _atom_site_fract_z
 _atom_site_occupancy
  Pr  Pr0  1  0.250000  0.035804  0.685588  1
  Pr  Pr1  1  0.250000  0.531273  0.809997  1
  Pr  Pr2  1  0.750000  0.975713  0.309952  1
  Pr  Pr3  1  0.750000  0.467333  0.193520  1
  Ga  Ga4  1  0.250000  0.163427  0.072848  1
  Ga  Ga5  1  0.250000  0.654101  0.429747  1
  Ga  Ga6  1  0.750000  0.839834  0.930739  1
  Ga  Ga7  1  0.750000  0.337461  0.567893  1
  Pd  Pd8  1  0.250000  0.783520  0.107140  1
  Pd  Pd9  1  0.750000  0.717638  0.607102  1
  Pd  Pd10  1  0.750000  0.216280  0.891866  1
  Rh  Rh11  1  0.250000  0.277616  0.393608  1
