# generated using pymatgen
data_Er2Fe7Si4Tc
_symmetry_space_group_name_H-M   'P 1'
_cell_length_a   6.71846304
_cell_length_b   7.42343387
_cell_length_c   3.86461800
_cell_angle_alpha   90.00000000
_cell_angle_beta   90.00000000
_cell_angle_gamma   90.20770005
_symmetry_Int_Tables_number   1
_chemical_formula_structural   Er2Fe7Si4Tc
_chemical_formula_sum   'Er2 Fe7 Si4 Tc1'
_cell_volume   192.74294712
_cell_formula_units_Z   1
loop_
 _symmetry_equiv_pos_site_id
 _symmetry_equiv_pos_as_xyz
  1  'x, y, z'
loop_
 _atom_site_type_symbol
 _atom_site_label
 _atom_site_symmetry_multiplicity
 _atom_site_fract_x
 _atom_site_fract_y
 _atom_site_fract_z
 _atom_site_occupancy
  Er  Er0  1  0.498535  0.496452  0.500000  1
  Er  Er1  1  0.000859  0.999518  0.000000  1
  Fe  Fe2  1  0.341595  0.106200  0.500000  1
  Fe  Fe3  1  0.145156  0.602121  0.000000  1
  Fe  Fe4  1  0.854345  0.394111  0.000000  1
  Fe  Fe5  1  0.928567  0.653838  0.500000  1
  Fe  Fe6  1  0.077730  0.350542  0.500000  1
  Fe  Fe7  1  0.573876  0.158596  0.000000  1
  Fe  Fe8  1  0.426136  0.843705  0.000000  1
  Si  Si9  1  0.770964  0.205937  0.500000  1
  Si  Si10  1  0.236184  0.799025  0.500000  1
  Si  Si11  1  0.263262  0.300393  0.000000  1
  Si  Si12  1  0.739894  0.690306  0.000000  1
  Tc  Tc13  1  0.642898  0.899257  0.500000  1
