# generated using pymatgen
data_Tb5Dy(Tm7Bi6)2
_symmetry_space_group_name_H-M   'P 1'
_cell_length_a   8.21559335
_cell_length_b   9.46083760
_cell_length_c   11.96911702
_cell_angle_alpha   89.97897134
_cell_angle_beta   90.07393045
_cell_angle_gamma   90.00770046
_symmetry_Int_Tables_number   1
_chemical_formula_structural   Tb5Dy(Tm7Bi6)2
_chemical_formula_sum   'Tb5 Dy1 Tm14 Bi12'
_cell_volume   930.31546526
_cell_formula_units_Z   1
loop_
 _symmetry_equiv_pos_site_id
 _symmetry_equiv_pos_as_xyz
  1  'x, y, z'
loop_
 _atom_site_type_symbol
 _atom_site_label
 _atom_site_symmetry_multiplicity
 _atom_site_fract_x
 _atom_site_fract_y
 _atom_site_fract_z
 _atom_site_occupancy
  Tb  Tb0  1  0.192052  0.563236  0.440771  1
  Tb  Tb1  1  0.313073  0.250057  0.218512  1
  Tb  Tb2  1  0.813347  0.250008  0.281497  1
  Tb  Tb3  1  0.687067  0.750151  0.781623  1
  Tb  Tb4  1  0.186950  0.750526  0.718872  1
  Dy  Dy5  1  0.353744  0.750707  0.216676  1
  Tm  Tm6  1  0.852189  0.750454  0.282428  1
  Tm  Tm7  1  0.647171  0.250226  0.782635  1
  Tm  Tm8  1  0.147260  0.250536  0.717495  1
  Tm  Tm9  1  0.692881  0.565748  0.059423  1
  Tm  Tm10  1  0.192634  0.934097  0.440570  1
  Tm  Tm11  1  0.307089  0.065686  0.940512  1
  Tm  Tm12  1  0.807745  0.434149  0.559466  1
  Tm  Tm13  1  0.307321  0.434277  0.940327  1
  Tm  Tm14  1  0.806433  0.065567  0.560001  1
  Tm  Tm15  1  0.692932  0.934347  0.059359  1
  Tm  Tm16  1  0.476586  0.250144  0.488935  1
  Tm  Tm17  1  0.976117  0.250237  0.010874  1
  Tm  Tm18  1  0.524631  0.750294  0.511691  1
  Tm  Tm19  1  0.023871  0.750107  0.988705  1
  Bi  Bi20  1  0.405557  0.749942  0.958049  1
  Bi  Bi21  1  0.904727  0.750865  0.541085  1
  Bi  Bi22  1  0.594715  0.250044  0.040773  1
  Bi  Bi23  1  0.093806  0.246749  0.459761  1
  Bi  Bi24  1  0.566117  0.995314  0.326508  1
  Bi  Bi25  1  0.064746  0.505635  0.173149  1
  Bi  Bi26  1  0.434442  0.494549  0.674052  1
  Bi  Bi27  1  0.934336  0.006076  0.826338  1
  Bi  Bi28  1  0.434568  0.005968  0.673783  1
  Bi  Bi29  1  0.934109  0.494369  0.826401  1
  Bi  Bi30  1  0.566839  0.505230  0.326354  1
  Bi  Bi31  1  0.064943  0.994707  0.173375  1
