# generated using pymatgen
data_Ti17Nb(Si8Mo)2
_symmetry_space_group_name_H-M   'P 1'
_cell_length_a   6.68925436
_cell_length_b   6.68925427
_cell_length_c   12.22429362
_cell_angle_alpha   90.04699805
_cell_angle_beta   89.95300158
_cell_angle_gamma   89.93960817
_symmetry_Int_Tables_number   1
_chemical_formula_structural   Ti17Nb(Si8Mo)2
_chemical_formula_sum   'Ti17 Nb1 Si16 Mo2'
_cell_volume   546.98907745
_cell_formula_units_Z   1
loop_
 _symmetry_equiv_pos_site_id
 _symmetry_equiv_pos_as_xyz
  1  'x, y, z'
loop_
 _atom_site_type_symbol
 _atom_site_label
 _atom_site_symmetry_multiplicity
 _atom_site_fract_x
 _atom_site_fract_y
 _atom_site_fract_z
 _atom_site_occupancy
  Ti  Ti0  1  0.995821  0.149565  0.621449  1
  Ti  Ti1  1  0.351480  0.494539  0.871454  1
  Ti  Ti2  1  0.648806  0.505147  0.371832  1
  Ti  Ti3  1  0.494539  0.351480  0.128546  1
  Ti  Ti4  1  0.505147  0.648806  0.628168  1
  Ti  Ti5  1  0.004307  0.850431  0.121652  1
  Ti  Ti6  1  0.149565  0.995821  0.378551  1
  Ti  Ti7  1  0.850431  0.004307  0.878348  1
  Ti  Ti8  1  0.001668  0.343081  0.221308  1
  Ti  Ti9  1  0.156315  0.502307  0.470664  1
  Ti  Ti10  1  0.841749  0.497967  0.971713  1
  Ti  Ti11  1  0.502307  0.156315  0.529336  1
  Ti  Ti12  1  0.497967  0.841749  0.028287  1
  Ti  Ti13  1  0.998327  0.658724  0.719999  1
  Ti  Ti14  1  0.343081  0.001668  0.778692  1
  Ti  Ti15  1  0.658724  0.998327  0.280001  1
  Ti  Ti16  1  0.829637  0.829637  0.500000  1
  Nb  Nb17  1  0.170658  0.170658  0.000000  1
  Si  Si18  1  0.041713  0.303759  0.812111  1
  Si  Si19  1  0.198172  0.546543  0.064150  1
  Si  Si20  1  0.802223  0.456073  0.563689  1
  Si  Si21  1  0.546543  0.198172  0.935850  1
  Si  Si22  1  0.456073  0.802223  0.436311  1
  Si  Si23  1  0.956394  0.698578  0.314592  1
  Si  Si24  1  0.303759  0.041713  0.187889  1
  Si  Si25  1  0.698578  0.956394  0.685408  1
  Si  Si26  1  0.294120  0.358622  0.672185  1
  Si  Si27  1  0.141504  0.792101  0.921819  1
  Si  Si28  1  0.857614  0.205414  0.423784  1
  Si  Si29  1  0.792101  0.141504  0.078181  1
  Si  Si30  1  0.205414  0.857614  0.576216  1
  Si  Si31  1  0.705885  0.641561  0.172980  1
  Si  Si32  1  0.358622  0.294120  0.327815  1
  Si  Si33  1  0.641561  0.705885  0.827020  1
  Mo  Mo34  1  0.328689  0.670510  0.250342  1
  Mo  Mo35  1  0.670510  0.328689  0.749658  1
