# generated using pymatgen
data_Pr8Dy2AlSi4Ge
_symmetry_space_group_name_H-M   'P 1'
_cell_length_a   7.73369900
_cell_length_b   9.17882312
_cell_length_c   7.73369900
_cell_angle_alpha   114.91540084
_cell_angle_beta   90.00000000
_cell_angle_gamma   114.91540084
_symmetry_Int_Tables_number   1
_chemical_formula_structural   Pr8Dy2AlSi4Ge
_chemical_formula_sum   'Pr8 Dy2 Al1 Si4 Ge1'
_cell_volume   440.91736739
_cell_formula_units_Z   1
loop_
 _symmetry_equiv_pos_site_id
 _symmetry_equiv_pos_as_xyz
  1  'x, y, z'
loop_
 _atom_site_type_symbol
 _atom_site_label
 _atom_site_symmetry_multiplicity
 _atom_site_fract_x
 _atom_site_fract_y
 _atom_site_fract_z
 _atom_site_occupancy
  Pr  Pr0  1  0.526992  0.717428  0.673272  1
  Pr  Pr1  1  0.190438  0.717428  0.044158  1
  Pr  Pr2  1  0.673272  0.717428  0.190438  1
  Pr  Pr3  1  0.044158  0.717428  0.526992  1
  Pr  Pr4  1  0.455842  0.282572  0.309562  1
  Pr  Pr5  1  0.826728  0.282572  0.973008  1
  Pr  Pr6  1  0.309562  0.282572  0.826728  1
  Pr  Pr7  1  0.973008  0.282572  0.455842  1
  Dy  Dy8  1  0.979540  0.959079  0.979540  1
  Dy  Dy9  1  0.520460  0.040921  0.520460  1
  Al  Al10  1  0.750000  0.500000  0.750000  1
  Si  Si11  1  0.881793  0.000000  0.618207  1
  Si  Si12  1  0.118207  0.000000  0.381793  1
  Si  Si13  1  0.618207  0.000000  0.118207  1
  Si  Si14  1  0.381793  0.000000  0.881793  1
  Ge  Ge15  1  0.250000  0.500000  0.250000  1
