# generated using pymatgen
data_Tb2CeHo2Ir3
_symmetry_space_group_name_H-M   'P 1'
_cell_length_a   10.99697600
_cell_length_b   10.95848500
_cell_length_c   6.31573100
_cell_angle_alpha   90.00000000
_cell_angle_beta   90.00000000
_cell_angle_gamma   90.00000000
_symmetry_Int_Tables_number   1
_chemical_formula_structural   Tb2CeHo2Ir3
_chemical_formula_sum   'Tb8 Ce4 Ho8 Ir12'
_cell_volume   761.10998411
_cell_formula_units_Z   4
loop_
 _symmetry_equiv_pos_site_id
 _symmetry_equiv_pos_as_xyz
  1  'x, y, z'
loop_
 _atom_site_type_symbol
 _atom_site_label
 _atom_site_symmetry_multiplicity
 _atom_site_fract_x
 _atom_site_fract_y
 _atom_site_fract_z
 _atom_site_occupancy
  Tb  Tb0  1  0.589179  0.785906  0.879221  1
  Tb  Tb1  1  0.589179  0.214094  0.379221  1
  Tb  Tb2  1  0.410821  0.785906  0.379221  1
  Tb  Tb3  1  0.410821  0.214094  0.879221  1
  Tb  Tb4  1  0.207255  0.412998  0.621468  1
  Tb  Tb5  1  0.207255  0.587002  0.121468  1
  Tb  Tb6  1  0.792745  0.412998  0.121468  1
  Tb  Tb7  1  0.792745  0.587002  0.621468  1
  Ce  Ce8  1  0.292634  0.092434  0.381886  1
  Ce  Ce9  1  0.292634  0.907566  0.881886  1
  Ce  Ce10  1  0.707366  0.092434  0.881886  1
  Ce  Ce11  1  0.707366  0.907566  0.381886  1
  Ho  Ho12  1  0.913139  0.708715  0.116929  1
  Ho  Ho13  1  0.913139  0.291285  0.616929  1
  Ho  Ho14  1  0.086861  0.708715  0.616929  1
  Ho  Ho15  1  0.086861  0.291285  0.116929  1
  Ho  Ho16  1  0.000000  0.000000  0.494939  1
  Ho  Ho17  1  0.000000  0.000000  0.994939  1
  Ho  Ho18  1  0.500000  0.500000  0.010987  1
  Ho  Ho19  1  0.500000  0.500000  0.510987  1
  Ir  Ir20  1  0.845617  0.152510  0.242798  1
  Ir  Ir21  1  0.845617  0.847490  0.742798  1
  Ir  Ir22  1  0.154383  0.152510  0.742798  1
  Ir  Ir23  1  0.154383  0.847490  0.242798  1
  Ir  Ir24  1  0.653288  0.346186  0.756941  1
  Ir  Ir25  1  0.653288  0.653814  0.256941  1
  Ir  Ir26  1  0.346712  0.346186  0.256941  1
  Ir  Ir27  1  0.346712  0.653814  0.756941  1
  Ir  Ir28  1  0.500000  0.000000  0.120194  1
  Ir  Ir29  1  0.500000  0.000000  0.620194  1
  Ir  Ir30  1  0.000000  0.500000  0.875393  1
  Ir  Ir31  1  0.000000  0.500000  0.375393  1
