# generated using pymatgen
data_CrGa2MoRu4
_symmetry_space_group_name_H-M   'P 1'
_cell_length_a   4.30782600
_cell_length_b   6.09159900
_cell_length_c   12.90825800
_cell_angle_alpha   90.00000000
_cell_angle_beta   90.00263059
_cell_angle_gamma   90.00000000
_symmetry_Int_Tables_number   1
_chemical_formula_structural   CrGa2MoRu4
_chemical_formula_sum   'Cr3 Ga6 Mo3 Ru12'
_cell_volume   338.73267887
_cell_formula_units_Z   3
loop_
 _symmetry_equiv_pos_site_id
 _symmetry_equiv_pos_as_xyz
  1  'x, y, z'
loop_
 _atom_site_type_symbol
 _atom_site_label
 _atom_site_symmetry_multiplicity
 _atom_site_fract_x
 _atom_site_fract_y
 _atom_site_fract_z
 _atom_site_occupancy
  Cr  Cr0  1  0.500633  0.000000  0.503309  1
  Cr  Cr1  1  0.000374  0.500000  0.666598  1
  Cr  Cr2  1  0.499930  0.000000  0.830021  1
  Ga  Ga3  1  0.999975  0.000000  0.996976  1
  Ga  Ga4  1  0.499787  0.500000  0.166654  1
  Ga  Ga5  1  0.999785  0.000000  0.336372  1
  Ga  Ga6  1  0.499922  0.500000  0.505492  1
  Ga  Ga7  1  0.000219  0.000000  0.666641  1
  Ga  Ga8  1  0.500129  0.500000  0.827881  1
  Mo  Mo9  1  0.999972  0.500000  0.990988  1
  Mo  Mo10  1  0.499806  0.000000  0.166656  1
  Mo  Mo11  1  0.999784  0.500000  0.342365  1
  Ru  Ru12  1  0.499982  0.250016  0.999389  1
  Ru  Ru13  1  0.499982  0.749984  0.999389  1
  Ru  Ru14  1  0.999811  0.250745  0.166655  1
  Ru  Ru15  1  0.999811  0.749255  0.166655  1
  Ru  Ru16  1  0.499797  0.250015  0.333942  1
  Ru  Ru17  1  0.499797  0.749985  0.333942  1
  Ru  Ru18  1  0.000031  0.247537  0.501310  1
  Ru  Ru19  1  0.000031  0.752463  0.501310  1
  Ru  Ru20  1  0.500157  0.248442  0.666694  1
  Ru  Ru21  1  0.500157  0.751558  0.666694  1
  Ru  Ru22  1  0.000064  0.247527  0.832036  1
  Ru  Ru23  1  0.000064  0.752473  0.832036  1
