# generated using pymatgen
data_Sm11DyFe2Br17
_symmetry_space_group_name_H-M   'P 1'
_cell_length_a   9.36186053
_cell_length_b   11.28137717
_cell_length_c   11.29062583
_cell_angle_alpha   93.69831111
_cell_angle_beta   104.48022406
_cell_angle_gamma   114.22155988
_symmetry_Int_Tables_number   1
_chemical_formula_structural   Sm11DyFe2Br17
_chemical_formula_sum   'Sm11 Dy1 Fe2 Br17'
_cell_volume   1033.91076462
_cell_formula_units_Z   1
loop_
 _symmetry_equiv_pos_site_id
 _symmetry_equiv_pos_as_xyz
  1  'x, y, z'
loop_
 _atom_site_type_symbol
 _atom_site_label
 _atom_site_symmetry_multiplicity
 _atom_site_fract_x
 _atom_site_fract_y
 _atom_site_fract_z
 _atom_site_occupancy
  Sm  Sm0  1  0.985334  0.811066  0.577795  1
  Sm  Sm1  1  0.645761  0.240416  0.285816  1
  Sm  Sm2  1  0.017079  0.189532  0.424901  1
  Sm  Sm3  1  0.227674  0.671194  0.993705  1
  Sm  Sm4  1  0.260183  0.990801  0.892540  1
  Sm  Sm5  1  0.359660  0.760934  0.712921  1
  Sm  Sm6  1  0.941169  0.485904  0.676983  1
  Sm  Sm7  1  0.738987  0.006421  0.106609  1
  Sm  Sm8  1  0.150746  0.288587  0.150809  1
  Sm  Sm9  1  0.770797  0.330198  0.004935  1
  Sm  Sm10  1  0.844665  0.712325  0.851243  1
  Dy  Dy11  1  0.057436  0.512720  0.321726  1
  Fe  Fe12  1  0.104686  0.738983  0.786131  1
  Fe  Fe13  1  0.895164  0.261120  0.214162  1
  Br  Br14  1  0.794254  0.527588  0.417985  1
  Br  Br15  1  0.645596  0.423146  0.759093  1
  Br  Br16  1  0.845940  0.900535  0.326413  1
  Br  Br17  1  0.322882  0.214209  0.366082  1
  Br  Br18  1  0.155595  0.100882  0.674658  1
  Br  Br19  1  0.587034  0.051723  0.846781  1
  Br  Br20  1  0.759613  0.186159  0.535920  1
  Br  Br21  1  0.545922  0.707239  0.951737  1
  Br  Br22  1  0.347937  0.577676  0.244605  1
  Br  Br23  1  0.211074  0.475618  0.574612  1
  Br  Br24  1  0.054905  0.371558  0.900554  1
  Br  Br25  1  0.454016  0.292180  0.049808  1
  Br  Br26  1  0.001021  0.001608  0.001217  1
  Br  Br27  1  0.235231  0.804506  0.458957  1
  Br  Br28  1  0.416353  0.950012  0.153818  1
  Br  Br29  1  0.677406  0.786611  0.633812  1
  Br  Br30  1  0.945880  0.628548  0.103671  1
