# generated using pymatgen
data_Lu2GaTc3
_symmetry_space_group_name_H-M   'P 1'
_cell_length_a   5.30022400
_cell_length_b   5.30022519
_cell_length_c   8.89236000
_cell_angle_alpha   90.00000000
_cell_angle_beta   90.00000000
_cell_angle_gamma   119.99999259
_symmetry_Int_Tables_number   1
_chemical_formula_structural   Lu2GaTc3
_chemical_formula_sum   'Lu4 Ga2 Tc6'
_cell_volume   216.33971158
_cell_formula_units_Z   2
loop_
 _symmetry_equiv_pos_site_id
 _symmetry_equiv_pos_as_xyz
  1  'x, y, z'
loop_
 _atom_site_type_symbol
 _atom_site_label
 _atom_site_symmetry_multiplicity
 _atom_site_fract_x
 _atom_site_fract_y
 _atom_site_fract_z
 _atom_site_occupancy
  Lu  Lu0  1  0.333333  0.666667  0.432371  1
  Lu  Lu1  1  0.666667  0.333333  0.567629  1
  Lu  Lu2  1  0.666667  0.333333  0.932371  1
  Lu  Lu3  1  0.333333  0.666667  0.067629  1
  Ga  Ga4  1  0.000000  0.000000  0.500000  1
  Ga  Ga5  1  0.000000  0.000000  0.000000  1
  Tc  Tc6  1  0.828567  0.171433  0.250000  1
  Tc  Tc7  1  0.828567  0.657134  0.250000  1
  Tc  Tc8  1  0.342866  0.171433  0.250000  1
  Tc  Tc9  1  0.171433  0.828567  0.750000  1
  Tc  Tc10  1  0.171433  0.342866  0.750000  1
  Tc  Tc11  1  0.657134  0.828567  0.750000  1
