# generated using pymatgen
data_PrSm4(FeB3)2
_symmetry_space_group_name_H-M   'P 1'
_cell_length_a   5.46381853
_cell_length_b   5.46381868
_cell_length_c   8.54425064
_cell_angle_alpha   71.35301227
_cell_angle_beta   71.35301150
_cell_angle_gamma   60.00000857
_symmetry_Int_Tables_number   1
_chemical_formula_structural   PrSm4(FeB3)2
_chemical_formula_sum   'Pr1 Sm4 Fe2 B6'
_cell_volume   205.29411682
_cell_formula_units_Z   1
loop_
 _symmetry_equiv_pos_site_id
 _symmetry_equiv_pos_as_xyz
  1  'x, y, z'
loop_
 _atom_site_type_symbol
 _atom_site_label
 _atom_site_symmetry_multiplicity
 _atom_site_fract_x
 _atom_site_fract_y
 _atom_site_fract_z
 _atom_site_occupancy
  Pr  Pr0  1  0.000000  0.000000  0.000000  1
  Sm  Sm1  1  0.749402  0.749402  0.751794  1
  Sm  Sm2  1  0.250598  0.250598  0.248206  1
  Sm  Sm3  1  0.582673  0.582673  0.251981  1
  Sm  Sm4  1  0.417327  0.417327  0.748019  1
  Fe  Fe5  1  0.880712  0.880712  0.357864  1
  Fe  Fe6  1  0.119288  0.119288  0.642136  1
  B  B7  1  0.500000  0.166890  0.500000  1
  B  B8  1  0.833110  0.500000  0.500000  1
  B  B9  1  0.166890  0.833111  0.500000  1
  B  B10  1  0.166890  0.500000  0.500000  1
  B  B11  1  0.833110  0.166890  0.500000  1
  B  B12  1  0.500000  0.833110  0.500000  1
