# generated using pymatgen
data_Yb3Dy5(Sc3Sn4)4
_symmetry_space_group_name_H-M   'P 1'
_cell_length_a   7.67584488
_cell_length_b   7.99416628
_cell_length_c   14.94824527
_cell_angle_alpha   90.04060922
_cell_angle_beta   89.51216536
_cell_angle_gamma   90.05067164
_symmetry_Int_Tables_number   1
_chemical_formula_structural   Yb3Dy5(Sc3Sn4)4
_chemical_formula_sum   'Yb3 Dy5 Sc12 Sn16'
_cell_volume   917.22009974
_cell_formula_units_Z   1
loop_
 _symmetry_equiv_pos_site_id
 _symmetry_equiv_pos_as_xyz
  1  'x, y, z'
loop_
 _atom_site_type_symbol
 _atom_site_label
 _atom_site_symmetry_multiplicity
 _atom_site_fract_x
 _atom_site_fract_y
 _atom_site_fract_z
 _atom_site_occupancy
  Yb  Yb0  1  0.994889  0.176682  0.093685  1
  Yb  Yb1  1  0.005013  0.823033  0.906422  1
  Yb  Yb2  1  0.504699  0.676753  0.906160  1
  Dy  Dy3  1  0.002807  0.822228  0.593500  1
  Dy  Dy4  1  0.495956  0.321648  0.095415  1
  Dy  Dy5  1  0.997102  0.177617  0.406049  1
  Dy  Dy6  1  0.496730  0.322581  0.405987  1
  Dy  Dy7  1  0.502993  0.677723  0.593462  1
  Sc  Sc8  1  0.164749  0.497802  0.749625  1
  Sc  Sc9  1  0.835118  0.502469  0.250480  1
  Sc  Sc10  1  0.335093  0.997662  0.249940  1
  Sc  Sc11  1  0.664621  0.002523  0.749456  1
  Sc  Sc12  1  0.335169  0.161018  0.626921  1
  Sc  Sc13  1  0.665070  0.838417  0.372578  1
  Sc  Sc14  1  0.164585  0.661785  0.373199  1
  Sc  Sc15  1  0.667325  0.839118  0.127381  1
  Sc  Sc16  1  0.835331  0.338705  0.626790  1
  Sc  Sc17  1  0.333230  0.160451  0.872559  1
  Sc  Sc18  1  0.832314  0.339120  0.872706  1
  Sc  Sc19  1  0.167225  0.661002  0.127355  1
  Sn  Sn20  1  0.026712  0.124887  0.749650  1
  Sn  Sn21  1  0.973362  0.875287  0.250194  1
  Sn  Sn22  1  0.473101  0.624113  0.249599  1
  Sn  Sn23  1  0.526968  0.375507  0.749461  1
  Sn  Sn24  1  0.305953  0.851557  0.747840  1
  Sn  Sn25  1  0.693394  0.149430  0.251530  1
  Sn  Sn26  1  0.194441  0.350294  0.251088  1
  Sn  Sn27  1  0.805970  0.648514  0.748177  1
  Sn  Sn28  1  0.179345  0.456362  0.541773  1
  Sn  Sn29  1  0.820213  0.543575  0.458239  1
  Sn  Sn30  1  0.320992  0.956805  0.458053  1
  Sn  Sn31  1  0.825397  0.540624  0.043642  1
  Sn  Sn32  1  0.679201  0.043358  0.541751  1
  Sn  Sn33  1  0.175258  0.457367  0.957735  1
  Sn  Sn34  1  0.671735  0.042785  0.958093  1
  Sn  Sn35  1  0.327939  0.961197  0.043507  1
