# generated using pymatgen
data_SmHo2Nb(Co4P3)2
_symmetry_space_group_name_H-M   'P 1'
_cell_length_a   3.73254300
_cell_length_b   10.67814700
_cell_length_c   12.38812200
_cell_angle_alpha   90.00000000
_cell_angle_beta   90.00000000
_cell_angle_gamma   90.00000000
_symmetry_Int_Tables_number   1
_chemical_formula_structural   SmHo2Nb(Co4P3)2
_chemical_formula_sum   'Sm2 Ho4 Nb2 Co16 P12'
_cell_volume   493.74895399
_cell_formula_units_Z   2
loop_
 _symmetry_equiv_pos_site_id
 _symmetry_equiv_pos_as_xyz
  1  'x, y, z'
loop_
 _atom_site_type_symbol
 _atom_site_label
 _atom_site_symmetry_multiplicity
 _atom_site_fract_x
 _atom_site_fract_y
 _atom_site_fract_z
 _atom_site_occupancy
  Sm  Sm0  1  0.000000  0.500000  0.527214  1
  Sm  Sm1  1  0.500000  0.000000  0.472786  1
  Ho  Ho2  1  0.500000  0.820190  0.204315  1
  Ho  Ho3  1  0.500000  0.179810  0.204315  1
  Ho  Ho4  1  0.000000  0.679810  0.795685  1
  Ho  Ho5  1  0.000000  0.320190  0.795685  1
  Nb  Nb6  1  0.500000  0.500000  0.155223  1
  Nb  Nb7  1  0.000000  0.000000  0.844777  1
  Co  Co8  1  0.000000  0.500000  0.985834  1
  Co  Co9  1  0.500000  0.000000  0.014166  1
  Co  Co10  1  0.500000  0.295014  0.431469  1
  Co  Co11  1  0.500000  0.704986  0.431469  1
  Co  Co12  1  0.000000  0.204986  0.568531  1
  Co  Co13  1  0.000000  0.795014  0.568531  1
  Co  Co14  1  0.500000  0.877661  0.706504  1
  Co  Co15  1  0.500000  0.122339  0.706504  1
  Co  Co16  1  0.000000  0.622339  0.293496  1
  Co  Co17  1  0.000000  0.377661  0.293496  1
  Co  Co18  1  0.500000  0.332194  0.991560  1
  Co  Co19  1  0.500000  0.667806  0.991560  1
  Co  Co20  1  0.000000  0.167806  0.008440  1
  Co  Co21  1  0.000000  0.832194  0.008440  1
  Co  Co22  1  0.500000  0.500000  0.705050  1
  Co  Co23  1  0.000000  0.000000  0.294950  1
  P  P24  1  0.500000  0.308829  0.617026  1
  P  P25  1  0.500000  0.691171  0.617026  1
  P  P26  1  0.000000  0.191171  0.382974  1
  P  P27  1  0.000000  0.808829  0.382974  1
  P  P28  1  0.500000  0.500000  0.883086  1
  P  P29  1  0.000000  0.000000  0.116914  1
  P  P30  1  0.500000  0.841235  0.893515  1
  P  P31  1  0.500000  0.158765  0.893515  1
  P  P32  1  0.000000  0.658765  0.106485  1
  P  P33  1  0.000000  0.341235  0.106485  1
  P  P34  1  0.500000  0.500000  0.352926  1
  P  P35  1  0.000000  0.000000  0.647074  1
