# generated using pymatgen
data_Hf4Nb4Ge3As
_symmetry_space_group_name_H-M   'P 1'
_cell_length_a   3.64427800
_cell_length_b   7.05453548
_cell_length_c   8.58348828
_cell_angle_alpha   89.75324218
_cell_angle_beta   90.00000000
_cell_angle_gamma   90.00000000
_symmetry_Int_Tables_number   1
_chemical_formula_structural   Hf4Nb4Ge3As
_chemical_formula_sum   'Hf4 Nb4 Ge3 As1'
_cell_volume   220.66817970
_cell_formula_units_Z   1
loop_
 _symmetry_equiv_pos_site_id
 _symmetry_equiv_pos_as_xyz
  1  'x, y, z'
loop_
 _atom_site_type_symbol
 _atom_site_label
 _atom_site_symmetry_multiplicity
 _atom_site_fract_x
 _atom_site_fract_y
 _atom_site_fract_z
 _atom_site_occupancy
  Hf  Hf0  1  0.250000  0.044472  0.664218  1
  Hf  Hf1  1  0.250000  0.546581  0.835710  1
  Hf  Hf2  1  0.750000  0.456092  0.165938  1
  Hf  Hf3  1  0.750000  0.953165  0.336593  1
  Nb  Nb4  1  0.750000  0.867434  0.940755  1
  Nb  Nb5  1  0.250000  0.630745  0.441460  1
  Nb  Nb6  1  0.750000  0.366747  0.559119  1
  Nb  Nb7  1  0.250000  0.134516  0.057338  1
  Ge  Ge8  1  0.250000  0.251019  0.356828  1
  Ge  Ge9  1  0.250000  0.754741  0.143460  1
  Ge  Ge10  1  0.750000  0.747219  0.642439  1
  As  As11  1  0.750000  0.247268  0.856144  1
