# generated using pymatgen
data_Dy3Th11Ir6
_symmetry_space_group_name_H-M   'P 1'
_cell_length_a   9.98872249
_cell_length_b   10.01023929
_cell_length_c   6.35261600
_cell_angle_alpha   90.29120205
_cell_angle_beta   89.78110207
_cell_angle_gamma   120.00300742
_symmetry_Int_Tables_number   1
_chemical_formula_structural   Dy3Th11Ir6
_chemical_formula_sum   'Dy3 Th11 Ir6'
_cell_volume   550.07055495
_cell_formula_units_Z   1
loop_
 _symmetry_equiv_pos_site_id
 _symmetry_equiv_pos_as_xyz
  1  'x, y, z'
loop_
 _atom_site_type_symbol
 _atom_site_label
 _atom_site_symmetry_multiplicity
 _atom_site_fract_x
 _atom_site_fract_y
 _atom_site_fract_z
 _atom_site_occupancy
  Dy  Dy0  1  0.459808  0.539437  0.295915  1
  Dy  Dy1  1  0.077278  0.537806  0.302225  1
  Dy  Dy2  1  0.924137  0.462695  0.803494  1
  Th  Th3  1  0.254043  0.128974  0.500517  1
  Th  Th4  1  0.543608  0.085032  0.792829  1
  Th  Th5  1  0.746113  0.873456  0.001270  1
  Th  Th6  1  0.665340  0.331400  0.292988  1
  Th  Th7  1  0.127023  0.868989  0.001622  1
  Th  Th8  1  0.456399  0.911974  0.290844  1
  Th  Th9  1  0.542567  0.459224  0.795843  1
  Th  Th10  1  0.873853  0.130371  0.503414  1
  Th  Th11  1  0.126789  0.257283  0.001653  1
  Th  Th12  1  0.869513  0.741037  0.500079  1
  Th  Th13  1  0.334471  0.667557  0.782884  1
  Ir  Ir14  1  0.810340  0.624613  0.054917  1
  Ir  Ir15  1  0.812274  0.187220  0.054553  1
  Ir  Ir16  1  0.626991  0.816215  0.551051  1
  Ir  Ir17  1  0.375297  0.189099  0.051054  1
  Ir  Ir18  1  0.185342  0.373213  0.554458  1
  Ir  Ir19  1  0.188814  0.814405  0.552392  1
