# generated using pymatgen
data_Y4ErCr3(P3Ir4)4
_symmetry_space_group_name_H-M   'P 1'
_cell_length_a   12.57501207
_cell_length_b   12.57269775
_cell_length_c   3.99972000
_cell_angle_alpha   90.00000000
_cell_angle_beta   90.00000000
_cell_angle_gamma   119.99391867
_symmetry_Int_Tables_number   1
_chemical_formula_structural   Y4ErCr3(P3Ir4)4
_chemical_formula_sum   'Y4 Er1 Cr3 P12 Ir16'
_cell_volume   547.67600939
_cell_formula_units_Z   1
loop_
 _symmetry_equiv_pos_site_id
 _symmetry_equiv_pos_as_xyz
  1  'x, y, z'
loop_
 _atom_site_type_symbol
 _atom_site_label
 _atom_site_symmetry_multiplicity
 _atom_site_fract_x
 _atom_site_fract_y
 _atom_site_fract_z
 _atom_site_occupancy
  Y  Y0  1  0.666655  0.333298  0.000000  1
  Y  Y1  1  0.333345  0.666644  0.000000  1
  Y  Y2  1  0.818212  0.818263  0.500000  1
  Y  Y3  1  0.181788  0.000051  0.500000  1
  Er  Er4  1  0.000000  0.181737  0.500000  1
  Cr  Cr5  1  0.292571  0.292744  0.500000  1
  Cr  Cr6  1  0.707429  0.000173  0.500000  1
  Cr  Cr7  1  0.000000  0.707174  0.500000  1
  P  P8  1  0.689877  0.167091  0.500000  1
  P  P9  1  0.832870  0.522781  0.500000  1
  P  P10  1  0.477120  0.310046  0.500000  1
  P  P11  1  0.167130  0.689911  0.500000  1
  P  P12  1  0.522880  0.832926  0.500000  1
  P  P13  1  0.310123  0.477214  0.500000  1
  P  P14  1  0.639581  0.639572  0.000000  1
  P  P15  1  0.360419  0.999992  0.000000  1
  P  P16  1  0.000000  0.360033  0.000000  1
  P  P17  1  0.182286  0.182530  0.000000  1
  P  P18  1  0.817714  0.000244  0.000000  1
  P  P19  1  0.000000  0.817595  0.000000  1
  Ir  Ir20  1  0.806367  0.180320  0.000000  1
  Ir  Ir21  1  0.819741  0.625470  0.000000  1
  Ir  Ir22  1  0.374529  0.194299  0.000000  1
  Ir  Ir23  1  0.180259  0.805729  0.000000  1
  Ir  Ir24  1  0.625471  0.819769  0.000000  1
  Ir  Ir25  1  0.193633  0.373952  0.000000  1
  Ir  Ir26  1  0.454446  0.454498  0.000000  1
  Ir  Ir27  1  0.545554  0.000052  0.000000  1
  Ir  Ir28  1  0.000000  0.545442  0.000000  1
  Ir  Ir29  1  0.869382  0.361718  0.500000  1
  Ir  Ir30  1  0.638135  0.507505  0.500000  1
  Ir  Ir31  1  0.492457  0.130613  0.500000  1
  Ir  Ir32  1  0.361865  0.869369  0.500000  1
  Ir  Ir33  1  0.507543  0.638154  0.500000  1
  Ir  Ir34  1  0.130618  0.492336  0.500000  1
  Ir  Ir35  1  0.000000  0.000753  0.000000  1
