# generated using pymatgen
data_V10B4PS
_symmetry_space_group_name_H-M   'P 1'
_cell_length_a   6.66938366
_cell_length_b   6.66938409
_cell_length_c   6.66938349
_cell_angle_alpha   129.24666665
_cell_angle_beta   129.24667484
_cell_angle_gamma   74.61399760
_symmetry_Int_Tables_number   1
_chemical_formula_structural   V10B4PS
_chemical_formula_sum   'V10 B4 P1 S1'
_cell_volume   173.35654187
_cell_formula_units_Z   1
loop_
 _symmetry_equiv_pos_site_id
 _symmetry_equiv_pos_as_xyz
  1  'x, y, z'
loop_
 _atom_site_type_symbol
 _atom_site_label
 _atom_site_symmetry_multiplicity
 _atom_site_fract_x
 _atom_site_fract_y
 _atom_site_fract_z
 _atom_site_occupancy
  V  V0  1  0.528601  0.689922  0.498934  1
  V  V1  1  0.029668  0.528601  0.838679  1
  V  V2  1  0.689922  0.190988  0.161321  1
  V  V3  1  0.971399  0.470332  0.161321  1
  V  V4  1  0.190988  0.029668  0.501066  1
  V  V5  1  0.470332  0.309012  0.498934  1
  V  V6  1  0.810078  0.971399  0.501066  1
  V  V7  1  0.309012  0.810078  0.838679  1
  V  V8  1  0.998642  0.998642  0.000000  1
  V  V9  1  0.501358  0.501358  0.000000  1
  B  B10  1  0.614742  0.114742  0.729483  1
  B  B11  1  0.114742  0.385258  0.500000  1
  B  B12  1  0.885258  0.614742  0.500000  1
  B  B13  1  0.385258  0.885258  0.270517  1
  P  P14  1  0.750000  0.750000  0.000000  1
  S  S15  1  0.250000  0.250000  0.000000  1
