# generated using pymatgen
data_Dy3Al12(FePd)2
_symmetry_space_group_name_H-M   'P 1'
_cell_length_a   8.79690994
_cell_length_b   8.79690811
_cell_length_c   9.43692200
_cell_angle_alpha   90.03801088
_cell_angle_beta   89.96198913
_cell_angle_gamma   119.92046105
_symmetry_Int_Tables_number   1
_chemical_formula_structural   Dy3Al12(FePd)2
_chemical_formula_sum   'Dy6 Al24 Fe4 Pd4'
_cell_volume   632.94881986
_cell_formula_units_Z   2
loop_
 _symmetry_equiv_pos_site_id
 _symmetry_equiv_pos_as_xyz
  1  'x, y, z'
loop_
 _atom_site_type_symbol
 _atom_site_label
 _atom_site_symmetry_multiplicity
 _atom_site_fract_x
 _atom_site_fract_y
 _atom_site_fract_z
 _atom_site_occupancy
  Dy  Dy0  1  0.189918  0.383958  0.253786  1
  Dy  Dy1  1  0.810082  0.616042  0.746214  1
  Dy  Dy2  1  0.616042  0.810082  0.253786  1
  Dy  Dy3  1  0.383958  0.189918  0.746214  1
  Dy  Dy4  1  0.192502  0.807498  0.251645  1
  Dy  Dy5  1  0.807498  0.192502  0.748355  1
  Al  Al6  1  0.333558  0.666442  0.026710  1
  Al  Al7  1  0.666442  0.333558  0.973290  1
  Al  Al8  1  0.672233  0.327767  0.523051  1
  Al  Al9  1  0.327767  0.672233  0.476949  1
  Al  Al10  1  0.152277  0.320770  0.573696  1
  Al  Al11  1  0.847723  0.679230  0.426304  1
  Al  Al12  1  0.679230  0.847723  0.573696  1
  Al  Al13  1  0.841832  0.683843  0.079313  1
  Al  Al14  1  0.320770  0.152277  0.426304  1
  Al  Al15  1  0.158168  0.316157  0.920687  1
  Al  Al16  1  0.161652  0.838348  0.572845  1
  Al  Al17  1  0.316157  0.158168  0.079313  1
  Al  Al18  1  0.838348  0.161652  0.427155  1
  Al  Al19  1  0.683843  0.841832  0.920687  1
  Al  Al20  1  0.841214  0.158786  0.080230  1
  Al  Al21  1  0.158786  0.841214  0.919770  1
  Al  Al22  1  0.561351  0.122350  0.258886  1
  Al  Al23  1  0.438649  0.877650  0.741114  1
  Al  Al24  1  0.877650  0.438649  0.258886  1
  Al  Al25  1  0.122350  0.561351  0.741114  1
  Al  Al26  1  0.564173  0.435827  0.250223  1
  Al  Al27  1  0.435827  0.564173  0.749777  1
  Al  Al28  1  0.999609  0.000391  0.251359  1
  Al  Al29  1  0.000391  0.999609  0.748641  1
  Fe  Fe30  1  0.500000  0.000000  0.500000  1
  Fe  Fe31  1  0.000000  0.500000  0.500000  1
  Fe  Fe32  1  0.000000  0.000000  0.000000  1
  Fe  Fe33  1  0.000000  0.000000  0.500000  1
  Pd  Pd34  1  0.500000  0.000000  0.000000  1
  Pd  Pd35  1  0.000000  0.500000  0.000000  1
  Pd  Pd36  1  0.500000  0.500000  0.000000  1
  Pd  Pd37  1  0.500000  0.500000  0.500000  1
