# generated using pymatgen
data_Nb4Al4GaCu3
_symmetry_space_group_name_H-M   'P 1'
_cell_length_a   4.96930127
_cell_length_b   5.10420687
_cell_length_c   8.21725000
_cell_angle_alpha   90.00000000
_cell_angle_beta   90.00000000
_cell_angle_gamma   120.46686675
_symmetry_Int_Tables_number   1
_chemical_formula_structural   Nb4Al4GaCu3
_chemical_formula_sum   'Nb4 Al4 Ga1 Cu3'
_cell_volume   179.64631847
_cell_formula_units_Z   1
loop_
 _symmetry_equiv_pos_site_id
 _symmetry_equiv_pos_as_xyz
  1  'x, y, z'
loop_
 _atom_site_type_symbol
 _atom_site_label
 _atom_site_symmetry_multiplicity
 _atom_site_fract_x
 _atom_site_fract_y
 _atom_site_fract_z
 _atom_site_occupancy
  Nb  Nb0  1  0.677021  0.343507  0.564717  1
  Nb  Nb1  1  0.321553  0.659450  0.435531  1
  Nb  Nb2  1  0.321553  0.659450  0.064469  1
  Nb  Nb3  1  0.677021  0.343507  0.935283  1
  Al  Al4  1  0.993867  0.005395  0.492810  1
  Al  Al5  1  0.993867  0.005395  0.007190  1
  Al  Al6  1  0.190909  0.357708  0.750000  1
  Al  Al7  1  0.190112  0.840999  0.750000  1
  Ga  Ga8  1  0.807959  0.630030  0.250000  1
  Cu  Cu9  1  0.679823  0.843635  0.750000  1
  Cu  Cu10  1  0.817688  0.157653  0.250000  1
  Cu  Cu11  1  0.328626  0.153273  0.250000  1
