# generated using pymatgen
data_Pr3MgIn2Sn2Pt
_symmetry_space_group_name_H-M   'P 1'
_cell_length_a   7.67523000
_cell_length_b   7.72887586
_cell_length_c   4.60785900
_cell_angle_alpha   90.00000000
_cell_angle_beta   90.00000000
_cell_angle_gamma   119.77066763
_symmetry_Int_Tables_number   1
_chemical_formula_structural   Pr3MgIn2Sn2Pt
_chemical_formula_sum   'Pr3 Mg1 In2 Sn2 Pt1'
_cell_volume   237.26655549
_cell_formula_units_Z   1
loop_
 _symmetry_equiv_pos_site_id
 _symmetry_equiv_pos_as_xyz
  1  'x, y, z'
loop_
 _atom_site_type_symbol
 _atom_site_label
 _atom_site_symmetry_multiplicity
 _atom_site_fract_x
 _atom_site_fract_y
 _atom_site_fract_z
 _atom_site_occupancy
  Pr  Pr0  1  0.394307  0.397231  0.000000  1
  Pr  Pr1  1  0.604568  0.000000  0.000000  1
  Pr  Pr2  1  0.997076  0.602769  0.000000  1
  Mg  Mg3  1  0.227317  0.000000  0.500000  1
  In  In4  1  0.004249  0.234821  0.500000  1
  In  In5  1  0.769428  0.765179  0.500000  1
  Sn  Sn6  1  0.661541  0.327407  0.500000  1
  Sn  Sn7  1  0.334133  0.672593  0.500000  1
  Pt  Pt8  1  0.007381  0.000000  0.000000  1
