# generated using pymatgen
data_DyEr19(Bi2Ru)4
_symmetry_space_group_name_H-M   'P 1'
_cell_length_a   7.90622582
_cell_length_b   8.95679700
_cell_length_c   12.40991840
_cell_angle_alpha   90.00000000
_cell_angle_beta   90.07782416
_cell_angle_gamma   90.00000000
_symmetry_Int_Tables_number   1
_chemical_formula_structural   DyEr19(Bi2Ru)4
_chemical_formula_sum   'Dy1 Er19 Bi8 Ru4'
_cell_volume   878.80085556
_cell_formula_units_Z   1
loop_
 _symmetry_equiv_pos_site_id
 _symmetry_equiv_pos_as_xyz
  1  'x, y, z'
loop_
 _atom_site_type_symbol
 _atom_site_label
 _atom_site_symmetry_multiplicity
 _atom_site_fract_x
 _atom_site_fract_y
 _atom_site_fract_z
 _atom_site_occupancy
  Dy  Dy0  1  0.659063  0.750000  0.707327  1
  Er  Er1  1  0.341087  0.250000  0.293096  1
  Er  Er2  1  0.158295  0.250000  0.793446  1
  Er  Er3  1  0.841366  0.750000  0.206739  1
  Er  Er4  1  0.124915  0.750000  0.810437  1
  Er  Er5  1  0.875574  0.250000  0.189748  1
  Er  Er6  1  0.624628  0.250000  0.689513  1
  Er  Er7  1  0.375880  0.750000  0.310688  1
  Er  Er8  1  0.553288  0.750000  0.995704  1
  Er  Er9  1  0.445819  0.250000  0.004841  1
  Er  Er10  1  0.053754  0.250000  0.504134  1
  Er  Er11  1  0.946422  0.750000  0.495281  1
  Er  Er12  1  0.825769  0.458911  0.935155  1
  Er  Er13  1  0.174161  0.541053  0.065067  1
  Er  Er14  1  0.325847  0.540753  0.564510  1
  Er  Er15  1  0.174161  0.958947  0.065067  1
  Er  Er16  1  0.674084  0.459257  0.434839  1
  Er  Er17  1  0.825769  0.041089  0.935155  1
  Er  Er18  1  0.674084  0.040743  0.434839  1
  Er  Er19  1  0.325847  0.959247  0.564510  1
  Bi  Bi20  1  0.933853  0.007098  0.672432  1
  Bi  Bi21  1  0.066863  0.993250  0.327267  1
  Bi  Bi22  1  0.432464  0.994062  0.827648  1
  Bi  Bi23  1  0.066863  0.506750  0.327267  1
  Bi  Bi24  1  0.567015  0.006625  0.172775  1
  Bi  Bi25  1  0.933853  0.492902  0.672432  1
  Bi  Bi26  1  0.567015  0.493375  0.172775  1
  Bi  Bi27  1  0.432464  0.505938  0.827648  1
  Ru  Ru28  1  0.927525  0.750000  0.990109  1
  Ru  Ru29  1  0.072381  0.250000  0.009885  1
  Ru  Ru30  1  0.427740  0.250000  0.509504  1
  Ru  Ru31  1  0.572152  0.750000  0.490159  1
