# generated using pymatgen
data_HfZr3(NiPt)6
_symmetry_space_group_name_H-M   'P 1'
_cell_length_a   5.55940368
_cell_length_b   5.55775948
_cell_length_c   9.06685400
_cell_angle_alpha   90.00000000
_cell_angle_beta   90.00000000
_cell_angle_gamma   119.58483931
_symmetry_Int_Tables_number   1
_chemical_formula_structural   HfZr3(NiPt)6
_chemical_formula_sum   'Hf1 Zr3 Ni6 Pt6'
_cell_volume   243.62221957
_cell_formula_units_Z   1
loop_
 _symmetry_equiv_pos_site_id
 _symmetry_equiv_pos_as_xyz
  1  'x, y, z'
loop_
 _atom_site_type_symbol
 _atom_site_label
 _atom_site_symmetry_multiplicity
 _atom_site_fract_x
 _atom_site_fract_y
 _atom_site_fract_z
 _atom_site_occupancy
  Hf  Hf0  1  0.326962  0.667212  0.250000  1
  Zr  Zr1  1  0.000063  0.999903  0.500463  1
  Zr  Zr2  1  0.673208  0.332418  0.750000  1
  Zr  Zr3  1  0.000063  0.999903  0.999537  1
  Ni  Ni4  1  0.170737  0.347709  0.750000  1
  Ni  Ni5  1  0.000873  0.500955  0.001083  1
  Ni  Ni6  1  0.830208  0.652739  0.250000  1
  Ni  Ni7  1  0.499262  0.999043  0.499075  1
  Ni  Ni8  1  0.499262  0.999043  0.000925  1
  Ni  Ni9  1  0.000873  0.500955  0.498917  1
  Pt  Pt10  1  0.343044  0.163885  0.250000  1
  Pt  Pt11  1  0.499333  0.501153  0.001432  1
  Pt  Pt12  1  0.830134  0.176000  0.250000  1
  Pt  Pt13  1  0.499333  0.501153  0.498568  1
  Pt  Pt14  1  0.170694  0.824080  0.750000  1
  Pt  Pt15  1  0.655951  0.833848  0.750000  1
