# generated using pymatgen
data_Be8Cr2ReTc
_symmetry_space_group_name_H-M   'P 1'
_cell_length_a   4.28277300
_cell_length_b   4.28277306
_cell_length_c   7.02348400
_cell_angle_alpha   90.00000000
_cell_angle_beta   90.00000000
_cell_angle_gamma   120.00000724
_symmetry_Int_Tables_number   1
_chemical_formula_structural   Be8Cr2ReTc
_chemical_formula_sum   'Be8 Cr2 Re1 Tc1'
_cell_volume   111.56637336
_cell_formula_units_Z   1
loop_
 _symmetry_equiv_pos_site_id
 _symmetry_equiv_pos_as_xyz
  1  'x, y, z'
loop_
 _atom_site_type_symbol
 _atom_site_label
 _atom_site_symmetry_multiplicity
 _atom_site_fract_x
 _atom_site_fract_y
 _atom_site_fract_z
 _atom_site_occupancy
  Be  Be0  1  0.000000  0.000000  0.999350  1
  Be  Be1  1  0.000000  0.000000  0.500029  1
  Be  Be2  1  0.830370  0.660740  0.249927  1
  Be  Be3  1  0.169831  0.830169  0.750198  1
  Be  Be4  1  0.660339  0.830169  0.750198  1
  Be  Be5  1  0.339260  0.169630  0.249927  1
  Be  Be6  1  0.830370  0.169630  0.249927  1
  Be  Be7  1  0.169831  0.339661  0.750198  1
  Cr  Cr8  1  0.333333  0.666667  0.062459  1
  Cr  Cr9  1  0.666667  0.333333  0.560759  1
  Re  Re10  1  0.333333  0.666667  0.438587  1
  Tc  Tc11  1  0.666667  0.333333  0.938440  1
