# generated using pymatgen
data_Nd4Si12Tc3Ni17
_symmetry_space_group_name_H-M   'P 1'
_cell_length_a   3.79904400
_cell_length_b   10.77459700
_cell_length_c   12.16385362
_cell_angle_alpha   89.37614337
_cell_angle_beta   90.00000000
_cell_angle_gamma   90.00000000
_symmetry_Int_Tables_number   1
_chemical_formula_structural   Nd4Si12Tc3Ni17
_chemical_formula_sum   'Nd4 Si12 Tc3 Ni17'
_cell_volume   497.87554999
_cell_formula_units_Z   1
loop_
 _symmetry_equiv_pos_site_id
 _symmetry_equiv_pos_as_xyz
  1  'x, y, z'
loop_
 _atom_site_type_symbol
 _atom_site_label
 _atom_site_symmetry_multiplicity
 _atom_site_fract_x
 _atom_site_fract_y
 _atom_site_fract_z
 _atom_site_occupancy
  Nd  Nd0  1  0.250000  0.583551  0.701277  1
  Nd  Nd1  1  0.250000  0.911156  0.203775  1
  Nd  Nd2  1  0.750000  0.412441  0.298028  1
  Nd  Nd3  1  0.750000  0.086852  0.794056  1
  Si  Si4  1  0.250000  0.411872  0.108876  1
  Si  Si5  1  0.250000  0.094269  0.602625  1
  Si  Si6  1  0.750000  0.586912  0.891709  1
  Si  Si7  1  0.750000  0.910784  0.390497  1
  Si  Si8  1  0.250000  0.275006  0.870668  1
  Si  Si9  1  0.250000  0.224793  0.378167  1
  Si  Si10  1  0.750000  0.723728  0.129007  1
  Si  Si11  1  0.750000  0.778710  0.628738  1
  Si  Si12  1  0.250000  0.600112  0.393307  1
  Si  Si13  1  0.250000  0.899272  0.891887  1
  Si  Si14  1  0.750000  0.393659  0.605429  1
  Si  Si15  1  0.750000  0.100978  0.109652  1
  Tc  Tc16  1  0.250000  0.705510  0.989849  1
  Tc  Tc17  1  0.250000  0.792578  0.489851  1
  Tc  Tc18  1  0.750000  0.292987  0.010262  1
  Ni  Ni19  1  0.750000  0.210026  0.509926  1
  Ni  Ni20  1  0.250000  0.407399  0.490998  1
  Ni  Ni21  1  0.250000  0.092437  0.991998  1
  Ni  Ni22  1  0.750000  0.593249  0.509072  1
  Ni  Ni23  1  0.750000  0.907921  0.008250  1
  Ni  Ni24  1  0.250000  0.211410  0.179976  1
  Ni  Ni25  1  0.250000  0.286431  0.678573  1
  Ni  Ni26  1  0.750000  0.787358  0.822132  1
  Ni  Ni27  1  0.750000  0.712014  0.323004  1
  Ni  Ni28  1  0.250000  0.890017  0.696822  1
  Ni  Ni29  1  0.250000  0.612499  0.199790  1
  Ni  Ni30  1  0.750000  0.114939  0.305064  1
  Ni  Ni31  1  0.750000  0.386983  0.800883  1
  Ni  Ni32  1  0.250000  0.470281  0.929378  1
  Ni  Ni33  1  0.250000  0.027085  0.427874  1
  Ni  Ni34  1  0.750000  0.528797  0.071551  1
  Ni  Ni35  1  0.750000  0.975987  0.567050  1
