# generated using pymatgen
data_Tm20Fe3CuSb8
_symmetry_space_group_name_H-M   'P 1'
_cell_length_a   7.77530802
_cell_length_b   8.77719600
_cell_length_c   12.03191382
_cell_angle_alpha   90.00000000
_cell_angle_beta   90.25502990
_cell_angle_gamma   90.00000000
_symmetry_Int_Tables_number   1
_chemical_formula_structural   Tm20Fe3CuSb8
_chemical_formula_sum   'Tm20 Fe3 Cu1 Sb8'
_cell_volume   821.11466719
_cell_formula_units_Z   1
loop_
 _symmetry_equiv_pos_site_id
 _symmetry_equiv_pos_as_xyz
  1  'x, y, z'
loop_
 _atom_site_type_symbol
 _atom_site_label
 _atom_site_symmetry_multiplicity
 _atom_site_fract_x
 _atom_site_fract_y
 _atom_site_fract_z
 _atom_site_occupancy
  Tm  Tm0  1  0.167134  0.750000  0.217960  1
  Tm  Tm1  1  0.654561  0.250000  0.295855  1
  Tm  Tm2  1  0.842580  0.250000  0.794341  1
  Tm  Tm3  1  0.346058  0.750000  0.701492  1
  Tm  Tm4  1  0.459535  0.750000  0.998363  1
  Tm  Tm5  1  0.945518  0.250000  0.504673  1
  Tm  Tm6  1  0.549709  0.250000  0.002064  1
  Tm  Tm7  1  0.046997  0.750000  0.498577  1
  Tm  Tm8  1  0.624394  0.750000  0.304957  1
  Tm  Tm9  1  0.122188  0.250000  0.191848  1
  Tm  Tm10  1  0.379862  0.250000  0.692270  1
  Tm  Tm11  1  0.868774  0.750000  0.801225  1
  Tm  Tm12  1  0.822395  0.971321  0.066316  1
  Tm  Tm13  1  0.323843  0.033576  0.437148  1
  Tm  Tm14  1  0.178968  0.451287  0.934630  1
  Tm  Tm15  1  0.675239  0.538067  0.562410  1
  Tm  Tm16  1  0.178968  0.048713  0.934630  1
  Tm  Tm17  1  0.675239  0.961933  0.562410  1
  Tm  Tm18  1  0.822395  0.528679  0.066316  1
  Tm  Tm19  1  0.323843  0.466424  0.437148  1
  Fe  Fe20  1  0.424930  0.750000  0.484578  1
  Fe  Fe21  1  0.928772  0.250000  0.010102  1
  Fe  Fe22  1  0.568898  0.250000  0.510214  1
  Cu  Cu23  1  0.072484  0.750000  0.989533  1
  Sb  Sb24  1  0.931099  0.992991  0.328118  1
  Sb  Sb25  1  0.428416  0.008419  0.170780  1
  Sb  Sb26  1  0.069508  0.492303  0.673591  1
  Sb  Sb27  1  0.569336  0.508336  0.827981  1
  Sb  Sb28  1  0.069508  0.007697  0.673591  1
  Sb  Sb29  1  0.569336  0.991664  0.827981  1
  Sb  Sb30  1  0.931099  0.507009  0.328118  1
  Sb  Sb31  1  0.428416  0.491581  0.170780  1
