# generated using pymatgen
data_Er8Sc11Si16Ag
_symmetry_space_group_name_H-M   'P 1'
_cell_length_a   7.00216601
_cell_length_b   7.37159075
_cell_length_c   13.96750900
_cell_angle_alpha   90.00000000
_cell_angle_beta   90.00000000
_cell_angle_gamma   89.90059518
_symmetry_Int_Tables_number   1
_chemical_formula_structural   Er8Sc11Si16Ag
_chemical_formula_sum   'Er8 Sc11 Si16 Ag1'
_cell_volume   720.96125444
_cell_formula_units_Z   1
loop_
 _symmetry_equiv_pos_site_id
 _symmetry_equiv_pos_as_xyz
  1  'x, y, z'
loop_
 _atom_site_type_symbol
 _atom_site_label
 _atom_site_symmetry_multiplicity
 _atom_site_fract_x
 _atom_site_fract_y
 _atom_site_fract_z
 _atom_site_occupancy
  Er  Er0  1  0.011130  0.176619  0.096062  1
  Er  Er1  1  0.990306  0.814382  0.901756  1
  Er  Er2  1  0.485026  0.674373  0.902360  1
  Er  Er3  1  0.990306  0.814382  0.598244  1
  Er  Er4  1  0.510415  0.322687  0.095904  1
  Er  Er5  1  0.011130  0.176619  0.403938  1
  Er  Er6  1  0.510415  0.322687  0.404096  1
  Er  Er7  1  0.485026  0.674373  0.597640  1
  Sc  Sc8  1  0.838309  0.496398  0.250000  1
  Sc  Sc9  1  0.340491  0.003824  0.250000  1
  Sc  Sc10  1  0.657094  0.996945  0.750000  1
  Sc  Sc11  1  0.325582  0.182333  0.626959  1
  Sc  Sc12  1  0.671084  0.823769  0.374824  1
  Sc  Sc13  1  0.170411  0.678850  0.374037  1
  Sc  Sc14  1  0.671084  0.823769  0.125176  1
  Sc  Sc15  1  0.836155  0.326901  0.626841  1
  Sc  Sc16  1  0.325582  0.182333  0.873041  1
  Sc  Sc17  1  0.836155  0.326901  0.873159  1
  Sc  Sc18  1  0.170411  0.678850  0.125963  1
  Si  Si19  1  0.026976  0.095759  0.750000  1
  Si  Si20  1  0.969613  0.890038  0.250000  1
  Si  Si21  1  0.467854  0.614151  0.250000  1
  Si  Si22  1  0.535763  0.387369  0.750000  1
  Si  Si23  1  0.288113  0.879539  0.750000  1
  Si  Si24  1  0.714248  0.130208  0.250000  1
  Si  Si25  1  0.213108  0.370032  0.250000  1
  Si  Si26  1  0.776193  0.631472  0.750000  1
  Si  Si27  1  0.162909  0.460392  0.531714  1
  Si  Si28  1  0.841494  0.535288  0.462260  1
  Si  Si29  1  0.343411  0.965908  0.462741  1
  Si  Si30  1  0.841494  0.535288  0.037740  1
  Si  Si31  1  0.658881  0.033613  0.540223  1
  Si  Si32  1  0.162909  0.460392  0.968286  1
  Si  Si33  1  0.658881  0.033613  0.959777  1
  Si  Si34  1  0.343411  0.965908  0.037259  1
  Ag  Ag35  1  0.158624  0.514036  0.750000  1
