# generated using pymatgen
data_Lu4Si4Ru3Rh
_symmetry_space_group_name_H-M   'P 1'
_cell_length_a   4.23169300
_cell_length_b   6.85302151
_cell_length_c   7.18354849
_cell_angle_alpha   90.04327612
_cell_angle_beta   90.00000000
_cell_angle_gamma   90.00000000
_symmetry_Int_Tables_number   1
_chemical_formula_structural   Lu4Si4Ru3Rh
_chemical_formula_sum   'Lu4 Si4 Ru3 Rh1'
_cell_volume   208.32200742
_cell_formula_units_Z   1
loop_
 _symmetry_equiv_pos_site_id
 _symmetry_equiv_pos_as_xyz
  1  'x, y, z'
loop_
 _atom_site_type_symbol
 _atom_site_label
 _atom_site_symmetry_multiplicity
 _atom_site_fract_x
 _atom_site_fract_y
 _atom_site_fract_z
 _atom_site_occupancy
  Lu  Lu0  1  0.750000  0.008030  0.812321  1
  Lu  Lu1  1  0.250000  0.496767  0.311791  1
  Lu  Lu2  1  0.750000  0.505702  0.687823  1
  Lu  Lu3  1  0.250000  0.990405  0.188822  1
  Si  Si4  1  0.750000  0.201149  0.385200  1
  Si  Si5  1  0.250000  0.298759  0.897089  1
  Si  Si6  1  0.750000  0.700573  0.106597  1
  Si  Si7  1  0.250000  0.796740  0.609153  1
  Ru  Ru8  1  0.750000  0.343450  0.063831  1
  Ru  Ru9  1  0.250000  0.656331  0.935285  1
  Ru  Ru10  1  0.750000  0.845818  0.437670  1
  Rh  Rh11  1  0.250000  0.156276  0.564417  1
