# generated using pymatgen
data_Sm6TmPa3(Al2Ru3)2
_symmetry_space_group_name_H-M   'P 1'
_cell_length_a   8.51321680
_cell_length_b   8.51321652
_cell_length_c   8.51321731
_cell_angle_alpha   110.12591755
_cell_angle_beta   110.12590959
_cell_angle_gamma   110.12591635
_symmetry_Int_Tables_number   1
_chemical_formula_structural   Sm6TmPa3(Al2Ru3)2
_chemical_formula_sum   'Sm6 Tm1 Pa3 Al4 Ru6'
_cell_volume   463.09213994
_cell_formula_units_Z   1
loop_
 _symmetry_equiv_pos_site_id
 _symmetry_equiv_pos_as_xyz
  1  'x, y, z'
loop_
 _atom_site_type_symbol
 _atom_site_label
 _atom_site_symmetry_multiplicity
 _atom_site_fract_x
 _atom_site_fract_y
 _atom_site_fract_z
 _atom_site_occupancy
  Sm  Sm0  1  0.309409  0.562937  0.750070  1
  Sm  Sm1  1  0.750070  0.309409  0.562937  1
  Sm  Sm2  1  0.562937  0.750070  0.309409  1
  Sm  Sm3  1  0.728167  0.505264  0.991356  1
  Sm  Sm4  1  0.991356  0.728167  0.505264  1
  Sm  Sm5  1  0.505264  0.991356  0.728167  1
  Tm  Tm6  1  0.780477  0.780477  0.780477  1
  Pa  Pa7  1  0.251031  0.200886  0.952681  1
  Pa  Pa8  1  0.952681  0.251031  0.200886  1
  Pa  Pa9  1  0.200886  0.952681  0.251031  1
  Al  Al10  1  0.403562  0.403562  0.403562  1
  Al  Al11  1  0.099830  0.497702  0.004603  1
  Al  Al12  1  0.004603  0.099830  0.497702  1
  Al  Al13  1  0.497702  0.004603  0.099830  1
  Ru  Ru14  1  0.917308  0.120891  0.761399  1
  Ru  Ru15  1  0.761399  0.917308  0.120891  1
  Ru  Ru16  1  0.120891  0.761399  0.917308  1
  Ru  Ru17  1  0.213137  0.588593  0.360697  1
  Ru  Ru18  1  0.360697  0.213137  0.588593  1
  Ru  Ru19  1  0.588593  0.360697  0.213137  1
