# generated using pymatgen
data_Li4MgFe2Sn5O16
_symmetry_space_group_name_H-M   'P 1'
_cell_length_a   6.15841372
_cell_length_b   6.15837921
_cell_length_c   9.89096401
_cell_angle_alpha   89.81798847
_cell_angle_beta   89.81810105
_cell_angle_gamma   60.11557849
_symmetry_Int_Tables_number   1
_chemical_formula_structural   Li4MgFe2Sn5O16
_chemical_formula_sum   'Li4 Mg1 Fe2 Sn5 O16'
_cell_volume   325.24171378
_cell_formula_units_Z   1
loop_
 _symmetry_equiv_pos_site_id
 _symmetry_equiv_pos_as_xyz
  1  'x, y, z'
loop_
 _atom_site_type_symbol
 _atom_site_label
 _atom_site_symmetry_multiplicity
 _atom_site_fract_x
 _atom_site_fract_y
 _atom_site_fract_z
 _atom_site_occupancy
  Li  Li0  1  0.666649  0.666645  0.103466  1
  Li  Li1  1  0.986930  0.986914  0.011235  1
  Li  Li2  1  0.992839  0.992852  0.506192  1
  Li  Li3  1  0.329000  0.329004  0.597359  1
  Mg  Mg4  1  0.830980  0.830976  0.784806  1
  Fe  Fe5  1  0.661269  0.172301  0.286282  1
  Fe  Fe6  1  0.172301  0.661268  0.286282  1
  Sn  Sn7  1  0.671742  0.671758  0.508498  1
  Sn  Sn8  1  0.342500  0.342487  0.012195  1
  Sn  Sn9  1  0.339720  0.832011  0.785782  1
  Sn  Sn10  1  0.832015  0.339718  0.785781  1
  Sn  Sn11  1  0.170667  0.170673  0.285581  1
  O  O12  1  0.324457  0.835493  0.402751  1
  O  O13  1  0.514126  0.514124  0.655752  1
  O  O14  1  0.665944  0.665942  0.898484  1
  O  O15  1  0.000467  0.000465  0.689228  1
  O  O16  1  0.998612  0.998614  0.193234  1
  O  O17  1  0.835490  0.324465  0.402752  1
  O  O18  1  0.512866  0.965602  0.654586  1
  O  O19  1  0.965593  0.512876  0.654586  1
  O  O20  1  0.163715  0.163710  0.907011  1
  O  O21  1  0.837884  0.837888  0.398614  1
  O  O22  1  0.037245  0.487015  0.157328  1
  O  O23  1  0.487012  0.037243  0.157330  1
  O  O24  1  0.336056  0.336056  0.394893  1
  O  O25  1  0.165289  0.676544  0.904554  1
  O  O26  1  0.483964  0.483962  0.163392  1
  O  O27  1  0.676553  0.165279  0.904556  1
