# generated using pymatgen
data_Ti2Si2Os3Ru
_symmetry_space_group_name_H-M   'P 1'
_cell_length_a   4.27177100
_cell_length_b   6.03773410
_cell_length_c   12.77618921
_cell_angle_alpha   90.02060627
_cell_angle_beta   89.99994174
_cell_angle_gamma   90.00043287
_symmetry_Int_Tables_number   1
_chemical_formula_structural   Ti2Si2Os3Ru
_chemical_formula_sum   'Ti6 Si6 Os9 Ru3'
_cell_volume   329.52111807
_cell_formula_units_Z   3
loop_
 _symmetry_equiv_pos_site_id
 _symmetry_equiv_pos_as_xyz
  1  'x, y, z'
loop_
 _atom_site_type_symbol
 _atom_site_label
 _atom_site_symmetry_multiplicity
 _atom_site_fract_x
 _atom_site_fract_y
 _atom_site_fract_z
 _atom_site_occupancy
  Ti  Ti0  1  0.000002  0.500012  0.998088  1
  Ti  Ti1  1  0.499810  0.000026  0.166446  1
  Ti  Ti2  1  0.999812  0.499966  0.333432  1
  Ti  Ti3  1  0.500005  0.998976  0.501111  1
  Ti  Ti4  1  0.000196  0.501958  0.668337  1
  Ti  Ti5  1  0.500197  0.998979  0.832566  1
  Si  Si6  1  0.000004  0.000018  0.000095  1
  Si  Si7  1  0.499776  0.500073  0.166549  1
  Si  Si8  1  0.999773  0.000091  0.333389  1
  Si  Si9  1  0.500002  0.499964  0.500085  1
  Si  Si10  1  0.000230  0.000317  0.666369  1
  Si  Si11  1  0.500218  0.499581  0.833522  1
  Os  Os12  1  0.500000  0.250125  0.999261  1
  Os  Os13  1  0.499999  0.749721  0.999693  1
  Os  Os14  1  0.999850  0.249917  0.166205  1
  Os  Os15  1  0.999849  0.749737  0.166232  1
  Os  Os16  1  0.499845  0.250192  0.333799  1
  Os  Os17  1  0.499852  0.749788  0.333314  1
  Os  Os18  1  0.000004  0.250126  0.500536  1
  Os  Os19  1  0.000002  0.749915  0.500621  1
  Os  Os20  1  0.500162  0.251447  0.667012  1
  Ru  Ru21  1  0.500138  0.749156  0.667019  1
  Ru  Ru22  1  0.000137  0.248272  0.833177  1
  Ru  Ru23  1  0.000135  0.751646  0.833143  1
