# generated using pymatgen
data_Sm2Tm4CoI10
_symmetry_space_group_name_H-M   'P 1'
_cell_length_a   7.69342649
_cell_length_b   9.68129813
_cell_length_c   9.66392401
_cell_angle_alpha   106.86753014
_cell_angle_beta   96.39229287
_cell_angle_gamma   104.98543582
_symmetry_Int_Tables_number   1
_chemical_formula_structural   Sm2Tm4CoI10
_chemical_formula_sum   'Sm2 Tm4 Co1 I10'
_cell_volume   651.73760337
_cell_formula_units_Z   1
loop_
 _symmetry_equiv_pos_site_id
 _symmetry_equiv_pos_as_xyz
  1  'x, y, z'
loop_
 _atom_site_type_symbol
 _atom_site_label
 _atom_site_symmetry_multiplicity
 _atom_site_fract_x
 _atom_site_fract_y
 _atom_site_fract_z
 _atom_site_occupancy
  Sm  Sm0  1  0.887907  0.958376  0.229909  1
  Sm  Sm1  1  0.112093  0.041624  0.770091  1
  Tm  Tm2  1  0.029024  0.722202  0.916558  1
  Tm  Tm3  1  0.970976  0.277798  0.083442  1
  Tm  Tm4  1  0.662291  0.879236  0.839572  1
  Tm  Tm5  1  0.337709  0.120764  0.160428  1
  Co  Co6  1  0.000000  0.000000  0.000000  1
  I  I7  1  0.651016  0.552272  0.729604  1
  I  I8  1  0.348984  0.447728  0.270396  1
  I  I9  1  0.736068  0.911062  0.541512  1
  I  I10  1  0.263932  0.088938  0.458488  1
  I  I11  1  0.083921  0.377077  0.823534  1
  I  I12  1  0.916079  0.622923  0.176466  1
  I  I13  1  0.450495  0.816267  0.090543  1
  I  I14  1  0.549505  0.183733  0.909457  1
  I  I15  1  0.226104  0.740520  0.658218  1
  I  I16  1  0.773896  0.259480  0.341782  1
