# generated using pymatgen
data_Cs2Eu(WO4)3
_symmetry_space_group_name_H-M   'P 1'
_cell_length_a   7.81668851
_cell_length_b   7.81828184
_cell_length_c   7.82107633
_cell_angle_alpha   57.42478957
_cell_angle_beta   57.42973772
_cell_angle_gamma   57.36793049
_symmetry_Int_Tables_number   1
_chemical_formula_structural   Cs2Eu(WO4)3
_chemical_formula_sum   'Cs2 Eu1 W3 O12'
_cell_volume   317.81369446
_cell_formula_units_Z   1
loop_
 _symmetry_equiv_pos_site_id
 _symmetry_equiv_pos_as_xyz
  1  'x, y, z'
loop_
 _atom_site_type_symbol
 _atom_site_label
 _atom_site_symmetry_multiplicity
 _atom_site_fract_x
 _atom_site_fract_y
 _atom_site_fract_z
 _atom_site_occupancy
  Cs  Cs0  1  0.628615  0.628591  0.628676  1
  Cs  Cs1  1  0.371385  0.371409  0.371324  1
  Eu  Eu2  1  0.000000  0.000000  0.000000  1
  W  W3  1  0.500000  0.000000  0.000000  1
  W  W4  1  0.000000  0.000000  0.500000  1
  W  W5  1  0.000000  0.500000  0.000000  1
  O  O6  1  0.935437  0.302375  0.302446  1
  O  O7  1  0.350516  0.930000  0.930506  1
  O  O8  1  0.302400  0.302320  0.935412  1
  O  O9  1  0.930393  0.930110  0.350442  1
  O  O10  1  0.930047  0.350791  0.930263  1
  O  O11  1  0.302487  0.935620  0.302476  1
  O  O12  1  0.064563  0.697625  0.697554  1
  O  O13  1  0.649484  0.070000  0.069494  1
  O  O14  1  0.697600  0.697680  0.064588  1
  O  O15  1  0.069607  0.069890  0.649558  1
  O  O16  1  0.069953  0.649209  0.069737  1
  O  O17  1  0.697513  0.064380  0.697524  1
