# generated using pymatgen
data_Yb3DyRe3TcB16
_symmetry_space_group_name_H-M   'P 1'
_cell_length_a   3.57605700
_cell_length_b   5.98403414
_cell_length_c   11.57375204
_cell_angle_alpha   89.99260964
_cell_angle_beta   90.00000000
_cell_angle_gamma   90.00000000
_symmetry_Int_Tables_number   1
_chemical_formula_structural   Yb3DyRe3TcB16
_chemical_formula_sum   'Yb3 Dy1 Re3 Tc1 B16'
_cell_volume   247.66957845
_cell_formula_units_Z   1
loop_
 _symmetry_equiv_pos_site_id
 _symmetry_equiv_pos_as_xyz
  1  'x, y, z'
loop_
 _atom_site_type_symbol
 _atom_site_label
 _atom_site_symmetry_multiplicity
 _atom_site_fract_x
 _atom_site_fract_y
 _atom_site_fract_z
 _atom_site_occupancy
  Yb  Yb0  1  0.500000  0.628096  0.848675  1
  Yb  Yb1  1  0.500000  0.127857  0.649435  1
  Yb  Yb2  1  0.500000  0.873324  0.351412  1
  Dy  Dy3  1  0.500000  0.371896  0.151265  1
  Re  Re4  1  0.500000  0.630721  0.583506  1
  Re  Re5  1  0.500000  0.131367  0.916191  1
  Re  Re6  1  0.500000  0.870120  0.085011  1
  Tc  Tc7  1  0.500000  0.370904  0.416150  1
  B  B8  1  0.000000  0.112951  0.047380  1
  B  B9  1  0.000000  0.884625  0.952050  1
  B  B10  1  0.000000  0.384744  0.546887  1
  B  B11  1  0.000000  0.614068  0.452186  1
  B  B12  1  0.000000  0.134676  0.467613  1
  B  B13  1  0.000000  0.865160  0.531987  1
  B  B14  1  0.000000  0.364509  0.967768  1
  B  B15  1  0.000000  0.635447  0.031465  1
  B  B16  1  0.000000  0.024652  0.192956  1
  B  B17  1  0.000000  0.975654  0.807482  1
  B  B18  1  0.000000  0.475579  0.692180  1
  B  B19  1  0.000000  0.524680  0.307823  1
  B  B20  1  0.000000  0.215275  0.315645  1
  B  B21  1  0.000000  0.784118  0.684887  1
  B  B22  1  0.000000  0.283427  0.814428  1
  B  B23  1  0.000000  0.716146  0.185617  1
