# generated using pymatgen
data_Y7Ho3Si6N
_symmetry_space_group_name_H-M   'P 1'
_cell_length_a   8.42310900
_cell_length_b   8.42310793
_cell_length_c   6.34128900
_cell_angle_alpha   90.00000000
_cell_angle_beta   90.00000000
_cell_angle_gamma   119.99999243
_symmetry_Int_Tables_number   1
_chemical_formula_structural   Y7Ho3Si6N
_chemical_formula_sum   'Y7 Ho3 Si6 N1'
_cell_volume   389.63054622
_cell_formula_units_Z   1
loop_
 _symmetry_equiv_pos_site_id
 _symmetry_equiv_pos_as_xyz
  1  'x, y, z'
loop_
 _atom_site_type_symbol
 _atom_site_label
 _atom_site_symmetry_multiplicity
 _atom_site_fract_x
 _atom_site_fract_y
 _atom_site_fract_z
 _atom_site_occupancy
  Y  Y0  1  0.333333  0.666667  0.000000  1
  Y  Y1  1  0.999966  0.766701  0.266850  1
  Y  Y2  1  0.233299  0.233264  0.266850  1
  Y  Y3  1  0.766736  0.000034  0.266850  1
  Y  Y4  1  0.999966  0.233264  0.733150  1
  Y  Y5  1  0.766736  0.766701  0.733150  1
  Y  Y6  1  0.233299  0.000034  0.733150  1
  Ho  Ho7  1  0.333333  0.666667  0.500000  1
  Ho  Ho8  1  0.666667  0.333333  0.500000  1
  Ho  Ho9  1  0.666667  0.333333  0.000000  1
  Si  Si10  1  0.999699  0.399690  0.251929  1
  Si  Si11  1  0.600310  0.600009  0.251929  1
  Si  Si12  1  0.399991  0.000301  0.251929  1
  Si  Si13  1  0.999699  0.600009  0.748071  1
  Si  Si14  1  0.399991  0.399690  0.748071  1
  Si  Si15  1  0.600310  0.000301  0.748071  1
  N  N16  1  0.000000  0.000000  0.500000  1
