# generated using pymatgen
data_Ho2Zn(Ni2P)6
_symmetry_space_group_name_H-M   'P 1'
_cell_length_a   9.09429600
_cell_length_b   9.09429568
_cell_length_c   3.66090200
_cell_angle_alpha   90.00000000
_cell_angle_beta   90.00000000
_cell_angle_gamma   120.00000115
_symmetry_Int_Tables_number   1
_chemical_formula_structural   Ho2Zn(Ni2P)6
_chemical_formula_sum   'Ho2 Zn1 Ni12 P6'
_cell_volume   262.21460987
_cell_formula_units_Z   1
loop_
 _symmetry_equiv_pos_site_id
 _symmetry_equiv_pos_as_xyz
  1  'x, y, z'
loop_
 _atom_site_type_symbol
 _atom_site_label
 _atom_site_symmetry_multiplicity
 _atom_site_fract_x
 _atom_site_fract_y
 _atom_site_fract_z
 _atom_site_occupancy
  Ho  Ho0  1  0.666667  0.333333  0.500000  1
  Ho  Ho1  1  0.333333  0.666667  0.000000  1
  Zn  Zn2  1  0.000000  0.000000  0.500000  1
  Ni  Ni3  1  0.615350  0.564009  0.000000  1
  Ni  Ni4  1  0.834844  0.704333  0.500000  1
  Ni  Ni5  1  0.948659  0.384650  0.000000  1
  Ni  Ni6  1  0.295667  0.130512  0.500000  1
  Ni  Ni7  1  0.135612  0.243592  0.000000  1
  Ni  Ni8  1  0.107980  0.864388  0.000000  1
  Ni  Ni9  1  0.756408  0.892020  0.000000  1
  Ni  Ni10  1  0.377064  0.438500  0.500000  1
  Ni  Ni11  1  0.561500  0.938565  0.500000  1
  Ni  Ni12  1  0.061435  0.622936  0.500000  1
  Ni  Ni13  1  0.869488  0.165156  0.500000  1
  Ni  Ni14  1  0.435991  0.051341  0.000000  1
  P  P15  1  0.707121  0.111000  0.000000  1
  P  P16  1  0.114423  0.403982  0.500000  1
  P  P17  1  0.596018  0.710441  0.500000  1
  P  P18  1  0.289559  0.885577  0.500000  1
  P  P19  1  0.889000  0.596121  0.000000  1
  P  P20  1  0.403879  0.292879  0.000000  1
