# generated using pymatgen
data_Hf3Mn4Si2MoP2
_symmetry_space_group_name_H-M   'P 1'
_cell_length_a   3.58188600
_cell_length_b   6.38577872
_cell_length_c   7.46615285
_cell_angle_alpha   90.63472024
_cell_angle_beta   90.00000000
_cell_angle_gamma   90.00000000
_symmetry_Int_Tables_number   1
_chemical_formula_structural   Hf3Mn4Si2MoP2
_chemical_formula_sum   'Hf3 Mn4 Si2 Mo1 P2'
_cell_volume   170.76381651
_cell_formula_units_Z   1
loop_
 _symmetry_equiv_pos_site_id
 _symmetry_equiv_pos_as_xyz
  1  'x, y, z'
loop_
 _atom_site_type_symbol
 _atom_site_label
 _atom_site_symmetry_multiplicity
 _atom_site_fract_x
 _atom_site_fract_y
 _atom_site_fract_z
 _atom_site_occupancy
  Hf  Hf0  1  0.250000  0.467680  0.176448  1
  Hf  Hf1  1  0.750000  0.028018  0.674007  1
  Hf  Hf2  1  0.750000  0.533021  0.823437  1
  Mn  Mn3  1  0.250000  0.362024  0.563395  1
  Mn  Mn4  1  0.250000  0.866683  0.935862  1
  Mn  Mn5  1  0.750000  0.636459  0.440973  1
  Mn  Mn6  1  0.750000  0.142044  0.056257  1
  Si  Si7  1  0.750000  0.255990  0.370631  1
  Si  Si8  1  0.750000  0.778856  0.133546  1
  Mo  Mo9  1  0.250000  0.964821  0.331541  1
  P  P10  1  0.250000  0.731436  0.623363  1
  P  P11  1  0.250000  0.232967  0.870539  1
