# generated using pymatgen
data_Hf10ZnCuSn5Bi
_symmetry_space_group_name_H-M   'P 1'
_cell_length_a   8.65836436
_cell_length_b   8.63883550
_cell_length_c   5.83151225
_cell_angle_alpha   89.98333243
_cell_angle_beta   90.03325996
_cell_angle_gamma   120.07480793
_symmetry_Int_Tables_number   1
_chemical_formula_structural   Hf10ZnCuSn5Bi
_chemical_formula_sum   'Hf10 Zn1 Cu1 Sn5 Bi1'
_cell_volume   377.46348165
_cell_formula_units_Z   1
loop_
 _symmetry_equiv_pos_site_id
 _symmetry_equiv_pos_as_xyz
  1  'x, y, z'
loop_
 _atom_site_type_symbol
 _atom_site_label
 _atom_site_symmetry_multiplicity
 _atom_site_fract_x
 _atom_site_fract_y
 _atom_site_fract_z
 _atom_site_occupancy
  Hf  Hf0  1  0.330056  0.662918  0.998254  1
  Hf  Hf1  1  0.667083  0.337257  0.501886  1
  Hf  Hf2  1  0.667139  0.337082  0.998254  1
  Hf  Hf3  1  0.329825  0.662743  0.501886  1
  Hf  Hf4  1  0.261428  0.000000  0.254602  1
  Hf  Hf5  1  0.265666  0.267095  0.745542  1
  Hf  Hf6  1  0.998571  0.732905  0.745542  1
  Hf  Hf7  1  0.007395  0.268444  0.254273  1
  Hf  Hf8  1  0.738951  0.731556  0.254273  1
  Hf  Hf9  1  0.734023  0.000000  0.746354  1
  Zn  Zn10  1  0.999852  0.000000  0.997036  1
  Cu  Cu11  1  0.999754  0.000000  0.502727  1
  Sn  Sn12  1  0.613576  0.615664  0.751116  1
  Sn  Sn13  1  0.997912  0.384336  0.751116  1
  Sn  Sn14  1  0.001225  0.612658  0.248648  1
  Sn  Sn15  1  0.388566  0.387342  0.248648  1
  Sn  Sn16  1  0.384284  0.000000  0.751459  1
  Bi  Bi17  1  0.614692  0.000000  0.248384  1
