# generated using pymatgen
data_Tb4Sn3Sb3RuRh6
_symmetry_space_group_name_H-M   'P 1'
_cell_length_a   7.61803351
_cell_length_b   7.61573266
_cell_length_c   7.61573204
_cell_angle_alpha   109.46509273
_cell_angle_beta   109.47734995
_cell_angle_gamma   109.47734078
_symmetry_Int_Tables_number   1
_chemical_formula_structural   Tb4Sn3Sb3RuRh6
_chemical_formula_sum   'Tb4 Sn3 Sb3 Ru1 Rh6'
_cell_volume   340.10382288
_cell_formula_units_Z   1
loop_
 _symmetry_equiv_pos_site_id
 _symmetry_equiv_pos_as_xyz
  1  'x, y, z'
loop_
 _atom_site_type_symbol
 _atom_site_label
 _atom_site_symmetry_multiplicity
 _atom_site_fract_x
 _atom_site_fract_y
 _atom_site_fract_z
 _atom_site_occupancy
  Tb  Tb0  1  0.487156  0.000000  0.000000  1
  Tb  Tb1  1  0.997708  0.503089  0.000000  1
  Tb  Tb2  1  0.997708  0.000000  0.503089  1
  Tb  Tb3  1  0.494619  0.496911  0.496911  1
  Sn  Sn4  1  0.993287  0.306386  0.306386  1
  Sn  Sn5  1  0.686901  0.000000  0.693614  1
  Sn  Sn6  1  0.686901  0.693614  0.000000  1
  Sb  Sb7  1  0.994744  0.675055  0.675055  1
  Sb  Sb8  1  0.319689  0.000000  0.324945  1
  Sb  Sb9  1  0.319689  0.324945  0.000000  1
  Ru  Ru10  1  0.017470  0.000000  0.000000  1
  Rh  Rh11  1  0.503023  0.753447  0.253558  1
  Rh  Rh12  1  0.749576  0.500112  0.246553  1
  Rh  Rh13  1  0.249464  0.746442  0.499888  1
  Rh  Rh14  1  0.249464  0.499888  0.746442  1
  Rh  Rh15  1  0.503023  0.253558  0.753447  1
  Rh  Rh16  1  0.749576  0.246553  0.500112  1
