# generated using pymatgen
data_Ti4VSiGe2N
_symmetry_space_group_name_H-M   'P 1'
_cell_length_a   7.45404939
_cell_length_b   7.45404788
_cell_length_c   5.14756764
_cell_angle_alpha   90.02868187
_cell_angle_beta   90.02867624
_cell_angle_gamma   120.26645020
_symmetry_Int_Tables_number   1
_chemical_formula_structural   Ti4VSiGe2N
_chemical_formula_sum   'Ti8 V2 Si2 Ge4 N2'
_cell_volume   247.02709787
_cell_formula_units_Z   2
loop_
 _symmetry_equiv_pos_site_id
 _symmetry_equiv_pos_as_xyz
  1  'x, y, z'
loop_
 _atom_site_type_symbol
 _atom_site_label
 _atom_site_symmetry_multiplicity
 _atom_site_fract_x
 _atom_site_fract_y
 _atom_site_fract_z
 _atom_site_occupancy
  Ti  Ti0  1  0.228629  0.003619  0.750160  1
  Ti  Ti1  1  0.771371  0.996381  0.249840  1
  Ti  Ti2  1  0.003619  0.228629  0.750160  1
  Ti  Ti3  1  0.996381  0.771371  0.249840  1
  Ti  Ti4  1  0.768948  0.768948  0.749448  1
  Ti  Ti5  1  0.231052  0.231052  0.250552  1
  Ti  Ti6  1  0.336907  0.663093  0.500000  1
  Ti  Ti7  1  0.663093  0.336907  0.500000  1
  V  V8  1  0.663738  0.336262  0.000000  1
  V  V9  1  0.336262  0.663738  0.000000  1
  Si  Si10  1  0.411561  0.411561  0.765789  1
  Si  Si11  1  0.588439  0.588439  0.234211  1
  Ge  Ge12  1  0.592209  0.001614  0.758102  1
  Ge  Ge13  1  0.407791  0.998386  0.241898  1
  Ge  Ge14  1  0.001614  0.592209  0.758102  1
  Ge  Ge15  1  0.998386  0.407791  0.241898  1
  N  N16  1  0.000000  0.000000  0.500000  1
  N  N17  1  0.000000  0.000000  0.000000  1
