# generated using pymatgen
data_Er(AlB14)2
_symmetry_space_group_name_H-M   'P 1'
_cell_length_a   7.21019528
_cell_length_b   7.21019469
_cell_length_c   5.83360415
_cell_angle_alpha   66.39025861
_cell_angle_beta   66.39026165
_cell_angle_gamma   92.33833219
_symmetry_Int_Tables_number   1
_chemical_formula_structural   Er(AlB14)2
_chemical_formula_sum   'Er1 Al2 B28'
_cell_volume   247.20555954
_cell_formula_units_Z   1
loop_
 _symmetry_equiv_pos_site_id
 _symmetry_equiv_pos_as_xyz
  1  'x, y, z'
loop_
 _atom_site_type_symbol
 _atom_site_label
 _atom_site_symmetry_multiplicity
 _atom_site_fract_x
 _atom_site_fract_y
 _atom_site_fract_z
 _atom_site_occupancy
  Er  Er0  1  0.890360  0.890360  0.358216  1
  Al  Al1  1  0.497149  0.497149  0.506893  1
  Al  Al2  1  0.157934  0.157934  0.481690  1
  B  B3  1  0.417474  0.735472  0.172113  1
  B  B4  1  0.584907  0.258841  0.834145  1
  B  B5  1  0.258841  0.584907  0.834145  1
  B  B6  1  0.735472  0.417474  0.172113  1
  B  B7  1  0.695482  0.861323  0.972316  1
  B  B8  1  0.305484  0.134638  0.035998  1
  B  B9  1  0.134638  0.305484  0.035998  1
  B  B10  1  0.861323  0.695482  0.972316  1
  B  B11  1  0.534819  0.871579  0.299508  1
  B  B12  1  0.471205  0.123575  0.205204  1
  B  B13  1  0.123575  0.471205  0.205204  1
  B  B14  1  0.871579  0.534819  0.299508  1
  B  B15  1  0.462453  0.121853  0.712692  1
  B  B16  1  0.532500  0.870313  0.801377  1
  B  B17  1  0.870313  0.532500  0.801377  1
  B  B18  1  0.121853  0.462453  0.712692  1
  B  B19  1  0.724042  0.100056  0.000147  1
  B  B20  1  0.279524  0.892839  0.326267  1
  B  B21  1  0.892839  0.279524  0.326267  1
  B  B22  1  0.100056  0.724042  0.000147  1
  B  B23  1  0.276403  0.895675  0.009674  1
  B  B24  1  0.721215  0.101080  0.685083  1
  B  B25  1  0.101080  0.721215  0.685083  1
  B  B26  1  0.895675  0.276403  0.009674  1
  B  B27  1  0.269672  0.471775  0.382152  1
  B  B28  1  0.717199  0.523157  0.639925  1
  B  B29  1  0.523157  0.717199  0.639925  1
  B  B30  1  0.471775  0.269672  0.382152  1
