# generated using pymatgen
data_TbDy5(Lu2Pb3)2
_symmetry_space_group_name_H-M   'P 1'
_cell_length_a   6.53296800
_cell_length_b   9.01298525
_cell_length_c   9.01029741
_cell_angle_alpha   119.98884634
_cell_angle_beta   89.99931543
_cell_angle_gamma   90.00112708
_symmetry_Int_Tables_number   1
_chemical_formula_structural   TbDy5(Lu2Pb3)2
_chemical_formula_sum   'Tb1 Dy5 Lu4 Pb6'
_cell_volume   459.51294388
_cell_formula_units_Z   1
loop_
 _symmetry_equiv_pos_site_id
 _symmetry_equiv_pos_as_xyz
  1  'x, y, z'
loop_
 _atom_site_type_symbol
 _atom_site_label
 _atom_site_symmetry_multiplicity
 _atom_site_fract_x
 _atom_site_fract_y
 _atom_site_fract_z
 _atom_site_occupancy
  Tb  Tb0  1  0.250003  0.999934  0.762368  1
  Dy  Dy1  1  0.750010  0.237670  0.000043  1
  Dy  Dy2  1  0.750009  0.762282  0.762206  1
  Dy  Dy3  1  0.749997  0.000083  0.237975  1
  Dy  Dy4  1  0.250007  0.762269  0.000014  1
  Dy  Dy5  1  0.250009  0.237798  0.237905  1
  Lu  Lu6  1  0.499985  0.333364  0.666740  1
  Lu  Lu7  1  0.499980  0.666583  0.333135  1
  Lu  Lu8  1  0.000013  0.666585  0.333111  1
  Lu  Lu9  1  0.000023  0.333403  0.666752  1
  Pb  Pb10  1  0.749983  0.603586  0.999941  1
  Pb  Pb11  1  0.750001  0.396532  0.396482  1
  Pb  Pb12  1  0.749999  0.000027  0.603548  1
  Pb  Pb13  1  0.249977  0.396601  0.000143  1
  Pb  Pb14  1  0.250004  0.603318  0.603468  1
  Pb  Pb15  1  0.249997  0.999965  0.396167  1
