# generated using pymatgen
data_PrHo3Al18Pd5W
_symmetry_space_group_name_H-M   'P 1'
_cell_length_a   7.64475766
_cell_length_b   7.65756079
_cell_length_c   9.56530208
_cell_angle_alpha   89.68000978
_cell_angle_beta   89.60437169
_cell_angle_gamma   118.80292283
_symmetry_Int_Tables_number   1
_chemical_formula_structural   PrHo3Al18Pd5W
_chemical_formula_sum   'Pr1 Ho3 Al18 Pd5 W1'
_cell_volume   490.64117702
_cell_formula_units_Z   1
loop_
 _symmetry_equiv_pos_site_id
 _symmetry_equiv_pos_as_xyz
  1  'x, y, z'
loop_
 _atom_site_type_symbol
 _atom_site_label
 _atom_site_symmetry_multiplicity
 _atom_site_fract_x
 _atom_site_fract_y
 _atom_site_fract_z
 _atom_site_occupancy
  Pr  Pr0  1  0.995271  0.677903  0.248094  1
  Ho  Ho1  1  0.004296  0.318088  0.753858  1
  Ho  Ho2  1  0.680426  0.995560  0.246377  1
  Ho  Ho3  1  0.319083  0.005879  0.753113  1
  Al  Al4  1  0.137189  0.138991  0.248405  1
  Al  Al5  1  0.862183  0.863661  0.750335  1
  Al  Al6  1  0.003301  0.334055  0.073823  1
  Al  Al7  1  0.997324  0.663907  0.919093  1
  Al  Al8  1  0.998545  0.659021  0.582511  1
  Al  Al9  1  0.341575  0.003695  0.424101  1
  Al  Al10  1  0.001835  0.336543  0.424645  1
  Al  Al11  1  0.660036  0.999165  0.579454  1
  Al  Al12  1  0.663575  0.997888  0.922485  1
  Al  Al13  1  0.338576  0.005901  0.073628  1
  Al  Al14  1  0.332900  0.333084  0.555755  1
  Al  Al15  1  0.665296  0.667136  0.451313  1
  Al  Al16  1  0.665836  0.667934  0.046179  1
  Al  Al17  1  0.333101  0.333394  0.946970  1
  Al  Al18  1  0.347200  0.552019  0.250337  1
  Al  Al19  1  0.655245  0.446704  0.749817  1
  Al  Al20  1  0.549533  0.340467  0.250348  1
  Al  Al21  1  0.446333  0.657095  0.749664  1
  Pd  Pd22  1  0.672665  0.327948  0.999037  1
  Pd  Pd23  1  0.327670  0.672518  0.999087  1
  Pd  Pd24  1  0.328092  0.672130  0.500943  1
  Pd  Pd25  1  0.671711  0.327295  0.501138  1
  Pd  Pd26  1  0.000379  0.000892  0.501527  1
  W  W27  1  0.000824  0.001131  0.997961  1
