# generated using pymatgen
data_Sc8Al14SnRh7
_symmetry_space_group_name_H-M   'P 1'
_cell_length_a   8.92848525
_cell_length_b   8.92848517
_cell_length_c   8.92848416
_cell_angle_alpha   120.11217479
_cell_angle_beta   119.94844930
_cell_angle_gamma   89.94756942
_symmetry_Int_Tables_number   1
_chemical_formula_structural   Sc8Al14SnRh7
_chemical_formula_sum   'Sc8 Al14 Sn1 Rh7'
_cell_volume   503.05787527
_cell_formula_units_Z   1
loop_
 _symmetry_equiv_pos_site_id
 _symmetry_equiv_pos_as_xyz
  1  'x, y, z'
loop_
 _atom_site_type_symbol
 _atom_site_label
 _atom_site_symmetry_multiplicity
 _atom_site_fract_x
 _atom_site_fract_y
 _atom_site_fract_z
 _atom_site_occupancy
  Sc  Sc0  1  0.788530  0.280549  0.057877  1
  Sc  Sc1  1  0.222672  0.280549  0.492019  1
  Sc  Sc2  1  0.211801  0.711801  0.500000  1
  Sc  Sc3  1  0.222672  0.730653  0.942123  1
  Sc  Sc4  1  0.788530  0.730653  0.507981  1
  Sc  Sc5  1  0.768902  0.268902  0.500000  1
  Sc  Sc6  1  0.379593  0.120939  0.741346  1
  Sc  Sc7  1  0.379593  0.638246  0.258654  1
  Al  Al8  1  0.161455  0.335521  0.174065  1
  Al  Al9  1  0.161455  0.987389  0.825935  1
  Al  Al10  1  0.154697  0.341637  0.813060  1
  Al  Al11  1  0.528578  0.341637  0.186940  1
  Al  Al12  1  0.838366  0.658808  0.820441  1
  Al  Al13  1  0.838366  0.017925  0.179559  1
  Al  Al14  1  0.835822  0.661446  0.174377  1
  Al  Al15  1  0.487069  0.661446  0.825623  1
  Al  Al16  1  0.378799  0.123809  0.254991  1
  Al  Al17  1  0.868819  0.123809  0.745009  1
  Al  Al18  1  0.621481  0.872958  0.251478  1
  Al  Al19  1  0.621481  0.370002  0.748522  1
  Al  Al20  1  0.621135  0.876393  0.744741  1
  Al  Al21  1  0.131652  0.876393  0.255259  1
  Sn  Sn22  1  0.989858  0.489858  0.500000  1
  Rh  Rh23  1  0.995284  0.998774  0.498886  1
  Rh  Rh24  1  0.499888  0.998774  0.003490  1
  Rh  Rh25  1  0.500505  0.500505  0.000000  1
  Rh  Rh26  1  0.499888  0.496399  0.501114  1
  Rh  Rh27  1  0.995284  0.496399  0.996510  1
  Rh  Rh28  1  0.000197  0.000197  0.000000  1
  Rh  Rh29  1  0.507627  0.007627  0.500000  1
