# generated using pymatgen
data_Rb8SnBi4Pb3
_symmetry_space_group_name_H-M   'P 1'
_cell_length_a   6.83771882
_cell_length_b   7.22088700
_cell_length_c   14.31447338
_cell_angle_alpha   90.00000000
_cell_angle_beta   90.54297592
_cell_angle_gamma   90.00000000
_symmetry_Int_Tables_number   1
_chemical_formula_structural   Rb8SnBi4Pb3
_chemical_formula_sum   'Rb8 Sn1 Bi4 Pb3'
_cell_volume   706.73672582
_cell_formula_units_Z   1
loop_
 _symmetry_equiv_pos_site_id
 _symmetry_equiv_pos_as_xyz
  1  'x, y, z'
loop_
 _atom_site_type_symbol
 _atom_site_label
 _atom_site_symmetry_multiplicity
 _atom_site_fract_x
 _atom_site_fract_y
 _atom_site_fract_z
 _atom_site_occupancy
  Rb  Rb0  1  0.746913  0.392012  0.666017  1
  Rb  Rb1  1  0.250739  0.603854  0.335344  1
  Rb  Rb2  1  0.749261  0.603854  0.164656  1
  Rb  Rb3  1  0.252583  0.161712  0.510513  1
  Rb  Rb4  1  0.250208  0.840143  0.007216  1
  Rb  Rb5  1  0.749792  0.840143  0.492784  1
  Rb  Rb6  1  0.747417  0.161712  0.989487  1
  Rb  Rb7  1  0.253087  0.392012  0.833983  1
  Sn  Sn8  1  0.500000  0.897864  0.750000  1
  Bi  Bi9  1  0.248048  0.337164  0.107876  1
  Bi  Bi10  1  0.256898  0.666464  0.610042  1
  Bi  Bi11  1  0.743102  0.666464  0.889958  1
  Bi  Bi12  1  0.751952  0.337164  0.392124  1
  Pb  Pb13  1  0.500000  0.099006  0.250000  1
  Pb  Pb14  1  0.000000  0.100247  0.250000  1
  Pb  Pb15  1  0.000000  0.900186  0.750000  1
