# generated using pymatgen
data_TbY7AlCdPd2
_symmetry_space_group_name_H-M   'P 1'
_cell_length_a   9.69646668
_cell_length_b   9.69646743
_cell_length_c   9.72397100
_cell_angle_alpha   59.90612304
_cell_angle_beta   59.90612048
_cell_angle_gamma   59.88526840
_symmetry_Int_Tables_number   1
_chemical_formula_structural   TbY7AlCdPd2
_chemical_formula_sum   'Tb2 Y14 Al2 Cd2 Pd4'
_cell_volume   645.00203453
_cell_formula_units_Z   2
loop_
 _symmetry_equiv_pos_site_id
 _symmetry_equiv_pos_as_xyz
  1  'x, y, z'
loop_
 _atom_site_type_symbol
 _atom_site_label
 _atom_site_symmetry_multiplicity
 _atom_site_fract_x
 _atom_site_fract_y
 _atom_site_fract_z
 _atom_site_occupancy
  Tb  Tb0  1  0.354682  0.354682  0.352261  1
  Tb  Tb1  1  0.354682  0.354682  0.938377  1
  Y  Y2  1  0.358410  0.931201  0.355195  1
  Y  Y3  1  0.931201  0.358410  0.355195  1
  Y  Y4  1  0.808672  0.192850  0.189944  1
  Y  Y5  1  0.192850  0.808672  0.808536  1
  Y  Y6  1  0.192850  0.808672  0.189944  1
  Y  Y7  1  0.808672  0.192850  0.808536  1
  Y  Y8  1  0.189184  0.189184  0.810816  1
  Y  Y9  1  0.806495  0.806495  0.193505  1
  Y  Y10  1  0.932819  0.565434  0.565550  1
  Y  Y11  1  0.565434  0.932819  0.936197  1
  Y  Y12  1  0.565434  0.932819  0.565550  1
  Y  Y13  1  0.932819  0.565434  0.936197  1
  Y  Y14  1  0.565996  0.565996  0.934004  1
  Y  Y15  1  0.936133  0.936133  0.563867  1
  Al  Al16  1  0.582164  0.582164  0.578705  1
  Al  Al17  1  0.582164  0.582164  0.256967  1
  Cd  Cd18  1  0.581725  0.257867  0.580205  1
  Cd  Cd19  1  0.257867  0.581725  0.580205  1
  Pd  Pd20  1  0.144849  0.144849  0.145900  1
  Pd  Pd21  1  0.144849  0.144849  0.564402  1
  Pd  Pd22  1  0.143969  0.566084  0.144973  1
  Pd  Pd23  1  0.566084  0.143969  0.144973  1
