# generated using pymatgen
data_YbTa3Pd9Pt2Rh
_symmetry_space_group_name_H-M   'P 1'
_cell_length_a   5.66292003
_cell_length_b   5.64063783
_cell_length_c   9.13612400
_cell_angle_alpha   90.00000000
_cell_angle_beta   90.00000000
_cell_angle_gamma   119.86992471
_symmetry_Int_Tables_number   1
_chemical_formula_structural   YbTa3Pd9Pt2Rh
_chemical_formula_sum   'Yb1 Ta3 Pd9 Pt2 Rh1'
_cell_volume   253.06320950
_cell_formula_units_Z   1
loop_
 _symmetry_equiv_pos_site_id
 _symmetry_equiv_pos_as_xyz
  1  'x, y, z'
loop_
 _atom_site_type_symbol
 _atom_site_label
 _atom_site_symmetry_multiplicity
 _atom_site_fract_x
 _atom_site_fract_y
 _atom_site_fract_z
 _atom_site_occupancy
  Yb  Yb0  1  0.332992  0.666496  0.000000  1
  Ta  Ta1  1  0.669654  0.334827  0.500000  1
  Ta  Ta2  1  0.995257  0.997628  0.748207  1
  Ta  Ta3  1  0.995257  0.997628  0.251793  1
  Pd  Pd4  1  0.831405  0.166966  0.000000  1
  Pd  Pd5  1  0.831405  0.664439  0.000000  1
  Pd  Pd6  1  0.333342  0.166671  0.000000  1
  Pd  Pd7  1  0.993850  0.496924  0.744815  1
  Pd  Pd8  1  0.504077  0.497858  0.744050  1
  Pd  Pd9  1  0.504077  0.006219  0.744050  1
  Pd  Pd10  1  0.993850  0.496924  0.255185  1
  Pd  Pd11  1  0.504077  0.497858  0.255950  1
  Pd  Pd12  1  0.504077  0.006219  0.255950  1
  Pt  Pt13  1  0.168910  0.834717  0.500000  1
  Pt  Pt14  1  0.168910  0.334193  0.500000  1
  Rh  Rh15  1  0.668865  0.834432  0.500000  1
