# generated using pymatgen
data_Li3ScU2O8
_symmetry_space_group_name_H-M   'P 1'
_cell_length_a   5.15616400
_cell_length_b   6.17853950
_cell_length_c   10.87623202
_cell_angle_alpha   87.92051490
_cell_angle_beta   90.00000000
_cell_angle_gamma   90.00000000
_symmetry_Int_Tables_number   1
_chemical_formula_structural   Li3ScU2O8
_chemical_formula_sum   'Li6 Sc2 U4 O16'
_cell_volume   346.26206540
_cell_formula_units_Z   2
loop_
 _symmetry_equiv_pos_site_id
 _symmetry_equiv_pos_as_xyz
  1  'x, y, z'
loop_
 _atom_site_type_symbol
 _atom_site_label
 _atom_site_symmetry_multiplicity
 _atom_site_fract_x
 _atom_site_fract_y
 _atom_site_fract_z
 _atom_site_occupancy
  Li  Li0  1  0.544557  0.739516  0.922481  1
  Li  Li1  1  0.044557  0.260484  0.577519  1
  Li  Li2  1  0.455443  0.260484  0.077519  1
  Li  Li3  1  0.955443  0.739516  0.422481  1
  Li  Li4  1  0.500000  0.500000  0.500000  1
  Li  Li5  1  0.000000  0.500000  0.000000  1
  Sc  Sc6  1  0.500000  0.000000  0.500000  1
  Sc  Sc7  1  0.000000  0.000000  0.000000  1
  U  U8  1  0.986911  0.745624  0.733782  1
  U  U9  1  0.486911  0.254376  0.766218  1
  U  U10  1  0.013089  0.254376  0.266218  1
  U  U11  1  0.513089  0.745624  0.233782  1
  O  O12  1  0.179386  0.752088  0.903148  1
  O  O13  1  0.239131  0.237277  0.423376  1
  O  O14  1  0.260869  0.237277  0.923376  1
  O  O15  1  0.739131  0.762723  0.076624  1
  O  O16  1  0.247870  0.010287  0.160276  1
  O  O17  1  0.747870  0.989713  0.339724  1
  O  O18  1  0.729253  0.515203  0.832016  1
  O  O19  1  0.229253  0.484797  0.667984  1
  O  O20  1  0.752130  0.989713  0.839724  1
  O  O21  1  0.252130  0.010287  0.660276  1
  O  O22  1  0.270747  0.484797  0.167984  1
  O  O23  1  0.770747  0.515203  0.332016  1
  O  O24  1  0.820614  0.247912  0.096852  1
  O  O25  1  0.320614  0.752088  0.403148  1
  O  O26  1  0.760869  0.762723  0.576624  1
  O  O27  1  0.679386  0.247912  0.596852  1
