# generated using pymatgen
data_Dy4BeCo12SiB6
_symmetry_space_group_name_H-M   'P 1'
_cell_length_a   5.06480000
_cell_length_b   5.06479960
_cell_length_c   12.36209200
_cell_angle_alpha   90.00000000
_cell_angle_beta   90.00000000
_cell_angle_gamma   120.00000263
_symmetry_Int_Tables_number   1
_chemical_formula_structural   Dy4BeCo12SiB6
_chemical_formula_sum   'Dy4 Be1 Co12 Si1 B6'
_cell_volume   274.62948216
_cell_formula_units_Z   1
loop_
 _symmetry_equiv_pos_site_id
 _symmetry_equiv_pos_as_xyz
  1  'x, y, z'
loop_
 _atom_site_type_symbol
 _atom_site_label
 _atom_site_symmetry_multiplicity
 _atom_site_fract_x
 _atom_site_fract_y
 _atom_site_fract_z
 _atom_site_occupancy
  Dy  Dy0  1  0.000000  0.000000  0.255786  1
  Dy  Dy1  1  0.000000  0.000000  0.500000  1
  Dy  Dy2  1  0.000000  0.000000  0.000000  1
  Dy  Dy3  1  0.000000  0.000000  0.744214  1
  Be  Be4  1  0.666667  0.333333  0.000000  1
  Co  Co5  1  0.499872  0.999744  0.619383  1
  Co  Co6  1  0.500981  0.001963  0.853280  1
  Co  Co7  1  0.500981  0.499019  0.853280  1
  Co  Co8  1  0.499872  0.500128  0.380617  1
  Co  Co9  1  0.000256  0.500128  0.619383  1
  Co  Co10  1  0.998037  0.499019  0.146720  1
  Co  Co11  1  0.998037  0.499019  0.853280  1
  Co  Co12  1  0.500981  0.499019  0.146720  1
  Co  Co13  1  0.499872  0.999744  0.380617  1
  Co  Co14  1  0.500981  0.001963  0.146720  1
  Co  Co15  1  0.499872  0.500128  0.619383  1
  Co  Co16  1  0.000256  0.500128  0.380617  1
  Si  Si17  1  0.333333  0.666667  0.000000  1
  B  B18  1  0.666667  0.333333  0.738683  1
  B  B19  1  0.333333  0.666667  0.739104  1
  B  B20  1  0.333333  0.666667  0.260896  1
  B  B21  1  0.666667  0.333333  0.500000  1
  B  B22  1  0.666667  0.333333  0.261317  1
  B  B23  1  0.333333  0.666667  0.500000  1
