# generated using pymatgen
data_Ba6MgPd4O15
_symmetry_space_group_name_H-M   'P 1'
_cell_length_a   7.47183020
_cell_length_b   7.47186626
_cell_length_c   7.47181686
_cell_angle_alpha   86.05513435
_cell_angle_beta   86.05505747
_cell_angle_gamma   86.05504011
_symmetry_Int_Tables_number   1
_chemical_formula_structural   Ba6MgPd4O15
_chemical_formula_sum   'Ba6 Mg1 Pd4 O15'
_cell_volume   414.30509305
_cell_formula_units_Z   1
loop_
 _symmetry_equiv_pos_site_id
 _symmetry_equiv_pos_as_xyz
  1  'x, y, z'
loop_
 _atom_site_type_symbol
 _atom_site_label
 _atom_site_symmetry_multiplicity
 _atom_site_fract_x
 _atom_site_fract_y
 _atom_site_fract_z
 _atom_site_occupancy
  Ba  Ba0  1  0.337254  0.662746  0.000003  1
  Ba  Ba1  1  0.000007  0.337253  0.662746  1
  Ba  Ba2  1  0.662744  0.000005  0.337254  1
  Ba  Ba3  1  0.147899  0.852074  0.500001  1
  Ba  Ba4  1  0.500004  0.147906  0.852079  1
  Ba  Ba5  1  0.852072  0.500000  0.147896  1
  Mg  Mg6  1  0.499940  0.499938  0.499939  1
  Pd  Pd7  1  0.297191  0.297197  0.297209  1
  Pd  Pd8  1  0.702869  0.702873  0.702874  1
  Pd  Pd9  1  0.097767  0.097766  0.097767  1
  Pd  Pd10  1  0.902266  0.902264  0.902264  1
  O  O11  1  0.151151  0.999979  0.848807  1
  O  O12  1  0.848805  0.151152  0.999980  1
  O  O13  1  0.999979  0.848806  0.151153  1
  O  O14  1  0.034156  0.200495  0.342054  1
  O  O15  1  0.342049  0.034155  0.200496  1
  O  O16  1  0.200492  0.342050  0.034156  1
  O  O17  1  0.799495  0.965862  0.657920  1
  O  O18  1  0.657920  0.799498  0.965859  1
  O  O19  1  0.965862  0.657923  0.799495  1
  O  O20  1  0.376127  0.243075  0.546019  1
  O  O21  1  0.546018  0.376119  0.243067  1
  O  O22  1  0.243076  0.546017  0.376122  1
  O  O23  1  0.756945  0.623904  0.453996  1
  O  O24  1  0.454002  0.756940  0.623902  1
  O  O25  1  0.623911  0.454001  0.756944  1
