# generated using pymatgen
data_Dy6Tm6CoTcNi3Sn
_symmetry_space_group_name_H-M   'P 1'
_cell_length_a   8.23589315
_cell_length_b   8.23589533
_cell_length_c   8.24448405
_cell_angle_alpha   111.59950266
_cell_angle_beta   109.53997675
_cell_angle_gamma   107.25867888
_symmetry_Int_Tables_number   1
_chemical_formula_structural   Dy6Tm6CoTcNi3Sn
_chemical_formula_sum   'Dy6 Tm6 Co1 Tc1 Ni3 Sn1'
_cell_volume   430.10896623
_cell_formula_units_Z   1
loop_
 _symmetry_equiv_pos_site_id
 _symmetry_equiv_pos_as_xyz
  1  'x, y, z'
loop_
 _atom_site_type_symbol
 _atom_site_label
 _atom_site_symmetry_multiplicity
 _atom_site_fract_x
 _atom_site_fract_y
 _atom_site_fract_z
 _atom_site_occupancy
  Dy  Dy0  1  0.414036  0.220697  0.191912  1
  Dy  Dy1  1  0.584551  0.777786  0.808294  1
  Dy  Dy2  1  0.028784  0.222123  0.808088  1
  Dy  Dy3  1  0.969492  0.776256  0.191706  1
  Dy  Dy4  1  0.178180  0.282541  0.464232  1
  Dy  Dy5  1  0.818309  0.713948  0.535768  1
  Tm  Tm6  1  0.179259  0.715342  0.897707  1
  Tm  Tm7  1  0.817634  0.281552  0.102293  1
  Tm  Tm8  1  0.320896  0.627097  0.305018  1
  Tm  Tm9  1  0.683835  0.374841  0.692264  1
  Tm  Tm10  1  0.322078  0.015879  0.694982  1
  Tm  Tm11  1  0.682578  0.991571  0.307736  1
  Co  Co12  1  0.885406  0.385406  0.500000  1
  Tc  Tc13  1  0.998037  0.998037  0.000000  1
  Ni  Ni14  1  0.360885  0.997692  0.361486  1
  Ni  Ni15  1  0.636205  0.999398  0.638514  1
  Ni  Ni16  1  0.120143  0.620143  0.500000  1
  Sn  Sn17  1  0.499689  0.499689  0.000000  1
