# generated using pymatgen
data_Zr6GaSiSb
_symmetry_space_group_name_H-M   'P 1'
_cell_length_a   7.58821500
_cell_length_b   7.58821392
_cell_length_c   3.83482000
_cell_angle_alpha   90.00000000
_cell_angle_beta   90.00000000
_cell_angle_gamma   120.00000035
_symmetry_Int_Tables_number   1
_chemical_formula_structural   Zr6GaSiSb
_chemical_formula_sum   'Zr6 Ga1 Si1 Sb1'
_cell_volume   191.22946362
_cell_formula_units_Z   1
loop_
 _symmetry_equiv_pos_site_id
 _symmetry_equiv_pos_as_xyz
  1  'x, y, z'
loop_
 _atom_site_type_symbol
 _atom_site_label
 _atom_site_symmetry_multiplicity
 _atom_site_fract_x
 _atom_site_fract_y
 _atom_site_fract_z
 _atom_site_occupancy
  Zr  Zr0  1  0.244694  0.990517  0.500000  1
  Zr  Zr1  1  0.009483  0.254177  0.500000  1
  Zr  Zr2  1  0.745823  0.755306  0.500000  1
  Zr  Zr3  1  0.600715  0.994064  0.000000  1
  Zr  Zr4  1  0.005936  0.606651  0.000000  1
  Zr  Zr5  1  0.393349  0.399285  0.000000  1
  Ga  Ga6  1  0.333333  0.666667  0.500000  1
  Si  Si7  1  0.000000  0.000000  0.000000  1
  Sb  Sb8  1  0.666667  0.333333  0.500000  1
