# generated using pymatgen
data_Yb2DyY(SiPt2)4
_symmetry_space_group_name_H-M   'P 1'
_cell_length_a   5.52649006
_cell_length_b   6.95980200
_cell_length_c   7.33463202
_cell_angle_alpha   90.00000000
_cell_angle_beta   89.99497857
_cell_angle_gamma   90.00000000
_symmetry_Int_Tables_number   1
_chemical_formula_structural   Yb2DyY(SiPt2)4
_chemical_formula_sum   'Yb2 Dy1 Y1 Si4 Pt8'
_cell_volume   282.11397890
_cell_formula_units_Z   1
loop_
 _symmetry_equiv_pos_site_id
 _symmetry_equiv_pos_as_xyz
  1  'x, y, z'
loop_
 _atom_site_type_symbol
 _atom_site_label
 _atom_site_symmetry_multiplicity
 _atom_site_fract_x
 _atom_site_fract_y
 _atom_site_fract_z
 _atom_site_occupancy
  Yb  Yb0  1  0.135456  0.750000  0.523217  1
  Yb  Yb1  1  0.635521  0.250000  0.976747  1
  Dy  Dy2  1  0.364946  0.750000  0.025853  1
  Y  Y3  1  0.866176  0.250000  0.474178  1
  Si  Si4  1  0.634352  0.750000  0.379320  1
  Si  Si5  1  0.866025  0.750000  0.876714  1
  Si  Si6  1  0.366832  0.250000  0.623336  1
  Si  Si7  1  0.134117  0.250000  0.120462  1
  Pt  Pt8  1  0.905489  0.551479  0.179371  1
  Pt  Pt9  1  0.593320  0.948126  0.676214  1
  Pt  Pt10  1  0.094308  0.051461  0.824354  1
  Pt  Pt11  1  0.405171  0.448824  0.320149  1
  Pt  Pt12  1  0.094308  0.448539  0.824354  1
  Pt  Pt13  1  0.405171  0.051176  0.320149  1
  Pt  Pt14  1  0.905489  0.948521  0.179371  1
  Pt  Pt15  1  0.593320  0.551874  0.676214  1
