# generated using pymatgen
data_Nd3Ho(Si5Pt3)2
_symmetry_space_group_name_H-M   'P 1'
_cell_length_a   8.23331336
_cell_length_b   8.22613798
_cell_length_c   8.22613774
_cell_angle_alpha   136.39633397
_cell_angle_beta   105.26446263
_cell_angle_gamma   90.70802883
_symmetry_Int_Tables_number   1
_chemical_formula_structural   Nd3Ho(Si5Pt3)2
_chemical_formula_sum   'Nd3 Ho1 Si10 Pt6'
_cell_volume   353.01108887
_cell_formula_units_Z   1
loop_
 _symmetry_equiv_pos_site_id
 _symmetry_equiv_pos_as_xyz
  1  'x, y, z'
loop_
 _atom_site_type_symbol
 _atom_site_label
 _atom_site_symmetry_multiplicity
 _atom_site_fract_x
 _atom_site_fract_y
 _atom_site_fract_z
 _atom_site_occupancy
  Nd  Nd0  1  0.639123  0.370665  0.268457  1
  Nd  Nd1  1  0.360686  0.629289  0.731397  1
  Nd  Nd2  1  0.101924  0.870608  0.231316  1
  Ho  Ho3  1  0.899460  0.129512  0.769947  1
  Si  Si4  1  0.270576  0.520899  0.248814  1
  Si  Si5  1  0.728392  0.477674  0.750077  1
  Si  Si6  1  0.728392  0.978316  0.250718  1
  Si  Si7  1  0.270576  0.021761  0.749677  1
  Si  Si8  1  0.461958  0.112541  0.349417  1
  Si  Si9  1  0.540370  0.889365  0.651006  1
  Si  Si10  1  0.762996  0.612561  0.150435  1
  Si  Si11  1  0.235950  0.386219  0.849731  1
  Si  Si12  1  0.999768  0.250313  0.249304  1
  Si  Si13  1  0.999768  0.750464  0.749456  1
  Pt  Pt14  1  0.245762  0.136585  0.109177  1
  Pt  Pt15  1  0.754394  0.864578  0.889816  1
  Pt  Pt16  1  0.025539  0.636674  0.388865  1
  Pt  Pt17  1  0.972333  0.361372  0.610960  1
  Pt  Pt18  1  0.501017  0.249837  0.750249  1
  Pt  Pt19  1  0.501017  0.750768  0.251180  1
