# generated using pymatgen
data_Sc18VRe7Se2
_symmetry_space_group_name_H-M   'P 1'
_cell_length_a   8.54564134
_cell_length_b   8.70374682
_cell_length_c   8.70216636
_cell_angle_alpha   119.99171480
_cell_angle_beta   90.02980334
_cell_angle_gamma   89.97374556
_symmetry_Int_Tables_number   1
_chemical_formula_structural   Sc18VRe7Se2
_chemical_formula_sum   'Sc18 V1 Re7 Se2'
_cell_volume   560.58968998
_cell_formula_units_Z   1
loop_
 _symmetry_equiv_pos_site_id
 _symmetry_equiv_pos_as_xyz
  1  'x, y, z'
loop_
 _atom_site_type_symbol
 _atom_site_label
 _atom_site_symmetry_multiplicity
 _atom_site_fract_x
 _atom_site_fract_y
 _atom_site_fract_z
 _atom_site_occupancy
  Sc  Sc0  1  0.546420  0.805594  0.611249  1
  Sc  Sc1  1  0.546394  0.805662  0.194336  1
  Sc  Sc2  1  0.546411  0.388760  0.194406  1
  Sc  Sc3  1  0.453580  0.194406  0.388751  1
  Sc  Sc4  1  0.453606  0.194338  0.805664  1
  Sc  Sc5  1  0.453589  0.611240  0.805594  1
  Sc  Sc6  1  0.045955  0.194278  0.388511  1
  Sc  Sc7  1  0.045950  0.194262  0.805738  1
  Sc  Sc8  1  0.045956  0.611471  0.805715  1
  Sc  Sc9  1  0.954045  0.805722  0.611489  1
  Sc  Sc10  1  0.954050  0.805738  0.194262  1
  Sc  Sc11  1  0.954044  0.388529  0.194285  1
  Sc  Sc12  1  0.749843  0.458422  0.916778  1
  Sc  Sc13  1  0.749815  0.458400  0.541598  1
  Sc  Sc14  1  0.749857  0.083245  0.541591  1
  Sc  Sc15  1  0.250157  0.541578  0.083222  1
  Sc  Sc16  1  0.250185  0.541600  0.458402  1
  Sc  Sc17  1  0.250143  0.916755  0.458409  1
  V  V18  1  0.500000  0.000000  0.000000  1
  Re  Re19  1  0.747361  0.106736  0.213303  1
  Re  Re20  1  0.747447  0.106537  0.893407  1
  Re  Re21  1  0.747373  0.786715  0.893241  1
  Re  Re22  1  0.252639  0.893264  0.786697  1
  Re  Re23  1  0.252553  0.893463  0.106593  1
  Re  Re24  1  0.252627  0.213285  0.106759  1
  Re  Re25  1  0.000000  0.000000  0.000000  1
  Se  Se26  1  0.750472  0.666658  0.333318  1
  Se  Se27  1  0.249528  0.333342  0.666682  1
