# generated using pymatgen
data_Th2Mn6P7(IrRh)3
_symmetry_space_group_name_H-M   'P 1'
_cell_length_a   9.47065103
_cell_length_b   9.47262368
_cell_length_c   3.90181000
_cell_angle_alpha   90.00000000
_cell_angle_beta   90.00000000
_cell_angle_gamma   119.99522377
_symmetry_Int_Tables_number   1
_chemical_formula_structural   Th2Mn6P7(IrRh)3
_chemical_formula_sum   'Th2 Mn6 P7 Ir3 Rh3'
_cell_volume   303.15711649
_cell_formula_units_Z   1
loop_
 _symmetry_equiv_pos_site_id
 _symmetry_equiv_pos_as_xyz
  1  'x, y, z'
loop_
 _atom_site_type_symbol
 _atom_site_label
 _atom_site_symmetry_multiplicity
 _atom_site_fract_x
 _atom_site_fract_y
 _atom_site_fract_z
 _atom_site_occupancy
  Th  Th0  1  0.333285  0.666690  0.000000  1
  Th  Th1  1  0.000005  0.000021  0.500000  1
  Mn  Mn2  1  0.553279  0.063597  0.000000  1
  Mn  Mn3  1  0.936406  0.489795  0.000000  1
  Mn  Mn4  1  0.510363  0.446622  0.000000  1
  Mn  Mn5  1  0.787007  0.237040  0.500000  1
  Mn  Mn6  1  0.762852  0.549817  0.500000  1
  Mn  Mn7  1  0.450331  0.212950  0.500000  1
  P  P8  1  0.773303  0.038430  0.000000  1
  P  P9  1  0.961563  0.734920  0.000000  1
  P  P10  1  0.265137  0.226734  0.000000  1
  P  P11  1  0.387583  0.943639  0.500000  1
  P  P12  1  0.056312  0.444043  0.500000  1
  P  P13  1  0.555989  0.612391  0.500000  1
  P  P14  1  0.666740  0.333206  0.000000  1
  Ir  Ir15  1  0.612539  0.894657  0.500000  1
  Ir  Ir16  1  0.105282  0.717981  0.500000  1
  Ir  Ir17  1  0.282123  0.387415  0.500000  1
  Rh  Rh18  1  0.031876  0.269216  0.000000  1
  Rh  Rh19  1  0.730734  0.762714  0.000000  1
  Rh  Rh20  1  0.237291  0.968122  0.000000  1
