# generated using pymatgen
data_Ho5Tm5(AlSb)3
_symmetry_space_group_name_H-M   'P 1'
_cell_length_a   8.76066700
_cell_length_b   8.78571608
_cell_length_c   6.39717600
_cell_angle_alpha   90.00000000
_cell_angle_beta   90.00000000
_cell_angle_gamma   119.73712536
_symmetry_Int_Tables_number   1
_chemical_formula_structural   Ho5Tm5(AlSb)3
_chemical_formula_sum   'Ho5 Tm5 Al3 Sb3'
_cell_volume   427.54082072
_cell_formula_units_Z   1
loop_
 _symmetry_equiv_pos_site_id
 _symmetry_equiv_pos_as_xyz
  1  'x, y, z'
loop_
 _atom_site_type_symbol
 _atom_site_label
 _atom_site_symmetry_multiplicity
 _atom_site_fract_x
 _atom_site_fract_y
 _atom_site_fract_z
 _atom_site_occupancy
  Ho  Ho0  1  0.233663  0.989226  0.250000  1
  Ho  Ho1  1  0.759343  0.001985  0.750000  1
  Ho  Ho2  1  0.987966  0.233952  0.250000  1
  Ho  Ho3  1  0.763789  0.764387  0.250000  1
  Ho  Ho4  1  0.243353  0.232386  0.750000  1
  Tm  Tm5  1  0.332802  0.678921  0.002723  1
  Tm  Tm6  1  0.666606  0.325911  0.497360  1
  Tm  Tm7  1  0.666606  0.325911  0.002640  1
  Tm  Tm8  1  0.332802  0.678921  0.497277  1
  Tm  Tm9  1  0.012749  0.770115  0.750000  1
  Al  Al10  1  0.599535  0.999069  0.250000  1
  Al  Al11  1  0.403599  0.003407  0.750000  1
  Al  Al12  1  0.994850  0.599834  0.250000  1
  Sb  Sb13  1  0.388380  0.392180  0.250000  1
  Sb  Sb14  1  0.609123  0.606912  0.750000  1
  Sb  Sb15  1  0.004833  0.396883  0.750000  1
