# generated using pymatgen
data_Ho2ErZr(Co3Si5)2
_symmetry_space_group_name_H-M   'P 1'
_cell_length_a   5.53109734
_cell_length_b   7.81292744
_cell_length_c   7.82039672
_cell_angle_alpha   74.56391987
_cell_angle_beta   69.29031354
_cell_angle_gamma   69.26960950
_symmetry_Int_Tables_number   1
_chemical_formula_structural   Ho2ErZr(Co3Si5)2
_chemical_formula_sum   'Ho2 Er1 Zr1 Co6 Si10'
_cell_volume   291.78312371
_cell_formula_units_Z   1
loop_
 _symmetry_equiv_pos_site_id
 _symmetry_equiv_pos_as_xyz
  1  'x, y, z'
loop_
 _atom_site_type_symbol
 _atom_site_label
 _atom_site_symmetry_multiplicity
 _atom_site_fract_x
 _atom_site_fract_y
 _atom_site_fract_z
 _atom_site_occupancy
  Ho  Ho0  1  0.634152  0.133568  0.598127  1
  Ho  Ho1  1  0.865517  0.399579  0.869386  1
  Er  Er2  1  0.135778  0.596784  0.131659  1
  Zr  Zr3  1  0.364915  0.867445  0.402726  1
  Co  Co4  1  0.752053  0.996414  0.997851  1
  Co  Co5  1  0.253682  0.996414  0.997851  1
  Co  Co6  1  0.136076  0.261022  0.466825  1
  Co  Co7  1  0.859817  0.755480  0.524885  1
  Co  Co8  1  0.636991  0.464939  0.261077  1
  Co  Co9  1  0.360920  0.528152  0.750008  1
  Si  Si10  1  0.741704  0.509971  0.505299  1
  Si  Si11  1  0.243027  0.509971  0.505299  1
  Si  Si12  1  0.523988  0.221078  0.224678  1
  Si  Si13  1  0.977566  0.771825  0.771079  1
  Si  Si14  1  0.479532  0.771825  0.771079  1
  Si  Si15  1  0.030255  0.221078  0.224678  1
  Si  Si16  1  0.103741  0.057138  0.735381  1
  Si  Si17  1  0.902019  0.940404  0.255558  1
  Si  Si18  1  0.597843  0.738862  0.065452  1
  Si  Si19  1  0.400421  0.258052  0.941106  1
