# generated using pymatgen
data_MnSn4(AsO4)6
_symmetry_space_group_name_H-M   'P 1'
_cell_length_a   9.17653575
_cell_length_b   9.17641816
_cell_length_c   9.17665398
_cell_angle_alpha   58.18646100
_cell_angle_beta   58.18688113
_cell_angle_gamma   58.18684818
_symmetry_Int_Tables_number   1
_chemical_formula_structural   MnSn4(AsO4)6
_chemical_formula_sum   'Mn1 Sn4 As6 O24'
_cell_volume   523.70869850
_cell_formula_units_Z   1
loop_
 _symmetry_equiv_pos_site_id
 _symmetry_equiv_pos_as_xyz
  1  'x, y, z'
loop_
 _atom_site_type_symbol
 _atom_site_label
 _atom_site_symmetry_multiplicity
 _atom_site_fract_x
 _atom_site_fract_y
 _atom_site_fract_z
 _atom_site_occupancy
  Mn  Mn0  1  0.000000  0.000000  0.000000  1
  Sn  Sn1  1  0.856079  0.856110  0.856110  1
  Sn  Sn2  1  0.143921  0.143890  0.143890  1
  Sn  Sn3  1  0.643438  0.643436  0.643436  1
  Sn  Sn4  1  0.356562  0.356564  0.356564  1
  As  As5  1  0.030732  0.753161  0.459057  1
  As  As6  1  0.459046  0.030738  0.753160  1
  As  As7  1  0.753159  0.459054  0.030726  1
  As  As8  1  0.969268  0.246839  0.540943  1
  As  As9  1  0.540954  0.969262  0.246840  1
  As  As10  1  0.246841  0.540946  0.969274  1
  O  O11  1  0.475346  0.820493  0.788961  1
  O  O12  1  0.788964  0.475350  0.820485  1
  O  O13  1  0.820492  0.788965  0.475330  1
  O  O14  1  0.524654  0.179507  0.211039  1
  O  O15  1  0.211036  0.524650  0.179515  1
  O  O16  1  0.179508  0.211035  0.524670  1
  O  O17  1  0.016958  0.817771  0.611261  1
  O  O18  1  0.611228  0.016990  0.817777  1
  O  O19  1  0.817763  0.611251  0.016979  1
  O  O20  1  0.983042  0.182229  0.388739  1
  O  O21  1  0.388772  0.983010  0.182223  1
  O  O22  1  0.182237  0.388749  0.983021  1
  O  O23  1  0.503701  0.813722  0.462982  1
  O  O24  1  0.462989  0.503703  0.813719  1
  O  O25  1  0.813700  0.462981  0.503707  1
  O  O26  1  0.496299  0.186278  0.537018  1
  O  O27  1  0.537011  0.496297  0.186281  1
  O  O28  1  0.186300  0.537019  0.496293  1
  O  O29  1  0.895924  0.103117  0.765468  1
  O  O30  1  0.765476  0.895926  0.103114  1
  O  O31  1  0.103106  0.765482  0.895932  1
  O  O32  1  0.104076  0.896883  0.234532  1
  O  O33  1  0.234524  0.104074  0.896886  1
  O  O34  1  0.896894  0.234518  0.104068  1
