# generated using pymatgen
data_YbCd3(Os2O7)2
_symmetry_space_group_name_H-M   'P 1'
_cell_length_a   7.23574303
_cell_length_b   7.32606855
_cell_length_c   7.23574300
_cell_angle_alpha   60.40701537
_cell_angle_beta   59.99999557
_cell_angle_gamma   60.40701682
_symmetry_Int_Tables_number   1
_chemical_formula_structural   YbCd3(Os2O7)2
_chemical_formula_sum   'Yb1 Cd3 Os4 O14'
_cell_volume   272.87692741
_cell_formula_units_Z   1
loop_
 _symmetry_equiv_pos_site_id
 _symmetry_equiv_pos_as_xyz
  1  'x, y, z'
loop_
 _atom_site_type_symbol
 _atom_site_label
 _atom_site_symmetry_multiplicity
 _atom_site_fract_x
 _atom_site_fract_y
 _atom_site_fract_z
 _atom_site_occupancy
  Yb  Yb0  1  0.125000  0.625000  0.125000  1
  Cd  Cd1  1  0.125000  0.125000  0.125000  1
  Cd  Cd2  1  0.625000  0.125000  0.125000  1
  Cd  Cd3  1  0.125000  0.125000  0.625000  1
  Os  Os4  1  0.625000  0.625000  0.625000  1
  Os  Os5  1  0.125000  0.625000  0.625000  1
  Os  Os6  1  0.625000  0.125000  0.625000  1
  Os  Os7  1  0.625000  0.625000  0.125000  1
  O  O8  1  0.253407  0.239779  0.253407  1
  O  O9  1  0.996593  0.010221  0.996593  1
  O  O10  1  0.558849  0.939804  0.558849  1
  O  O11  1  0.304925  0.691427  0.304925  1
  O  O12  1  0.551277  0.558573  0.945075  1
  O  O13  1  0.945075  0.558573  0.551277  1
  O  O14  1  0.558849  0.939804  0.942498  1
  O  O15  1  0.942498  0.939804  0.558849  1
  O  O16  1  0.945075  0.558573  0.945075  1
  O  O17  1  0.691151  0.310196  0.307502  1
  O  O18  1  0.304925  0.691427  0.698723  1
  O  O19  1  0.691151  0.310196  0.691151  1
  O  O20  1  0.307502  0.310196  0.691151  1
  O  O21  1  0.698723  0.691427  0.304925  1
