# generated using pymatgen
data_Zr6TaTi3Al12Ir7
_symmetry_space_group_name_H-M   'P 1'
_cell_length_a   8.80985728
_cell_length_b   8.80985778
_cell_length_c   8.81424255
_cell_angle_alpha   60.01645419
_cell_angle_beta   60.01645040
_cell_angle_gamma   60.00000441
_symmetry_Int_Tables_number   1
_chemical_formula_structural   Zr6TaTi3Al12Ir7
_chemical_formula_sum   'Zr6 Ta1 Ti3 Al12 Ir7'
_cell_volume   483.85556242
_cell_formula_units_Z   1
loop_
 _symmetry_equiv_pos_site_id
 _symmetry_equiv_pos_as_xyz
  1  'x, y, z'
loop_
 _atom_site_type_symbol
 _atom_site_label
 _atom_site_symmetry_multiplicity
 _atom_site_fract_x
 _atom_site_fract_y
 _atom_site_fract_z
 _atom_site_occupancy
  Zr  Zr0  1  0.690029  0.690029  0.309165  1
  Zr  Zr1  1  0.310776  0.690029  0.309165  1
  Zr  Zr2  1  0.690029  0.310776  0.309165  1
  Zr  Zr3  1  0.309301  0.309301  0.690332  1
  Zr  Zr4  1  0.691066  0.309301  0.690332  1
  Zr  Zr5  1  0.309301  0.691066  0.690332  1
  Ta  Ta6  1  0.879388  0.879388  0.361836  1
  Ti  Ti7  1  0.880077  0.360480  0.879367  1
  Ti  Ti8  1  0.360480  0.880077  0.879367  1
  Ti  Ti9  1  0.880077  0.880077  0.879367  1
  Al  Al10  1  0.120535  0.120535  0.638395  1
  Al  Al11  1  0.121918  0.638013  0.118150  1
  Al  Al12  1  0.638013  0.121918  0.118150  1
  Al  Al13  1  0.121918  0.121918  0.118150  1
  Al  Al14  1  0.662545  0.662545  0.012363  1
  Al  Al15  1  0.660018  0.015412  0.664551  1
  Al  Al16  1  0.015412  0.660018  0.664551  1
  Al  Al17  1  0.660018  0.660018  0.664551  1
  Al  Al18  1  0.336906  0.336906  0.989285  1
  Al  Al19  1  0.336580  0.989691  0.337151  1
  Al  Al20  1  0.989691  0.336580  0.337151  1
  Al  Al21  1  0.336580  0.336580  0.337151  1
  Ir  Ir22  1  0.999961  0.999961  0.000118  1
  Ir  Ir23  1  0.997333  0.997333  0.501342  1
  Ir  Ir24  1  0.503992  0.997333  0.501342  1
  Ir  Ir25  1  0.997333  0.503992  0.501342  1
  Ir  Ir26  1  0.501523  0.501523  0.999278  1
  Ir  Ir27  1  0.997677  0.501523  0.999278  1
  Ir  Ir28  1  0.501523  0.997677  0.999278  1
