# generated using pymatgen
data_RbSm5Dy(CBr6)2
_symmetry_space_group_name_H-M   'P 1'
_cell_length_a   9.04200883
_cell_length_b   9.02728417
_cell_length_c   9.53317258
_cell_angle_alpha   72.21358669
_cell_angle_beta   70.92791311
_cell_angle_gamma   72.79153064
_symmetry_Int_Tables_number   1
_chemical_formula_structural   RbSm5Dy(CBr6)2
_chemical_formula_sum   'Rb1 Sm5 Dy1 C2 Br12'
_cell_volume   683.46097672
_cell_formula_units_Z   1
loop_
 _symmetry_equiv_pos_site_id
 _symmetry_equiv_pos_as_xyz
  1  'x, y, z'
loop_
 _atom_site_type_symbol
 _atom_site_label
 _atom_site_symmetry_multiplicity
 _atom_site_fract_x
 _atom_site_fract_y
 _atom_site_fract_z
 _atom_site_occupancy
  Rb  Rb0  1  0.999013  0.500435  0.000178  1
  Sm  Sm1  1  0.475217  0.116662  0.180961  1
  Sm  Sm2  1  0.780979  0.032713  0.406366  1
  Sm  Sm3  1  0.594411  0.721125  0.474253  1
  Sm  Sm4  1  0.405236  0.278736  0.525292  1
  Sm  Sm5  1  0.218941  0.966986  0.595007  1
  Dy  Dy6  1  0.525553  0.884364  0.814893  1
  C  C7  1  0.493292  0.025650  0.424612  1
  C  C8  1  0.506710  0.973185  0.577067  1
  Br  Br9  1  0.799357  0.161628  0.080999  1
  Br  Br10  1  0.585617  0.784701  0.136347  1
  Br  Br11  1  0.349820  0.434809  0.223398  1
  Br  Br12  1  0.135949  0.071590  0.293799  1
  Br  Br13  1  0.925477  0.720905  0.352717  1
  Br  Br14  1  0.716762  0.366831  0.429418  1
  Br  Br15  1  0.282682  0.633481  0.571550  1
  Br  Br16  1  0.073736  0.278996  0.647364  1
  Br  Br17  1  0.858929  0.926989  0.710142  1
  Br  Br18  1  0.647444  0.571276  0.779221  1
  Br  Br19  1  0.416381  0.209745  0.857299  1
  Br  Br20  1  0.208497  0.839190  0.919118  1
