# generated using pymatgen
data_Tb2DyY3(Al8Ga)2
_symmetry_space_group_name_H-M   'P 1'
_cell_length_a   14.49912249
_cell_length_b   14.49530837
_cell_length_c   14.49530875
_cell_angle_alpha   24.65883475
_cell_angle_beta   24.67402131
_cell_angle_gamma   24.67403403
_symmetry_Int_Tables_number   1
_chemical_formula_structural   Tb2DyY3(Al8Ga)2
_chemical_formula_sum   'Tb2 Dy1 Y3 Al16 Ga2'
_cell_volume   466.69506745
_cell_formula_units_Z   1
loop_
 _symmetry_equiv_pos_site_id
 _symmetry_equiv_pos_as_xyz
  1  'x, y, z'
loop_
 _atom_site_type_symbol
 _atom_site_label
 _atom_site_symmetry_multiplicity
 _atom_site_fract_x
 _atom_site_fract_y
 _atom_site_fract_z
 _atom_site_occupancy
  Tb  Tb0  1  0.001860  0.999842  0.999842  1
  Tb  Tb1  1  0.501914  0.499960  0.499961  1
  Dy  Dy2  1  0.609514  0.607799  0.607797  1
  Y  Y3  1  0.109431  0.107888  0.107889  1
  Y  Y4  1  0.889976  0.891714  0.891714  1
  Y  Y5  1  0.389653  0.391597  0.391597  1
  Al  Al6  1  0.366380  0.369598  0.929205  1
  Al  Al7  1  0.865893  0.869270  0.429482  1
  Al  Al8  1  0.366380  0.929205  0.369598  1
  Al  Al9  1  0.865893  0.429482  0.869270  1
  Al  Al10  1  0.574299  0.130340  0.130340  1
  Al  Al11  1  0.074382  0.630287  0.630287  1
  Al  Al12  1  0.132071  0.130122  0.573608  1
  Al  Al13  1  0.631963  0.630093  0.073754  1
  Al  Al14  1  0.132072  0.573608  0.130122  1
  Al  Al15  1  0.631963  0.073754  0.630093  1
  Al  Al16  1  0.501251  0.499330  0.998472  1
  Al  Al17  1  0.000810  0.998926  0.500032  1
  Al  Al18  1  0.501252  0.998472  0.499330  1
  Al  Al19  1  0.000810  0.500032  0.998926  1
  Al  Al20  1  0.999597  0.499970  0.499970  1
  Al  Al21  1  0.501185  0.999531  0.999531  1
  Ga  Ga22  1  0.925521  0.369874  0.369874  1
  Ga  Ga23  1  0.425929  0.869301  0.869301  1
