# generated using pymatgen
data_Lu3Mg(Co4P3)2
_symmetry_space_group_name_H-M   'P 1'
_cell_length_a   3.69318100
_cell_length_b   10.56109600
_cell_length_c   12.17156200
_cell_angle_alpha   90.00000000
_cell_angle_beta   90.00000000
_cell_angle_gamma   90.00000000
_symmetry_Int_Tables_number   1
_chemical_formula_structural   Lu3Mg(Co4P3)2
_chemical_formula_sum   'Lu6 Mg2 Co16 P12'
_cell_volume   474.74007999
_cell_formula_units_Z   2
loop_
 _symmetry_equiv_pos_site_id
 _symmetry_equiv_pos_as_xyz
  1  'x, y, z'
loop_
 _atom_site_type_symbol
 _atom_site_label
 _atom_site_symmetry_multiplicity
 _atom_site_fract_x
 _atom_site_fract_y
 _atom_site_fract_z
 _atom_site_occupancy
  Lu  Lu0  1  0.000000  0.500000  0.525174  1
  Lu  Lu1  1  0.500000  0.000000  0.474826  1
  Lu  Lu2  1  0.500000  0.822118  0.206491  1
  Lu  Lu3  1  0.500000  0.177882  0.206491  1
  Lu  Lu4  1  0.000000  0.677882  0.793509  1
  Lu  Lu5  1  0.000000  0.322118  0.793509  1
  Mg  Mg6  1  0.500000  0.500000  0.156177  1
  Mg  Mg7  1  0.000000  0.000000  0.843823  1
  Co  Co8  1  0.500000  0.500000  0.703493  1
  Co  Co9  1  0.000000  0.000000  0.296507  1
  Co  Co10  1  0.000000  0.500000  0.986800  1
  Co  Co11  1  0.500000  0.000000  0.013200  1
  Co  Co12  1  0.500000  0.332759  0.995599  1
  Co  Co13  1  0.500000  0.667241  0.995599  1
  Co  Co14  1  0.000000  0.167241  0.004401  1
  Co  Co15  1  0.000000  0.832759  0.004401  1
  Co  Co16  1  0.500000  0.296392  0.432071  1
  Co  Co17  1  0.500000  0.703608  0.432071  1
  Co  Co18  1  0.000000  0.203608  0.567929  1
  Co  Co19  1  0.000000  0.796392  0.567929  1
  Co  Co20  1  0.500000  0.876603  0.706315  1
  Co  Co21  1  0.500000  0.123397  0.706315  1
  Co  Co22  1  0.000000  0.623397  0.293685  1
  Co  Co23  1  0.000000  0.376603  0.293685  1
  P  P24  1  0.500000  0.500000  0.882413  1
  P  P25  1  0.000000  0.000000  0.117587  1
  P  P26  1  0.500000  0.500000  0.356358  1
  P  P27  1  0.000000  0.000000  0.643642  1
  P  P28  1  0.500000  0.311749  0.616162  1
  P  P29  1  0.500000  0.688251  0.616162  1
  P  P30  1  0.000000  0.188251  0.383838  1
  P  P31  1  0.000000  0.811749  0.383838  1
  P  P32  1  0.500000  0.838185  0.892174  1
  P  P33  1  0.500000  0.161815  0.892174  1
  P  P34  1  0.000000  0.661815  0.107826  1
  P  P35  1  0.000000  0.338185  0.107826  1
