# generated using pymatgen
data_Hf6Zn19SiAu4
_symmetry_space_group_name_H-M   'P 1'
_cell_length_a   8.84930220
_cell_length_b   8.81800466
_cell_length_c   8.81800488
_cell_angle_alpha   60.21736906
_cell_angle_beta   59.79894064
_cell_angle_gamma   59.79894283
_symmetry_Int_Tables_number   1
_chemical_formula_structural   Hf6Zn19SiAu4
_chemical_formula_sum   'Hf6 Zn19 Si1 Au4'
_cell_volume   485.86111262
_cell_formula_units_Z   1
loop_
 _symmetry_equiv_pos_site_id
 _symmetry_equiv_pos_as_xyz
  1  'x, y, z'
loop_
 _atom_site_type_symbol
 _atom_site_label
 _atom_site_symmetry_multiplicity
 _atom_site_fract_x
 _atom_site_fract_y
 _atom_site_fract_z
 _atom_site_occupancy
  Hf  Hf0  1  0.711485  0.294378  0.294378  1
  Hf  Hf1  1  0.283416  0.711384  0.711384  1
  Hf  Hf2  1  0.292813  0.707355  0.294564  1
  Hf  Hf3  1  0.711828  0.289284  0.702341  1
  Hf  Hf4  1  0.292813  0.294564  0.707355  1
  Hf  Hf5  1  0.711828  0.702341  0.289284  1
  Zn  Zn6  1  0.877278  0.874361  0.372064  1
  Zn  Zn7  1  0.877278  0.372064  0.874361  1
  Zn  Zn8  1  0.624728  0.123882  0.123882  1
  Zn  Zn9  1  0.369465  0.876308  0.876308  1
  Zn  Zn10  1  0.496667  0.999388  0.999388  1
  Zn  Zn11  1  0.996814  0.502384  0.502384  1
  Zn  Zn12  1  0.999892  0.498016  0.997523  1
  Zn  Zn13  1  0.509426  0.997804  0.493182  1
  Zn  Zn14  1  0.999892  0.997523  0.498016  1
  Zn  Zn15  1  0.509426  0.493182  0.997804  1
  Zn  Zn16  1  0.341021  0.336959  0.336959  1
  Zn  Zn17  1  0.658841  0.661263  0.661263  1
  Zn  Zn18  1  0.339222  0.338215  0.986189  1
  Zn  Zn19  1  0.339222  0.986189  0.338215  1
  Zn  Zn20  1  0.662046  0.661534  0.010377  1
  Zn  Zn21  1  0.662046  0.010377  0.661534  1
  Zn  Zn22  1  0.995460  0.334808  0.334808  1
  Zn  Zn23  1  0.011006  0.662486  0.662486  1
  Zn  Zn24  1  0.985274  0.007606  0.007606  1
  Si  Si25  1  0.497609  0.503517  0.503517  1
  Au  Au26  1  0.120938  0.118351  0.118351  1
  Au  Au27  1  0.872517  0.882464  0.882464  1
  Au  Au28  1  0.124875  0.121633  0.640381  1
  Au  Au29  1  0.124875  0.640381  0.121633  1
