# generated using pymatgen
data_Hf5NbCo3Si6Ni
_symmetry_space_group_name_H-M   'P 1'
_cell_length_a   5.28840258
_cell_length_b   5.28840405
_cell_length_c   12.73428217
_cell_angle_alpha   89.89457080
_cell_angle_beta   90.10542760
_cell_angle_gamma   137.50166852
_symmetry_Int_Tables_number   1
_chemical_formula_structural   Hf5NbCo3Si6Ni
_chemical_formula_sum   'Hf5 Nb1 Co3 Si6 Ni1'
_cell_volume   240.59816136
_cell_formula_units_Z   1
loop_
 _symmetry_equiv_pos_site_id
 _symmetry_equiv_pos_as_xyz
  1  'x, y, z'
loop_
 _atom_site_type_symbol
 _atom_site_label
 _atom_site_symmetry_multiplicity
 _atom_site_fract_x
 _atom_site_fract_y
 _atom_site_fract_z
 _atom_site_occupancy
  Hf  Hf0  1  0.866569  0.133431  0.750380  1
  Hf  Hf1  1  0.576027  0.423973  0.616152  1
  Hf  Hf2  1  0.427011  0.572989  0.378759  1
  Hf  Hf3  1  0.424272  0.575728  0.119140  1
  Hf  Hf4  1  0.576253  0.423747  0.884236  1
  Nb  Nb5  1  0.134614  0.865386  0.250445  1
  Co  Co6  1  0.279147  0.720853  0.920792  1
  Co  Co7  1  0.719714  0.280286  0.080108  1
  Co  Co8  1  0.719711  0.280289  0.417754  1
  Si  Si9  1  0.825356  0.174644  0.249472  1
  Si  Si10  1  0.164467  0.835533  0.751617  1
  Si  Si11  1  0.892973  0.107027  0.539119  1
  Si  Si12  1  0.111321  0.888679  0.453424  1
  Si  Si13  1  0.110161  0.889839  0.046995  1
  Si  Si14  1  0.890210  0.109790  0.958847  1
  Ni  Ni15  1  0.282196  0.717804  0.582760  1
