# generated using pymatgen
data_Ba2MnCu3P4
_symmetry_space_group_name_H-M   'P 1'
_cell_length_a   5.62060400
_cell_length_b   6.81885751
_cell_length_c   5.64528772
_cell_angle_alpha   65.60324209
_cell_angle_beta   89.99973438
_cell_angle_gamma   89.99948128
_symmetry_Int_Tables_number   1
_chemical_formula_structural   Ba2MnCu3P4
_chemical_formula_sum   'Ba2 Mn1 Cu3 P4'
_cell_volume   197.04225834
_cell_formula_units_Z   1
loop_
 _symmetry_equiv_pos_site_id
 _symmetry_equiv_pos_as_xyz
  1  'x, y, z'
loop_
 _atom_site_type_symbol
 _atom_site_label
 _atom_site_symmetry_multiplicity
 _atom_site_fract_x
 _atom_site_fract_y
 _atom_site_fract_z
 _atom_site_occupancy
  Ba  Ba0  1  0.995508  0.000001  0.000003  1
  Ba  Ba1  1  0.504406  0.000002  0.500003  1
  Mn  Mn2  1  0.249595  0.499980  0.499985  1
  Cu  Cu3  1  0.250444  0.500001  0.000002  1
  Cu  Cu4  1  0.749680  0.500011  0.000000  1
  Cu  Cu5  1  0.750363  0.500006  0.500001  1
  P  P6  1  0.488926  0.699788  0.160752  1
  P  P7  1  0.011080  0.700087  0.640137  1
  P  P8  1  0.011070  0.299910  0.359863  1
  P  P9  1  0.488928  0.300214  0.839253  1
