# generated using pymatgen
data_Zr6Zn20Au3S
_symmetry_space_group_name_H-M   'P 1'
_cell_length_a   8.83551438
_cell_length_b   8.83554814
_cell_length_c   8.80711034
_cell_angle_alpha   59.96903427
_cell_angle_beta   59.97014847
_cell_angle_gamma   59.60097258
_symmetry_Int_Tables_number   1
_chemical_formula_structural   Zr6Zn20Au3S
_chemical_formula_sum   'Zr6 Zn20 Au3 S1'
_cell_volume   484.46051743
_cell_formula_units_Z   1
loop_
 _symmetry_equiv_pos_site_id
 _symmetry_equiv_pos_as_xyz
  1  'x, y, z'
loop_
 _atom_site_type_symbol
 _atom_site_label
 _atom_site_symmetry_multiplicity
 _atom_site_fract_x
 _atom_site_fract_y
 _atom_site_fract_z
 _atom_site_occupancy
  Zr  Zr0  1  0.705992  0.295813  0.295579  1
  Zr  Zr1  1  0.292896  0.708234  0.704233  1
  Zr  Zr2  1  0.295813  0.705999  0.295567  1
  Zr  Zr3  1  0.708231  0.292886  0.704244  1
  Zr  Zr4  1  0.294126  0.294115  0.704868  1
  Zr  Zr5  1  0.705298  0.705307  0.292583  1
  Zn  Zn6  1  0.123850  0.628502  0.122361  1
  Zn  Zn7  1  0.876802  0.876819  0.371466  1
  Zn  Zn8  1  0.879308  0.367552  0.875041  1
  Zn  Zn9  1  0.628512  0.123847  0.122368  1
  Zn  Zn10  1  0.367553  0.879311  0.875036  1
  Zn  Zn11  1  0.498108  0.001571  0.997784  1
  Zn  Zn12  1  0.999265  0.507560  0.493591  1
  Zn  Zn13  1  0.001571  0.498109  0.997787  1
  Zn  Zn14  1  0.507556  0.999264  0.493599  1
  Zn  Zn15  1  0.999277  0.999285  0.500046  1
  Zn  Zn16  1  0.500612  0.500604  0.998733  1
  Zn  Zn17  1  0.336261  0.336267  0.332927  1
  Zn  Zn18  1  0.663654  0.663639  0.665297  1
  Zn  Zn19  1  0.336096  0.336088  0.994908  1
  Zn  Zn20  1  0.333217  0.000214  0.333513  1
  Zn  Zn21  1  0.665167  0.665170  0.001265  1
  Zn  Zn22  1  0.666177  0.002266  0.664883  1
  Zn  Zn23  1  0.000205  0.333220  0.333524  1
  Zn  Zn24  1  0.002268  0.666174  0.664877  1
  Zn  Zn25  1  0.993669  0.993667  0.012837  1
  Au  Au26  1  0.118452  0.118465  0.118122  1
  Au  Au27  1  0.878423  0.878418  0.886007  1
  Au  Au28  1  0.122041  0.122030  0.644802  1
  S  S29  1  0.499598  0.499601  0.502153  1
