# generated using pymatgen
data_Ho3TmGa20(OsRu2)2
_symmetry_space_group_name_H-M   'P 1'
_cell_length_a   8.89278453
_cell_length_b   8.89278453
_cell_length_c   6.41244300
_cell_angle_alpha   90.00000000
_cell_angle_beta   90.00000000
_cell_angle_gamma   89.93267115
_symmetry_Int_Tables_number   1
_chemical_formula_structural   Ho3TmGa20(OsRu2)2
_chemical_formula_sum   'Ho3 Tm1 Ga20 Os2 Ru4'
_cell_volume   507.10600986
_cell_formula_units_Z   1
loop_
 _symmetry_equiv_pos_site_id
 _symmetry_equiv_pos_as_xyz
  1  'x, y, z'
loop_
 _atom_site_type_symbol
 _atom_site_label
 _atom_site_symmetry_multiplicity
 _atom_site_fract_x
 _atom_site_fract_y
 _atom_site_fract_z
 _atom_site_occupancy
  Ho  Ho0  1  0.183479  0.316553  0.000000  1
  Ho  Ho1  1  0.683541  0.183541  0.000000  1
  Ho  Ho2  1  0.816553  0.683479  0.000000  1
  Tm  Tm3  1  0.316437  0.816437  0.000000  1
  Ga  Ga4  1  0.499710  0.999710  0.284904  1
  Ga  Ga5  1  0.499710  0.999710  0.715096  1
  Ga  Ga6  1  0.292918  0.561603  0.706738  1
  Ga  Ga7  1  0.999988  0.499988  0.285891  1
  Ga  Ga8  1  0.999988  0.499988  0.714109  1
  Ga  Ga9  1  0.061603  0.792918  0.706738  1
  Ga  Ga10  1  0.207079  0.060931  0.293469  1
  Ga  Ga11  1  0.061603  0.792918  0.293262  1
  Ga  Ga12  1  0.706883  0.438846  0.706198  1
  Ga  Ga13  1  0.207079  0.060931  0.706531  1
  Ga  Ga14  1  0.938846  0.206883  0.706198  1
  Ga  Ga15  1  0.706883  0.438846  0.293802  1
  Ga  Ga16  1  0.560931  0.707079  0.293469  1
  Ga  Ga17  1  0.938846  0.206883  0.293802  1
  Ga  Ga18  1  0.560931  0.707079  0.706531  1
  Ga  Ga19  1  0.793128  0.938817  0.293793  1
  Ga  Ga20  1  0.438817  0.293128  0.706207  1
  Ga  Ga21  1  0.793128  0.938817  0.706207  1
  Ga  Ga22  1  0.438817  0.293128  0.293793  1
  Ga  Ga23  1  0.292918  0.561603  0.293262  1
  Os  Os24  1  0.000761  0.999588  0.000000  1
  Os  Os25  1  0.499588  0.500761  0.000000  1
  Ru  Ru26  1  0.178313  0.321775  0.500000  1
  Ru  Ru27  1  0.321785  0.821785  0.500000  1
  Ru  Ru28  1  0.821775  0.678313  0.500000  1
  Ru  Ru29  1  0.677961  0.177961  0.500000  1
