# generated using pymatgen
data_Hf16Co3NiRu3Rh
_symmetry_space_group_name_H-M   'P 1'
_cell_length_a   8.58387131
_cell_length_b   8.58387073
_cell_length_c   8.58387223
_cell_angle_alpha   60.06017368
_cell_angle_beta   60.06017570
_cell_angle_gamma   60.06017834
_symmetry_Int_Tables_number   1
_chemical_formula_structural   Hf16Co3NiRu3Rh
_chemical_formula_sum   'Hf16 Co3 Ni1 Ru3 Rh1'
_cell_volume   447.84374109
_cell_formula_units_Z   1
loop_
 _symmetry_equiv_pos_site_id
 _symmetry_equiv_pos_as_xyz
  1  'x, y, z'
loop_
 _atom_site_type_symbol
 _atom_site_label
 _atom_site_symmetry_multiplicity
 _atom_site_fract_x
 _atom_site_fract_y
 _atom_site_fract_z
 _atom_site_occupancy
  Hf  Hf0  1  0.679034  0.107810  0.107810  1
  Hf  Hf1  1  0.107810  0.679034  0.107810  1
  Hf  Hf2  1  0.107810  0.107810  0.679034  1
  Hf  Hf3  1  0.103739  0.103739  0.103739  1
  Hf  Hf4  1  0.314497  0.314497  0.688525  1
  Hf  Hf5  1  0.685925  0.685925  0.314926  1
  Hf  Hf6  1  0.314497  0.688525  0.314497  1
  Hf  Hf7  1  0.685925  0.314926  0.685925  1
  Hf  Hf8  1  0.688525  0.314497  0.314497  1
  Hf  Hf9  1  0.314926  0.685925  0.685925  1
  Hf  Hf10  1  0.948148  0.948148  0.548684  1
  Hf  Hf11  1  0.555674  0.555674  0.944113  1
  Hf  Hf12  1  0.948148  0.548684  0.948148  1
  Hf  Hf13  1  0.555674  0.944113  0.555674  1
  Hf  Hf14  1  0.548684  0.948148  0.948148  1
  Hf  Hf15  1  0.944113  0.555674  0.555674  1
  Co  Co16  1  0.320301  0.892310  0.892310  1
  Co  Co17  1  0.892310  0.320301  0.892310  1
  Co  Co18  1  0.892310  0.892310  0.320301  1
  Ni  Ni19  1  0.893987  0.893987  0.893987  1
  Ru  Ru20  1  0.995799  0.333948  0.333948  1
  Ru  Ru21  1  0.333948  0.995799  0.333948  1
  Ru  Ru22  1  0.333948  0.333948  0.995799  1
  Rh  Rh23  1  0.334267  0.334267  0.334267  1
