# generated using pymatgen
data_Ti3Al(GaRh3)2
_symmetry_space_group_name_H-M   'P 1'
_cell_length_a   4.18071200
_cell_length_b   6.64545700
_cell_length_c   12.48801100
_cell_angle_alpha   90.00000000
_cell_angle_beta   89.99992218
_cell_angle_gamma   90.00000000
_symmetry_Int_Tables_number   1
_chemical_formula_structural   Ti3Al(GaRh3)2
_chemical_formula_sum   'Ti6 Al2 Ga4 Rh12'
_cell_volume   346.95118553
_cell_formula_units_Z   2
loop_
 _symmetry_equiv_pos_site_id
 _symmetry_equiv_pos_as_xyz
  1  'x, y, z'
loop_
 _atom_site_type_symbol
 _atom_site_label
 _atom_site_symmetry_multiplicity
 _atom_site_fract_x
 _atom_site_fract_y
 _atom_site_fract_z
 _atom_site_occupancy
  Ti  Ti0  1  0.999997  0.500001  0.997656  1
  Ti  Ti1  1  0.500004  0.000000  0.168914  1
  Ti  Ti2  1  0.000005  0.500001  0.335045  1
  Ti  Ti3  1  0.499998  0.000000  0.499420  1
  Ti  Ti4  1  0.000000  0.500001  0.667291  1
  Ti  Ti5  1  0.499999  0.000000  0.831708  1
  Al  Al6  1  0.999999  0.000000  0.001745  1
  Al  Al7  1  0.500001  0.500001  0.165251  1
  Ga  Ga8  1  0.999999  0.000000  0.332203  1
  Ga  Ga9  1  0.500000  0.500001  0.500619  1
  Ga  Ga10  1  0.000006  0.000000  0.665899  1
  Ga  Ga11  1  0.499995  0.500001  0.834372  1
  Rh  Rh12  1  0.499995  0.245229  0.000736  1
  Rh  Rh13  1  0.499995  0.754771  0.000736  1
  Rh  Rh14  1  0.000000  0.255292  0.165893  1
  Rh  Rh15  1  0.000000  0.744708  0.165893  1
  Rh  Rh16  1  0.500003  0.255819  0.332568  1
  Rh  Rh17  1  0.500003  0.744181  0.332568  1
  Rh  Rh18  1  0.999999  0.247758  0.500017  1
  Rh  Rh19  1  0.999999  0.752242  0.500017  1
  Rh  Rh20  1  0.500002  0.252460  0.666632  1
  Rh  Rh21  1  0.500002  0.747540  0.666632  1
  Rh  Rh22  1  0.999999  0.243809  0.834091  1
  Rh  Rh23  1  0.999999  0.756191  0.834091  1
