# generated using pymatgen
data_Ho19MgIr7Pt5
_symmetry_space_group_name_H-M   'P 1'
_cell_length_a   10.89409518
_cell_length_b   10.87965115
_cell_length_c   6.31716702
_cell_angle_alpha   90.00364253
_cell_angle_beta   90.00921367
_cell_angle_gamma   89.91294206
_symmetry_Int_Tables_number   1
_chemical_formula_structural   Ho19MgIr7Pt5
_chemical_formula_sum   'Ho19 Mg1 Ir7 Pt5'
_cell_volume   748.73474512
_cell_formula_units_Z   1
loop_
 _symmetry_equiv_pos_site_id
 _symmetry_equiv_pos_as_xyz
  1  'x, y, z'
loop_
 _atom_site_type_symbol
 _atom_site_label
 _atom_site_symmetry_multiplicity
 _atom_site_fract_x
 _atom_site_fract_y
 _atom_site_fract_z
 _atom_site_occupancy
  Ho  Ho0  1  0.288133  0.086235  0.375199  1
  Ho  Ho1  1  0.293965  0.909756  0.876169  1
  Ho  Ho2  1  0.706070  0.086970  0.876473  1
  Ho  Ho3  1  0.712219  0.913421  0.374745  1
  Ho  Ho4  1  0.587511  0.790397  0.880093  1
  Ho  Ho5  1  0.583326  0.206799  0.374024  1
  Ho  Ho6  1  0.415284  0.791446  0.376787  1
  Ho  Ho7  1  0.410068  0.208135  0.881302  1
  Ho  Ho8  1  0.209418  0.415306  0.622714  1
  Ho  Ho9  1  0.208840  0.587448  0.120231  1
  Ho  Ho10  1  0.792681  0.414055  0.123179  1
  Ho  Ho11  1  0.792197  0.587344  0.621479  1
  Ho  Ho12  1  0.909867  0.706126  0.123571  1
  Ho  Ho13  1  0.916993  0.287778  0.624586  1
  Ho  Ho14  1  0.086429  0.711815  0.624903  1
  Ho  Ho15  1  0.090481  0.293854  0.124023  1
  Ho  Ho16  1  0.999846  0.999977  0.000198  1
  Ho  Ho17  1  0.498291  0.501574  0.001045  1
  Ho  Ho18  1  0.498651  0.501377  0.499307  1
  Mg  Mg19  1  0.999848  0.000006  0.499410  1
  Ir  Ir20  1  0.654886  0.654003  0.252216  1
  Ir  Ir21  1  0.346034  0.345002  0.252271  1
  Ir  Ir22  1  0.345126  0.655262  0.747906  1
  Ir  Ir23  1  0.500277  0.000439  0.124498  1
  Ir  Ir24  1  0.500137  0.000494  0.623607  1
  Ir  Ir25  1  0.999527  0.499793  0.874668  1
  Ir  Ir26  1  0.999489  0.499496  0.377611  1
  Pt  Pt27  1  0.847947  0.154133  0.248752  1
  Pt  Pt28  1  0.846693  0.849025  0.751085  1
  Pt  Pt29  1  0.153129  0.151317  0.750891  1
  Pt  Pt30  1  0.151328  0.846470  0.249052  1
  Pt  Pt31  1  0.655310  0.344744  0.748005  1
