# generated using pymatgen
data_HfZr2(Co3B2)3
_symmetry_space_group_name_H-M   'P 1'
_cell_length_a   5.71425047
_cell_length_b   5.71425057
_cell_length_c   5.71424970
_cell_angle_alpha   94.75537977
_cell_angle_beta   94.75538475
_cell_angle_gamma   94.75537604
_symmetry_Int_Tables_number   1
_chemical_formula_structural   HfZr2(Co3B2)3
_chemical_formula_sum   'Hf1 Zr2 Co9 B6'
_cell_volume   184.54445475
_cell_formula_units_Z   1
loop_
 _symmetry_equiv_pos_site_id
 _symmetry_equiv_pos_as_xyz
  1  'x, y, z'
loop_
 _atom_site_type_symbol
 _atom_site_label
 _atom_site_symmetry_multiplicity
 _atom_site_fract_x
 _atom_site_fract_y
 _atom_site_fract_z
 _atom_site_occupancy
  Hf  Hf0  1  0.000000  0.000000  0.000000  1
  Zr  Zr1  1  0.670161  0.670161  0.670161  1
  Zr  Zr2  1  0.329839  0.329839  0.329839  1
  Co  Co3  1  0.500000  0.000000  0.000000  1
  Co  Co4  1  0.000000  0.500000  0.000000  1
  Co  Co5  1  0.000000  0.000000  0.500000  1
  Co  Co6  1  0.695241  0.196440  0.695241  1
  Co  Co7  1  0.695241  0.695241  0.196440  1
  Co  Co8  1  0.196440  0.695241  0.695241  1
  Co  Co9  1  0.304759  0.803560  0.304759  1
  Co  Co10  1  0.304759  0.304759  0.803560  1
  Co  Co11  1  0.803560  0.304759  0.304759  1
  B  B12  1  0.377588  0.000000  0.622412  1
  B  B13  1  0.622412  0.377588  0.000000  1
  B  B14  1  0.000000  0.622412  0.377588  1
  B  B15  1  0.622412  0.000000  0.377588  1
  B  B16  1  0.377588  0.622412  0.000000  1
  B  B17  1  0.000000  0.377588  0.622412  1
