# generated using pymatgen
data_Hf3Ta3(NbN3)4
_symmetry_space_group_name_H-M   'P 1'
_cell_length_a   5.30332652
_cell_length_b   5.30243620
_cell_length_c   10.51578903
_cell_angle_alpha   89.99657499
_cell_angle_beta   89.99509356
_cell_angle_gamma   120.11721588
_symmetry_Int_Tables_number   1
_chemical_formula_structural   Hf3Ta3(NbN3)4
_chemical_formula_sum   'Hf3 Ta3 Nb4 N12'
_cell_volume   255.78915815
_cell_formula_units_Z   1
loop_
 _symmetry_equiv_pos_site_id
 _symmetry_equiv_pos_as_xyz
  1  'x, y, z'
loop_
 _atom_site_type_symbol
 _atom_site_label
 _atom_site_symmetry_multiplicity
 _atom_site_fract_x
 _atom_site_fract_y
 _atom_site_fract_z
 _atom_site_occupancy
  Hf  Hf0  1  0.665481  0.333138  0.999773  1
  Hf  Hf1  1  0.333085  0.665403  0.999672  1
  Hf  Hf2  1  0.333304  0.665506  0.499683  1
  Ta  Ta3  1  0.679326  0.999079  0.251756  1
  Ta  Ta4  1  0.001487  0.680551  0.251764  1
  Ta  Ta5  1  0.665862  0.333394  0.500597  1
  Nb  Nb6  1  0.677284  0.678353  0.748075  1
  Nb  Nb7  1  0.321705  0.998645  0.748027  1
  Nb  Nb8  1  0.000874  0.322772  0.748070  1
  Nb  Nb9  1  0.320791  0.321917  0.252239  1
  N  N10  1  0.663197  0.657161  0.378230  1
  N  N11  1  0.348090  0.002608  0.377572  1
  N  N12  1  0.990104  0.342049  0.377641  1
  N  N13  1  0.347239  0.340733  0.620666  1
  N  N14  1  0.658273  0.006436  0.620634  1
  N  N15  1  0.993365  0.651789  0.620652  1
  N  N16  1  0.344776  0.344688  0.873996  1
  N  N17  1  0.654379  0.999911  0.874027  1
  N  N18  1  0.999812  0.654333  0.874032  1
  N  N19  1  0.659356  0.659169  0.127263  1
  N  N20  1  0.346124  0.996420  0.127807  1
  N  N21  1  0.996082  0.345949  0.127824  1
