# generated using pymatgen
data_SmDy3(SeO4)6
_symmetry_space_group_name_H-M   'P 1'
_cell_length_a   10.06398916
_cell_length_b   10.06402029
_cell_length_c   10.06400802
_cell_angle_alpha   57.70764365
_cell_angle_beta   57.70750495
_cell_angle_gamma   57.70767590
_symmetry_Int_Tables_number   1
_chemical_formula_structural   SmDy3(SeO4)6
_chemical_formula_sum   'Sm1 Dy3 Se6 O24'
_cell_volume   682.81085094
_cell_formula_units_Z   1
loop_
 _symmetry_equiv_pos_site_id
 _symmetry_equiv_pos_as_xyz
  1  'x, y, z'
loop_
 _atom_site_type_symbol
 _atom_site_label
 _atom_site_symmetry_multiplicity
 _atom_site_fract_x
 _atom_site_fract_y
 _atom_site_fract_z
 _atom_site_occupancy
  Sm  Sm0  1  0.643146  0.643145  0.643146  1
  Dy  Dy1  1  0.143787  0.143789  0.143789  1
  Dy  Dy2  1  0.855350  0.855349  0.855347  1
  Dy  Dy3  1  0.355929  0.355931  0.355931  1
  Se  Se4  1  0.038944  0.463608  0.749437  1
  Se  Se5  1  0.463608  0.749434  0.038945  1
  Se  Se6  1  0.749433  0.038946  0.463609  1
  Se  Se7  1  0.968448  0.535232  0.244952  1
  Se  Se8  1  0.244955  0.968446  0.535229  1
  Se  Se9  1  0.535233  0.244952  0.968447  1
  O  O10  1  0.222879  0.996812  0.368699  1
  O  O11  1  0.368698  0.222877  0.996815  1
  O  O12  1  0.996813  0.368700  0.222878  1
  O  O13  1  0.771090  0.008888  0.631524  1
  O  O14  1  0.631525  0.771090  0.008887  1
  O  O15  1  0.008887  0.631524  0.771090  1
  O  O16  1  0.269228  0.133896  0.507175  1
  O  O17  1  0.507178  0.269227  0.133896  1
  O  O18  1  0.133897  0.507178  0.269228  1
  O  O19  1  0.729385  0.872130  0.489643  1
  O  O20  1  0.068771  0.294598  0.916787  1
  O  O21  1  0.294598  0.916786  0.068772  1
  O  O22  1  0.916788  0.068771  0.294596  1
  O  O23  1  0.941003  0.704271  0.076712  1
  O  O24  1  0.704271  0.076711  0.941002  1
  O  O25  1  0.076712  0.941003  0.704270  1
  O  O26  1  0.207515  0.436096  0.580798  1
  O  O27  1  0.436096  0.580798  0.207517  1
  O  O28  1  0.580797  0.207516  0.436097  1
  O  O29  1  0.798372  0.562548  0.412346  1
  O  O30  1  0.562545  0.412346  0.798375  1
  O  O31  1  0.412348  0.798374  0.562544  1
  O  O32  1  0.872129  0.489641  0.729387  1
  O  O33  1  0.489642  0.729387  0.872131  1
