# generated using pymatgen
data_Er4GeAs5Ir6Rh
_symmetry_space_group_name_H-M   'P 1'
_cell_length_a   7.28133757
_cell_length_b   7.28133862
_cell_length_c   7.28133742
_cell_angle_alpha   109.10924821
_cell_angle_beta   109.65251906
_cell_angle_gamma   109.65250102
_symmetry_Int_Tables_number   1
_chemical_formula_structural   Er4GeAs5Ir6Rh
_chemical_formula_sum   'Er4 Ge1 As5 Ir6 Rh1'
_cell_volume   297.16568917
_cell_formula_units_Z   1
loop_
 _symmetry_equiv_pos_site_id
 _symmetry_equiv_pos_as_xyz
  1  'x, y, z'
loop_
 _atom_site_type_symbol
 _atom_site_label
 _atom_site_symmetry_multiplicity
 _atom_site_fract_x
 _atom_site_fract_y
 _atom_site_fract_z
 _atom_site_occupancy
  Er  Er0  1  0.000000  0.000335  0.499958  1
  Er  Er1  1  0.000000  0.499958  0.000335  1
  Er  Er2  1  0.500378  0.000335  0.000335  1
  Er  Er3  1  0.499622  0.499958  0.499958  1
  Ge  Ge4  1  0.000000  0.681232  0.681232  1
  As  As5  1  0.681722  0.680601  0.998880  1
  As  As6  1  0.318278  0.998880  0.317158  1
  As  As7  1  0.000000  0.324653  0.324653  1
  As  As8  1  0.318278  0.317158  0.998880  1
  As  As9  1  0.681722  0.998880  0.680601  1
  Ir  Ir10  1  0.748539  0.250670  0.502131  1
  Ir  Ir11  1  0.748539  0.502131  0.250670  1
  Ir  Ir12  1  0.500000  0.250160  0.750160  1
  Ir  Ir13  1  0.251461  0.502131  0.753592  1
  Ir  Ir14  1  0.251461  0.753592  0.502131  1
  Ir  Ir15  1  0.500000  0.750160  0.250160  1
  Rh  Rh16  1  0.000000  0.989165  0.989165  1
