# generated using pymatgen
data_Dy16Cd4CoNiOs2
_symmetry_space_group_name_H-M   'P 1'
_cell_length_a   9.56709393
_cell_length_b   9.56830363
_cell_length_c   9.66112500
_cell_angle_alpha   59.67857039
_cell_angle_beta   59.67433319
_cell_angle_gamma   59.44303049
_symmetry_Int_Tables_number   1
_chemical_formula_structural   Dy16Cd4CoNiOs2
_chemical_formula_sum   'Dy16 Cd4 Co1 Ni1 Os2'
_cell_volume   619.64483772
_cell_formula_units_Z   1
loop_
 _symmetry_equiv_pos_site_id
 _symmetry_equiv_pos_as_xyz
  1  'x, y, z'
loop_
 _atom_site_type_symbol
 _atom_site_label
 _atom_site_symmetry_multiplicity
 _atom_site_fract_x
 _atom_site_fract_y
 _atom_site_fract_z
 _atom_site_occupancy
  Dy  Dy0  1  0.598325  0.602292  0.590051  1
  Dy  Dy1  1  0.598325  0.602292  0.209333  1
  Dy  Dy2  1  0.601820  0.206757  0.595712  1
  Dy  Dy3  1  0.209422  0.601866  0.594356  1
  Dy  Dy4  1  0.060152  0.436615  0.440751  1
  Dy  Dy5  1  0.435574  0.057594  0.066123  1
  Dy  Dy6  1  0.435574  0.057594  0.440709  1
  Dy  Dy7  1  0.060152  0.436615  0.062482  1
  Dy  Dy8  1  0.438786  0.439037  0.061088  1
  Dy  Dy9  1  0.063127  0.056400  0.440237  1
  Dy  Dy10  1  0.189709  0.806032  0.814374  1
  Dy  Dy11  1  0.804785  0.190067  0.188860  1
  Dy  Dy12  1  0.804785  0.190067  0.816289  1
  Dy  Dy13  1  0.189709  0.806032  0.189886  1
  Dy  Dy14  1  0.813377  0.816627  0.184998  1
  Dy  Dy15  1  0.191974  0.192128  0.807949  1
  Cd  Cd16  1  0.829483  0.829305  0.832728  1
  Cd  Cd17  1  0.829483  0.829305  0.508484  1
  Cd  Cd18  1  0.829963  0.506820  0.831608  1
  Cd  Cd19  1  0.506080  0.830208  0.831856  1
  Co  Co20  1  0.392806  0.829414  0.388891  1
  Ni  Ni21  1  0.829125  0.392449  0.389214  1
  Os  Os22  1  0.393732  0.392242  0.387811  1
  Os  Os23  1  0.393732  0.392242  0.826215  1
