# generated using pymatgen
data_Nd6PtAu7
_symmetry_space_group_name_H-M   'P 1'
_cell_length_a   8.23389500
_cell_length_b   8.23389505
_cell_length_c   8.23389452
_cell_angle_alpha   113.77659061
_cell_angle_beta   113.77659450
_cell_angle_gamma   113.77658840
_symmetry_Int_Tables_number   1
_chemical_formula_structural   Nd6PtAu7
_chemical_formula_sum   'Nd6 Pt1 Au7'
_cell_volume   344.70168867
_cell_formula_units_Z   1
loop_
 _symmetry_equiv_pos_site_id
 _symmetry_equiv_pos_as_xyz
  1  'x, y, z'
loop_
 _atom_site_type_symbol
 _atom_site_label
 _atom_site_symmetry_multiplicity
 _atom_site_fract_x
 _atom_site_fract_y
 _atom_site_fract_z
 _atom_site_occupancy
  Nd  Nd0  1  0.268952  0.389525  0.018199  1
  Nd  Nd1  1  0.389525  0.018199  0.268952  1
  Nd  Nd2  1  0.018199  0.268952  0.389525  1
  Nd  Nd3  1  0.731048  0.610475  0.981801  1
  Nd  Nd4  1  0.610475  0.981801  0.731048  1
  Nd  Nd5  1  0.981801  0.731048  0.610475  1
  Pt  Pt6  1  0.000000  0.000000  0.000000  1
  Au  Au7  1  0.500000  0.500000  0.500000  1
  Au  Au8  1  0.569388  0.234987  0.072460  1
  Au  Au9  1  0.234987  0.072460  0.569388  1
  Au  Au10  1  0.072460  0.569388  0.234987  1
  Au  Au11  1  0.430612  0.765013  0.927540  1
  Au  Au12  1  0.765013  0.927540  0.430612  1
  Au  Au13  1  0.927540  0.430612  0.765013  1
