# generated using pymatgen
data_H2Se5
_symmetry_space_group_name_H-M   'P 1'
_cell_length_a   6.78747966
_cell_length_b   6.78747965
_cell_length_c   10.77332323
_cell_angle_alpha   105.95449419
_cell_angle_beta   105.95449702
_cell_angle_gamma   58.46274075
_symmetry_Int_Tables_number   1
_chemical_formula_structural   H2Se5
_chemical_formula_sum   'H4 Se10'
_cell_volume   401.48533994
_cell_formula_units_Z   2
loop_
 _symmetry_equiv_pos_site_id
 _symmetry_equiv_pos_as_xyz
  1  'x, y, z'
loop_
 _atom_site_type_symbol
 _atom_site_label
 _atom_site_symmetry_multiplicity
 _atom_site_fract_x
 _atom_site_fract_y
 _atom_site_fract_z
 _atom_site_occupancy
  H  H0  1  0.044816  0.480323  0.210370  1
  H  H1  1  0.519677  0.955184  0.289629  1
  H  H2  1  0.480323  0.044816  0.710370  1
  H  H3  1  0.955184  0.519677  0.789630  1
  Se  Se4  1  0.433437  0.338292  0.078818  1
  Se  Se5  1  0.172207  0.247660  0.128088  1
  Se  Se6  1  0.760937  0.239062  0.250000  1
  Se  Se7  1  0.752340  0.827794  0.371913  1
  Se  Se8  1  0.661708  0.566563  0.421182  1
  Se  Se9  1  0.338292  0.433438  0.578818  1
  Se  Se10  1  0.247660  0.172207  0.628088  1
  Se  Se11  1  0.239062  0.760937  0.750000  1
  Se  Se12  1  0.827794  0.752340  0.871912  1
  Se  Se13  1  0.566563  0.661708  0.921182  1
