# generated using pymatgen
data_Zr10SnHg(BiPb)3
_symmetry_space_group_name_H-M   'P 1'
_cell_length_a   8.98471200
_cell_length_b   8.98471127
_cell_length_c   6.01602800
_cell_angle_alpha   90.00000000
_cell_angle_beta   90.00000000
_cell_angle_gamma   120.00000267
_symmetry_Int_Tables_number   1
_chemical_formula_structural   Zr10SnHg(BiPb)3
_chemical_formula_sum   'Zr10 Sn1 Hg1 Bi3 Pb3'
_cell_volume   420.58013399
_cell_formula_units_Z   1
loop_
 _symmetry_equiv_pos_site_id
 _symmetry_equiv_pos_as_xyz
  1  'x, y, z'
loop_
 _atom_site_type_symbol
 _atom_site_label
 _atom_site_symmetry_multiplicity
 _atom_site_fract_x
 _atom_site_fract_y
 _atom_site_fract_z
 _atom_site_occupancy
  Zr  Zr0  1  0.666667  0.333333  0.001804  1
  Zr  Zr1  1  0.333333  0.666667  0.001804  1
  Zr  Zr2  1  0.333333  0.666667  0.497967  1
  Zr  Zr3  1  0.666667  0.333333  0.497967  1
  Zr  Zr4  1  0.720358  0.720358  0.748054  1
  Zr  Zr5  1  0.279642  0.000000  0.748054  1
  Zr  Zr6  1  0.000000  0.279642  0.748054  1
  Zr  Zr7  1  0.279963  0.279963  0.252031  1
  Zr  Zr8  1  0.720037  0.000000  0.252031  1
  Zr  Zr9  1  0.000000  0.720037  0.252031  1
  Sn  Sn10  1  0.000000  0.000000  0.499453  1
  Hg  Hg11  1  0.000000  0.000000  0.000463  1
  Bi  Bi12  1  0.384461  0.384461  0.751927  1
  Bi  Bi13  1  0.615539  0.000000  0.751927  1
  Bi  Bi14  1  0.000000  0.615539  0.751927  1
  Pb  Pb15  1  0.616742  0.616742  0.248169  1
  Pb  Pb16  1  0.383258  0.000000  0.248169  1
  Pb  Pb17  1  0.000000  0.383258  0.248169  1
