# generated using pymatgen
data_Nd12Ir2PdAu
_symmetry_space_group_name_H-M   'P 1'
_cell_length_a   6.62527142
_cell_length_b   7.37142897
_cell_length_c   10.02826300
_cell_angle_alpha   90.00000000
_cell_angle_beta   90.00000000
_cell_angle_gamma   90.03419169
_symmetry_Int_Tables_number   1
_chemical_formula_structural   Nd12Ir2PdAu
_chemical_formula_sum   'Nd12 Ir2 Pd1 Au1'
_cell_volume   489.75739001
_cell_formula_units_Z   1
loop_
 _symmetry_equiv_pos_site_id
 _symmetry_equiv_pos_as_xyz
  1  'x, y, z'
loop_
 _atom_site_type_symbol
 _atom_site_label
 _atom_site_symmetry_multiplicity
 _atom_site_fract_x
 _atom_site_fract_y
 _atom_site_fract_z
 _atom_site_occupancy
  Nd  Nd0  1  0.337226  0.671034  0.060728  1
  Nd  Nd1  1  0.173958  0.187033  0.440004  1
  Nd  Nd2  1  0.668200  0.326615  0.563844  1
  Nd  Nd3  1  0.828506  0.818521  0.935622  1
  Nd  Nd4  1  0.668200  0.326615  0.936156  1
  Nd  Nd5  1  0.828506  0.818521  0.564378  1
  Nd  Nd6  1  0.337226  0.671034  0.439272  1
  Nd  Nd7  1  0.173958  0.187033  0.059996  1
  Nd  Nd8  1  0.851429  0.518923  0.250000  1
  Nd  Nd9  1  0.623394  0.039937  0.250000  1
  Nd  Nd10  1  0.147491  0.472806  0.750000  1
  Nd  Nd11  1  0.367086  0.959116  0.750000  1
  Ir  Ir12  1  0.430172  0.382801  0.250000  1
  Ir  Ir13  1  0.565652  0.617762  0.750000  1
  Pd  Pd14  1  0.938084  0.116070  0.750000  1
  Au  Au15  1  0.060912  0.886182  0.250000  1
