# generated using pymatgen
data_Th4Tc(GeOs)6
_symmetry_space_group_name_H-M   'P 1'
_cell_length_a   7.42319266
_cell_length_b   7.42319348
_cell_length_c   7.42319300
_cell_angle_alpha   109.47122206
_cell_angle_beta   109.47122429
_cell_angle_gamma   109.47121861
_symmetry_Int_Tables_number   1
_chemical_formula_structural   Th4Tc(GeOs)6
_chemical_formula_sum   'Th4 Tc1 Ge6 Os6'
_cell_volume   314.88382865
_cell_formula_units_Z   1
loop_
 _symmetry_equiv_pos_site_id
 _symmetry_equiv_pos_as_xyz
  1  'x, y, z'
loop_
 _atom_site_type_symbol
 _atom_site_label
 _atom_site_symmetry_multiplicity
 _atom_site_fract_x
 _atom_site_fract_y
 _atom_site_fract_z
 _atom_site_occupancy
  Th  Th0  1  0.500000  0.500000  0.500000  1
  Th  Th1  1  0.000000  0.500000  0.000000  1
  Th  Th2  1  0.500000  0.000000  0.000000  1
  Th  Th3  1  0.000000  0.000000  0.500000  1
  Tc  Tc4  1  0.000000  0.000000  0.000000  1
  Ge  Ge5  1  0.684342  0.000000  0.684342  1
  Ge  Ge6  1  0.684342  0.684342  0.000000  1
  Ge  Ge7  1  0.315658  0.315658  0.000000  1
  Ge  Ge8  1  0.000000  0.684342  0.684342  1
  Ge  Ge9  1  0.000000  0.315658  0.315658  1
  Ge  Ge10  1  0.315658  0.000000  0.315658  1
  Os  Os11  1  0.500000  0.750000  0.250000  1
  Os  Os12  1  0.750000  0.250000  0.500000  1
  Os  Os13  1  0.250000  0.750000  0.500000  1
  Os  Os14  1  0.250000  0.500000  0.750000  1
  Os  Os15  1  0.500000  0.250000  0.750000  1
  Os  Os16  1  0.750000  0.500000  0.250000  1
