# generated using pymatgen
data_LaSn6(RuRh)2
_symmetry_space_group_name_H-M   'P 1'
_cell_length_a   7.02141716
_cell_length_b   7.02141661
_cell_length_c   6.95103136
_cell_angle_alpha   119.67753226
_cell_angle_beta   119.67753123
_cell_angle_gamma   91.12826334
_symmetry_Int_Tables_number   1
_chemical_formula_structural   LaSn6(RuRh)2
_chemical_formula_sum   'La1 Sn6 Ru2 Rh2'
_cell_volume   242.23807600
_cell_formula_units_Z   1
loop_
 _symmetry_equiv_pos_site_id
 _symmetry_equiv_pos_as_xyz
  1  'x, y, z'
loop_
 _atom_site_type_symbol
 _atom_site_label
 _atom_site_symmetry_multiplicity
 _atom_site_fract_x
 _atom_site_fract_y
 _atom_site_fract_z
 _atom_site_occupancy
  La  La0  1  0.001552  0.001552  0.000000  1
  Sn  Sn1  1  0.472208  0.123918  0.000000  1
  Sn  Sn2  1  0.123918  0.472208  0.000000  1
  Sn  Sn3  1  0.877928  0.877928  0.351783  1
  Sn  Sn4  1  0.526145  0.526145  0.648217  1
  Sn  Sn5  1  0.995689  0.495689  0.500000  1
  Sn  Sn6  1  0.495689  0.995689  0.500000  1
  Ru  Ru7  1  0.251081  0.251081  0.656784  1
  Ru  Ru8  1  0.594297  0.594297  0.343216  1
  Rh  Rh9  1  0.402160  0.759334  0.000000  1
  Rh  Rh10  1  0.759334  0.402160  0.000000  1
