# generated using pymatgen
data_TbY(GaNi4)2
_symmetry_space_group_name_H-M   'P 1'
_cell_length_a   4.01889400
_cell_length_b   4.91391903
_cell_length_c   8.60919462
_cell_angle_alpha   88.77181246
_cell_angle_beta   90.00000000
_cell_angle_gamma   90.00000000
_symmetry_Int_Tables_number   1
_chemical_formula_structural   TbY(GaNi4)2
_chemical_formula_sum   'Tb1 Y1 Ga2 Ni8'
_cell_volume   169.97978939
_cell_formula_units_Z   1
loop_
 _symmetry_equiv_pos_site_id
 _symmetry_equiv_pos_as_xyz
  1  'x, y, z'
loop_
 _atom_site_type_symbol
 _atom_site_label
 _atom_site_symmetry_multiplicity
 _atom_site_fract_x
 _atom_site_fract_y
 _atom_site_fract_z
 _atom_site_occupancy
  Tb  Tb0  1  0.000000  0.500000  0.000000  1
  Y  Y1  1  0.000000  0.000000  0.500000  1
  Ga  Ga2  1  0.500000  0.750266  0.250229  1
  Ga  Ga3  1  0.500000  0.249734  0.749771  1
  Ni  Ni4  1  0.000000  0.497946  0.334148  1
  Ni  Ni5  1  0.000000  0.997863  0.834716  1
  Ni  Ni6  1  0.000000  0.002137  0.165284  1
  Ni  Ni7  1  0.000000  0.502054  0.665852  1
  Ni  Ni8  1  0.500000  0.500000  0.500000  1
  Ni  Ni9  1  0.500000  0.000000  0.000000  1
  Ni  Ni10  1  0.500000  0.250342  0.249874  1
  Ni  Ni11  1  0.500000  0.749658  0.750126  1
