# generated using pymatgen
data_LaTm(Ge2Pt)2
_symmetry_space_group_name_H-M   'P 1'
_cell_length_a   4.42233600
_cell_length_b   8.78351858
_cell_length_c   9.64777106
_cell_angle_alpha   117.07843674
_cell_angle_beta   103.24937029
_cell_angle_gamma   89.99999655
_symmetry_Int_Tables_number   1
_chemical_formula_structural   LaTm(Ge2Pt)2
_chemical_formula_sum   'La2 Tm2 Ge8 Pt4'
_cell_volume   322.43208047
_cell_formula_units_Z   2
loop_
 _symmetry_equiv_pos_site_id
 _symmetry_equiv_pos_as_xyz
  1  'x, y, z'
loop_
 _atom_site_type_symbol
 _atom_site_label
 _atom_site_symmetry_multiplicity
 _atom_site_fract_x
 _atom_site_fract_y
 _atom_site_fract_z
 _atom_site_occupancy
  La  La0  1  0.000000  0.256822  0.000000  1
  La  La1  1  0.000000  0.743178  0.000000  1
  Tm  Tm2  1  0.797325  0.297325  0.594650  1
  Tm  Tm3  1  0.202675  0.702675  0.405350  1
  Ge  Ge4  1  0.425509  0.925509  0.851018  1
  Ge  Ge5  1  0.574491  0.074491  0.148982  1
  Ge  Ge6  1  0.423954  0.423954  0.847908  1
  Ge  Ge7  1  0.576046  0.576046  0.152092  1
  Ge  Ge8  1  0.200060  0.050901  0.400120  1
  Ge  Ge9  1  0.799940  0.949099  0.599880  1
  Ge  Ge10  1  0.200060  0.349219  0.400120  1
  Ge  Ge11  1  0.799940  0.650781  0.599880  1
  Pt  Pt12  1  0.348249  0.097247  0.696497  1
  Pt  Pt13  1  0.651751  0.902753  0.303503  1
  Pt  Pt14  1  0.348249  0.599250  0.696497  1
  Pt  Pt15  1  0.651751  0.400750  0.303503  1
