# generated using pymatgen
data_Ce3Dy13Cd2(HgRu2)2
_symmetry_space_group_name_H-M   'P 1'
_cell_length_a   9.62938985
_cell_length_b   9.63661960
_cell_length_c   9.58137631
_cell_angle_alpha   59.96601359
_cell_angle_beta   59.83409268
_cell_angle_gamma   60.02480947
_symmetry_Int_Tables_number   1
_chemical_formula_structural   Ce3Dy13Cd2(HgRu2)2
_chemical_formula_sum   'Ce3 Dy13 Cd2 Hg2 Ru4'
_cell_volume   627.85391764
_cell_formula_units_Z   1
loop_
 _symmetry_equiv_pos_site_id
 _symmetry_equiv_pos_as_xyz
  1  'x, y, z'
loop_
 _atom_site_type_symbol
 _atom_site_label
 _atom_site_symmetry_multiplicity
 _atom_site_fract_x
 _atom_site_fract_y
 _atom_site_fract_z
 _atom_site_occupancy
  Ce  Ce0  1  0.346066  0.964555  0.343314  1
  Ce  Ce1  1  0.964068  0.346415  0.342857  1
  Ce  Ce2  1  0.346661  0.346415  0.342857  1
  Dy  Dy3  1  0.562575  0.562619  0.939167  1
  Dy  Dy4  1  0.935638  0.562619  0.939167  1
  Dy  Dy5  1  0.562191  0.936999  0.938617  1
  Dy  Dy6  1  0.937825  0.939526  0.561199  1
  Dy  Dy7  1  0.561450  0.939526  0.561199  1
  Dy  Dy8  1  0.937987  0.562213  0.561813  1
  Dy  Dy9  1  0.188834  0.189165  0.811934  1
  Dy  Dy10  1  0.810066  0.189165  0.811934  1
  Dy  Dy11  1  0.188543  0.810356  0.812555  1
  Dy  Dy12  1  0.810341  0.810407  0.190101  1
  Dy  Dy13  1  0.189152  0.810406  0.190100  1
  Dy  Dy14  1  0.809656  0.189866  0.190824  1
  Dy  Dy15  1  0.351422  0.350696  0.946461  1
  Cd  Cd16  1  0.258865  0.581238  0.579222  1
  Cd  Cd17  1  0.580673  0.581238  0.579222  1
  Hg  Hg18  1  0.584132  0.586065  0.245670  1
  Hg  Hg19  1  0.584162  0.246424  0.585251  1
  Ru  Ru20  1  0.143378  0.144520  0.568725  1
  Ru  Ru21  1  0.138263  0.570235  0.153238  1
  Ru  Ru22  1  0.570534  0.139667  0.152285  1
  Ru  Ru23  1  0.137514  0.139667  0.152285  1
