# generated using pymatgen
data_CePr7AgRh6
_symmetry_space_group_name_H-M   'P 1'
_cell_length_a   7.66096933
_cell_length_b   7.66097021
_cell_length_c   7.66096763
_cell_angle_alpha   69.54088870
_cell_angle_beta   69.54088999
_cell_angle_gamma   69.54087704
_symmetry_Int_Tables_number   1
_chemical_formula_structural   CePr7AgRh6
_chemical_formula_sum   'Ce1 Pr7 Ag1 Rh6'
_cell_volume   381.22299273
_cell_formula_units_Z   1
loop_
 _symmetry_equiv_pos_site_id
 _symmetry_equiv_pos_as_xyz
  1  'x, y, z'
loop_
 _atom_site_type_symbol
 _atom_site_label
 _atom_site_symmetry_multiplicity
 _atom_site_fract_x
 _atom_site_fract_y
 _atom_site_fract_z
 _atom_site_occupancy
  Ce  Ce0  1  0.812684  0.812684  0.812684  1
  Pr  Pr1  1  0.187605  0.187605  0.187605  1
  Pr  Pr2  1  0.147890  0.379359  0.680638  1
  Pr  Pr3  1  0.680638  0.147890  0.379359  1
  Pr  Pr4  1  0.379359  0.680638  0.147890  1
  Pr  Pr5  1  0.852909  0.615409  0.324463  1
  Pr  Pr6  1  0.324463  0.852909  0.615409  1
  Pr  Pr7  1  0.615409  0.324463  0.852909  1
  Ag  Ag8  1  0.999783  0.999783  0.999783  1
  Rh  Rh9  1  0.949716  0.170396  0.579924  1
  Rh  Rh10  1  0.579924  0.949716  0.170396  1
  Rh  Rh11  1  0.170396  0.579924  0.949716  1
  Rh  Rh12  1  0.036266  0.811319  0.451639  1
  Rh  Rh13  1  0.451639  0.036266  0.811319  1
  Rh  Rh14  1  0.811319  0.451639  0.036266  1
