# generated using pymatgen
data_Pr2Nd2Co6O19
_symmetry_space_group_name_H-M   'P 1'
_cell_length_a   7.51115815
_cell_length_b   7.50728326
_cell_length_c   7.50728411
_cell_angle_alpha   109.45221573
_cell_angle_beta   109.47296872
_cell_angle_gamma   109.46756201
_symmetry_Int_Tables_number   1
_chemical_formula_structural   Pr2Nd2Co6O19
_chemical_formula_sum   'Pr2 Nd2 Co6 O19'
_cell_volume   325.95879952
_cell_formula_units_Z   1
loop_
 _symmetry_equiv_pos_site_id
 _symmetry_equiv_pos_as_xyz
  1  'x, y, z'
loop_
 _atom_site_type_symbol
 _atom_site_label
 _atom_site_symmetry_multiplicity
 _atom_site_fract_x
 _atom_site_fract_y
 _atom_site_fract_z
 _atom_site_occupancy
  Pr  Pr0  1  0.000061  0.999914  0.329903  1
  Pr  Pr1  1  0.999939  0.329843  0.999853  1
  Nd  Nd2  1  0.669875  0.669624  0.669553  1
  Nd  Nd3  1  0.330125  0.999678  0.999748  1
  Co  Co4  1  0.342358  0.500266  0.842202  1
  Co  Co5  1  0.841736  0.342577  0.499899  1
  Co  Co6  1  0.500000  0.157877  0.657877  1
  Co  Co7  1  0.158264  0.658163  0.500841  1
  Co  Co8  1  0.500000  0.842246  0.342246  1
  Co  Co9  1  0.657642  0.499844  0.157908  1
  O  O10  1  0.355449  0.000175  0.355092  1
  O  O11  1  0.355449  0.354977  0.999995  1
  O  O12  1  0.000000  0.645450  0.645450  1
  O  O13  1  0.644551  0.644546  0.999528  1
  O  O14  1  0.000000  0.355721  0.355721  1
  O  O15  1  0.644551  0.999643  0.644727  1
  O  O16  1  0.000000  0.998008  0.998008  1
  O  O17  1  0.365946  0.324490  0.617535  1
  O  O18  1  0.041628  0.294146  0.676159  1
  O  O19  1  0.747249  0.383190  0.706048  1
  O  O20  1  0.383581  0.706841  0.747972  1
  O  O21  1  0.252751  0.958799  0.635941  1
  O  O22  1  0.616419  0.364392  0.323260  1
  O  O23  1  0.324348  0.617590  0.365806  1
  O  O24  1  0.675652  0.041457  0.293241  1
  O  O25  1  0.958372  0.634531  0.252518  1
  O  O26  1  0.705867  0.747106  0.383182  1
  O  O27  1  0.634054  0.251589  0.958544  1
  O  O28  1  0.294133  0.677315  0.041239  1
