# generated using pymatgen
data_TmLu(Si7Ir3)2
_symmetry_space_group_name_H-M   'P 1'
_cell_length_a   8.03950286
_cell_length_b   8.03950109
_cell_length_c   8.03950200
_cell_angle_alpha   56.45876194
_cell_angle_beta   56.45876176
_cell_angle_gamma   56.45875852
_symmetry_Int_Tables_number   1
_chemical_formula_structural   TmLu(Si7Ir3)2
_chemical_formula_sum   'Tm1 Lu1 Si14 Ir6'
_cell_volume   337.34806438
_cell_formula_units_Z   1
loop_
 _symmetry_equiv_pos_site_id
 _symmetry_equiv_pos_as_xyz
  1  'x, y, z'
loop_
 _atom_site_type_symbol
 _atom_site_label
 _atom_site_symmetry_multiplicity
 _atom_site_fract_x
 _atom_site_fract_y
 _atom_site_fract_z
 _atom_site_occupancy
  Tm  Tm0  1  0.500000  0.500000  0.500000  1
  Lu  Lu1  1  0.000000  0.000000  0.000000  1
  Si  Si2  1  0.850303  0.063969  0.672700  1
  Si  Si3  1  0.672700  0.850303  0.063969  1
  Si  Si4  1  0.063969  0.672700  0.850303  1
  Si  Si5  1  0.649807  0.827499  0.435699  1
  Si  Si6  1  0.250018  0.250018  0.250018  1
  Si  Si7  1  0.749982  0.749982  0.749982  1
  Si  Si8  1  0.172501  0.564301  0.350193  1
  Si  Si9  1  0.564301  0.350193  0.172501  1
  Si  Si10  1  0.350193  0.172501  0.564301  1
  Si  Si11  1  0.936031  0.327300  0.149697  1
  Si  Si12  1  0.327300  0.149697  0.936031  1
  Si  Si13  1  0.149697  0.936031  0.327300  1
  Si  Si14  1  0.827499  0.435699  0.649807  1
  Si  Si15  1  0.435699  0.649807  0.827499  1
  Ir  Ir16  1  0.750350  0.071463  0.428045  1
  Ir  Ir17  1  0.428045  0.750350  0.071463  1
  Ir  Ir18  1  0.071463  0.428045  0.750350  1
  Ir  Ir19  1  0.249650  0.928537  0.571955  1
  Ir  Ir20  1  0.571955  0.249650  0.928537  1
  Ir  Ir21  1  0.928537  0.571955  0.249650  1
