# generated using pymatgen
data_Y8HoTmRu4
_symmetry_space_group_name_H-M   'P 1'
_cell_length_a   6.36150537
_cell_length_b   7.30338400
_cell_length_c   8.50528043
_cell_angle_alpha   96.69311731
_cell_angle_beta   111.96090598
_cell_angle_gamma   89.99999020
_symmetry_Int_Tables_number   1
_chemical_formula_structural   Y8HoTmRu4
_chemical_formula_sum   'Y8 Ho1 Tm1 Ru4'
_cell_volume   363.58115946
_cell_formula_units_Z   1
loop_
 _symmetry_equiv_pos_site_id
 _symmetry_equiv_pos_as_xyz
  1  'x, y, z'
loop_
 _atom_site_type_symbol
 _atom_site_label
 _atom_site_symmetry_multiplicity
 _atom_site_fract_x
 _atom_site_fract_y
 _atom_site_fract_z
 _atom_site_occupancy
  Y  Y0  1  0.977776  0.915200  0.185885  1
  Y  Y1  1  0.791891  0.584800  0.814115  1
  Y  Y2  1  0.022378  0.084151  0.814038  1
  Y  Y3  1  0.208340  0.415849  0.185962  1
  Y  Y4  1  0.639992  0.814855  0.433821  1
  Y  Y5  1  0.206172  0.685145  0.566179  1
  Y  Y6  1  0.359702  0.184933  0.565804  1
  Y  Y7  1  0.793899  0.315067  0.434196  1
  Ho  Ho8  1  0.579037  0.250000  0.000000  1
  Tm  Tm9  1  0.421667  0.750000  0.000000  1
  Ru  Ru10  1  0.819664  0.575413  0.217972  1
  Ru  Ru11  1  0.601692  0.924587  0.782028  1
  Ru  Ru12  1  0.179998  0.425498  0.782206  1
  Ru  Ru13  1  0.397792  0.074502  0.217794  1
