# generated using pymatgen
data_Ho2Lu2BBr6
_symmetry_space_group_name_H-M   'P 1'
_cell_length_a   3.90310900
_cell_length_b   13.01419000
_cell_length_c   13.48889000
_cell_angle_alpha   90.00000000
_cell_angle_beta   90.00000000
_cell_angle_gamma   90.00000000
_symmetry_Int_Tables_number   1
_chemical_formula_structural   Ho2Lu2BBr6
_chemical_formula_sum   'Ho4 Lu4 B2 Br12'
_cell_volume   685.17898721
_cell_formula_units_Z   2
loop_
 _symmetry_equiv_pos_site_id
 _symmetry_equiv_pos_as_xyz
  1  'x, y, z'
loop_
 _atom_site_type_symbol
 _atom_site_label
 _atom_site_symmetry_multiplicity
 _atom_site_fract_x
 _atom_site_fract_y
 _atom_site_fract_z
 _atom_site_occupancy
  Ho  Ho0  1  0.500000  0.122552  0.856017  1
  Ho  Ho1  1  0.500000  0.877448  0.143983  1
  Ho  Ho2  1  0.500000  0.622552  0.643983  1
  Ho  Ho3  1  0.500000  0.377448  0.356017  1
  Lu  Lu4  1  0.000000  0.099363  0.078897  1
  Lu  Lu5  1  0.000000  0.900637  0.921103  1
  Lu  Lu6  1  0.000000  0.599363  0.421103  1
  Lu  Lu7  1  0.000000  0.400637  0.578897  1
  B  B8  1  0.500000  0.000000  0.000000  1
  B  B9  1  0.500000  0.500000  0.500000  1
  Br  Br10  1  0.500000  0.269730  0.680487  1
  Br  Br11  1  0.500000  0.730270  0.319513  1
  Br  Br12  1  0.500000  0.769730  0.819513  1
  Br  Br13  1  0.500000  0.230270  0.180487  1
  Br  Br14  1  0.000000  0.261661  0.932596  1
  Br  Br15  1  0.000000  0.738339  0.067404  1
  Br  Br16  1  0.000000  0.482133  0.238988  1
  Br  Br17  1  0.000000  0.517867  0.761012  1
  Br  Br18  1  0.000000  0.982133  0.261012  1
  Br  Br19  1  0.000000  0.017867  0.738988  1
  Br  Br20  1  0.000000  0.238339  0.432596  1
  Br  Br21  1  0.000000  0.761661  0.567404  1
