# generated using pymatgen
data_Ce3Er9Fe4
_symmetry_space_group_name_H-M   'P 1'
_cell_length_a   6.26354900
_cell_length_b   6.78462912
_cell_length_c   9.41641300
_cell_angle_alpha   90.00000000
_cell_angle_beta   90.00000000
_cell_angle_gamma   91.97494449
_symmetry_Int_Tables_number   1
_chemical_formula_structural   Ce3Er9Fe4
_chemical_formula_sum   'Ce3 Er9 Fe4'
_cell_volume   399.92084260
_cell_formula_units_Z   1
loop_
 _symmetry_equiv_pos_site_id
 _symmetry_equiv_pos_as_xyz
  1  'x, y, z'
loop_
 _atom_site_type_symbol
 _atom_site_label
 _atom_site_symmetry_multiplicity
 _atom_site_fract_x
 _atom_site_fract_y
 _atom_site_fract_z
 _atom_site_occupancy
  Ce  Ce0  1  0.133363  0.426324  0.750000  1
  Ce  Ce1  1  0.372442  0.927471  0.750000  1
  Ce  Ce2  1  0.848723  0.567927  0.250000  1
  Er  Er3  1  0.632527  0.044589  0.250000  1
  Er  Er4  1  0.668936  0.327101  0.938421  1
  Er  Er5  1  0.173601  0.170697  0.430399  1
  Er  Er6  1  0.831895  0.827260  0.565060  1
  Er  Er7  1  0.173601  0.170697  0.069601  1
  Er  Er8  1  0.831895  0.827260  0.934940  1
  Er  Er9  1  0.668936  0.327101  0.561579  1
  Er  Er10  1  0.323423  0.670732  0.065915  1
  Er  Er11  1  0.323423  0.670732  0.434085  1
  Fe  Fe12  1  0.505242  0.642551  0.750000  1
  Fe  Fe13  1  0.987559  0.139547  0.750000  1
  Fe  Fe14  1  0.017974  0.854929  0.250000  1
  Fe  Fe15  1  0.506460  0.405087  0.250000  1
