# generated using pymatgen
data_Sm2DyCo8ReP6
_symmetry_space_group_name_H-M   'P 1'
_cell_length_a   3.75714600
_cell_length_b   10.59328400
_cell_length_c   12.30139900
_cell_angle_alpha   90.00000000
_cell_angle_beta   90.00000000
_cell_angle_gamma   90.00000000
_symmetry_Int_Tables_number   1
_chemical_formula_structural   Sm2DyCo8ReP6
_chemical_formula_sum   'Sm4 Dy2 Co16 Re2 P12'
_cell_volume   489.60201059
_cell_formula_units_Z   2
loop_
 _symmetry_equiv_pos_site_id
 _symmetry_equiv_pos_as_xyz
  1  'x, y, z'
loop_
 _atom_site_type_symbol
 _atom_site_label
 _atom_site_symmetry_multiplicity
 _atom_site_fract_x
 _atom_site_fract_y
 _atom_site_fract_z
 _atom_site_occupancy
  Sm  Sm0  1  0.000000  0.500000  0.522852  1
  Sm  Sm1  1  0.500000  0.000000  0.476064  1
  Sm  Sm2  1  0.000000  0.682428  0.794508  1
  Sm  Sm3  1  0.000000  0.317572  0.794508  1
  Dy  Dy4  1  0.500000  0.818076  0.205326  1
  Dy  Dy5  1  0.500000  0.181924  0.205326  1
  Co  Co6  1  0.500000  0.500000  0.703092  1
  Co  Co7  1  0.000000  0.000000  0.295972  1
  Co  Co8  1  0.000000  0.500000  0.989564  1
  Co  Co9  1  0.500000  0.000000  0.013506  1
  Co  Co10  1  0.500000  0.331666  0.991870  1
  Co  Co11  1  0.500000  0.668334  0.991870  1
  Co  Co12  1  0.000000  0.166961  0.011369  1
  Co  Co13  1  0.000000  0.833039  0.011369  1
  Co  Co14  1  0.500000  0.296036  0.428874  1
  Co  Co15  1  0.500000  0.703964  0.428874  1
  Co  Co16  1  0.000000  0.203519  0.568285  1
  Co  Co17  1  0.000000  0.796481  0.568285  1
  Co  Co18  1  0.500000  0.880685  0.709556  1
  Co  Co19  1  0.500000  0.119315  0.709556  1
  Co  Co20  1  0.000000  0.620454  0.289323  1
  Co  Co21  1  0.000000  0.379546  0.289323  1
  Re  Re22  1  0.500000  0.500000  0.154972  1
  Re  Re23  1  0.000000  0.000000  0.845814  1
  P  P24  1  0.500000  0.500000  0.883552  1
  P  P25  1  0.000000  0.000000  0.119678  1
  P  P26  1  0.500000  0.500000  0.345789  1
  P  P27  1  0.000000  0.000000  0.653862  1
  P  P28  1  0.500000  0.308768  0.614221  1
  P  P29  1  0.500000  0.691232  0.614221  1
  P  P30  1  0.000000  0.190034  0.382438  1
  P  P31  1  0.000000  0.809966  0.382438  1
  P  P32  1  0.500000  0.847478  0.894543  1
  P  P33  1  0.500000  0.152522  0.894543  1
  P  P34  1  0.000000  0.654552  0.107329  1
  P  P35  1  0.000000  0.345448  0.107329  1
