# generated using pymatgen
data_Dy7Th3(Al2Ru3)2
_symmetry_space_group_name_H-M   'P 1'
_cell_length_a   8.38528747
_cell_length_b   8.43155578
_cell_length_c   8.38528697
_cell_angle_alpha   109.18746483
_cell_angle_beta   108.93325020
_cell_angle_gamma   110.06991997
_symmetry_Int_Tables_number   1
_chemical_formula_structural   Dy7Th3(Al2Ru3)2
_chemical_formula_sum   'Dy7 Th3 Al4 Ru6'
_cell_volume   457.58937114
_cell_formula_units_Z   1
loop_
 _symmetry_equiv_pos_site_id
 _symmetry_equiv_pos_as_xyz
  1  'x, y, z'
loop_
 _atom_site_type_symbol
 _atom_site_label
 _atom_site_symmetry_multiplicity
 _atom_site_fract_x
 _atom_site_fract_y
 _atom_site_fract_z
 _atom_site_occupancy
  Dy  Dy0  1  0.684738  0.433671  0.250177  1
  Dy  Dy1  1  0.065465  0.750000  0.815465  1
  Dy  Dy2  1  0.816505  0.066329  0.751066  1
  Dy  Dy3  1  0.220540  0.217637  0.214244  1
  Dy  Dy4  1  0.497796  0.997414  0.279839  1
  Dy  Dy5  1  0.282425  0.502586  0.000382  1
  Dy  Dy6  1  0.996606  0.282363  0.502902  1
  Th  Th7  1  0.248683  0.687262  0.440031  1
  Th  Th8  1  0.752769  0.812738  0.061421  1
  Th  Th9  1  0.437899  0.250000  0.687899  1
  Al  Al10  1  0.600367  0.597780  0.588765  1
  Al  Al11  1  0.506665  0.008107  0.914991  1
  Al  Al12  1  0.906885  0.491893  0.998558  1
  Al  Al13  1  0.990985  0.902220  0.502587  1
  Ru  Ru14  1  0.255803  0.129320  0.863761  1
  Ru  Ru15  1  0.734441  0.370680  0.626482  1
  Ru  Ru16  1  0.882541  0.250000  0.132542  1
  Ru  Ru17  1  0.116395  0.865111  0.249894  1
  Ru  Ru18  1  0.617712  0.750000  0.367712  1
  Ru  Ru19  1  0.384782  0.634888  0.751283  1
