# generated using pymatgen
data_Pr2Dy2Al13Ga5Ir6
_symmetry_space_group_name_H-M   'P 1'
_cell_length_a   7.56059871
_cell_length_b   7.56193298
_cell_length_c   9.66703300
_cell_angle_alpha   90.00000000
_cell_angle_beta   90.00000000
_cell_angle_gamma   119.51151206
_symmetry_Int_Tables_number   1
_chemical_formula_structural   Pr2Dy2Al13Ga5Ir6
_chemical_formula_sum   'Pr2 Dy2 Al13 Ga5 Ir6'
_cell_volume   480.98286833
_cell_formula_units_Z   1
loop_
 _symmetry_equiv_pos_site_id
 _symmetry_equiv_pos_as_xyz
  1  'x, y, z'
loop_
 _atom_site_type_symbol
 _atom_site_label
 _atom_site_symmetry_multiplicity
 _atom_site_fract_x
 _atom_site_fract_y
 _atom_site_fract_z
 _atom_site_occupancy
  Pr  Pr0  1  0.995334  0.669734  0.750000  1
  Pr  Pr1  1  0.669850  0.996409  0.750000  1
  Dy  Dy2  1  0.000168  0.325337  0.250000  1
  Dy  Dy3  1  0.330121  0.006715  0.250000  1
  Al  Al4  1  0.004418  0.334933  0.566757  1
  Al  Al5  1  0.999768  0.665121  0.424317  1
  Al  Al6  1  0.999768  0.665121  0.075683  1
  Al  Al7  1  0.334887  0.003996  0.933290  1
  Al  Al8  1  0.004418  0.334933  0.933243  1
  Al  Al9  1  0.664180  0.997875  0.075974  1
  Al  Al10  1  0.664180  0.997875  0.424026  1
  Al  Al11  1  0.334887  0.003996  0.566710  1
  Al  Al12  1  0.333560  0.334082  0.058882  1
  Al  Al13  1  0.664980  0.664817  0.954850  1
  Al  Al14  1  0.664980  0.664817  0.545150  1
  Al  Al15  1  0.333560  0.334082  0.441118  1
  Al  Al16  1  0.449241  0.660857  0.250000  1
  Ga  Ga17  1  0.132608  0.132579  0.750000  1
  Ga  Ga18  1  0.870297  0.869401  0.250000  1
  Ga  Ga19  1  0.337988  0.543504  0.750000  1
  Ga  Ga20  1  0.661356  0.453554  0.250000  1
  Ga  Ga21  1  0.543465  0.338711  0.750000  1
  Ir  Ir22  1  0.671785  0.328105  0.497807  1
  Ir  Ir23  1  0.329392  0.671093  0.495470  1
  Ir  Ir24  1  0.329392  0.671093  0.004530  1
  Ir  Ir25  1  0.671785  0.328105  0.002193  1
  Ir  Ir26  1  0.001816  0.001580  0.496964  1
  Ir  Ir27  1  0.001816  0.001580  0.003036  1
