# generated using pymatgen
data_ZrTcP
_symmetry_space_group_name_H-M   'P 1'
_cell_length_a   6.78026500
_cell_length_b   6.78026635
_cell_length_c   3.55149900
_cell_angle_alpha   90.00000000
_cell_angle_beta   90.00000000
_cell_angle_gamma   119.99999831
_symmetry_Int_Tables_number   1
_chemical_formula_structural   ZrTcP
_chemical_formula_sum   'Zr3 Tc3 P3'
_cell_volume   141.39555547
_cell_formula_units_Z   3
loop_
 _symmetry_equiv_pos_site_id
 _symmetry_equiv_pos_as_xyz
  1  'x, y, z'
loop_
 _atom_site_type_symbol
 _atom_site_label
 _atom_site_symmetry_multiplicity
 _atom_site_fract_x
 _atom_site_fract_y
 _atom_site_fract_z
 _atom_site_occupancy
  Zr  Zr0  1  0.407499  0.407499  0.500000  1
  Zr  Zr1  1  0.592501  0.000000  0.500000  1
  Zr  Zr2  1  0.000000  0.592501  0.500000  1
  Tc  Tc3  1  0.000000  0.244476  0.000000  1
  Tc  Tc4  1  0.244476  0.000000  0.000000  1
  Tc  Tc5  1  0.755524  0.755524  0.000000  1
  P  P6  1  0.666667  0.333333  0.000000  1
  P  P7  1  0.333333  0.666667  0.000000  1
  P  P8  1  0.000000  0.000000  0.500000  1
