# generated using pymatgen
data_Dy7TmTe4
_symmetry_space_group_name_H-M   'P 1'
_cell_length_a   4.07064600
_cell_length_b   11.52639974
_cell_length_c   22.12925516
_cell_angle_alpha   90.10409268
_cell_angle_beta   90.00000000
_cell_angle_gamma   90.00000000
_symmetry_Int_Tables_number   1
_chemical_formula_structural   Dy7TmTe4
_chemical_formula_sum   'Dy21 Tm3 Te12'
_cell_volume   1038.30057067
_cell_formula_units_Z   3
loop_
 _symmetry_equiv_pos_site_id
 _symmetry_equiv_pos_as_xyz
  1  'x, y, z'
loop_
 _atom_site_type_symbol
 _atom_site_label
 _atom_site_symmetry_multiplicity
 _atom_site_fract_x
 _atom_site_fract_y
 _atom_site_fract_z
 _atom_site_occupancy
  Dy  Dy0  1  0.250000  0.348532  0.891612  1
  Dy  Dy1  1  0.250000  0.455674  0.339886  1
  Dy  Dy2  1  0.750000  0.544394  0.659996  1
  Dy  Dy3  1  0.750000  0.955647  0.160158  1
  Dy  Dy4  1  0.250000  0.044183  0.839966  1
  Dy  Dy5  1  0.250000  0.734817  0.232407  1
  Dy  Dy6  1  0.750000  0.265292  0.766712  1
  Dy  Dy7  1  0.750000  0.234769  0.267582  1
  Dy  Dy8  1  0.250000  0.765404  0.732370  1
  Dy  Dy9  1  0.250000  0.115436  0.034494  1
  Dy  Dy10  1  0.750000  0.884298  0.965870  1
  Dy  Dy11  1  0.750000  0.615681  0.465853  1
  Dy  Dy12  1  0.250000  0.384416  0.534137  1
  Dy  Dy13  1  0.250000  0.415569  0.146114  1
  Dy  Dy14  1  0.750000  0.585862  0.853320  1
  Dy  Dy15  1  0.750000  0.915573  0.353981  1
  Dy  Dy16  1  0.250000  0.084511  0.646125  1
  Dy  Dy17  1  0.250000  0.612686  0.983479  1
  Dy  Dy18  1  0.750000  0.387758  0.017129  1
  Dy  Dy19  1  0.750000  0.112035  0.516559  1
  Dy  Dy20  1  0.250000  0.887837  0.483423  1
  Tm  Tm21  1  0.250000  0.150208  0.391512  1
  Tm  Tm22  1  0.750000  0.849758  0.608430  1
  Tm  Tm23  1  0.750000  0.650283  0.108519  1
  Te  Te24  1  0.250000  0.849013  0.069635  1
  Te  Te25  1  0.750000  0.149806  0.931102  1
  Te  Te26  1  0.750000  0.348913  0.430378  1
  Te  Te27  1  0.250000  0.651068  0.569594  1
  Te  Te28  1  0.250000  0.711869  0.372877  1
  Te  Te29  1  0.750000  0.288099  0.627051  1
  Te  Te30  1  0.750000  0.211798  0.127199  1
  Te  Te31  1  0.250000  0.788302  0.872751  1
  Te  Te32  1  0.250000  0.021368  0.261242  1
  Te  Te33  1  0.750000  0.978606  0.738827  1
  Te  Te34  1  0.750000  0.521367  0.238832  1
  Te  Te35  1  0.250000  0.479168  0.760879  1
