# generated using pymatgen
data_SmEr3Tc3Os5
_symmetry_space_group_name_H-M   'P 1'
_cell_length_a   5.27270999
_cell_length_b   5.29821766
_cell_length_c   9.07091096
_cell_angle_alpha   90.00000237
_cell_angle_beta   90.06536371
_cell_angle_gamma   120.16016929
_symmetry_Int_Tables_number   1
_chemical_formula_structural   SmEr3Tc3Os5
_chemical_formula_sum   'Sm1 Er3 Tc3 Os5'
_cell_volume   219.09962485
_cell_formula_units_Z   1
loop_
 _symmetry_equiv_pos_site_id
 _symmetry_equiv_pos_as_xyz
  1  'x, y, z'
loop_
 _atom_site_type_symbol
 _atom_site_label
 _atom_site_symmetry_multiplicity
 _atom_site_fract_x
 _atom_site_fract_y
 _atom_site_fract_z
 _atom_site_occupancy
  Sm  Sm0  1  0.336155  0.668078  0.063590  1
  Er  Er1  1  0.336073  0.668038  0.435455  1
  Er  Er2  1  0.667726  0.333862  0.562733  1
  Er  Er3  1  0.667793  0.333896  0.936275  1
  Tc  Tc4  1  0.164548  0.335905  0.748319  1
  Tc  Tc5  1  0.164548  0.828643  0.748319  1
  Tc  Tc6  1  0.331539  0.165769  0.251716  1
  Os  Os7  1  0.824767  0.654373  0.252762  1
  Os  Os8  1  0.652298  0.826148  0.748045  1
  Os  Os9  1  0.015112  0.007556  0.001156  1
  Os  Os10  1  0.824767  0.170394  0.252762  1
  Os  Os11  1  0.014677  0.007339  0.498867  1
