# generated using pymatgen
data_Na5GaSe3S
_symmetry_space_group_name_H-M   'P 1'
_cell_length_a   9.09575400
_cell_length_b   6.93999384
_cell_length_c   7.99909447
_cell_angle_alpha   89.55642611
_cell_angle_beta   90.00000000
_cell_angle_gamma   90.00000000
_symmetry_Int_Tables_number   1
_chemical_formula_structural   Na5GaSe3S
_chemical_formula_sum   'Na10 Ga2 Se6 S2'
_cell_volume   504.92352047
_cell_formula_units_Z   2
loop_
 _symmetry_equiv_pos_site_id
 _symmetry_equiv_pos_as_xyz
  1  'x, y, z'
loop_
 _atom_site_type_symbol
 _atom_site_label
 _atom_site_symmetry_multiplicity
 _atom_site_fract_x
 _atom_site_fract_y
 _atom_site_fract_z
 _atom_site_occupancy
  Na  Na0  1  0.481441  0.346173  0.668764  1
  Na  Na1  1  0.981441  0.653827  0.331236  1
  Na  Na2  1  0.518559  0.653827  0.331236  1
  Na  Na3  1  0.018559  0.346173  0.668764  1
  Na  Na4  1  0.750000  0.028810  0.536386  1
  Na  Na5  1  0.250000  0.971190  0.463614  1
  Na  Na6  1  0.750000  0.331711  0.154266  1
  Na  Na7  1  0.250000  0.668289  0.845734  1
  Na  Na8  1  0.000000  0.000000  0.000000  1
  Na  Na9  1  0.500000  0.000000  0.000000  1
  Ga  Ga10  1  0.250000  0.370016  0.179143  1
  Ga  Ga11  1  0.750000  0.629984  0.820857  1
  Se  Se12  1  0.250000  0.241197  0.892186  1
  Se  Se13  1  0.750000  0.758803  0.107814  1
  Se  Se14  1  0.971295  0.767084  0.678307  1
  Se  Se15  1  0.471295  0.232916  0.321693  1
  Se  Se16  1  0.028705  0.232916  0.321693  1
  Se  Se17  1  0.528705  0.767084  0.678307  1
  S  S18  1  0.750000  0.297935  0.815513  1
  S  S19  1  0.250000  0.702065  0.184487  1
