# generated using pymatgen
data_NdDy2Tm(Mo2O7)2
_symmetry_space_group_name_H-M   'P 1'
_cell_length_a   7.43128266
_cell_length_b   7.36046429
_cell_length_c   7.36046507
_cell_angle_alpha   59.69121419
_cell_angle_beta   60.30748874
_cell_angle_gamma   60.30747890
_symmetry_Int_Tables_number   1
_chemical_formula_structural   NdDy2Tm(Mo2O7)2
_chemical_formula_sum   'Nd1 Dy2 Tm1 Mo4 O14'
_cell_volume   285.31797192
_cell_formula_units_Z   1
loop_
 _symmetry_equiv_pos_site_id
 _symmetry_equiv_pos_as_xyz
  1  'x, y, z'
loop_
 _atom_site_type_symbol
 _atom_site_label
 _atom_site_symmetry_multiplicity
 _atom_site_fract_x
 _atom_site_fract_y
 _atom_site_fract_z
 _atom_site_occupancy
  Nd  Nd0  1  0.625000  0.125000  0.125000  1
  Dy  Dy1  1  0.125000  0.625000  0.125000  1
  Dy  Dy2  1  0.125000  0.125000  0.625000  1
  Tm  Tm3  1  0.125000  0.125000  0.125000  1
  Mo  Mo4  1  0.125000  0.625000  0.625000  1
  Mo  Mo5  1  0.625000  0.125000  0.625000  1
  Mo  Mo6  1  0.625000  0.625000  0.125000  1
  Mo  Mo7  1  0.625000  0.625000  0.625000  1
  O  O8  1  0.715944  0.707744  0.286796  1
  O  O9  1  0.286004  0.287872  0.711129  1
  O  O10  1  0.715944  0.286796  0.707744  1
  O  O11  1  0.286004  0.711129  0.287872  1
  O  O12  1  0.284560  0.718481  0.718481  1
  O  O13  1  0.728711  0.285369  0.285369  1
  O  O14  1  0.534056  0.542256  0.963204  1
  O  O15  1  0.963996  0.962128  0.538871  1
  O  O16  1  0.534056  0.963204  0.542256  1
  O  O17  1  0.963996  0.538871  0.962128  1
  O  O18  1  0.965440  0.531519  0.531519  1
  O  O19  1  0.521289  0.964631  0.964631  1
  O  O20  1  0.241542  0.249974  0.249974  1
  O  O21  1  0.008458  0.000026  0.000026  1
