# generated using pymatgen
data_Hg4PdPt3O14
_symmetry_space_group_name_H-M   'P 1'
_cell_length_a   7.32176828
_cell_length_b   7.32176805
_cell_length_c   7.32176931
_cell_angle_alpha   59.92573570
_cell_angle_beta   59.92574035
_cell_angle_gamma   59.92574267
_symmetry_Int_Tables_number   1
_chemical_formula_structural   Hg4PdPt3O14
_chemical_formula_sum   'Hg4 Pd1 Pt3 O14'
_cell_volume   277.07722151
_cell_formula_units_Z   1
loop_
 _symmetry_equiv_pos_site_id
 _symmetry_equiv_pos_as_xyz
  1  'x, y, z'
loop_
 _atom_site_type_symbol
 _atom_site_label
 _atom_site_symmetry_multiplicity
 _atom_site_fract_x
 _atom_site_fract_y
 _atom_site_fract_z
 _atom_site_occupancy
  Hg  Hg0  1  0.125000  0.125000  0.125000  1
  Hg  Hg1  1  0.625000  0.125000  0.125000  1
  Hg  Hg2  1  0.125000  0.625000  0.125000  1
  Hg  Hg3  1  0.125000  0.125000  0.625000  1
  Pd  Pd4  1  0.625000  0.625000  0.625000  1
  Pt  Pt5  1  0.625000  0.625000  0.125000  1
  Pt  Pt6  1  0.625000  0.125000  0.625000  1
  Pt  Pt7  1  0.125000  0.625000  0.625000  1
  O  O8  1  0.704745  0.297002  0.297002  1
  O  O9  1  0.704072  0.293484  0.704072  1
  O  O10  1  0.999295  0.999295  0.999295  1
  O  O11  1  0.297002  0.704745  0.297002  1
  O  O12  1  0.704072  0.704072  0.293484  1
  O  O13  1  0.956516  0.545928  0.545928  1
  O  O14  1  0.293484  0.704072  0.704072  1
  O  O15  1  0.250705  0.250705  0.250705  1
  O  O16  1  0.952998  0.545255  0.952998  1
  O  O17  1  0.545928  0.956516  0.545928  1
  O  O18  1  0.545928  0.545928  0.956516  1
  O  O19  1  0.952998  0.952998  0.545255  1
  O  O20  1  0.545255  0.952998  0.952998  1
  O  O21  1  0.297002  0.297002  0.704745  1
