# generated using pymatgen
data_NaTb4Ho2Co6Sn23
_symmetry_space_group_name_H-M   'P 1'
_cell_length_a   9.71250708
_cell_length_b   9.71362697
_cell_length_c   9.95170807
_cell_angle_alpha   89.99999891
_cell_angle_beta   90.01209167
_cell_angle_gamma   120.00381917
_symmetry_Int_Tables_number   1
_chemical_formula_structural   NaTb4Ho2Co6Sn23
_chemical_formula_sum   'Na1 Tb4 Ho2 Co6 Sn23'
_cell_volume   813.06319321
_cell_formula_units_Z   1
loop_
 _symmetry_equiv_pos_site_id
 _symmetry_equiv_pos_as_xyz
  1  'x, y, z'
loop_
 _atom_site_type_symbol
 _atom_site_label
 _atom_site_symmetry_multiplicity
 _atom_site_fract_x
 _atom_site_fract_y
 _atom_site_fract_z
 _atom_site_occupancy
  Na  Na0  1  0.999994  0.999997  0.000006  1
  Tb  Tb1  1  0.520463  0.479489  0.693993  1
  Tb  Tb2  1  0.520463  0.040974  0.693993  1
  Tb  Tb3  1  0.959031  0.479515  0.694063  1
  Tb  Tb4  1  0.040983  0.520492  0.305913  1
  Ho  Ho5  1  0.479694  0.959353  0.305945  1
  Ho  Ho6  1  0.479694  0.520341  0.305945  1
  Co  Co7  1  0.170285  0.829726  0.799438  1
  Co  Co8  1  0.170285  0.340559  0.799438  1
  Co  Co9  1  0.659431  0.829715  0.799406  1
  Co  Co10  1  0.340733  0.170367  0.200707  1
  Co  Co11  1  0.829486  0.659372  0.200640  1
  Co  Co12  1  0.829486  0.170114  0.200640  1
  Sn  Sn13  1  0.666501  0.333250  0.184358  1
  Sn  Sn14  1  0.666656  0.333328  0.882864  1
  Sn  Sn15  1  0.333713  0.666857  0.117622  1
  Sn  Sn16  1  0.344064  0.344013  0.000133  1
  Sn  Sn17  1  0.999978  0.655967  0.000015  1
  Sn  Sn18  1  0.655937  0.999972  0.000075  1
  Sn  Sn19  1  0.655937  0.655965  0.000075  1
  Sn  Sn20  1  0.333371  0.666686  0.815693  1
  Sn  Sn21  1  0.436749  0.218376  0.452741  1
  Sn  Sn22  1  0.218502  0.781719  0.546792  1
  Sn  Sn23  1  0.218502  0.436781  0.546792  1
  Sn  Sn24  1  0.563200  0.781599  0.546671  1
  Sn  Sn25  1  0.116530  0.883859  0.271928  1
  Sn  Sn26  1  0.781352  0.563256  0.452905  1
  Sn  Sn27  1  0.781352  0.218098  0.452905  1
  Sn  Sn28  1  0.344064  0.000051  0.000133  1
  Sn  Sn29  1  0.116530  0.232671  0.271928  1
  Sn  Sn30  1  0.767101  0.883550  0.271932  1
  Sn  Sn31  1  0.232527  0.116264  0.728108  1
  Sn  Sn32  1  0.883726  0.767510  0.728099  1
  Sn  Sn33  1  0.883726  0.116216  0.728099  1
  Sn  Sn34  1  0.999976  0.999988  0.499989  1
  Sn  Sn35  1  0.999978  0.344010  0.000015  1
