# generated using pymatgen
data_Sr4ErIn(MoO6)2
_symmetry_space_group_name_H-M   'P 1'
_cell_length_a   5.78950906
_cell_length_b   5.86810102
_cell_length_c   8.28398706
_cell_angle_alpha   89.85369520
_cell_angle_beta   90.48592177
_cell_angle_gamma   90.35090906
_symmetry_Int_Tables_number   1
_chemical_formula_structural   Sr4ErIn(MoO6)2
_chemical_formula_sum   'Sr4 Er1 In1 Mo2 O12'
_cell_volume   281.41912514
_cell_formula_units_Z   1
loop_
 _symmetry_equiv_pos_site_id
 _symmetry_equiv_pos_as_xyz
  1  'x, y, z'
loop_
 _atom_site_type_symbol
 _atom_site_label
 _atom_site_symmetry_multiplicity
 _atom_site_fract_x
 _atom_site_fract_y
 _atom_site_fract_z
 _atom_site_occupancy
  Sr  Sr0  1  0.006034  0.035163  0.245845  1
  Sr  Sr1  1  0.495326  0.537320  0.249011  1
  Sr  Sr2  1  0.504674  0.462679  0.750988  1
  Sr  Sr3  1  0.993965  0.964838  0.754155  1
  Er  Er4  1  0.000000  0.500000  0.500000  1
  In  In5  1  0.500001  0.000000  0.000000  1
  Mo  Mo6  1  0.000000  0.500000  0.000000  1
  Mo  Mo7  1  0.500000  0.000000  0.500000  1
  O  O8  1  0.268502  0.304242  0.036181  1
  O  O9  1  0.203423  0.781360  0.043921  1
  O  O10  1  0.925161  0.479071  0.238480  1
  O  O11  1  0.576795  0.977245  0.258244  1
  O  O12  1  0.301029  0.279428  0.458304  1
  O  O13  1  0.230421  0.805377  0.464265  1
  O  O14  1  0.769580  0.194623  0.535736  1
  O  O15  1  0.698970  0.720572  0.541697  1
  O  O16  1  0.423206  0.022755  0.741755  1
  O  O17  1  0.074838  0.520928  0.761519  1
  O  O18  1  0.796578  0.218639  0.956080  1
  O  O19  1  0.731499  0.695759  0.963819  1
