# generated using pymatgen
data_Ho5Mn3Co13(TcP4)3
_symmetry_space_group_name_H-M   'P 1'
_cell_length_a   12.13406811
_cell_length_b   12.09913555
_cell_length_c   3.69716100
_cell_angle_alpha   90.00000000
_cell_angle_beta   90.00000000
_cell_angle_gamma   120.08016096
_symmetry_Int_Tables_number   1
_chemical_formula_structural   Ho5Mn3Co13(TcP4)3
_chemical_formula_sum   'Ho5 Mn3 Co13 Tc3 P12'
_cell_volume   469.68684333
_cell_formula_units_Z   1
loop_
 _symmetry_equiv_pos_site_id
 _symmetry_equiv_pos_as_xyz
  1  'x, y, z'
loop_
 _atom_site_type_symbol
 _atom_site_label
 _atom_site_symmetry_multiplicity
 _atom_site_fract_x
 _atom_site_fract_y
 _atom_site_fract_z
 _atom_site_occupancy
  Ho  Ho0  1  0.662779  0.332508  0.000000  1
  Ho  Ho1  1  0.332916  0.666543  0.000000  1
  Ho  Ho2  1  0.816821  0.819089  0.500000  1
  Ho  Ho3  1  0.184555  0.999162  0.500000  1
  Ho  Ho4  1  0.001806  0.183624  0.500000  1
  Mn  Mn5  1  0.877442  0.352631  0.500000  1
  Mn  Mn6  1  0.646120  0.523203  0.500000  1
  Mn  Mn7  1  0.800549  0.180117  0.000000  1
  Co  Co8  1  0.478606  0.123865  0.500000  1
  Co  Co9  1  0.354079  0.872139  0.500000  1
  Co  Co10  1  0.515839  0.644553  0.500000  1
  Co  Co11  1  0.129900  0.484119  0.500000  1
  Co  Co12  1  0.823138  0.626812  0.000000  1
  Co  Co13  1  0.373350  0.195482  0.000000  1
  Co  Co14  1  0.177419  0.802725  0.000000  1
  Co  Co15  1  0.624585  0.821961  0.000000  1
  Co  Co16  1  0.200151  0.376028  0.000000  1
  Co  Co17  1  0.282208  0.281443  0.500000  1
  Co  Co18  1  0.715759  0.998590  0.500000  1
  Co  Co19  1  0.000737  0.718643  0.500000  1
  Co  Co20  1  0.999365  0.999354  0.000000  1
  Tc  Tc21  1  0.448753  0.447270  0.000000  1
  Tc  Tc22  1  0.551341  0.996507  0.000000  1
  Tc  Tc23  1  0.001974  0.553186  0.000000  1
  P  P24  1  0.679699  0.162171  0.500000  1
  P  P25  1  0.835977  0.520024  0.500000  1
  P  P26  1  0.477961  0.312759  0.500000  1
  P  P27  1  0.164558  0.685114  0.500000  1
  P  P28  1  0.519528  0.835266  0.500000  1
  P  P29  1  0.315659  0.479547  0.500000  1
  P  P30  1  0.179111  0.178175  0.000000  1
  P  P31  1  0.820869  0.002680  0.000000  1
  P  P32  1  0.000057  0.820889  0.000000  1
  P  P33  1  0.638417  0.641868  0.000000  1
  P  P34  1  0.361878  0.999084  0.000000  1
  P  P35  1  0.006093  0.362864  0.000000  1
