# generated using pymatgen
data_La2Dy4FeBr10
_symmetry_space_group_name_H-M   'P 1'
_cell_length_a   7.48468850
_cell_length_b   9.40790711
_cell_length_c   9.23618849
_cell_angle_alpha   107.04862613
_cell_angle_beta   94.93009424
_cell_angle_gamma   106.83740850
_symmetry_Int_Tables_number   1
_chemical_formula_structural   La2Dy4FeBr10
_chemical_formula_sum   'La2 Dy4 Fe1 Br10'
_cell_volume   584.66662176
_cell_formula_units_Z   1
loop_
 _symmetry_equiv_pos_site_id
 _symmetry_equiv_pos_as_xyz
  1  'x, y, z'
loop_
 _atom_site_type_symbol
 _atom_site_label
 _atom_site_symmetry_multiplicity
 _atom_site_fract_x
 _atom_site_fract_y
 _atom_site_fract_z
 _atom_site_occupancy
  La  La0  1  0.381356  0.954885  0.727310  1
  La  La1  1  0.618644  0.045115  0.272690  1
  Dy  Dy2  1  0.473886  0.297985  0.593197  1
  Dy  Dy3  1  0.526114  0.702015  0.406803  1
  Dy  Dy4  1  0.861053  0.136483  0.674557  1
  Dy  Dy5  1  0.138947  0.863517  0.325443  1
  Fe  Fe6  1  0.500000  0.000000  0.500000  1
  Br  Br7  1  0.420624  0.623858  0.669474  1
  Br  Br8  1  0.579376  0.376142  0.330526  1
  Br  Br9  1  0.280921  0.262784  0.839693  1
  Br  Br10  1  0.719079  0.737216  0.160307  1
  Br  Br11  1  0.848917  0.447146  0.766146  1
  Br  Br12  1  0.151083  0.552854  0.233854  1
  Br  Br13  1  0.054740  0.174640  0.416604  1
  Br  Br14  1  0.234286  0.912526  0.050890  1
  Br  Br15  1  0.765714  0.087474  0.949110  1
  Br  Br16  1  0.945260  0.825360  0.583396  1
