# generated using pymatgen
data_Ho6Al7(PdPt3)4
_symmetry_space_group_name_H-M   'P 1'
_cell_length_a   8.96351578
_cell_length_b   8.96351426
_cell_length_c   8.96350500
_cell_angle_alpha   59.99997882
_cell_angle_beta   59.99996966
_cell_angle_gamma   60.00001564
_symmetry_Int_Tables_number   1
_chemical_formula_structural   Ho6Al7(PdPt3)4
_chemical_formula_sum   'Ho6 Al7 Pd4 Pt12'
_cell_volume   509.23641336
_cell_formula_units_Z   1
loop_
 _symmetry_equiv_pos_site_id
 _symmetry_equiv_pos_as_xyz
  1  'x, y, z'
loop_
 _atom_site_type_symbol
 _atom_site_label
 _atom_site_symmetry_multiplicity
 _atom_site_fract_x
 _atom_site_fract_y
 _atom_site_fract_z
 _atom_site_occupancy
  Ho  Ho0  1  0.712654  0.287346  0.287345  1
  Ho  Ho1  1  0.712656  0.287345  0.712655  1
  Ho  Ho2  1  0.712656  0.712655  0.287344  1
  Ho  Ho3  1  0.287346  0.712654  0.712655  1
  Ho  Ho4  1  0.287344  0.712655  0.287345  1
  Ho  Ho5  1  0.287344  0.287345  0.712656  1
  Al  Al6  1  0.000000  0.000000  0.000000  1
  Al  Al7  1  0.499758  0.000242  0.000242  1
  Al  Al8  1  0.499758  0.000242  0.499758  1
  Al  Al9  1  0.499758  0.499758  0.000242  1
  Al  Al10  1  0.000242  0.499758  0.499758  1
  Al  Al11  1  0.000242  0.499758  0.000242  1
  Al  Al12  1  0.000242  0.000242  0.499758  1
  Pd  Pd13  1  0.644131  0.118622  0.118624  1
  Pd  Pd14  1  0.118622  0.644131  0.118623  1
  Pd  Pd15  1  0.118623  0.118623  0.644130  1
  Pd  Pd16  1  0.118622  0.118623  0.118624  1
  Pt  Pt17  1  0.357064  0.880979  0.880977  1
  Pt  Pt18  1  0.880979  0.357064  0.880978  1
  Pt  Pt19  1  0.880978  0.880978  0.357065  1
  Pt  Pt20  1  0.880979  0.880978  0.880977  1
  Pt  Pt21  1  0.987329  0.337558  0.337558  1
  Pt  Pt22  1  0.337557  0.987328  0.337558  1
  Pt  Pt23  1  0.337556  0.337557  0.987331  1
  Pt  Pt24  1  0.337556  0.337557  0.337558  1
  Pt  Pt25  1  0.014409  0.661863  0.661863  1
  Pt  Pt26  1  0.661864  0.014410  0.661863  1
  Pt  Pt27  1  0.661865  0.661864  0.014407  1
  Pt  Pt28  1  0.661865  0.661864  0.661863  1
