# generated using pymatgen
data_Tb2NdTh3Si4
_symmetry_space_group_name_H-M   'P 1'
_cell_length_a   7.68152407
_cell_length_b   7.68152450
_cell_length_c   4.26924900
_cell_angle_alpha   90.00000000
_cell_angle_beta   90.00000000
_cell_angle_gamma   90.19649835
_symmetry_Int_Tables_number   1
_chemical_formula_structural   Tb2NdTh3Si4
_chemical_formula_sum   'Tb2 Nd1 Th3 Si4'
_cell_volume   251.90903659
_cell_formula_units_Z   1
loop_
 _symmetry_equiv_pos_site_id
 _symmetry_equiv_pos_as_xyz
  1  'x, y, z'
loop_
 _atom_site_type_symbol
 _atom_site_label
 _atom_site_symmetry_multiplicity
 _atom_site_fract_x
 _atom_site_fract_y
 _atom_site_fract_z
 _atom_site_occupancy
  Tb  Tb0  1  0.999252  0.000599  0.000000  1
  Tb  Tb1  1  0.499401  0.500748  0.000000  1
  Nd  Nd2  1  0.823295  0.676705  0.500000  1
  Th  Th3  1  0.677890  0.178582  0.500000  1
  Th  Th4  1  0.321418  0.822110  0.500000  1
  Th  Th5  1  0.178325  0.321675  0.500000  1
  Si  Si6  1  0.118042  0.614598  0.000000  1
  Si  Si7  1  0.885402  0.381958  0.000000  1
  Si  Si8  1  0.613695  0.886305  0.000000  1
  Si  Si9  1  0.383280  0.116720  0.000000  1
