# generated using pymatgen
data_CeEr4Sn3C
_symmetry_space_group_name_H-M   'P 1'
_cell_length_a   8.93951853
_cell_length_b   8.95328193
_cell_length_c   6.51661300
_cell_angle_alpha   90.00000000
_cell_angle_beta   90.00000000
_cell_angle_gamma   120.05095494
_symmetry_Int_Tables_number   1
_chemical_formula_structural   CeEr4Sn3C
_chemical_formula_sum   'Ce2 Er8 Sn6 C2'
_cell_volume   451.46670929
_cell_formula_units_Z   2
loop_
 _symmetry_equiv_pos_site_id
 _symmetry_equiv_pos_as_xyz
  1  'x, y, z'
loop_
 _atom_site_type_symbol
 _atom_site_label
 _atom_site_symmetry_multiplicity
 _atom_site_fract_x
 _atom_site_fract_y
 _atom_site_fract_z
 _atom_site_occupancy
  Ce  Ce0  1  0.786137  0.786829  0.250000  1
  Ce  Ce1  1  0.213863  0.000692  0.250000  1
  Er  Er2  1  0.666984  0.333012  0.500976  1
  Er  Er3  1  0.333016  0.666029  0.500976  1
  Er  Er4  1  0.333016  0.666029  0.999024  1
  Er  Er5  1  0.666984  0.333012  0.999024  1
  Er  Er6  1  0.000000  0.217134  0.250000  1
  Er  Er7  1  0.214138  0.214987  0.750000  1
  Er  Er8  1  0.785862  0.000849  0.750000  1
  Er  Er9  1  0.000000  0.786578  0.750000  1
  Sn  Sn10  1  0.407495  0.409219  0.250000  1
  Sn  Sn11  1  0.592505  0.001724  0.250000  1
  Sn  Sn12  1  0.000000  0.588577  0.250000  1
  Sn  Sn13  1  0.593489  0.594050  0.750000  1
  Sn  Sn14  1  0.406511  0.000561  0.750000  1
  Sn  Sn15  1  0.000000  0.405452  0.750000  1
  C  C16  1  0.000000  0.997632  0.498929  1
  C  C17  1  0.000000  0.997632  0.001071  1
