# generated using pymatgen
data_Rb3TmIr2O9
_symmetry_space_group_name_H-M   'P 1'
_cell_length_a   6.04967400
_cell_length_b   6.04979897
_cell_length_c   14.53943500
_cell_angle_alpha   90.00000000
_cell_angle_beta   90.00000000
_cell_angle_gamma   120.00021018
_symmetry_Int_Tables_number   1
_chemical_formula_structural   Rb3TmIr2O9
_chemical_formula_sum   'Rb6 Tm2 Ir4 O18'
_cell_volume   460.83998960
_cell_formula_units_Z   2
loop_
 _symmetry_equiv_pos_site_id
 _symmetry_equiv_pos_as_xyz
  1  'x, y, z'
loop_
 _atom_site_type_symbol
 _atom_site_label
 _atom_site_symmetry_multiplicity
 _atom_site_fract_x
 _atom_site_fract_y
 _atom_site_fract_z
 _atom_site_occupancy
  Rb  Rb0  1  0.000000  0.000001  0.250000  1
  Rb  Rb1  1  0.000000  0.999999  0.750000  1
  Rb  Rb2  1  0.333344  0.666665  0.599548  1
  Rb  Rb3  1  0.666656  0.333335  0.400452  1
  Rb  Rb4  1  0.666656  0.333335  0.099548  1
  Rb  Rb5  1  0.333344  0.666665  0.900452  1
  Tm  Tm6  1  0.000000  0.000000  0.500000  1
  Tm  Tm7  1  0.000000  0.000000  0.000000  1
  Ir  Ir8  1  0.333329  0.666623  0.347549  1
  Ir  Ir9  1  0.666671  0.333377  0.652451  1
  Ir  Ir10  1  0.666671  0.333377  0.847549  1
  Ir  Ir11  1  0.333329  0.666623  0.152451  1
  O  O12  1  0.468823  0.531175  0.250000  1
  O  O13  1  0.468801  0.937584  0.250000  1
  O  O14  1  0.062337  0.531161  0.250000  1
  O  O15  1  0.531177  0.468825  0.750000  1
  O  O16  1  0.531199  0.062416  0.750000  1
  O  O17  1  0.937663  0.468839  0.750000  1
  O  O18  1  0.177915  0.822055  0.083217  1
  O  O19  1  0.177928  0.355865  0.083216  1
  O  O20  1  0.644144  0.822060  0.083227  1
  O  O21  1  0.822085  0.177945  0.916783  1
  O  O22  1  0.822072  0.644135  0.916784  1
  O  O23  1  0.355856  0.177940  0.916773  1
  O  O24  1  0.822085  0.177945  0.583217  1
  O  O25  1  0.822072  0.644135  0.583216  1
  O  O26  1  0.355856  0.177940  0.583227  1
  O  O27  1  0.177915  0.822055  0.416783  1
  O  O28  1  0.177928  0.355865  0.416784  1
  O  O29  1  0.644144  0.822060  0.416773  1
