# generated using pymatgen
data_AcTbZn4Ru
_symmetry_space_group_name_H-M   'P 1'
_cell_length_a   7.15001700
_cell_length_b   7.15001700
_cell_length_c   5.51859500
_cell_angle_alpha   90.00000000
_cell_angle_beta   90.00000000
_cell_angle_gamma   90.00000000
_symmetry_Int_Tables_number   1
_chemical_formula_structural   AcTbZn4Ru
_chemical_formula_sum   'Ac2 Tb2 Zn8 Ru2'
_cell_volume   282.12571446
_cell_formula_units_Z   2
loop_
 _symmetry_equiv_pos_site_id
 _symmetry_equiv_pos_as_xyz
  1  'x, y, z'
loop_
 _atom_site_type_symbol
 _atom_site_label
 _atom_site_symmetry_multiplicity
 _atom_site_fract_x
 _atom_site_fract_y
 _atom_site_fract_z
 _atom_site_occupancy
  Ac  Ac0  1  0.000000  0.500000  0.782501  1
  Ac  Ac1  1  0.500000  0.000000  0.217499  1
  Tb  Tb2  1  0.000000  0.000000  0.000000  1
  Tb  Tb3  1  0.500000  0.500000  0.000000  1
  Zn  Zn4  1  0.186012  0.686012  0.299236  1
  Zn  Zn5  1  0.813988  0.686012  0.299236  1
  Zn  Zn6  1  0.813988  0.313988  0.299236  1
  Zn  Zn7  1  0.313988  0.186012  0.700764  1
  Zn  Zn8  1  0.186012  0.313988  0.299236  1
  Zn  Zn9  1  0.686012  0.186012  0.700764  1
  Zn  Zn10  1  0.686012  0.813988  0.700764  1
  Zn  Zn11  1  0.313988  0.813988  0.700764  1
  Ru  Ru12  1  0.500000  0.500000  0.500000  1
  Ru  Ru13  1  0.000000  0.000000  0.500000  1
