# generated using pymatgen
data_K5SbAu2
_symmetry_space_group_name_H-M   'P 1'
_cell_length_a   10.19329429
_cell_length_b   10.19329460
_cell_length_c   10.19329429
_cell_angle_alpha   128.86260205
_cell_angle_beta   128.86260312
_cell_angle_gamma   75.23175104
_symmetry_Int_Tables_number   1
_chemical_formula_structural   K5SbAu2
_chemical_formula_sum   'K10 Sb2 Au4'
_cell_volume   625.09175038
_cell_formula_units_Z   2
loop_
 _symmetry_equiv_pos_site_id
 _symmetry_equiv_pos_as_xyz
  1  'x, y, z'
loop_
 _atom_site_type_symbol
 _atom_site_label
 _atom_site_symmetry_multiplicity
 _atom_site_fract_x
 _atom_site_fract_y
 _atom_site_fract_z
 _atom_site_occupancy
  K  K0  1  0.500000  0.500000  0.000000  1
  K  K1  1  0.000000  0.000000  0.000000  1
  K  K2  1  0.531789  0.031789  0.852634  1
  K  K3  1  0.179157  0.679157  0.147366  1
  K  K4  1  0.031789  0.179157  0.500000  1
  K  K5  1  0.679157  0.531789  0.500000  1
  K  K6  1  0.468211  0.968211  0.147366  1
  K  K7  1  0.820843  0.320843  0.852634  1
  K  K8  1  0.968211  0.820843  0.500000  1
  K  K9  1  0.320843  0.468211  0.500000  1
  Sb  Sb10  1  0.250000  0.250000  0.000000  1
  Sb  Sb11  1  0.750000  0.750000  0.000000  1
  Au  Au12  1  0.116825  0.616825  0.733648  1
  Au  Au13  1  0.883175  0.383175  0.266352  1
  Au  Au14  1  0.616825  0.883175  0.500000  1
  Au  Au15  1  0.383175  0.116825  0.500000  1
