# generated using pymatgen
data_Pr(LuS2)2
_symmetry_space_group_name_H-M   'P 1'
_cell_length_a   3.84671600
_cell_length_b   12.87942500
_cell_length_c   12.95554400
_cell_angle_alpha   90.00000000
_cell_angle_beta   90.00000000
_cell_angle_gamma   90.00000000
_symmetry_Int_Tables_number   1
_chemical_formula_structural   Pr(LuS2)2
_chemical_formula_sum   'Pr4 Lu8 S16'
_cell_volume   641.86286744
_cell_formula_units_Z   4
loop_
 _symmetry_equiv_pos_site_id
 _symmetry_equiv_pos_as_xyz
  1  'x, y, z'
loop_
 _atom_site_type_symbol
 _atom_site_label
 _atom_site_symmetry_multiplicity
 _atom_site_fract_x
 _atom_site_fract_y
 _atom_site_fract_z
 _atom_site_occupancy
  Pr  Pr0  1  0.750000  0.866806  0.086128  1
  Pr  Pr1  1  0.250000  0.133194  0.913872  1
  Pr  Pr2  1  0.750000  0.366806  0.413872  1
  Pr  Pr3  1  0.250000  0.633194  0.586128  1
  Lu  Lu4  1  0.750000  0.607744  0.920529  1
  Lu  Lu5  1  0.250000  0.392256  0.079471  1
  Lu  Lu6  1  0.750000  0.107744  0.579471  1
  Lu  Lu7  1  0.250000  0.892256  0.420529  1
  Lu  Lu8  1  0.750000  0.647514  0.296035  1
  Lu  Lu9  1  0.250000  0.352486  0.703965  1
  Lu  Lu10  1  0.750000  0.147514  0.203965  1
  Lu  Lu11  1  0.250000  0.852486  0.796035  1
  S  S12  1  0.750000  0.717241  0.738071  1
  S  S13  1  0.250000  0.282759  0.261929  1
  S  S14  1  0.750000  0.217241  0.761929  1
  S  S15  1  0.250000  0.782759  0.238071  1
  S  S16  1  0.750000  0.758384  0.471716  1
  S  S17  1  0.250000  0.241616  0.528284  1
  S  S18  1  0.750000  0.258384  0.028284  1
  S  S19  1  0.250000  0.741616  0.971716  1
  S  S20  1  0.750000  0.966901  0.880401  1
  S  S21  1  0.250000  0.033099  0.119599  1
  S  S22  1  0.750000  0.466901  0.619599  1
  S  S23  1  0.250000  0.533099  0.380401  1
  S  S24  1  0.750000  0.532827  0.119782  1
  S  S25  1  0.250000  0.467173  0.880218  1
  S  S26  1  0.750000  0.032827  0.380218  1
  S  S27  1  0.250000  0.967173  0.619782  1
