# generated using pymatgen
data_Er5Pa3(SiPd)8
_symmetry_space_group_name_H-M   'P 1'
_cell_length_a   4.30783200
_cell_length_b   7.49334900
_cell_length_c   13.97528400
_cell_angle_alpha   90.00000000
_cell_angle_beta   90.00000000
_cell_angle_gamma   90.00000000
_symmetry_Int_Tables_number   1
_chemical_formula_structural   Er5Pa3(SiPd)8
_chemical_formula_sum   'Er5 Pa3 Si8 Pd8'
_cell_volume   451.12340586
_cell_formula_units_Z   1
loop_
 _symmetry_equiv_pos_site_id
 _symmetry_equiv_pos_as_xyz
  1  'x, y, z'
loop_
 _atom_site_type_symbol
 _atom_site_label
 _atom_site_symmetry_multiplicity
 _atom_site_fract_x
 _atom_site_fract_y
 _atom_site_fract_z
 _atom_site_occupancy
  Er  Er0  1  0.500000  0.706632  0.000000  1
  Er  Er1  1  0.000000  0.212912  0.248366  1
  Er  Er2  1  0.500000  0.784436  0.248358  1
  Er  Er3  1  0.000000  0.212912  0.751634  1
  Er  Er4  1  0.500000  0.784436  0.751642  1
  Pa  Pa5  1  0.000000  0.302378  0.000000  1
  Pa  Pa6  1  0.500000  0.698471  0.500000  1
  Pa  Pa7  1  0.000000  0.298955  0.500000  1
  Si  Si8  1  0.000000  0.907610  0.595147  1
  Si  Si9  1  0.500000  0.090579  0.906663  1
  Si  Si10  1  0.000000  0.907610  0.404853  1
  Si  Si11  1  0.500000  0.090579  0.093337  1
  Si  Si12  1  0.000000  0.594067  0.143155  1
  Si  Si13  1  0.500000  0.405817  0.356485  1
  Si  Si14  1  0.000000  0.594067  0.856845  1
  Si  Si15  1  0.500000  0.405817  0.643515  1
  Pd  Pd16  1  0.500000  0.073986  0.607336  1
  Pd  Pd17  1  0.000000  0.926651  0.891433  1
  Pd  Pd18  1  0.500000  0.073986  0.392664  1
  Pd  Pd19  1  0.000000  0.926651  0.108567  1
  Pd  Pd20  1  0.500000  0.417993  0.154394  1
  Pd  Pd21  1  0.000000  0.582731  0.344962  1
  Pd  Pd22  1  0.500000  0.417993  0.845606  1
  Pd  Pd23  1  0.000000  0.582731  0.655038  1
