# generated using pymatgen
data_Pr4Nd8IrRu3
_symmetry_space_group_name_H-M   'P 1'
_cell_length_a   6.51455600
_cell_length_b   7.46310690
_cell_length_c   9.80387700
_cell_angle_alpha   90.00000000
_cell_angle_beta   90.00000000
_cell_angle_gamma   90.09277770
_symmetry_Int_Tables_number   1
_chemical_formula_structural   Pr4Nd8IrRu3
_chemical_formula_sum   'Pr4 Nd8 Ir1 Ru3'
_cell_volume   476.65238319
_cell_formula_units_Z   1
loop_
 _symmetry_equiv_pos_site_id
 _symmetry_equiv_pos_as_xyz
  1  'x, y, z'
loop_
 _atom_site_type_symbol
 _atom_site_label
 _atom_site_symmetry_multiplicity
 _atom_site_fract_x
 _atom_site_fract_y
 _atom_site_fract_z
 _atom_site_occupancy
  Pr  Pr0  1  0.854468  0.538996  0.250000  1
  Pr  Pr1  1  0.644382  0.037725  0.250000  1
  Pr  Pr2  1  0.142420  0.460064  0.750000  1
  Pr  Pr3  1  0.355231  0.963457  0.750000  1
  Nd  Nd4  1  0.328412  0.675537  0.068493  1
  Nd  Nd5  1  0.170726  0.176762  0.431182  1
  Nd  Nd6  1  0.670182  0.322388  0.566317  1
  Nd  Nd7  1  0.831657  0.824781  0.932331  1
  Nd  Nd8  1  0.670182  0.322388  0.933683  1
  Nd  Nd9  1  0.831657  0.824781  0.567669  1
  Nd  Nd10  1  0.328412  0.675537  0.431507  1
  Nd  Nd11  1  0.170726  0.176762  0.068818  1
  Ir  Ir12  1  0.557459  0.616989  0.750000  1
  Ru  Ru13  1  0.055605  0.882681  0.250000  1
  Ru  Ru14  1  0.447377  0.383812  0.250000  1
  Ru  Ru15  1  0.941098  0.117341  0.750000  1
