# generated using pymatgen
data_NaU2Pa(NiAs)4
_symmetry_space_group_name_H-M   'P 1'
_cell_length_a   4.07308600
_cell_length_b   4.07308655
_cell_length_c   15.43698100
_cell_angle_alpha   90.00000000
_cell_angle_beta   90.00000000
_cell_angle_gamma   120.00001182
_symmetry_Int_Tables_number   1
_chemical_formula_structural   NaU2Pa(NiAs)4
_chemical_formula_sum   'Na1 U2 Pa1 Ni4 As4'
_cell_volume   221.78908421
_cell_formula_units_Z   1
loop_
 _symmetry_equiv_pos_site_id
 _symmetry_equiv_pos_as_xyz
  1  'x, y, z'
loop_
 _atom_site_type_symbol
 _atom_site_label
 _atom_site_symmetry_multiplicity
 _atom_site_fract_x
 _atom_site_fract_y
 _atom_site_fract_z
 _atom_site_occupancy
  Na  Na0  1  0.000000  0.000000  0.999350  1
  U  U1  1  0.000000  0.000000  0.747948  1
  U  U2  1  0.000000  0.000000  0.501172  1
  Pa  Pa3  1  0.000000  0.000000  0.250759  1
  Ni  Ni4  1  0.333333  0.666667  0.156412  1
  Ni  Ni5  1  0.666667  0.333333  0.841394  1
  Ni  Ni6  1  0.666667  0.333333  0.643249  1
  Ni  Ni7  1  0.333333  0.666667  0.363487  1
  As  As8  1  0.333333  0.666667  0.617744  1
  As  As9  1  0.666667  0.333333  0.382462  1
  As  As10  1  0.666667  0.333333  0.128585  1
  As  As11  1  0.333333  0.666667  0.867437  1
