# generated using pymatgen
data_Th4ZnGa
_symmetry_space_group_name_H-M   'P 1'
_cell_length_a   6.06236780
_cell_length_b   6.06236833
_cell_length_c   6.06236781
_cell_angle_alpha   102.89285227
_cell_angle_beta   102.89284678
_cell_angle_gamma   123.62418524
_symmetry_Int_Tables_number   1
_chemical_formula_structural   Th4ZnGa
_chemical_formula_sum   'Th4 Zn1 Ga1'
_cell_volume   163.52477801
_cell_formula_units_Z   1
loop_
 _symmetry_equiv_pos_site_id
 _symmetry_equiv_pos_as_xyz
  1  'x, y, z'
loop_
 _atom_site_type_symbol
 _atom_site_label
 _atom_site_symmetry_multiplicity
 _atom_site_fract_x
 _atom_site_fract_y
 _atom_site_fract_z
 _atom_site_occupancy
  Th  Th0  1  0.657843  0.157843  0.815686  1
  Th  Th1  1  0.342157  0.842157  0.184314  1
  Th  Th2  1  0.842157  0.657843  0.500000  1
  Th  Th3  1  0.157843  0.342157  0.500000  1
  Zn  Zn4  1  0.750000  0.750000  0.000000  1
  Ga  Ga5  1  0.250000  0.250000  0.000000  1
