# generated using pymatgen
data_PrSm2Cd3PdPb2
_symmetry_space_group_name_H-M   'P 1'
_cell_length_a   7.65676289
_cell_length_b   7.65676235
_cell_length_c   4.66054700
_cell_angle_alpha   90.00000000
_cell_angle_beta   90.00000000
_cell_angle_gamma   120.27399518
_symmetry_Int_Tables_number   1
_chemical_formula_structural   PrSm2Cd3PdPb2
_chemical_formula_sum   'Pr1 Sm2 Cd3 Pd1 Pb2'
_cell_volume   235.96749818
_cell_formula_units_Z   1
loop_
 _symmetry_equiv_pos_site_id
 _symmetry_equiv_pos_as_xyz
  1  'x, y, z'
loop_
 _atom_site_type_symbol
 _atom_site_label
 _atom_site_symmetry_multiplicity
 _atom_site_fract_x
 _atom_site_fract_y
 _atom_site_fract_z
 _atom_site_occupancy
  Pr  Pr0  1  0.397587  0.397587  0.500000  1
  Sm  Sm1  1  0.603659  0.999956  0.500000  1
  Sm  Sm2  1  0.999956  0.603659  0.500000  1
  Cd  Cd3  1  0.771185  0.771185  0.000000  1
  Cd  Cd4  1  0.229001  0.998973  0.000000  1
  Cd  Cd5  1  0.998973  0.229001  0.000000  1
  Pd  Pd6  1  0.998559  0.998559  0.500000  1
  Pb  Pb7  1  0.668304  0.332776  0.000000  1
  Pb  Pb8  1  0.332776  0.668304  0.000000  1
