# generated using pymatgen
data_Sr2Ir3Rh(PbO7)2
_symmetry_space_group_name_H-M   'P 1'
_cell_length_a   7.38061096
_cell_length_b   7.38060987
_cell_length_c   7.37650639
_cell_angle_alpha   60.09391627
_cell_angle_beta   60.09392208
_cell_angle_gamma   60.24601540
_symmetry_Int_Tables_number   1
_chemical_formula_structural   Sr2Ir3Rh(PbO7)2
_chemical_formula_sum   'Sr2 Ir3 Rh1 Pb2 O14'
_cell_volume   285.06153060
_cell_formula_units_Z   1
loop_
 _symmetry_equiv_pos_site_id
 _symmetry_equiv_pos_as_xyz
  1  'x, y, z'
loop_
 _atom_site_type_symbol
 _atom_site_label
 _atom_site_symmetry_multiplicity
 _atom_site_fract_x
 _atom_site_fract_y
 _atom_site_fract_z
 _atom_site_occupancy
  Sr  Sr0  1  0.625000  0.125000  0.125000  1
  Sr  Sr1  1  0.125000  0.625000  0.125000  1
  Ir  Ir2  1  0.125000  0.625000  0.625000  1
  Ir  Ir3  1  0.625000  0.125000  0.625000  1
  Ir  Ir4  1  0.625000  0.625000  0.625000  1
  Rh  Rh5  1  0.625000  0.625000  0.125000  1
  Pb  Pb6  1  0.125000  0.125000  0.625000  1
  Pb  Pb7  1  0.125000  0.125000  0.125000  1
  O  O8  1  0.700878  0.700878  0.303513  1
  O  O9  1  0.297668  0.297668  0.698730  1
  O  O10  1  0.712663  0.300940  0.682664  1
  O  O11  1  0.293394  0.712514  0.303486  1
  O  O12  1  0.300940  0.712663  0.682664  1
  O  O13  1  0.712514  0.293394  0.303486  1
  O  O14  1  0.549122  0.549122  0.946487  1
  O  O15  1  0.952332  0.952332  0.551270  1
  O  O16  1  0.537337  0.949060  0.567336  1
  O  O17  1  0.956606  0.537486  0.946514  1
  O  O18  1  0.949060  0.537337  0.567336  1
  O  O19  1  0.537486  0.956606  0.946514  1
  O  O20  1  0.235992  0.235992  0.266952  1
  O  O21  1  0.014008  0.014008  0.983048  1
