# generated using pymatgen
data_YbLu3(ScRu)4
_symmetry_space_group_name_H-M   'P 1'
_cell_length_a   4.15036400
_cell_length_b   7.20841200
_cell_length_c   8.47794840
_cell_angle_alpha   91.48410729
_cell_angle_beta   90.00000000
_cell_angle_gamma   90.00000000
_symmetry_Int_Tables_number   1
_chemical_formula_structural   YbLu3(ScRu)4
_chemical_formula_sum   'Yb1 Lu3 Sc4 Ru4'
_cell_volume   253.55422282
_cell_formula_units_Z   1
loop_
 _symmetry_equiv_pos_site_id
 _symmetry_equiv_pos_as_xyz
  1  'x, y, z'
loop_
 _atom_site_type_symbol
 _atom_site_label
 _atom_site_symmetry_multiplicity
 _atom_site_fract_x
 _atom_site_fract_y
 _atom_site_fract_z
 _atom_site_occupancy
  Yb  Yb0  1  0.750000  0.518331  0.828508  1
  Lu  Lu1  1  0.250000  0.973827  0.329207  1
  Lu  Lu2  1  0.250000  0.473661  0.173698  1
  Lu  Lu3  1  0.750000  0.029766  0.670422  1
  Sc  Sc4  1  0.250000  0.360978  0.560836  1
  Sc  Sc5  1  0.250000  0.848163  0.938036  1
  Sc  Sc6  1  0.750000  0.648447  0.439703  1
  Sc  Sc7  1  0.750000  0.139773  0.060362  1
  Ru  Ru8  1  0.250000  0.212382  0.874033  1
  Ru  Ru9  1  0.250000  0.754860  0.615831  1
  Ru  Ru10  1  0.750000  0.770519  0.133553  1
  Ru  Ru11  1  0.750000  0.269294  0.375811  1
