# generated using pymatgen
data_Tb4HoEr3(WO6)4
_symmetry_space_group_name_H-M   'P 1'
_cell_length_a   5.40342701
_cell_length_b   7.70475631
_cell_length_c   11.43323925
_cell_angle_alpha   75.58140531
_cell_angle_beta   90.00129251
_cell_angle_gamma   89.99308790
_symmetry_Int_Tables_number   1
_chemical_formula_structural   Tb4HoEr3(WO6)4
_chemical_formula_sum   'Tb4 Ho1 Er3 W4 O24'
_cell_volume   460.99709207
_cell_formula_units_Z   1
loop_
 _symmetry_equiv_pos_site_id
 _symmetry_equiv_pos_as_xyz
  1  'x, y, z'
loop_
 _atom_site_type_symbol
 _atom_site_label
 _atom_site_symmetry_multiplicity
 _atom_site_fract_x
 _atom_site_fract_y
 _atom_site_fract_z
 _atom_site_occupancy
  Tb  Tb0  1  0.683825  0.500090  0.249939  1
  Tb  Tb1  1  0.316198  0.499993  0.750007  1
  Tb  Tb2  1  0.741402  0.999939  0.249933  1
  Tb  Tb3  1  0.258590  0.999966  0.750075  1
  Ho  Ho4  1  0.183152  0.206291  0.421897  1
  Er  Er5  1  0.183227  0.793561  0.078227  1
  Er  Er6  1  0.816719  0.793447  0.578257  1
  Er  Er7  1  0.816761  0.206443  0.921781  1
  W  W8  1  0.255944  0.276336  0.114311  1
  W  W9  1  0.255886  0.723776  0.385583  1
  W  W10  1  0.744113  0.723673  0.885610  1
  W  W11  1  0.744161  0.276412  0.614536  1
  O  O12  1  0.456343  0.209419  0.273125  1
  O  O13  1  0.455808  0.790697  0.226531  1
  O  O14  1  0.544184  0.790669  0.726540  1
  O  O15  1  0.544179  0.209356  0.773495  1
  O  O16  1  0.047188  0.059933  0.103061  1
  O  O17  1  0.046805  0.939521  0.396902  1
  O  O18  1  0.952842  0.940046  0.896947  1
  O  O19  1  0.952626  0.059809  0.603228  1
  O  O20  1  0.981769  0.288506  0.228719  1
  O  O21  1  0.981985  0.711537  0.271002  1
  O  O22  1  0.018010  0.711603  0.771030  1
  O  O23  1  0.018053  0.288400  0.728966  1
  O  O24  1  0.850360  0.365380  0.451447  1
  O  O25  1  0.851064  0.634960  0.048581  1
  O  O26  1  0.148946  0.634929  0.548599  1
  O  O27  1  0.148947  0.365057  0.951408  1
  O  O28  1  0.641373  0.510560  0.613775  1
  O  O29  1  0.641425  0.489482  0.886254  1
  O  O30  1  0.358979  0.489817  0.386200  1
  O  O31  1  0.358576  0.510545  0.113759  1
  O  O32  1  0.464634  0.155652  0.568347  1
  O  O33  1  0.464050  0.844153  0.931979  1
  O  O34  1  0.535922  0.844225  0.431986  1
  O  O35  1  0.535953  0.155817  0.067964  1
