# generated using pymatgen
data_RbFe3(AsO4)3
_symmetry_space_group_name_H-M   'P 1'
_cell_length_a   6.84240589
_cell_length_b   9.53849842
_cell_length_c   9.53942167
_cell_angle_alpha   93.80000824
_cell_angle_beta   111.02223373
_cell_angle_gamma   111.00498744
_symmetry_Int_Tables_number   1
_chemical_formula_structural   RbFe3(AsO4)3
_chemical_formula_sum   'Rb2 Fe6 As6 O24'
_cell_volume   528.80572337
_cell_formula_units_Z   2
loop_
 _symmetry_equiv_pos_site_id
 _symmetry_equiv_pos_as_xyz
  1  'x, y, z'
loop_
 _atom_site_type_symbol
 _atom_site_label
 _atom_site_symmetry_multiplicity
 _atom_site_fract_x
 _atom_site_fract_y
 _atom_site_fract_z
 _atom_site_occupancy
  Rb  Rb0  1  0.407420  0.747379  0.252548  1
  Rb  Rb1  1  0.592597  0.247458  0.752619  1
  Fe  Fe2  1  0.008945  0.998905  0.001076  1
  Fe  Fe3  1  0.499970  0.385923  0.114074  1
  Fe  Fe4  1  0.000013  0.116203  0.383798  1
  Fe  Fe5  1  0.991030  0.498947  0.501048  1
  Fe  Fe6  1  0.999976  0.885884  0.614175  1
  Fe  Fe7  1  0.500001  0.616211  0.883792  1
  As  As8  1  0.999963  0.320799  0.179198  1
  As  As9  1  0.915868  0.753484  0.246573  1
  As  As10  1  0.500014  0.178296  0.321707  1
  As  As11  1  0.499940  0.820808  0.679187  1
  As  As12  1  0.084144  0.253445  0.746522  1
  As  As13  1  0.000003  0.678236  0.821727  1
  O  O14  1  0.765242  0.350471  0.078115  1
  O  O15  1  0.640452  0.631231  0.115196  1
  O  O16  1  0.341449  0.143277  0.122439  1
  O  O17  1  0.932495  0.119461  0.152943  1
  O  O18  1  0.234799  0.421895  0.149550  1
  O  O19  1  0.059458  0.853700  0.146296  1
  O  O20  1  0.039878  0.646779  0.353242  1
  O  O21  1  0.672054  0.080248  0.357267  1
  O  O22  1  0.658507  0.377559  0.356710  1
  O  O23  1  0.067561  0.347055  0.380542  1
  O  O24  1  0.893930  0.884785  0.368774  1
  O  O25  1  0.327948  0.142745  0.419738  1
  O  O26  1  0.663328  0.850384  0.578115  1
  O  O27  1  0.106077  0.131210  0.615246  1
  O  O28  1  0.924238  0.643246  0.622479  1
  O  O29  1  0.339939  0.619429  0.652975  1
  O  O30  1  0.336673  0.921873  0.649591  1
  O  O31  1  0.940572  0.353713  0.646299  1
  O  O32  1  0.960145  0.146740  0.853240  1
  O  O33  1  0.765405  0.580212  0.857287  1
  O  O34  1  0.075706  0.877482  0.856751  1
  O  O35  1  0.660104  0.847020  0.880564  1
  O  O36  1  0.359573  0.384811  0.868807  1
  O  O37  1  0.234586  0.642701  0.919794  1
