# generated using pymatgen
data_Ta12Al4Ga4Co3NiC4
_symmetry_space_group_name_H-M   'P 1'
_cell_length_a   8.20210600
_cell_length_b   8.20210751
_cell_length_c   8.19765000
_cell_angle_alpha   120.01799114
_cell_angle_beta   90.00000000
_cell_angle_gamma   120.00000198
_symmetry_Int_Tables_number   1
_chemical_formula_structural   Ta12Al4Ga4Co3NiC4
_chemical_formula_sum   'Ta12 Al4 Ga4 Co3 Ni1 C4'
_cell_volume   389.85853141
_cell_formula_units_Z   1
loop_
 _symmetry_equiv_pos_site_id
 _symmetry_equiv_pos_as_xyz
  1  'x, y, z'
loop_
 _atom_site_type_symbol
 _atom_site_label
 _atom_site_symmetry_multiplicity
 _atom_site_fract_x
 _atom_site_fract_y
 _atom_site_fract_z
 _atom_site_occupancy
  Ta  Ta0  1  0.438348  0.751156  0.063963  1
  Ta  Ta1  1  0.812808  0.751156  0.063963  1
  Ta  Ta2  1  0.812808  0.125616  0.063963  1
  Ta  Ta3  1  0.564035  0.250941  0.314974  1
  Ta  Ta4  1  0.564035  0.628069  0.314974  1
  Ta  Ta5  1  0.186905  0.250941  0.314975  1
  Ta  Ta6  1  0.437199  0.749742  0.686940  1
  Ta  Ta7  1  0.812541  0.749742  0.686940  1
  Ta  Ta8  1  0.437199  0.374399  0.686940  1
  Ta  Ta9  1  0.558624  0.246888  0.935150  1
  Ta  Ta10  1  0.188264  0.246888  0.935151  1
  Ta  Ta11  1  0.188264  0.876527  0.935151  1
  Al  Al12  1  0.205763  0.911526  0.617289  1
  Al  Al13  1  0.121087  0.413376  0.705665  1
  Al  Al14  1  0.792289  0.084578  0.705665  1
  Al  Al15  1  0.792289  0.413376  0.705666  1
  Ga  Ga16  1  0.208903  0.583489  0.292393  1
  Ga  Ga17  1  0.874585  0.583489  0.292393  1
  Ga  Ga18  1  0.208903  0.917808  0.292393  1
  Ga  Ga19  1  0.792416  0.084832  0.377248  1
  Co  Co20  1  0.001378  0.001729  0.503107  1
  Co  Co21  1  0.500352  0.001729  0.503107  1
  Co  Co22  1  0.001378  0.502755  0.503107  1
  Ni  Ni23  1  0.998576  0.497153  0.995728  1
  C  C24  1  0.999671  0.000485  0.001299  1
  C  C25  1  0.500814  0.000485  0.001299  1
  C  C26  1  0.500814  0.501628  0.001299  1
  C  C27  1  0.499754  0.499509  0.499263  1
