# generated using pymatgen
data_Yb12SmHo3(MgRu)4
_symmetry_space_group_name_H-M   'P 1'
_cell_length_a   9.93555687
_cell_length_b   9.92604743
_cell_length_c   9.92604800
_cell_angle_alpha   59.99999811
_cell_angle_beta   60.03165407
_cell_angle_gamma   60.03166451
_symmetry_Int_Tables_number   1
_chemical_formula_structural   Yb12SmHo3(MgRu)4
_chemical_formula_sum   'Yb12 Sm1 Ho3 Mg4 Ru4'
_cell_volume   692.52839354
_cell_formula_units_Z   1
loop_
 _symmetry_equiv_pos_site_id
 _symmetry_equiv_pos_as_xyz
  1  'x, y, z'
loop_
 _atom_site_type_symbol
 _atom_site_label
 _atom_site_symmetry_multiplicity
 _atom_site_fract_x
 _atom_site_fract_y
 _atom_site_fract_z
 _atom_site_occupancy
  Yb  Yb0  1  0.952664  0.547833  0.547833  1
  Yb  Yb1  1  0.547320  0.952558  0.952558  1
  Yb  Yb2  1  0.547320  0.952558  0.547565  1
  Yb  Yb3  1  0.952664  0.547833  0.951671  1
  Yb  Yb4  1  0.547320  0.547565  0.952558  1
  Yb  Yb5  1  0.952664  0.951671  0.547833  1
  Yb  Yb6  1  0.808271  0.191243  0.191243  1
  Yb  Yb7  1  0.191710  0.808437  0.808437  1
  Yb  Yb8  1  0.191710  0.808437  0.191415  1
  Yb  Yb9  1  0.808271  0.191243  0.809243  1
  Yb  Yb10  1  0.191710  0.191415  0.808437  1
  Yb  Yb11  1  0.808271  0.809243  0.191243  1
  Sm  Sm12  1  0.979252  0.340249  0.340249  1
  Ho  Ho13  1  0.339571  0.338461  0.338461  1
  Ho  Ho14  1  0.339571  0.338461  0.983505  1
  Ho  Ho15  1  0.339571  0.983505  0.338461  1
  Mg  Mg16  1  0.577560  0.578790  0.578790  1
  Mg  Mg17  1  0.577560  0.578790  0.264860  1
  Mg  Mg18  1  0.577560  0.264860  0.578790  1
  Mg  Mg19  1  0.264391  0.578536  0.578536  1
  Ru  Ru20  1  0.140619  0.137121  0.137121  1
  Ru  Ru21  1  0.140619  0.137121  0.585138  1
  Ru  Ru22  1  0.140619  0.585138  0.137121  1
  Ru  Ru23  1  0.583209  0.138930  0.138930  1
