# generated using pymatgen
data_La2ErMg3CuGe2
_symmetry_space_group_name_H-M   'P 1'
_cell_length_a   7.43494682
_cell_length_b   7.43494809
_cell_length_c   4.38138300
_cell_angle_alpha   90.00000000
_cell_angle_beta   90.00000000
_cell_angle_gamma   119.59693746
_symmetry_Int_Tables_number   1
_chemical_formula_structural   La2ErMg3CuGe2
_chemical_formula_sum   'La2 Er1 Mg3 Cu1 Ge2'
_cell_volume   210.59461686
_cell_formula_units_Z   1
loop_
 _symmetry_equiv_pos_site_id
 _symmetry_equiv_pos_as_xyz
  1  'x, y, z'
loop_
 _atom_site_type_symbol
 _atom_site_label
 _atom_site_symmetry_multiplicity
 _atom_site_fract_x
 _atom_site_fract_y
 _atom_site_fract_z
 _atom_site_occupancy
  La  La0  1  0.997252  0.585061  0.000000  1
  La  La1  1  0.585061  0.997252  0.000000  1
  Er  Er2  1  0.411102  0.411102  0.000000  1
  Mg  Mg3  1  0.004801  0.240027  0.500000  1
  Mg  Mg4  1  0.756820  0.756820  0.500000  1
  Mg  Mg5  1  0.240027  0.004801  0.500000  1
  Cu  Cu6  1  0.008010  0.008010  0.000000  1
  Ge  Ge7  1  0.338029  0.658898  0.500000  1
  Ge  Ge8  1  0.658898  0.338029  0.500000  1
