# generated using pymatgen
data_Dy8Lu8Sc4Si15As
_symmetry_space_group_name_H-M   'P 1'
_cell_length_a   7.26727107
_cell_length_b   7.51533532
_cell_length_c   14.26085255
_cell_angle_alpha   89.93997808
_cell_angle_beta   87.67470591
_cell_angle_gamma   90.13256617
_symmetry_Int_Tables_number   1
_chemical_formula_structural   Dy8Lu8Sc4Si15As
_chemical_formula_sum   'Dy8 Lu8 Sc4 Si15 As1'
_cell_volume   778.22649452
_cell_formula_units_Z   1
loop_
 _symmetry_equiv_pos_site_id
 _symmetry_equiv_pos_as_xyz
  1  'x, y, z'
loop_
 _atom_site_type_symbol
 _atom_site_label
 _atom_site_symmetry_multiplicity
 _atom_site_fract_x
 _atom_site_fract_y
 _atom_site_fract_z
 _atom_site_occupancy
  Dy  Dy0  1  0.016984  0.181064  0.098945  1
  Dy  Dy1  1  0.983511  0.820245  0.900923  1
  Dy  Dy2  1  0.484134  0.679645  0.901097  1
  Dy  Dy3  1  0.996036  0.820111  0.597141  1
  Dy  Dy4  1  0.516669  0.320977  0.099178  1
  Dy  Dy5  1  0.002052  0.179152  0.402186  1
  Dy  Dy6  1  0.501904  0.317573  0.400843  1
  Dy  Dy7  1  0.502933  0.681021  0.598570  1
  Lu  Lu8  1  0.346124  0.167882  0.625127  1
  Lu  Lu9  1  0.655158  0.830289  0.375110  1
  Lu  Lu10  1  0.152930  0.669077  0.378137  1
  Lu  Lu11  1  0.672931  0.824389  0.124933  1
  Lu  Lu12  1  0.844080  0.331311  0.621843  1
  Lu  Lu13  1  0.326694  0.175376  0.874574  1
  Lu  Lu14  1  0.828208  0.323626  0.874886  1
  Lu  Lu15  1  0.171701  0.676449  0.124567  1
  Sc  Sc16  1  0.166971  0.506927  0.749087  1
  Sc  Sc17  1  0.832730  0.493665  0.254572  1
  Sc  Sc18  1  0.332769  0.006134  0.252958  1
  Sc  Sc19  1  0.667512  0.993593  0.747336  1
  Si  Si20  1  0.034094  0.107576  0.750104  1
  Si  Si21  1  0.965873  0.893024  0.248815  1
  Si  Si22  1  0.462199  0.607788  0.248949  1
  Si  Si23  1  0.536396  0.392601  0.750663  1
  Si  Si24  1  0.289886  0.864707  0.750648  1
  Si  Si25  1  0.711303  0.133774  0.248775  1
  Si  Si26  1  0.209936  0.367395  0.249514  1
  Si  Si27  1  0.791620  0.633398  0.750547  1
  Si  Si28  1  0.801978  0.535570  0.455914  1
  Si  Si29  1  0.315588  0.963727  0.458770  1
  Si  Si30  1  0.847524  0.531214  0.040700  1
  Si  Si31  1  0.684247  0.036044  0.541711  1
  Si  Si32  1  0.151945  0.469774  0.958526  1
  Si  Si33  1  0.650759  0.030382  0.958293  1
  Si  Si34  1  0.348908  0.970650  0.041643  1
  As  As35  1  0.195713  0.463873  0.544415  1
