# generated using pymatgen
data_Dy19MgIr7Pt5
_symmetry_space_group_name_H-M   'P 1'
_cell_length_a   10.94501166
_cell_length_b   10.92961666
_cell_length_c   6.33315500
_cell_angle_alpha   90.00342679
_cell_angle_beta   89.99978671
_cell_angle_gamma   89.84002478
_symmetry_Int_Tables_number   1
_chemical_formula_structural   Dy19MgIr7Pt5
_chemical_formula_sum   'Dy19 Mg1 Ir7 Pt5'
_cell_volume   757.59933088
_cell_formula_units_Z   1
loop_
 _symmetry_equiv_pos_site_id
 _symmetry_equiv_pos_as_xyz
  1  'x, y, z'
loop_
 _atom_site_type_symbol
 _atom_site_label
 _atom_site_symmetry_multiplicity
 _atom_site_fract_x
 _atom_site_fract_y
 _atom_site_fract_z
 _atom_site_occupancy
  Dy  Dy0  1  0.288119  0.086282  0.376064  1
  Dy  Dy1  1  0.294417  0.908909  0.876906  1
  Dy  Dy2  1  0.705746  0.087343  0.876767  1
  Dy  Dy3  1  0.712077  0.913313  0.375616  1
  Dy  Dy4  1  0.588040  0.790172  0.881144  1
  Dy  Dy5  1  0.582747  0.207063  0.374628  1
  Dy  Dy6  1  0.415678  0.791468  0.377532  1
  Dy  Dy7  1  0.409271  0.208142  0.882387  1
  Dy  Dy8  1  0.209804  0.415713  0.621662  1
  Dy  Dy9  1  0.208596  0.588017  0.119130  1
  Dy  Dy10  1  0.792681  0.413655  0.122561  1
  Dy  Dy11  1  0.791933  0.587314  0.620450  1
  Dy  Dy12  1  0.908954  0.705707  0.122738  1
  Dy  Dy13  1  0.917442  0.287775  0.624063  1
  Dy  Dy14  1  0.086438  0.711702  0.624197  1
  Dy  Dy15  1  0.091458  0.294254  0.123313  1
  Dy  Dy16  1  0.000044  0.999874  0.000480  1
  Dy  Dy17  1  0.498268  0.501384  0.000674  1
  Dy  Dy18  1  0.498801  0.501401  0.499521  1
  Mg  Mg19  1  0.999910  0.999929  0.499694  1
  Ir  Ir20  1  0.654763  0.653918  0.252253  1
  Ir  Ir21  1  0.346167  0.345247  0.252409  1
  Ir  Ir22  1  0.344955  0.655461  0.747940  1
  Ir  Ir23  1  0.500245  0.000145  0.125119  1
  Ir  Ir24  1  0.500036  0.000431  0.624263  1
  Ir  Ir25  1  0.999546  0.499842  0.873848  1
  Ir  Ir26  1  0.999667  0.499562  0.377112  1
  Pt  Pt27  1  0.848073  0.154242  0.248760  1
  Pt  Pt28  1  0.846566  0.849437  0.750941  1
  Pt  Pt29  1  0.153085  0.151079  0.750702  1
  Pt  Pt30  1  0.151135  0.846344  0.249258  1
  Pt  Pt31  1  0.655339  0.344873  0.747866  1
