# generated using pymatgen
data_Sc6TiNbH16
_symmetry_space_group_name_H-M   'P 1'
_cell_length_a   6.64152803
_cell_length_b   6.64152779
_cell_length_c   6.64152800
_cell_angle_alpha   59.99999897
_cell_angle_beta   60.00000014
_cell_angle_gamma   60.00000755
_symmetry_Int_Tables_number   1
_chemical_formula_structural   Sc6TiNbH16
_chemical_formula_sum   'Sc6 Ti1 Nb1 H16'
_cell_volume   207.15195487
_cell_formula_units_Z   1
loop_
 _symmetry_equiv_pos_site_id
 _symmetry_equiv_pos_as_xyz
  1  'x, y, z'
loop_
 _atom_site_type_symbol
 _atom_site_label
 _atom_site_symmetry_multiplicity
 _atom_site_fract_x
 _atom_site_fract_y
 _atom_site_fract_z
 _atom_site_occupancy
  Sc  Sc0  1  0.000000  0.000000  0.500000  1
  Sc  Sc1  1  0.500000  0.000000  0.500000  1
  Sc  Sc2  1  0.000000  0.500000  0.500000  1
  Sc  Sc3  1  0.500000  0.500000  0.000000  1
  Sc  Sc4  1  0.000000  0.500000  0.000000  1
  Sc  Sc5  1  0.500000  0.000000  0.000000  1
  Ti  Ti6  1  0.500000  0.500000  0.500000  1
  Nb  Nb7  1  0.000000  0.000000  0.000000  1
  H  H8  1  0.879382  0.879382  0.361855  1
  H  H9  1  0.879382  0.361855  0.879382  1
  H  H10  1  0.361855  0.879382  0.879382  1
  H  H11  1  0.879382  0.879382  0.879382  1
  H  H12  1  0.120618  0.120618  0.638145  1
  H  H13  1  0.120618  0.638145  0.120618  1
  H  H14  1  0.638145  0.120618  0.120618  1
  H  H15  1  0.120618  0.120618  0.120618  1
  H  H16  1  0.619970  0.619970  0.140088  1
  H  H17  1  0.619970  0.140088  0.619970  1
  H  H18  1  0.140088  0.619970  0.619970  1
  H  H19  1  0.619970  0.619970  0.619970  1
  H  H20  1  0.380030  0.380030  0.859912  1
  H  H21  1  0.380030  0.859912  0.380030  1
  H  H22  1  0.859912  0.380030  0.380030  1
  H  H23  1  0.380030  0.380030  0.380030  1
