# generated using pymatgen
data_Tm12In2Fe2Os
_symmetry_space_group_name_H-M   'P 1'
_cell_length_a   8.25855683
_cell_length_b   8.25855734
_cell_length_c   8.25855711
_cell_angle_alpha   108.64745143
_cell_angle_beta   108.64744722
_cell_angle_gamma   111.13163129
_symmetry_Int_Tables_number   1
_chemical_formula_structural   Tm12In2Fe2Os
_chemical_formula_sum   'Tm12 In2 Fe2 Os1'
_cell_volume   433.32736074
_cell_formula_units_Z   1
loop_
 _symmetry_equiv_pos_site_id
 _symmetry_equiv_pos_as_xyz
  1  'x, y, z'
loop_
 _atom_site_type_symbol
 _atom_site_label
 _atom_site_symmetry_multiplicity
 _atom_site_fract_x
 _atom_site_fract_y
 _atom_site_fract_z
 _atom_site_occupancy
  Tm  Tm0  1  0.192233  0.430136  0.237902  1
  Tm  Tm1  1  0.807767  0.569864  0.762098  1
  Tm  Tm2  1  0.192233  0.954332  0.762098  1
  Tm  Tm3  1  0.954332  0.192233  0.762098  1
  Tm  Tm4  1  0.807767  0.045668  0.237902  1
  Tm  Tm5  1  0.045668  0.807767  0.237902  1
  Tm  Tm6  1  0.430136  0.192233  0.237902  1
  Tm  Tm7  1  0.569864  0.807767  0.762098  1
  Tm  Tm8  1  0.308217  0.308217  0.616433  1
  Tm  Tm9  1  0.691783  0.691783  0.383567  1
  Tm  Tm10  1  0.691783  0.308217  0.000000  1
  Tm  Tm11  1  0.308217  0.691783  0.000000  1
  In  In12  1  0.000000  0.500000  0.500000  1
  In  In13  1  0.500000  0.000000  0.500000  1
  Fe  Fe14  1  0.385280  0.385280  0.000000  1
  Fe  Fe15  1  0.614720  0.614720  0.000000  1
  Os  Os16  1  0.000000  0.000000  0.000000  1
