# generated using pymatgen
data_Pr7HoSc12Si15Pb
_symmetry_space_group_name_H-M   'P 1'
_cell_length_a   7.27952759
_cell_length_b   7.55963802
_cell_length_c   14.31297695
_cell_angle_alpha   89.86454354
_cell_angle_beta   89.61824437
_cell_angle_gamma   90.23385468
_symmetry_Int_Tables_number   1
_chemical_formula_structural   Pr7HoSc12Si15Pb
_chemical_formula_sum   'Pr7 Ho1 Sc12 Si15 Pb1'
_cell_volume   787.62532045
_cell_formula_units_Z   1
loop_
 _symmetry_equiv_pos_site_id
 _symmetry_equiv_pos_as_xyz
  1  'x, y, z'
loop_
 _atom_site_type_symbol
 _atom_site_label
 _atom_site_symmetry_multiplicity
 _atom_site_fract_x
 _atom_site_fract_y
 _atom_site_fract_z
 _atom_site_occupancy
  Pr  Pr0  1  0.011863  0.173071  0.097265  1
  Pr  Pr1  1  0.987988  0.827440  0.902099  1
  Pr  Pr2  1  0.489333  0.672085  0.904059  1
  Pr  Pr3  1  0.988822  0.833042  0.599405  1
  Pr  Pr4  1  0.510659  0.327527  0.097504  1
  Pr  Pr5  1  0.007041  0.165924  0.399690  1
  Pr  Pr6  1  0.513903  0.322471  0.398416  1
  Ho  Ho7  1  0.504387  0.685879  0.603025  1
  Sc  Sc8  1  0.161433  0.500326  0.756386  1
  Sc  Sc9  1  0.838174  0.502194  0.248730  1
  Sc  Sc10  1  0.338866  0.997757  0.249056  1
  Sc  Sc11  1  0.662605  0.001464  0.751144  1
  Sc  Sc12  1  0.343883  0.160005  0.631935  1
  Sc  Sc13  1  0.662943  0.824065  0.372558  1
  Sc  Sc14  1  0.164882  0.681943  0.369306  1
  Sc  Sc15  1  0.669191  0.824386  0.124250  1
  Sc  Sc16  1  0.818787  0.326244  0.626082  1
  Sc  Sc17  1  0.329872  0.174087  0.873972  1
  Sc  Sc18  1  0.829530  0.325176  0.874689  1
  Sc  Sc19  1  0.168702  0.675527  0.125035  1
  Si  Si20  1  0.033717  0.129199  0.750543  1
  Si  Si21  1  0.962469  0.875816  0.247421  1
  Si  Si22  1  0.463642  0.624705  0.248520  1
  Si  Si23  1  0.532491  0.380469  0.750704  1
  Si  Si24  1  0.291856  0.874287  0.750725  1
  Si  Si25  1  0.709911  0.115508  0.247546  1
  Si  Si26  1  0.209038  0.382687  0.249464  1
  Si  Si27  1  0.788723  0.620066  0.749331  1
  Si  Si28  1  0.831398  0.543792  0.458415  1
  Si  Si29  1  0.346655  0.957651  0.461972  1
  Si  Si30  1  0.848451  0.536805  0.039748  1
  Si  Si31  1  0.652768  0.035020  0.539462  1
  Si  Si32  1  0.150547  0.462976  0.960678  1
  Si  Si33  1  0.650914  0.037701  0.960379  1
  Si  Si34  1  0.348278  0.963426  0.039416  1
  Pb  Pb35  1  0.176275  0.459279  0.541070  1
