# generated using pymatgen
data_Rb6Na4GdTaP6
_symmetry_space_group_name_H-M   'P 1'
_cell_length_a   10.93592697
_cell_length_b   10.93592540
_cell_length_c   15.64646600
_cell_angle_alpha   90.00000000
_cell_angle_beta   90.00000000
_cell_angle_gamma   143.23329390
_symmetry_Int_Tables_number   1
_chemical_formula_structural   Rb6Na4GdTaP6
_chemical_formula_sum   'Rb12 Na8 Gd2 Ta2 P12'
_cell_volume   1120.04065608
_cell_formula_units_Z   2
loop_
 _symmetry_equiv_pos_site_id
 _symmetry_equiv_pos_as_xyz
  1  'x, y, z'
loop_
 _atom_site_type_symbol
 _atom_site_label
 _atom_site_symmetry_multiplicity
 _atom_site_fract_x
 _atom_site_fract_y
 _atom_site_fract_z
 _atom_site_occupancy
  Rb  Rb0  1  0.946431  0.604026  0.824043  1
  Rb  Rb1  1  0.553569  0.895974  0.324043  1
  Rb  Rb2  1  0.395974  0.053569  0.175957  1
  Rb  Rb3  1  0.050790  0.390622  0.180331  1
  Rb  Rb4  1  0.890622  0.550790  0.319669  1
  Rb  Rb5  1  0.449210  0.109378  0.680331  1
  Rb  Rb6  1  0.609378  0.949210  0.819669  1
  Rb  Rb7  1  0.281569  0.278301  0.315455  1
  Rb  Rb8  1  0.778301  0.781569  0.184545  1
  Rb  Rb9  1  0.218431  0.221699  0.815455  1
  Rb  Rb10  1  0.721699  0.718431  0.684545  1
  Rb  Rb11  1  0.104026  0.446431  0.675957  1
  Na  Na12  1  0.919203  0.080797  0.000000  1
  Na  Na13  1  0.580797  0.419203  0.500000  1
  Na  Na14  1  0.081265  0.918735  0.000000  1
  Na  Na15  1  0.418735  0.581265  0.500000  1
  Na  Na16  1  0.754782  0.245218  0.000000  1
  Na  Na17  1  0.745218  0.254782  0.500000  1
  Na  Na18  1  0.245225  0.754775  0.000000  1
  Na  Na19  1  0.254775  0.745225  0.500000  1
  Gd  Gd20  1  0.412360  0.587640  0.000000  1
  Gd  Gd21  1  0.087640  0.912360  0.500000  1
  Ta  Ta22  1  0.585399  0.414601  0.000000  1
  Ta  Ta23  1  0.914601  0.085399  0.500000  1
  P  P24  1  0.854576  0.551846  0.090124  1
  P  P25  1  0.448154  0.145424  0.909876  1
  P  P26  1  0.645424  0.948154  0.590124  1
  P  P27  1  0.928886  0.606585  0.601379  1
  P  P28  1  0.106585  0.428886  0.898621  1
  P  P29  1  0.571114  0.893415  0.101379  1
  P  P30  1  0.393415  0.071114  0.398621  1
  P  P31  1  0.185626  0.207930  0.586008  1
  P  P32  1  0.707930  0.685626  0.913992  1
  P  P33  1  0.314374  0.292070  0.086008  1
  P  P34  1  0.051846  0.354576  0.409876  1
  P  P35  1  0.792070  0.814374  0.413992  1
