# generated using pymatgen
data_YbEuHoZn11
_symmetry_space_group_name_H-M   'P 1'
_cell_length_a   8.26948186
_cell_length_b   8.26948118
_cell_length_c   8.26948200
_cell_angle_alpha   148.58491954
_cell_angle_beta   116.55080092
_cell_angle_gamma   72.51808485
_symmetry_Int_Tables_number   1
_chemical_formula_structural   YbEuHoZn11
_chemical_formula_sum   'Yb1 Eu1 Ho1 Zn11'
_cell_volume   259.65816081
_cell_formula_units_Z   1
loop_
 _symmetry_equiv_pos_site_id
 _symmetry_equiv_pos_as_xyz
  1  'x, y, z'
loop_
 _atom_site_type_symbol
 _atom_site_label
 _atom_site_symmetry_multiplicity
 _atom_site_fract_x
 _atom_site_fract_y
 _atom_site_fract_z
 _atom_site_occupancy
  Yb  Yb0  1  0.297380  0.297380  0.000000  1
  Eu  Eu1  1  0.999371  0.999371  0.000000  1
  Ho  Ho2  1  0.702526  0.702526  0.000000  1
  Zn  Zn3  1  0.500254  0.000254  0.500000  1
  Zn  Zn4  1  0.679883  0.500090  0.179793  1
  Zn  Zn5  1  0.320297  0.500090  0.820207  1
  Zn  Zn6  1  0.693201  0.337477  0.355724  1
  Zn  Zn7  1  0.306768  0.662315  0.644452  1
  Zn  Zn8  1  0.981755  0.337477  0.644276  1
  Zn  Zn9  1  0.017862  0.662315  0.355548  1
  Zn  Zn10  1  0.429360  0.139874  0.289487  1
  Zn  Zn11  1  0.573801  0.860476  0.713323  1
  Zn  Zn12  1  0.850388  0.139874  0.710513  1
  Zn  Zn13  1  0.147154  0.860476  0.286677  1
