# generated using pymatgen
data_Tb2Tm4NiI10
_symmetry_space_group_name_H-M   'P 1'
_cell_length_a   7.65552941
_cell_length_b   9.62170302
_cell_length_c   9.68547516
_cell_angle_alpha   107.12153797
_cell_angle_beta   96.83970980
_cell_angle_gamma   104.74139805
_symmetry_Int_Tables_number   1
_chemical_formula_structural   Tb2Tm4NiI10
_chemical_formula_sum   'Tb2 Tm4 Ni1 I10'
_cell_volume   644.67494147
_cell_formula_units_Z   1
loop_
 _symmetry_equiv_pos_site_id
 _symmetry_equiv_pos_as_xyz
  1  'x, y, z'
loop_
 _atom_site_type_symbol
 _atom_site_label
 _atom_site_symmetry_multiplicity
 _atom_site_fract_x
 _atom_site_fract_y
 _atom_site_fract_z
 _atom_site_occupancy
  Tb  Tb0  1  0.886780  0.959013  0.236333  1
  Tb  Tb1  1  0.113220  0.040987  0.763667  1
  Tm  Tm2  1  0.029458  0.723715  0.917103  1
  Tm  Tm3  1  0.970542  0.276285  0.082897  1
  Tm  Tm4  1  0.664103  0.880343  0.841117  1
  Tm  Tm5  1  0.335897  0.119657  0.158883  1
  Ni  Ni6  1  0.000000  0.000000  0.000000  1
  I  I7  1  0.649021  0.550362  0.728545  1
  I  I8  1  0.350979  0.449638  0.271455  1
  I  I9  1  0.737541  0.911231  0.538520  1
  I  I10  1  0.262459  0.088769  0.461480  1
  I  I11  1  0.084067  0.375554  0.822573  1
  I  I12  1  0.915933  0.624446  0.177427  1
  I  I13  1  0.451705  0.815260  0.091196  1
  I  I14  1  0.548295  0.184740  0.908804  1
  I  I15  1  0.226872  0.741464  0.657448  1
  I  I16  1  0.773128  0.258536  0.342552  1
