# generated using pymatgen
data_Lu20GeBi10Os
_symmetry_space_group_name_H-M   'P 1'
_cell_length_a   8.04329018
_cell_length_b   9.33195700
_cell_length_c   11.73238700
_cell_angle_alpha   90.00000000
_cell_angle_beta   89.90447482
_cell_angle_gamma   90.00000000
_symmetry_Int_Tables_number   1
_chemical_formula_structural   Lu20GeBi10Os
_chemical_formula_sum   'Lu20 Ge1 Bi10 Os1'
_cell_volume   880.62749819
_cell_formula_units_Z   1
loop_
 _symmetry_equiv_pos_site_id
 _symmetry_equiv_pos_as_xyz
  1  'x, y, z'
loop_
 _atom_site_type_symbol
 _atom_site_label
 _atom_site_symmetry_multiplicity
 _atom_site_fract_x
 _atom_site_fract_y
 _atom_site_fract_z
 _atom_site_occupancy
  Lu  Lu0  1  0.184361  0.572255  0.447297  1
  Lu  Lu1  1  0.684976  0.966976  0.058555  1
  Lu  Lu2  1  0.809049  0.050266  0.561293  1
  Lu  Lu3  1  0.324631  0.425526  0.947656  1
  Lu  Lu4  1  0.809049  0.449734  0.561293  1
  Lu  Lu5  1  0.324631  0.074474  0.947656  1
  Lu  Lu6  1  0.184361  0.927745  0.447297  1
  Lu  Lu7  1  0.684976  0.533024  0.058555  1
  Lu  Lu8  1  0.017956  0.750000  0.992058  1
  Lu  Lu9  1  0.533319  0.750000  0.511716  1
  Lu  Lu10  1  0.947601  0.250000  0.005515  1
  Lu  Lu11  1  0.477334  0.250000  0.495694  1
  Lu  Lu12  1  0.172476  0.750000  0.707017  1
  Lu  Lu13  1  0.695261  0.750000  0.773410  1
  Lu  Lu14  1  0.792644  0.250000  0.268399  1
  Lu  Lu15  1  0.352399  0.250000  0.204335  1
  Lu  Lu16  1  0.857143  0.750000  0.291258  1
  Lu  Lu17  1  0.339665  0.750000  0.218267  1
  Lu  Lu18  1  0.158286  0.250000  0.714621  1
  Lu  Lu19  1  0.644104  0.250000  0.802487  1
  Ge  Ge20  1  0.903037  0.750000  0.537627  1
  Bi  Bi21  1  0.944641  0.498848  0.821214  1
  Bi  Bi22  1  0.436695  0.999913  0.677185  1
  Bi  Bi23  1  0.066263  0.000401  0.176236  1
  Bi  Bi24  1  0.562015  0.507038  0.329353  1
  Bi  Bi25  1  0.066263  0.499599  0.176236  1
  Bi  Bi26  1  0.562015  0.992962  0.329353  1
  Bi  Bi27  1  0.944641  0.001152  0.821214  1
  Bi  Bi28  1  0.436695  0.500087  0.677185  1
  Bi  Bi29  1  0.407270  0.750000  0.956256  1
  Bi  Bi30  1  0.089268  0.250000  0.451455  1
  Os  Os31  1  0.586974  0.250000  0.032313  1
