# generated using pymatgen
data_YbNpReH6
_symmetry_space_group_name_H-M   'P 1'
_cell_length_a   5.09590955
_cell_length_b   5.09590925
_cell_length_c   5.09591000
_cell_angle_alpha   59.99999514
_cell_angle_beta   59.99999710
_cell_angle_gamma   59.99998861
_symmetry_Int_Tables_number   1
_chemical_formula_structural   YbNpReH6
_chemical_formula_sum   'Yb1 Np1 Re1 H6'
_cell_volume   93.57289911
_cell_formula_units_Z   1
loop_
 _symmetry_equiv_pos_site_id
 _symmetry_equiv_pos_as_xyz
  1  'x, y, z'
loop_
 _atom_site_type_symbol
 _atom_site_label
 _atom_site_symmetry_multiplicity
 _atom_site_fract_x
 _atom_site_fract_y
 _atom_site_fract_z
 _atom_site_occupancy
  Yb  Yb0  1  0.749999  0.749999  0.749999  1
  Np  Np1  1  0.250000  0.250000  0.250000  1
  Re  Re2  1  0.000000  0.000000  0.000000  1
  H  H3  1  0.751294  0.248707  0.248707  1
  H  H4  1  0.248707  0.751294  0.248707  1
  H  H5  1  0.751293  0.751293  0.248708  1
  H  H6  1  0.248707  0.248707  0.751294  1
  H  H7  1  0.751293  0.248708  0.751293  1
  H  H8  1  0.248708  0.751293  0.751293  1
