# generated using pymatgen
data_Y3Sc3Ge2Os
_symmetry_space_group_name_H-M   'P 1'
_cell_length_a   7.48153200
_cell_length_b   7.48153220
_cell_length_c   4.24661200
_cell_angle_alpha   90.00000000
_cell_angle_beta   90.00000000
_cell_angle_gamma   119.99999912
_symmetry_Int_Tables_number   1
_chemical_formula_structural   Y3Sc3Ge2Os
_chemical_formula_sum   'Y3 Sc3 Ge2 Os1'
_cell_volume   205.85162769
_cell_formula_units_Z   1
loop_
 _symmetry_equiv_pos_site_id
 _symmetry_equiv_pos_as_xyz
  1  'x, y, z'
loop_
 _atom_site_type_symbol
 _atom_site_label
 _atom_site_symmetry_multiplicity
 _atom_site_fract_x
 _atom_site_fract_y
 _atom_site_fract_z
 _atom_site_occupancy
  Y  Y0  1  0.415190  0.000000  0.000000  1
  Y  Y1  1  0.000000  0.415190  0.000000  1
  Y  Y2  1  0.584810  0.584809  0.000000  1
  Sc  Sc3  1  0.762198  0.000000  0.500001  1
  Sc  Sc4  1  0.237801  0.237802  0.500001  1
  Sc  Sc5  1  0.000000  0.762198  0.500001  1
  Ge  Ge6  1  0.666666  0.333333  0.500001  1
  Ge  Ge7  1  0.333333  0.666667  0.500001  1
  Os  Os8  1  0.000000  0.000000  0.000000  1
