# generated using pymatgen
data_Ho9TmPb8
_symmetry_space_group_name_H-M   'P 1'
_cell_length_a   8.18131300
_cell_length_b   15.57922900
_cell_length_c   8.24911300
_cell_angle_alpha   90.00000000
_cell_angle_beta   90.00000000
_cell_angle_gamma   90.00000000
_symmetry_Int_Tables_number   1
_chemical_formula_structural   Ho9TmPb8
_chemical_formula_sum   'Ho18 Tm2 Pb16'
_cell_volume   1051.41997144
_cell_formula_units_Z   2
loop_
 _symmetry_equiv_pos_site_id
 _symmetry_equiv_pos_as_xyz
  1  'x, y, z'
loop_
 _atom_site_type_symbol
 _atom_site_label
 _atom_site_symmetry_multiplicity
 _atom_site_fract_x
 _atom_site_fract_y
 _atom_site_fract_z
 _atom_site_occupancy
  Ho  Ho0  1  0.622768  0.621484  0.157956  1
  Ho  Ho1  1  0.122768  0.878516  0.342044  1
  Ho  Ho2  1  0.377133  0.120789  0.841642  1
  Ho  Ho3  1  0.877133  0.379211  0.658358  1
  Ho  Ho4  1  0.377133  0.379211  0.841642  1
  Ho  Ho5  1  0.877133  0.120789  0.658358  1
  Ho  Ho6  1  0.622768  0.878516  0.157956  1
  Ho  Ho7  1  0.122768  0.621484  0.342044  1
  Ho  Ho8  1  0.463471  0.599931  0.675827  1
  Ho  Ho9  1  0.963471  0.900069  0.824173  1
  Ho  Ho10  1  0.536329  0.099633  0.324165  1
  Ho  Ho11  1  0.036329  0.400367  0.175835  1
  Ho  Ho12  1  0.536329  0.400367  0.324165  1
  Ho  Ho13  1  0.036329  0.099633  0.175835  1
  Ho  Ho14  1  0.463471  0.900069  0.675827  1
  Ho  Ho15  1  0.963471  0.599931  0.824173  1
  Ho  Ho16  1  0.208885  0.250000  0.504232  1
  Ho  Ho17  1  0.708885  0.250000  0.995768  1
  Tm  Tm18  1  0.791101  0.750000  0.495441  1
  Tm  Tm19  1  0.291101  0.750000  0.004559  1
  Pb  Pb20  1  0.718865  0.457481  0.966843  1
  Pb  Pb21  1  0.218865  0.042519  0.533157  1
  Pb  Pb22  1  0.281193  0.956406  0.033129  1
  Pb  Pb23  1  0.781193  0.543594  0.466871  1
  Pb  Pb24  1  0.281193  0.543594  0.033129  1
  Pb  Pb25  1  0.781193  0.956406  0.466871  1
  Pb  Pb26  1  0.718865  0.042519  0.966843  1
  Pb  Pb27  1  0.218865  0.457481  0.533157  1
  Pb  Pb28  1  0.428753  0.750000  0.374129  1
  Pb  Pb29  1  0.928753  0.750000  0.125871  1
  Pb  Pb30  1  0.572051  0.250000  0.625807  1
  Pb  Pb31  1  0.072051  0.250000  0.874193  1
  Pb  Pb32  1  0.651418  0.750000  0.844357  1
  Pb  Pb33  1  0.151418  0.750000  0.655643  1
  Pb  Pb34  1  0.348276  0.250000  0.154104  1
  Pb  Pb35  1  0.848276  0.250000  0.345896  1
