# generated using pymatgen
data_BaLiCeSe3
_symmetry_space_group_name_H-M   'P 1'
_cell_length_a   7.43083587
_cell_length_b   7.43083691
_cell_length_c   11.15165800
_cell_angle_alpha   90.00000000
_cell_angle_beta   90.00000000
_cell_angle_gamma   145.81090720
_symmetry_Int_Tables_number   1
_chemical_formula_structural   BaLiCeSe3
_chemical_formula_sum   'Ba2 Li2 Ce2 Se6'
_cell_volume   346.01418666
_cell_formula_units_Z   2
loop_
 _symmetry_equiv_pos_site_id
 _symmetry_equiv_pos_as_xyz
  1  'x, y, z'
loop_
 _atom_site_type_symbol
 _atom_site_label
 _atom_site_symmetry_multiplicity
 _atom_site_fract_x
 _atom_site_fract_y
 _atom_site_fract_z
 _atom_site_occupancy
  Ba  Ba0  1  0.749351  0.250651  0.250000  1
  Ba  Ba1  1  0.250651  0.749351  0.750000  1
  Li  Li2  1  0.022313  0.977689  0.250000  1
  Li  Li3  1  0.977689  0.022313  0.750000  1
  Ce  Ce4  1  0.500001  0.500001  0.000000  1
  Ce  Ce5  1  0.500001  0.500001  0.500000  1
  Se  Se6  1  0.132252  0.867750  0.068801  1
  Se  Se7  1  0.425898  0.574104  0.250000  1
  Se  Se8  1  0.132252  0.867750  0.431198  1
  Se  Se9  1  0.867750  0.132252  0.568802  1
  Se  Se10  1  0.574104  0.425898  0.750000  1
  Se  Se11  1  0.867750  0.132252  0.931198  1
