# generated using pymatgen
data_Sm10InBi5Cl2
_symmetry_space_group_name_H-M   'P 1'
_cell_length_a   9.47420000
_cell_length_b   9.41796590
_cell_length_c   6.60158900
_cell_angle_alpha   90.00000000
_cell_angle_beta   90.00000000
_cell_angle_gamma   120.19772147
_symmetry_Int_Tables_number   1
_chemical_formula_structural   Sm10InBi5Cl2
_chemical_formula_sum   'Sm10 In1 Bi5 Cl2'
_cell_volume   509.10814744
_cell_formula_units_Z   1
loop_
 _symmetry_equiv_pos_site_id
 _symmetry_equiv_pos_as_xyz
  1  'x, y, z'
loop_
 _atom_site_type_symbol
 _atom_site_label
 _atom_site_symmetry_multiplicity
 _atom_site_fract_x
 _atom_site_fract_y
 _atom_site_fract_z
 _atom_site_occupancy
  Sm  Sm0  1  0.267065  0.000000  0.750000  1
  Sm  Sm1  1  0.734452  0.000000  0.250000  1
  Sm  Sm2  1  0.994378  0.259241  0.750000  1
  Sm  Sm3  1  0.000102  0.737065  0.250000  1
  Sm  Sm4  1  0.735136  0.740759  0.750000  1
  Sm  Sm5  1  0.263038  0.262935  0.250000  1
  Sm  Sm6  1  0.334943  0.668970  0.499980  1
  Sm  Sm7  1  0.665973  0.331030  0.499980  1
  Sm  Sm8  1  0.665973  0.331030  0.000020  1
  Sm  Sm9  1  0.334943  0.668970  0.000020  1
  In  In10  1  0.611825  0.000000  0.750000  1
  Bi  Bi11  1  0.388783  0.000000  0.250000  1
  Bi  Bi12  1  0.998151  0.612937  0.750000  1
  Bi  Bi13  1  0.000227  0.386578  0.250000  1
  Bi  Bi14  1  0.385213  0.387063  0.750000  1
  Bi  Bi15  1  0.613649  0.613422  0.250000  1
  Cl  Cl16  1  0.003075  0.000000  0.499091  1
  Cl  Cl17  1  0.003075  0.000000  0.000909  1
