# generated using pymatgen
data_RbNa2PS4
_symmetry_space_group_name_H-M   'P 1'
_cell_length_a   6.60810993
_cell_length_b   6.60811056
_cell_length_c   6.60810998
_cell_angle_alpha   115.40038997
_cell_angle_beta   115.40038856
_cell_angle_gamma   98.17039281
_symmetry_Int_Tables_number   1
_chemical_formula_structural   RbNa2PS4
_chemical_formula_sum   'Rb1 Na2 P1 S4'
_cell_volume   215.84476031
_cell_formula_units_Z   1
loop_
 _symmetry_equiv_pos_site_id
 _symmetry_equiv_pos_as_xyz
  1  'x, y, z'
loop_
 _atom_site_type_symbol
 _atom_site_label
 _atom_site_symmetry_multiplicity
 _atom_site_fract_x
 _atom_site_fract_y
 _atom_site_fract_z
 _atom_site_occupancy
  Rb  Rb0  1  0.500000  0.500000  0.000000  1
  Na  Na1  1  0.250000  0.750000  0.500000  1
  Na  Na2  1  0.750000  0.250000  0.500000  1
  P  P3  1  0.000000  0.000000  0.000000  1
  S  S4  1  0.305340  0.963495  0.000000  1
  S  S5  1  0.963495  0.305340  0.000000  1
  S  S6  1  0.694660  0.694660  0.658154  1
  S  S7  1  0.036505  0.036505  0.341846  1
