# generated using pymatgen
data_Eu4Zn3CuAs6
_symmetry_space_group_name_H-M   'P 1'
_cell_length_a   8.18879147
_cell_length_b   8.18879186
_cell_length_c   11.80735350
_cell_angle_alpha   54.81500531
_cell_angle_beta   54.81500329
_cell_angle_gamma   29.94767797
_symmetry_Int_Tables_number   1
_chemical_formula_structural   Eu4Zn3CuAs6
_chemical_formula_sum   'Eu4 Zn3 Cu1 As6'
_cell_volume   317.24295627
_cell_formula_units_Z   1
loop_
 _symmetry_equiv_pos_site_id
 _symmetry_equiv_pos_as_xyz
  1  'x, y, z'
loop_
 _atom_site_type_symbol
 _atom_site_label
 _atom_site_symmetry_multiplicity
 _atom_site_fract_x
 _atom_site_fract_y
 _atom_site_fract_z
 _atom_site_occupancy
  Eu  Eu0  1  0.261768  0.261768  0.341595  1
  Eu  Eu1  1  0.731566  0.731566  0.665338  1
  Eu  Eu2  1  0.402118  0.402118  0.936795  1
  Eu  Eu3  1  0.603999  0.603999  0.052583  1
  Zn  Zn4  1  0.957514  0.957514  0.313490  1
  Zn  Zn5  1  0.412413  0.412413  0.655296  1
  Zn  Zn6  1  0.591835  0.591835  0.346979  1
  Cu  Cu7  1  0.045153  0.045153  0.683557  1
  As  As8  1  0.077256  0.077256  0.871001  1
  As  As9  1  0.917118  0.917118  0.129172  1
  As  As10  1  0.158281  0.158281  0.192367  1
  As  As11  1  0.842262  0.842262  0.805203  1
  As  As12  1  0.385981  0.385981  0.463023  1
  As  As13  1  0.612737  0.612737  0.543604  1
