# generated using pymatgen
data_SmHo3Al18Pd5W
_symmetry_space_group_name_H-M   'P 1'
_cell_length_a   7.63680561
_cell_length_b   7.64310008
_cell_length_c   9.54579374
_cell_angle_alpha   89.66149576
_cell_angle_beta   89.61199148
_cell_angle_gamma   118.81182480
_symmetry_Int_Tables_number   1
_chemical_formula_structural   SmHo3Al18Pd5W
_chemical_formula_sum   'Sm1 Ho3 Al18 Pd5 W1'
_cell_volume   488.16474452
_cell_formula_units_Z   1
loop_
 _symmetry_equiv_pos_site_id
 _symmetry_equiv_pos_as_xyz
  1  'x, y, z'
loop_
 _atom_site_type_symbol
 _atom_site_label
 _atom_site_symmetry_multiplicity
 _atom_site_fract_x
 _atom_site_fract_y
 _atom_site_fract_z
 _atom_site_occupancy
  Sm  Sm0  1  0.995238  0.678758  0.247578  1
  Ho  Ho1  1  0.004677  0.319011  0.753694  1
  Ho  Ho2  1  0.680288  0.995530  0.246437  1
  Ho  Ho3  1  0.319593  0.005397  0.753322  1
  Al  Al4  1  0.136651  0.137592  0.248871  1
  Al  Al5  1  0.863327  0.863956  0.750639  1
  Al  Al6  1  0.003149  0.334796  0.075380  1
  Al  Al7  1  0.997031  0.664071  0.921128  1
  Al  Al8  1  0.998464  0.659851  0.580381  1
  Al  Al9  1  0.340794  0.002623  0.422679  1
  Al  Al10  1  0.001483  0.337987  0.422992  1
  Al  Al11  1  0.660325  0.998715  0.578958  1
  Al  Al12  1  0.663883  0.997312  0.922831  1
  Al  Al13  1  0.337478  0.004769  0.075256  1
  Al  Al14  1  0.333018  0.333049  0.554639  1
  Al  Al15  1  0.665896  0.667049  0.447941  1
  Al  Al16  1  0.666186  0.667619  0.049748  1
  Al  Al17  1  0.332969  0.333101  0.947706  1
  Al  Al18  1  0.344742  0.552149  0.250288  1
  Al  Al19  1  0.656141  0.447205  0.749731  1
  Al  Al20  1  0.550785  0.341850  0.250282  1
  Al  Al21  1  0.447267  0.656816  0.749652  1
  Pd  Pd22  1  0.672588  0.327443  0.999637  1
  Pd  Pd23  1  0.327576  0.672604  0.999593  1
  Pd  Pd24  1  0.328010  0.672226  0.500394  1
  Pd  Pd25  1  0.671926  0.327388  0.500418  1
  Pd  Pd26  1  0.000180  0.000608  0.500679  1
  W  W27  1  0.000337  0.000526  0.999146  1
