# generated using pymatgen
data_Re4B8Mo3W5
_symmetry_space_group_name_H-M   'P 1'
_cell_length_a   3.11524500
_cell_length_b   7.57926938
_cell_length_c   9.69612648
_cell_angle_alpha   89.96389305
_cell_angle_beta   90.00000000
_cell_angle_gamma   90.00000000
_symmetry_Int_Tables_number   1
_chemical_formula_structural   Re4B8Mo3W5
_chemical_formula_sum   'Re4 B8 Mo3 W5'
_cell_volume   228.93792177
_cell_formula_units_Z   1
loop_
 _symmetry_equiv_pos_site_id
 _symmetry_equiv_pos_as_xyz
  1  'x, y, z'
loop_
 _atom_site_type_symbol
 _atom_site_label
 _atom_site_symmetry_multiplicity
 _atom_site_fract_x
 _atom_site_fract_y
 _atom_site_fract_z
 _atom_site_occupancy
  Re  Re0  1  0.500000  0.621710  0.395575  1
  Re  Re1  1  0.500000  0.378024  0.604179  1
  Re  Re2  1  0.000000  0.877853  0.895501  1
  Re  Re3  1  0.000000  0.121811  0.104456  1
  B  B4  1  0.500000  0.115345  0.459753  1
  B  B5  1  0.500000  0.884867  0.540010  1
  B  B6  1  0.000000  0.384642  0.959763  1
  B  B7  1  0.000000  0.615320  0.040310  1
  B  B8  1  0.500000  0.121762  0.266670  1
  B  B9  1  0.500000  0.877985  0.733207  1
  B  B10  1  0.000000  0.378379  0.766648  1
  B  B11  1  0.000000  0.621920  0.233452  1
  Mo  Mo12  1  0.500000  0.422825  0.137546  1
  Mo  Mo13  1  0.000000  0.922929  0.362471  1
  Mo  Mo14  1  0.000000  0.076782  0.637680  1
  W  W15  1  0.500000  0.809413  0.130816  1
  W  W16  1  0.500000  0.190950  0.869697  1
  W  W17  1  0.000000  0.690739  0.630277  1
  W  W18  1  0.000000  0.309115  0.369700  1
  W  W19  1  0.500000  0.577631  0.862290  1
