# generated using pymatgen
data_CaMg(GaPt)2
_symmetry_space_group_name_H-M   'P 1'
_cell_length_a   4.24991100
_cell_length_b   6.85393161
_cell_length_c   7.76145584
_cell_angle_alpha   84.67871459
_cell_angle_beta   90.00000000
_cell_angle_gamma   90.00000000
_symmetry_Int_Tables_number   1
_chemical_formula_structural   CaMg(GaPt)2
_chemical_formula_sum   'Ca2 Mg2 Ga4 Pt4'
_cell_volume   225.10600211
_cell_formula_units_Z   2
loop_
 _symmetry_equiv_pos_site_id
 _symmetry_equiv_pos_as_xyz
  1  'x, y, z'
loop_
 _atom_site_type_symbol
 _atom_site_label
 _atom_site_symmetry_multiplicity
 _atom_site_fract_x
 _atom_site_fract_y
 _atom_site_fract_z
 _atom_site_occupancy
  Ca  Ca0  1  0.750000  0.473741  0.819448  1
  Ca  Ca1  1  0.250000  0.526259  0.180552  1
  Mg  Mg2  1  0.750000  0.975131  0.662470  1
  Mg  Mg3  1  0.250000  0.024869  0.337530  1
  Ga  Ga4  1  0.750000  0.854135  0.051113  1
  Ga  Ga5  1  0.250000  0.145865  0.948887  1
  Ga  Ga6  1  0.750000  0.351206  0.437762  1
  Ga  Ga7  1  0.250000  0.648794  0.562238  1
  Pt  Pt8  1  0.750000  0.741871  0.382467  1
  Pt  Pt9  1  0.250000  0.258129  0.617533  1
  Pt  Pt10  1  0.750000  0.200722  0.145546  1
  Pt  Pt11  1  0.250000  0.799278  0.854454  1
