# generated using pymatgen
data_Dy5Co16(TcP4)3
_symmetry_space_group_name_H-M   'P 1'
_cell_length_a   12.02164700
_cell_length_b   12.02164651
_cell_length_c   3.70716800
_cell_angle_alpha   90.00000000
_cell_angle_beta   90.00000000
_cell_angle_gamma   119.99999309
_symmetry_Int_Tables_number   1
_chemical_formula_structural   Dy5Co16(TcP4)3
_chemical_formula_sum   'Dy5 Co16 Tc3 P12'
_cell_volume   463.98170304
_cell_formula_units_Z   1
loop_
 _symmetry_equiv_pos_site_id
 _symmetry_equiv_pos_as_xyz
  1  'x, y, z'
loop_
 _atom_site_type_symbol
 _atom_site_label
 _atom_site_symmetry_multiplicity
 _atom_site_fract_x
 _atom_site_fract_y
 _atom_site_fract_z
 _atom_site_occupancy
  Dy  Dy0  1  0.666667  0.333333  0.000000  1
  Dy  Dy1  1  0.333333  0.666667  0.000000  1
  Dy  Dy2  1  0.185059  0.185059  0.500000  1
  Dy  Dy3  1  0.814941  0.000000  0.500000  1
  Dy  Dy4  1  0.000000  0.814941  0.500000  1
  Co  Co5  1  0.821219  0.197336  0.000000  1
  Co  Co6  1  0.802664  0.623883  0.000000  1
  Co  Co7  1  0.376117  0.178781  0.000000  1
  Co  Co8  1  0.197336  0.821219  0.000000  1
  Co  Co9  1  0.623883  0.802664  0.000000  1
  Co  Co10  1  0.178781  0.376117  0.000000  1
  Co  Co11  1  0.643472  0.126089  0.500000  1
  Co  Co12  1  0.873911  0.517382  0.500000  1
  Co  Co13  1  0.482618  0.356528  0.500000  1
  Co  Co14  1  0.126089  0.643472  0.500000  1
  Co  Co15  1  0.517382  0.873911  0.500000  1
  Co  Co16  1  0.356528  0.482618  0.500000  1
  Co  Co17  1  0.717399  0.717399  0.500000  1
  Co  Co18  1  0.282601  0.000000  0.500000  1
  Co  Co19  1  0.000000  0.282601  0.500000  1
  Co  Co20  1  0.000000  0.000000  0.000000  1
  Tc  Tc21  1  0.554166  0.554166  0.000000  1
  Tc  Tc22  1  0.445834  0.000000  0.000000  1
  Tc  Tc23  1  0.000000  0.445834  0.000000  1
  P  P24  1  0.362899  0.362899  0.000000  1
  P  P25  1  0.637101  0.000000  0.000000  1
  P  P26  1  0.000000  0.637101  0.000000  1
  P  P27  1  0.835006  0.314232  0.500000  1
  P  P28  1  0.685768  0.520774  0.500000  1
  P  P29  1  0.479226  0.164994  0.500000  1
  P  P30  1  0.314232  0.835006  0.500000  1
  P  P31  1  0.520774  0.685768  0.500000  1
  P  P32  1  0.164994  0.479226  0.500000  1
  P  P33  1  0.820893  0.820893  0.000000  1
  P  P34  1  0.179107  0.000000  0.000000  1
  P  P35  1  0.000000  0.179107  0.000000  1
