# generated using pymatgen
data_YbSb2Br2O3
_symmetry_space_group_name_H-M   'P 1'
_cell_length_a   5.74843075
_cell_length_b   8.36565458
_cell_length_c   8.30464129
_cell_angle_alpha   87.50664013
_cell_angle_beta   83.79769158
_cell_angle_gamma   80.59816173
_symmetry_Int_Tables_number   1
_chemical_formula_structural   YbSb2Br2O3
_chemical_formula_sum   'Yb2 Sb4 Br4 O6'
_cell_volume   391.55804364
_cell_formula_units_Z   2
loop_
 _symmetry_equiv_pos_site_id
 _symmetry_equiv_pos_as_xyz
  1  'x, y, z'
loop_
 _atom_site_type_symbol
 _atom_site_label
 _atom_site_symmetry_multiplicity
 _atom_site_fract_x
 _atom_site_fract_y
 _atom_site_fract_z
 _atom_site_occupancy
  Yb  Yb0  1  0.503308  0.486499  0.279893  1
  Yb  Yb1  1  0.496692  0.513501  0.720106  1
  Sb  Sb2  1  0.070736  0.309723  0.032527  1
  Sb  Sb3  1  0.042789  0.303760  0.470497  1
  Sb  Sb4  1  0.957211  0.696239  0.529503  1
  Sb  Sb5  1  0.929265  0.690277  0.967472  1
  Br  Br6  1  0.334138  0.810115  0.202990  1
  Br  Br7  1  0.748405  0.146530  0.298558  1
  Br  Br8  1  0.251595  0.853470  0.701441  1
  Br  Br9  1  0.665861  0.189885  0.797012  1
  O  O10  1  0.788143  0.491979  0.068168  1
  O  O11  1  0.188971  0.357570  0.244416  1
  O  O12  1  0.771850  0.494065  0.473933  1
  O  O13  1  0.228150  0.505934  0.526067  1
  O  O14  1  0.811029  0.642430  0.755584  1
  O  O15  1  0.211856  0.508020  0.931833  1
