# generated using pymatgen
data_SmZn(CdCu4)2
_symmetry_space_group_name_H-M   'P 1'
_cell_length_a   5.09798000
_cell_length_b   5.09798157
_cell_length_c   16.16349900
_cell_angle_alpha   90.00000000
_cell_angle_beta   90.00000000
_cell_angle_gamma   119.99998982
_symmetry_Int_Tables_number   1
_chemical_formula_structural   SmZn(CdCu4)2
_chemical_formula_sum   'Sm2 Zn2 Cd4 Cu16'
_cell_volume   363.79979108
_cell_formula_units_Z   2
loop_
 _symmetry_equiv_pos_site_id
 _symmetry_equiv_pos_as_xyz
  1  'x, y, z'
loop_
 _atom_site_type_symbol
 _atom_site_label
 _atom_site_symmetry_multiplicity
 _atom_site_fract_x
 _atom_site_fract_y
 _atom_site_fract_z
 _atom_site_occupancy
  Sm  Sm0  1  0.666667  0.333333  0.250000  1
  Sm  Sm1  1  0.333333  0.666667  0.750000  1
  Zn  Zn2  1  0.000000  0.000000  0.000000  1
  Zn  Zn3  1  0.000000  0.000000  0.500000  1
  Cd  Cd4  1  0.666667  0.333333  0.464267  1
  Cd  Cd5  1  0.333333  0.666667  0.964267  1
  Cd  Cd6  1  0.666667  0.333333  0.035733  1
  Cd  Cd7  1  0.333333  0.666667  0.535733  1
  Cu  Cu8  1  0.333333  0.666667  0.250000  1
  Cu  Cu9  1  0.666667  0.333333  0.750000  1
  Cu  Cu10  1  0.168264  0.831736  0.375634  1
  Cu  Cu11  1  0.168264  0.336527  0.375634  1
  Cu  Cu12  1  0.000000  0.000000  0.750000  1
  Cu  Cu13  1  0.000000  0.000000  0.250000  1
  Cu  Cu14  1  0.168264  0.336527  0.124366  1
  Cu  Cu15  1  0.831736  0.168264  0.624366  1
  Cu  Cu16  1  0.336527  0.168264  0.624366  1
  Cu  Cu17  1  0.663473  0.831736  0.124366  1
  Cu  Cu18  1  0.168264  0.831736  0.124366  1
  Cu  Cu19  1  0.831736  0.663473  0.875634  1
  Cu  Cu20  1  0.831736  0.168264  0.875634  1
  Cu  Cu21  1  0.831736  0.663473  0.624366  1
  Cu  Cu22  1  0.336527  0.168264  0.875634  1
  Cu  Cu23  1  0.663473  0.831736  0.375634  1
