# generated using pymatgen
data_Li2TbEu2AlSi3
_symmetry_space_group_name_H-M   'P 1'
_cell_length_a   7.10310200
_cell_length_b   7.14453619
_cell_length_c   4.29857400
_cell_angle_alpha   90.00000000
_cell_angle_beta   90.00000000
_cell_angle_gamma   120.76414796
_symmetry_Int_Tables_number   1
_chemical_formula_structural   Li2TbEu2AlSi3
_chemical_formula_sum   'Li2 Tb1 Eu2 Al1 Si3'
_cell_volume   187.44819784
_cell_formula_units_Z   1
loop_
 _symmetry_equiv_pos_site_id
 _symmetry_equiv_pos_as_xyz
  1  'x, y, z'
loop_
 _atom_site_type_symbol
 _atom_site_label
 _atom_site_symmetry_multiplicity
 _atom_site_fract_x
 _atom_site_fract_y
 _atom_site_fract_z
 _atom_site_occupancy
  Li  Li0  1  0.236223  0.995234  0.500000  1
  Li  Li1  1  0.996029  0.235645  0.500000  1
  Tb  Tb2  1  0.010014  0.582449  0.000000  1
  Eu  Eu3  1  0.418247  0.419487  0.000000  1
  Eu  Eu4  1  0.577715  0.010574  0.000000  1
  Al  Al5  1  0.757254  0.755860  0.500000  1
  Si  Si6  1  0.336362  0.667528  0.500000  1
  Si  Si7  1  0.685881  0.358167  0.500000  1
  Si  Si8  1  0.982277  0.975056  0.000000  1
