# generated using pymatgen
data_Cs3NdV2O8
_symmetry_space_group_name_H-M   'P 1'
_cell_length_a   6.28677700
_cell_length_b   6.28677624
_cell_length_c   8.47222300
_cell_angle_alpha   90.00000000
_cell_angle_beta   90.00000000
_cell_angle_gamma   119.99999874
_symmetry_Int_Tables_number   1
_chemical_formula_structural   Cs3NdV2O8
_chemical_formula_sum   'Cs3 Nd1 V2 O8'
_cell_volume   289.99070272
_cell_formula_units_Z   1
loop_
 _symmetry_equiv_pos_site_id
 _symmetry_equiv_pos_as_xyz
  1  'x, y, z'
loop_
 _atom_site_type_symbol
 _atom_site_label
 _atom_site_symmetry_multiplicity
 _atom_site_fract_x
 _atom_site_fract_y
 _atom_site_fract_z
 _atom_site_occupancy
  Cs  Cs0  1  0.333333  0.666667  0.723372  1
  Cs  Cs1  1  0.666667  0.333333  0.276628  1
  Cs  Cs2  1  0.000000  0.000000  0.000000  1
  Nd  Nd3  1  0.000000  0.000000  0.500000  1
  V  V4  1  0.333333  0.666667  0.270325  1
  V  V5  1  0.666667  0.333333  0.729675  1
  O  O6  1  0.333333  0.666667  0.070633  1
  O  O7  1  0.666667  0.333333  0.929367  1
  O  O8  1  0.179243  0.820757  0.337405  1
  O  O9  1  0.820757  0.179243  0.662595  1
  O  O10  1  0.179243  0.358485  0.337405  1
  O  O11  1  0.820757  0.641515  0.662595  1
  O  O12  1  0.641515  0.820757  0.337405  1
  O  O13  1  0.358485  0.179243  0.662595  1
