# generated using pymatgen
data_CeEr3In2IrAu3
_symmetry_space_group_name_H-M   'P 1'
_cell_length_a   7.94065289
_cell_length_b   7.94065277
_cell_length_c   3.67798300
_cell_angle_alpha   90.00000000
_cell_angle_beta   90.00000000
_cell_angle_gamma   90.47559711
_symmetry_Int_Tables_number   1
_chemical_formula_structural   CeEr3In2IrAu3
_chemical_formula_sum   'Ce1 Er3 In2 Ir1 Au3'
_cell_volume   231.90343073
_cell_formula_units_Z   1
loop_
 _symmetry_equiv_pos_site_id
 _symmetry_equiv_pos_as_xyz
  1  'x, y, z'
loop_
 _atom_site_type_symbol
 _atom_site_label
 _atom_site_symmetry_multiplicity
 _atom_site_fract_x
 _atom_site_fract_y
 _atom_site_fract_z
 _atom_site_occupancy
  Ce  Ce0  1  0.311684  0.811684  0.500000  1
  Er  Er1  1  0.669547  0.169547  0.500000  1
  Er  Er2  1  0.174303  0.345446  0.500000  1
  Er  Er3  1  0.845446  0.674303  0.500000  1
  In  In4  1  0.998664  0.001492  0.000000  1
  In  In5  1  0.501492  0.498664  0.000000  1
  Ir  Ir6  1  0.130749  0.630749  0.000000  1
  Au  Au7  1  0.870919  0.370919  0.000000  1
  Au  Au8  1  0.628510  0.868686  0.000000  1
  Au  Au9  1  0.368686  0.128510  0.000000  1
