# generated using pymatgen
data_HoTm15Cd4(NiRu)2
_symmetry_space_group_name_H-M   'P 1'
_cell_length_a   9.44076971
_cell_length_b   9.44076969
_cell_length_c   9.49269801
_cell_angle_alpha   59.81262472
_cell_angle_beta   59.81262820
_cell_angle_gamma   59.75205928
_symmetry_Int_Tables_number   1
_chemical_formula_structural   HoTm15Cd4(NiRu)2
_chemical_formula_sum   'Ho1 Tm15 Cd4 Ni2 Ru2'
_cell_volume   595.43983564
_cell_formula_units_Z   1
loop_
 _symmetry_equiv_pos_site_id
 _symmetry_equiv_pos_as_xyz
  1  'x, y, z'
loop_
 _atom_site_type_symbol
 _atom_site_label
 _atom_site_symmetry_multiplicity
 _atom_site_fract_x
 _atom_site_fract_y
 _atom_site_fract_z
 _atom_site_occupancy
  Ho  Ho0  1  0.349667  0.349667  0.344737  1
  Tm  Tm1  1  0.349327  0.349327  0.956603  1
  Tm  Tm2  1  0.353295  0.954548  0.345994  1
  Tm  Tm3  1  0.954548  0.353295  0.345994  1
  Tm  Tm4  1  0.811996  0.186895  0.188899  1
  Tm  Tm5  1  0.187170  0.811621  0.812175  1
  Tm  Tm6  1  0.186895  0.811996  0.188899  1
  Tm  Tm7  1  0.811621  0.187170  0.812175  1
  Tm  Tm8  1  0.187432  0.187432  0.812724  1
  Tm  Tm9  1  0.810791  0.810791  0.189211  1
  Tm  Tm10  1  0.936906  0.559690  0.566531  1
  Tm  Tm11  1  0.559447  0.937206  0.937144  1
  Tm  Tm12  1  0.559690  0.936906  0.566531  1
  Tm  Tm13  1  0.937206  0.559447  0.937144  1
  Tm  Tm14  1  0.564937  0.564937  0.935002  1
  Tm  Tm15  1  0.940615  0.940615  0.559538  1
  Cd  Cd16  1  0.579803  0.579803  0.582355  1
  Cd  Cd17  1  0.580113  0.580113  0.257895  1
  Cd  Cd18  1  0.579898  0.256083  0.582230  1
  Cd  Cd19  1  0.256083  0.579898  0.582230  1
  Ni  Ni20  1  0.141843  0.576200  0.140412  1
  Ni  Ni21  1  0.576200  0.141843  0.140412  1
  Ru  Ru22  1  0.142594  0.142594  0.141806  1
  Ru  Ru23  1  0.141926  0.141926  0.573362  1
