# generated using pymatgen
data_MgFe2(PIr)3
_symmetry_space_group_name_H-M   'P 1'
_cell_length_a   3.77119100
_cell_length_b   10.41779900
_cell_length_c   12.30210600
_cell_angle_alpha   90.00000000
_cell_angle_beta   90.00000000
_cell_angle_gamma   90.00000000
_symmetry_Int_Tables_number   1
_chemical_formula_structural   MgFe2(PIr)3
_chemical_formula_sum   'Mg4 Fe8 P12 Ir12'
_cell_volume   483.31911039
_cell_formula_units_Z   4
loop_
 _symmetry_equiv_pos_site_id
 _symmetry_equiv_pos_as_xyz
  1  'x, y, z'
loop_
 _atom_site_type_symbol
 _atom_site_label
 _atom_site_symmetry_multiplicity
 _atom_site_fract_x
 _atom_site_fract_y
 _atom_site_fract_z
 _atom_site_occupancy
  Mg  Mg0  1  0.250000  0.580903  0.712250  1
  Mg  Mg1  1  0.250000  0.919097  0.212250  1
  Mg  Mg2  1  0.750000  0.419097  0.287750  1
  Mg  Mg3  1  0.750000  0.080903  0.787750  1
  Fe  Fe4  1  0.250000  0.876244  0.697967  1
  Fe  Fe5  1  0.250000  0.623756  0.197967  1
  Fe  Fe6  1  0.750000  0.123756  0.302033  1
  Fe  Fe7  1  0.750000  0.376244  0.802033  1
  Fe  Fe8  1  0.250000  0.458640  0.937674  1
  Fe  Fe9  1  0.250000  0.041360  0.437674  1
  Fe  Fe10  1  0.750000  0.541360  0.062326  1
  Fe  Fe11  1  0.750000  0.958640  0.562326  1
  P  P12  1  0.250000  0.440358  0.114508  1
  P  P13  1  0.250000  0.059642  0.614508  1
  P  P14  1  0.750000  0.559642  0.885492  1
  P  P15  1  0.750000  0.940358  0.385492  1
  P  P16  1  0.250000  0.269627  0.862709  1
  P  P17  1  0.250000  0.230373  0.362709  1
  P  P18  1  0.750000  0.730373  0.137291  1
  P  P19  1  0.750000  0.769627  0.637291  1
  P  P20  1  0.250000  0.599007  0.375697  1
  P  P21  1  0.250000  0.900993  0.875697  1
  P  P22  1  0.750000  0.400993  0.624303  1
  P  P23  1  0.750000  0.099007  0.124303  1
  Ir  Ir24  1  0.250000  0.713908  0.988518  1
  Ir  Ir25  1  0.250000  0.786092  0.488518  1
  Ir  Ir26  1  0.750000  0.286092  0.011482  1
  Ir  Ir27  1  0.750000  0.213908  0.511482  1
  Ir  Ir28  1  0.250000  0.409451  0.470442  1
  Ir  Ir29  1  0.250000  0.090549  0.970442  1
  Ir  Ir30  1  0.750000  0.590549  0.529558  1
  Ir  Ir31  1  0.750000  0.909451  0.029558  1
  Ir  Ir32  1  0.250000  0.233517  0.176220  1
  Ir  Ir33  1  0.250000  0.266483  0.676220  1
  Ir  Ir34  1  0.750000  0.766483  0.823780  1
  Ir  Ir35  1  0.750000  0.733517  0.323780  1
