# generated using pymatgen
data_Tb2YMg3Ge2Au
_symmetry_space_group_name_H-M   'P 1'
_cell_length_a   7.30515284
_cell_length_b   7.30515389
_cell_length_c   4.32823500
_cell_angle_alpha   90.00000000
_cell_angle_beta   90.00000000
_cell_angle_gamma   119.89900139
_symmetry_Int_Tables_number   1
_chemical_formula_structural   Tb2YMg3Ge2Au
_chemical_formula_sum   'Tb2 Y1 Mg3 Ge2 Au1'
_cell_volume   200.23557314
_cell_formula_units_Z   1
loop_
 _symmetry_equiv_pos_site_id
 _symmetry_equiv_pos_as_xyz
  1  'x, y, z'
loop_
 _atom_site_type_symbol
 _atom_site_label
 _atom_site_symmetry_multiplicity
 _atom_site_fract_x
 _atom_site_fract_y
 _atom_site_fract_z
 _atom_site_occupancy
  Tb  Tb0  1  0.583640  0.999691  0.000000  1
  Tb  Tb1  1  0.999691  0.583640  0.000000  1
  Y  Y2  1  0.416148  0.416148  0.000000  1
  Mg  Mg3  1  0.244793  0.000143  0.500000  1
  Mg  Mg4  1  0.000143  0.244793  0.500000  1
  Mg  Mg5  1  0.755096  0.755096  0.500000  1
  Ge  Ge6  1  0.333521  0.666708  0.500000  1
  Ge  Ge7  1  0.666708  0.333521  0.500000  1
  Au  Au8  1  0.000260  0.000260  0.000000  1
