# generated using pymatgen
data_MgScZn(Ni10B3)2
_symmetry_space_group_name_H-M   'P 1'
_cell_length_a   7.45667254
_cell_length_b   7.45667190
_cell_length_c   7.45667200
_cell_angle_alpha   59.99999957
_cell_angle_beta   60.00000238
_cell_angle_gamma   59.99999877
_symmetry_Int_Tables_number   1
_chemical_formula_structural   MgScZn(Ni10B3)2
_chemical_formula_sum   'Mg1 Sc1 Zn1 Ni20 B6'
_cell_volume   293.17042063
_cell_formula_units_Z   1
loop_
 _symmetry_equiv_pos_site_id
 _symmetry_equiv_pos_as_xyz
  1  'x, y, z'
loop_
 _atom_site_type_symbol
 _atom_site_label
 _atom_site_symmetry_multiplicity
 _atom_site_fract_x
 _atom_site_fract_y
 _atom_site_fract_z
 _atom_site_occupancy
  Mg  Mg0  1  0.750000  0.750000  0.750000  1
  Sc  Sc1  1  0.250000  0.250000  0.250000  1
  Zn  Zn2  1  0.000000  0.000000  0.000000  1
  Ni  Ni3  1  0.000312  0.000312  0.661154  1
  Ni  Ni4  1  0.386168  0.841495  0.386168  1
  Ni  Ni5  1  0.661154  0.338224  0.000312  1
  Ni  Ni6  1  0.000312  0.338224  0.661154  1
  Ni  Ni7  1  0.661154  0.000312  0.000312  1
  Ni  Ni8  1  0.000312  0.000312  0.338224  1
  Ni  Ni9  1  0.661154  0.000312  0.338224  1
  Ni  Ni10  1  0.000312  0.338224  0.000312  1
  Ni  Ni11  1  0.000312  0.661154  0.338224  1
  Ni  Ni12  1  0.338224  0.000312  0.000312  1
  Ni  Ni13  1  0.000312  0.661154  0.000312  1
  Ni  Ni14  1  0.338224  0.000312  0.661154  1
  Ni  Ni15  1  0.386168  0.386168  0.386168  1
  Ni  Ni16  1  0.338224  0.661154  0.000312  1
  Ni  Ni17  1  0.615407  0.153779  0.615407  1
  Ni  Ni18  1  0.386168  0.386168  0.841495  1
  Ni  Ni19  1  0.841495  0.386168  0.386168  1
  Ni  Ni20  1  0.615407  0.615407  0.615407  1
  Ni  Ni21  1  0.153779  0.615407  0.615407  1
  Ni  Ni22  1  0.615407  0.615407  0.153779  1
  B  B23  1  0.727475  0.727475  0.272525  1
  B  B24  1  0.727475  0.272525  0.727475  1
  B  B25  1  0.272525  0.727475  0.272525  1
  B  B26  1  0.727475  0.272525  0.272525  1
  B  B27  1  0.272525  0.727475  0.727475  1
  B  B28  1  0.272525  0.272525  0.727475  1
