# generated using pymatgen
data_Tm3Sc5Ir4
_symmetry_space_group_name_H-M   'P 1'
_cell_length_a   4.28202800
_cell_length_b   7.03491551
_cell_length_c   8.45759606
_cell_angle_alpha   91.29592012
_cell_angle_beta   90.00000000
_cell_angle_gamma   90.00000000
_symmetry_Int_Tables_number   1
_chemical_formula_structural   Tm3Sc5Ir4
_chemical_formula_sum   'Tm3 Sc5 Ir4'
_cell_volume   254.70896486
_cell_formula_units_Z   1
loop_
 _symmetry_equiv_pos_site_id
 _symmetry_equiv_pos_as_xyz
  1  'x, y, z'
loop_
 _atom_site_type_symbol
 _atom_site_label
 _atom_site_symmetry_multiplicity
 _atom_site_fract_x
 _atom_site_fract_y
 _atom_site_fract_z
 _atom_site_occupancy
  Tm  Tm0  1  0.250000  0.982175  0.327729  1
  Tm  Tm1  1  0.750000  0.021363  0.672668  1
  Tm  Tm2  1  0.250000  0.483801  0.168947  1
  Sc  Sc3  1  0.750000  0.510851  0.838147  1
  Sc  Sc4  1  0.750000  0.641732  0.434207  1
  Sc  Sc5  1  0.250000  0.364002  0.574844  1
  Sc  Sc6  1  0.750000  0.142565  0.067076  1
  Sc  Sc7  1  0.250000  0.849503  0.926373  1
  Ir  Ir8  1  0.250000  0.245065  0.891307  1
  Ir  Ir9  1  0.750000  0.754235  0.101659  1
  Ir  Ir10  1  0.250000  0.748022  0.601623  1
  Ir  Ir11  1  0.750000  0.256685  0.395419  1
