# generated using pymatgen
data_Pu3U(NbN2)4
_symmetry_space_group_name_H-M   'P 1'
_cell_length_a   3.29517100
_cell_length_b   5.69627806
_cell_length_c   10.93731568
_cell_angle_alpha   90.01160430
_cell_angle_beta   90.00000000
_cell_angle_gamma   90.00000000
_symmetry_Int_Tables_number   1
_chemical_formula_structural   Pu3U(NbN2)4
_chemical_formula_sum   'Pu3 U1 Nb4 N8'
_cell_volume   205.29571102
_cell_formula_units_Z   1
loop_
 _symmetry_equiv_pos_site_id
 _symmetry_equiv_pos_as_xyz
  1  'x, y, z'
loop_
 _atom_site_type_symbol
 _atom_site_label
 _atom_site_symmetry_multiplicity
 _atom_site_fract_x
 _atom_site_fract_y
 _atom_site_fract_z
 _atom_site_occupancy
  Pu  Pu0  1  0.750000  0.078765  0.858276  1
  Pu  Pu1  1  0.750000  0.578615  0.643735  1
  Pu  Pu2  1  0.250000  0.922163  0.140965  1
  U  U3  1  0.250000  0.422471  0.359297  1
  Nb  Nb4  1  0.250000  0.077528  0.600093  1
  Nb  Nb5  1  0.750000  0.421613  0.100217  1
  Nb  Nb6  1  0.250000  0.578906  0.898981  1
  Nb  Nb7  1  0.750000  0.921066  0.398823  1
  N  N8  1  0.250000  0.341187  0.744504  1
  N  N9  1  0.750000  0.163332  0.247495  1
  N  N10  1  0.250000  0.240728  0.004877  1
  N  N11  1  0.750000  0.653002  0.258192  1
  N  N12  1  0.250000  0.842528  0.754199  1
  N  N13  1  0.750000  0.759196  0.995241  1
  N  N14  1  0.750000  0.262486  0.502907  1
  N  N15  1  0.250000  0.736414  0.492198  1
