# generated using pymatgen
data_Dy3Cd3CuHgIr
_symmetry_space_group_name_H-M   'P 1'
_cell_length_a   7.87990900
_cell_length_b   7.87990893
_cell_length_c   3.76166700
_cell_angle_alpha   90.00000000
_cell_angle_beta   90.00000000
_cell_angle_gamma   120.00000451
_symmetry_Int_Tables_number   1
_chemical_formula_structural   Dy3Cd3CuHgIr
_chemical_formula_sum   'Dy3 Cd3 Cu1 Hg1 Ir1'
_cell_volume   202.28019302
_cell_formula_units_Z   1
loop_
 _symmetry_equiv_pos_site_id
 _symmetry_equiv_pos_as_xyz
  1  'x, y, z'
loop_
 _atom_site_type_symbol
 _atom_site_label
 _atom_site_symmetry_multiplicity
 _atom_site_fract_x
 _atom_site_fract_y
 _atom_site_fract_z
 _atom_site_occupancy
  Dy  Dy0  1  0.034703  0.425410  0.500000  1
  Dy  Dy1  1  0.574590  0.609293  0.500000  1
  Dy  Dy2  1  0.390707  0.965297  0.500000  1
  Cd  Cd3  1  0.997478  0.748937  0.000000  1
  Cd  Cd4  1  0.251063  0.248542  0.000000  1
  Cd  Cd5  1  0.751458  0.002522  0.000000  1
  Cu  Cu6  1  0.000000  0.000000  0.500000  1
  Hg  Hg7  1  0.666667  0.333333  0.000000  1
  Ir  Ir8  1  0.333333  0.666667  0.000000  1
