# generated using pymatgen
data_CaGaSiPd3
_symmetry_space_group_name_H-M   'P 1'
_cell_length_a   6.83164672
_cell_length_b   6.83164849
_cell_length_c   6.83164800
_cell_angle_alpha   115.73940135
_cell_angle_beta   86.44976061
_cell_angle_gamma   128.87660129
_symmetry_Int_Tables_number   1
_chemical_formula_structural   CaGaSiPd3
_chemical_formula_sum   'Ca2 Ga2 Si2 Pd6'
_cell_volume   213.26413751
_cell_formula_units_Z   2
loop_
 _symmetry_equiv_pos_site_id
 _symmetry_equiv_pos_as_xyz
  1  'x, y, z'
loop_
 _atom_site_type_symbol
 _atom_site_label
 _atom_site_symmetry_multiplicity
 _atom_site_fract_x
 _atom_site_fract_y
 _atom_site_fract_z
 _atom_site_occupancy
  Ca  Ca0  1  0.436458  0.186458  0.250000  1
  Ca  Ca1  1  0.527030  0.777029  0.750000  1
  Ga  Ga2  1  0.791393  0.689263  0.102130  1
  Ga  Ga3  1  0.087133  0.689263  0.397869  1
  Si  Si4  1  0.868947  0.312491  0.556457  1
  Si  Si5  1  0.256034  0.312491  0.943544  1
  Pd  Pd6  1  0.019630  0.472060  0.952431  1
  Pd  Pd7  1  0.997388  0.204546  0.205060  1
  Pd  Pd8  1  0.499486  0.792328  0.294940  1
  Pd  Pd9  1  0.019630  0.067199  0.547569  1
  Pd  Pd10  1  0.499486  0.204546  0.707159  1
  Pd  Pd11  1  0.997388  0.792328  0.792841  1
