# generated using pymatgen
data_Nd20IrRu3Rh8
_symmetry_space_group_name_H-M   'P 1'
_cell_length_a   11.25808800
_cell_length_b   11.25808800
_cell_length_c   6.59306700
_cell_angle_alpha   90.00000000
_cell_angle_beta   90.00000000
_cell_angle_gamma   90.00000000
_symmetry_Int_Tables_number   1
_chemical_formula_structural   Nd20IrRu3Rh8
_chemical_formula_sum   'Nd20 Ir1 Ru3 Rh8'
_cell_volume   835.63527981
_cell_formula_units_Z   1
loop_
 _symmetry_equiv_pos_site_id
 _symmetry_equiv_pos_as_xyz
  1  'x, y, z'
loop_
 _atom_site_type_symbol
 _atom_site_label
 _atom_site_symmetry_multiplicity
 _atom_site_fract_x
 _atom_site_fract_y
 _atom_site_fract_z
 _atom_site_occupancy
  Nd  Nd0  1  0.088954  0.292409  0.118186  1
  Nd  Nd1  1  0.792409  0.411046  0.118186  1
  Nd  Nd2  1  0.207591  0.588954  0.118186  1
  Nd  Nd3  1  0.911046  0.707591  0.118186  1
  Nd  Nd4  1  0.412896  0.794011  0.384405  1
  Nd  Nd5  1  0.587104  0.205989  0.384405  1
  Nd  Nd6  1  0.294011  0.087104  0.384405  1
  Nd  Nd7  1  0.705989  0.912896  0.384405  1
  Nd  Nd8  1  0.412204  0.206044  0.884074  1
  Nd  Nd9  1  0.706044  0.087796  0.884074  1
  Nd  Nd10  1  0.293956  0.912204  0.884074  1
  Nd  Nd11  1  0.587796  0.793956  0.884074  1
  Nd  Nd12  1  0.089283  0.707371  0.615072  1
  Nd  Nd13  1  0.910717  0.292629  0.615072  1
  Nd  Nd14  1  0.207371  0.410717  0.615072  1
  Nd  Nd15  1  0.792629  0.589283  0.615072  1
  Nd  Nd16  1  0.000000  0.000000  0.997664  1
  Nd  Nd17  1  0.500000  0.500000  0.997664  1
  Nd  Nd18  1  0.500000  0.500000  0.498065  1
  Nd  Nd19  1  0.000000  0.000000  0.498065  1
  Ir  Ir20  1  0.000000  0.500000  0.878414  1
  Ru  Ru21  1  0.000000  0.500000  0.380875  1
  Ru  Ru22  1  0.500000  0.000000  0.122702  1
  Ru  Ru23  1  0.500000  0.000000  0.623064  1
  Rh  Rh24  1  0.152663  0.846882  0.249354  1
  Rh  Rh25  1  0.346882  0.347337  0.249354  1
  Rh  Rh26  1  0.653118  0.652663  0.249354  1
  Rh  Rh27  1  0.847337  0.153118  0.249354  1
  Rh  Rh28  1  0.346753  0.652144  0.749780  1
  Rh  Rh29  1  0.152144  0.153247  0.749780  1
  Rh  Rh30  1  0.847856  0.846753  0.749780  1
  Rh  Rh31  1  0.653247  0.347856  0.749780  1
