# generated using pymatgen
data_Ho8Cd3BiAu8
_symmetry_space_group_name_H-M   'P 1'
_cell_length_a   8.03700400
_cell_length_b   8.03700400
_cell_length_c   7.34283400
_cell_angle_alpha   90.00000000
_cell_angle_beta   90.00000000
_cell_angle_gamma   90.00000000
_symmetry_Int_Tables_number   1
_chemical_formula_structural   Ho8Cd3BiAu8
_chemical_formula_sum   'Ho8 Cd3 Bi1 Au8'
_cell_volume   474.29885818
_cell_formula_units_Z   1
loop_
 _symmetry_equiv_pos_site_id
 _symmetry_equiv_pos_as_xyz
  1  'x, y, z'
loop_
 _atom_site_type_symbol
 _atom_site_label
 _atom_site_symmetry_multiplicity
 _atom_site_fract_x
 _atom_site_fract_y
 _atom_site_fract_z
 _atom_site_occupancy
  Ho  Ho0  1  0.842427  0.159342  0.502303  1
  Ho  Ho1  1  0.157573  0.840658  0.502303  1
  Ho  Ho2  1  0.340658  0.342427  0.997697  1
  Ho  Ho3  1  0.659342  0.657573  0.997697  1
  Ho  Ho4  1  0.681541  0.680544  0.501711  1
  Ho  Ho5  1  0.318459  0.319456  0.501711  1
  Ho  Ho6  1  0.180544  0.818459  0.998289  1
  Ho  Ho7  1  0.819456  0.181541  0.998289  1
  Cd  Cd8  1  0.500000  0.000000  0.250000  1
  Cd  Cd9  1  0.000000  0.500000  0.750000  1
  Cd  Cd10  1  0.500000  0.000000  0.750000  1
  Bi  Bi11  1  0.000000  0.500000  0.250000  1
  Au  Au12  1  0.619903  0.364948  0.273466  1
  Au  Au13  1  0.380097  0.635052  0.273466  1
  Au  Au14  1  0.129872  0.127714  0.771758  1
  Au  Au15  1  0.870128  0.872286  0.771758  1
  Au  Au16  1  0.372286  0.629872  0.728242  1
  Au  Au17  1  0.627714  0.370128  0.728242  1
  Au  Au18  1  0.864948  0.880097  0.226534  1
  Au  Au19  1  0.135052  0.119903  0.226534  1
