# generated using pymatgen
data_Dy5Er3(SiO5)4
_symmetry_space_group_name_H-M   'P 1'
_cell_length_a   6.77558322
_cell_length_b   8.01245540
_cell_length_c   9.63380191
_cell_angle_alpha   90.52641627
_cell_angle_beta   110.55924930
_cell_angle_gamma   115.10203927
_symmetry_Int_Tables_number   1
_chemical_formula_structural   Dy5Er3(SiO5)4
_chemical_formula_sum   'Dy5 Er3 Si4 O20'
_cell_volume   435.66488606
_cell_formula_units_Z   1
loop_
 _symmetry_equiv_pos_site_id
 _symmetry_equiv_pos_as_xyz
  1  'x, y, z'
loop_
 _atom_site_type_symbol
 _atom_site_label
 _atom_site_symmetry_multiplicity
 _atom_site_fract_x
 _atom_site_fract_y
 _atom_site_fract_z
 _atom_site_occupancy
  Dy  Dy0  1  0.324572  0.106314  0.033803  1
  Dy  Dy1  1  0.928694  0.446397  0.162757  1
  Dy  Dy2  1  0.817577  0.052376  0.336760  1
  Dy  Dy3  1  0.685166  0.393322  0.466367  1
  Dy  Dy4  1  0.315114  0.608339  0.533907  1
  Er  Er5  1  0.184610  0.946806  0.664925  1
  Er  Er6  1  0.074772  0.553861  0.835674  1
  Er  Er7  1  0.672465  0.893487  0.967213  1
  Si  Si8  1  0.465039  0.555892  0.190862  1
  Si  Si9  1  0.215604  0.943613  0.307941  1
  Si  Si10  1  0.784812  0.057331  0.694655  1
  Si  Si11  1  0.534388  0.443369  0.806457  1
  O  O12  1  0.194763  0.465117  0.060418  1
  O  O13  1  0.715682  0.136573  0.102332  1
  O  O14  1  0.052030  0.961545  0.141382  1
  O  O15  1  0.619169  0.769661  0.173580  1
  O  O16  1  0.585384  0.417326  0.177101  1
  O  O17  1  0.488758  0.082335  0.321513  1
  O  O18  1  0.174169  0.730065  0.324130  1
  O  O19  1  0.451626  0.538704  0.357874  1
  O  O20  1  0.975044  0.362216  0.397226  1
  O  O21  1  0.167120  0.033402  0.439136  1
  O  O22  1  0.836916  0.965482  0.566338  1
  O  O23  1  0.025345  0.639181  0.604142  1
  O  O24  1  0.543205  0.459692  0.638345  1
  O  O25  1  0.829450  0.271692  0.677297  1
  O  O26  1  0.509695  0.919638  0.678382  1
  O  O27  1  0.417122  0.583949  0.823056  1
  O  O28  1  0.378226  0.229390  0.823427  1
  O  O29  1  0.942603  0.038174  0.862499  1
  O  O30  1  0.284010  0.861547  0.896511  1
  O  O31  1  0.806870  0.533206  0.933993  1
