# generated using pymatgen
data_SrHo2Si5AsPd20
_symmetry_space_group_name_H-M   'P 1'
_cell_length_a   8.74979907
_cell_length_b   8.78568473
_cell_length_c   8.78568518
_cell_angle_alpha   59.86616253
_cell_angle_beta   60.13502306
_cell_angle_gamma   60.13502012
_symmetry_Int_Tables_number   1
_chemical_formula_structural   SrHo2Si5AsPd20
_chemical_formula_sum   'Sr1 Ho2 Si5 As1 Pd20'
_cell_volume   478.05148557
_cell_formula_units_Z   1
loop_
 _symmetry_equiv_pos_site_id
 _symmetry_equiv_pos_as_xyz
  1  'x, y, z'
loop_
 _atom_site_type_symbol
 _atom_site_label
 _atom_site_symmetry_multiplicity
 _atom_site_fract_x
 _atom_site_fract_y
 _atom_site_fract_z
 _atom_site_occupancy
  Sr  Sr0  1  0.250234  0.249766  0.249766  1
  Ho  Ho1  1  0.750045  0.749955  0.749955  1
  Ho  Ho2  1  0.001264  0.998736  0.998736  1
  Si  Si3  1  0.267403  0.732597  0.732597  1
  Si  Si4  1  0.266881  0.733233  0.266758  1
  Si  Si5  1  0.733128  0.266758  0.733233  1
  Si  Si6  1  0.266881  0.266758  0.733233  1
  Si  Si7  1  0.733128  0.733233  0.266758  1
  As  As8  1  0.734162  0.265838  0.265838  1
  Pd  Pd9  1  0.381868  0.390924  0.390924  1
  Pd  Pd10  1  0.616649  0.618274  0.618274  1
  Pd  Pd11  1  0.387693  0.388752  0.835864  1
  Pd  Pd12  1  0.387693  0.835864  0.388752  1
  Pd  Pd13  1  0.615481  0.622930  0.146109  1
  Pd  Pd14  1  0.615481  0.146109  0.622930  1
  Pd  Pd15  1  0.836286  0.390924  0.390924  1
  Pd  Pd16  1  0.146802  0.618274  0.618274  1
  Pd  Pd17  1  0.348592  0.996266  0.996266  1
  Pd  Pd18  1  0.658877  0.996266  0.996266  1
  Pd  Pd19  1  0.997670  0.347532  0.657129  1
  Pd  Pd20  1  0.997670  0.657129  0.347532  1
  Pd  Pd21  1  0.002334  0.350248  0.990560  1
  Pd  Pd22  1  0.656859  0.990560  0.350248  1
  Pd  Pd23  1  0.996798  0.659119  0.997017  1
  Pd  Pd24  1  0.347067  0.997017  0.659119  1
  Pd  Pd25  1  0.002334  0.990560  0.350248  1
  Pd  Pd26  1  0.996798  0.997017  0.659119  1
  Pd  Pd27  1  0.656859  0.350248  0.990560  1
  Pd  Pd28  1  0.347067  0.659119  0.997017  1
