# generated using pymatgen
data_DyTm2Al12Ir3Ru
_symmetry_space_group_name_H-M   'P 1'
_cell_length_a   8.80814300
_cell_length_b   8.80814335
_cell_length_c   9.47154200
_cell_angle_alpha   90.00000000
_cell_angle_beta   90.00000000
_cell_angle_gamma   119.99926363
_symmetry_Int_Tables_number   1
_chemical_formula_structural   DyTm2Al12Ir3Ru
_chemical_formula_sum   'Dy2 Tm4 Al24 Ir6 Ru2'
_cell_volume   636.38989389
_cell_formula_units_Z   2
loop_
 _symmetry_equiv_pos_site_id
 _symmetry_equiv_pos_as_xyz
  1  'x, y, z'
loop_
 _atom_site_type_symbol
 _atom_site_label
 _atom_site_symmetry_multiplicity
 _atom_site_fract_x
 _atom_site_fract_y
 _atom_site_fract_z
 _atom_site_occupancy
  Dy  Dy0  1  0.807226  0.614250  0.750000  1
  Dy  Dy1  1  0.385750  0.192774  0.750000  1
  Tm  Tm2  1  0.194346  0.805654  0.250000  1
  Tm  Tm3  1  0.194430  0.388488  0.250000  1
  Tm  Tm4  1  0.611512  0.805570  0.250000  1
  Tm  Tm5  1  0.805995  0.194005  0.750000  1
  Al  Al6  1  0.562289  0.437711  0.250000  1
  Al  Al7  1  0.562373  0.124528  0.250000  1
  Al  Al8  1  0.875472  0.437627  0.250000  1
  Al  Al9  1  0.437355  0.562645  0.750000  1
  Al  Al10  1  0.438030  0.875100  0.750000  1
  Al  Al11  1  0.124900  0.561970  0.750000  1
  Al  Al12  1  0.325682  0.162883  0.422966  1
  Al  Al13  1  0.837237  0.162763  0.423468  1
  Al  Al14  1  0.837117  0.674318  0.422966  1
  Al  Al15  1  0.674109  0.837293  0.575667  1
  Al  Al16  1  0.163125  0.836875  0.575416  1
  Al  Al17  1  0.162707  0.325891  0.575667  1
  Al  Al18  1  0.674109  0.837293  0.924333  1
  Al  Al19  1  0.163125  0.836875  0.924584  1
  Al  Al20  1  0.162707  0.325891  0.924333  1
  Al  Al21  1  0.325682  0.162883  0.077034  1
  Al  Al22  1  0.837237  0.162763  0.076532  1
  Al  Al23  1  0.837117  0.674318  0.077034  1
  Al  Al24  1  0.666855  0.333145  0.529465  1
  Al  Al25  1  0.333427  0.666573  0.469455  1
  Al  Al26  1  0.333427  0.666573  0.030545  1
  Al  Al27  1  0.666855  0.333145  0.970535  1
  Al  Al28  1  0.000003  0.999997  0.250000  1
  Al  Al29  1  0.999185  0.000815  0.750000  1
  Ir  Ir30  1  0.499790  0.500210  0.499397  1
  Ir  Ir31  1  0.500043  0.999591  0.499533  1
  Ir  Ir32  1  0.000409  0.499957  0.499533  1
  Ir  Ir33  1  0.499790  0.500210  0.000603  1
  Ir  Ir34  1  0.500043  0.999591  0.000467  1
  Ir  Ir35  1  0.000409  0.499957  0.000467  1
  Ru  Ru36  1  0.000067  0.999933  0.499909  1
  Ru  Ru37  1  0.000067  0.999933  0.000091  1
