# generated using pymatgen
data_Tm4Ga4Co3Cu
_symmetry_space_group_name_H-M   'P 1'
_cell_length_a   4.20537300
_cell_length_b   6.66960928
_cell_length_c   7.44739616
_cell_angle_alpha   89.80301856
_cell_angle_beta   90.00000000
_cell_angle_gamma   90.00000000
_symmetry_Int_Tables_number   1
_chemical_formula_structural   Tm4Ga4Co3Cu
_chemical_formula_sum   'Tm4 Ga4 Co3 Cu1'
_cell_volume   208.88478376
_cell_formula_units_Z   1
loop_
 _symmetry_equiv_pos_site_id
 _symmetry_equiv_pos_as_xyz
  1  'x, y, z'
loop_
 _atom_site_type_symbol
 _atom_site_label
 _atom_site_symmetry_multiplicity
 _atom_site_fract_x
 _atom_site_fract_y
 _atom_site_fract_z
 _atom_site_occupancy
  Tm  Tm0  1  0.250000  0.970426  0.311530  1
  Tm  Tm1  1  0.250000  0.480967  0.182643  1
  Tm  Tm2  1  0.750000  0.016074  0.693853  1
  Tm  Tm3  1  0.750000  0.521380  0.812101  1
  Ga  Ga4  1  0.250000  0.341565  0.572828  1
  Ga  Ga5  1  0.250000  0.836577  0.929998  1
  Ga  Ga6  1  0.750000  0.671762  0.431134  1
  Ga  Ga7  1  0.750000  0.157215  0.065268  1
  Co  Co8  1  0.250000  0.221684  0.891576  1
  Co  Co9  1  0.250000  0.727209  0.608897  1
  Co  Co10  1  0.750000  0.772790  0.109841  1
  Cu  Cu11  1  0.750000  0.282352  0.390329  1
