# generated using pymatgen
data_MgSc3Sn2(B2Ir5)2
_symmetry_space_group_name_H-M   'P 1'
_cell_length_a   9.48209448
_cell_length_b   9.48209448
_cell_length_c   3.18450500
_cell_angle_alpha   90.00000000
_cell_angle_beta   90.00000000
_cell_angle_gamma   90.06395407
_symmetry_Int_Tables_number   1
_chemical_formula_structural   MgSc3Sn2(B2Ir5)2
_chemical_formula_sum   'Mg1 Sc3 Sn2 B4 Ir10'
_cell_volume   286.31903452
_cell_formula_units_Z   1
loop_
 _symmetry_equiv_pos_site_id
 _symmetry_equiv_pos_as_xyz
  1  'x, y, z'
loop_
 _atom_site_type_symbol
 _atom_site_label
 _atom_site_symmetry_multiplicity
 _atom_site_fract_x
 _atom_site_fract_y
 _atom_site_fract_z
 _atom_site_occupancy
  Mg  Mg0  1  0.676385  0.823615  0.000000  1
  Sc  Sc1  1  0.823446  0.324726  0.000000  1
  Sc  Sc2  1  0.175274  0.676554  0.000000  1
  Sc  Sc3  1  0.326013  0.173987  0.000000  1
  Sn  Sn4  1  0.500600  0.501082  0.000000  1
  Sn  Sn5  1  0.998918  0.999400  0.000000  1
  B  B6  1  0.621497  0.121224  0.000000  1
  B  B7  1  0.378776  0.878503  0.000000  1
  B  B8  1  0.121362  0.378638  0.000000  1
  B  B9  1  0.877334  0.622666  0.000000  1
  Ir  Ir10  1  0.500111  0.999889  0.500000  1
  Ir  Ir11  1  0.000743  0.499257  0.500000  1
  Ir  Ir12  1  0.724586  0.569406  0.500000  1
  Ir  Ir13  1  0.277384  0.427779  0.500000  1
  Ir  Ir14  1  0.222490  0.929349  0.500000  1
  Ir  Ir15  1  0.777115  0.075499  0.500000  1
  Ir  Ir16  1  0.424501  0.722885  0.500000  1
  Ir  Ir17  1  0.570651  0.277510  0.500000  1
  Ir  Ir18  1  0.072221  0.222616  0.500000  1
  Ir  Ir19  1  0.930594  0.775414  0.500000  1
