# generated using pymatgen
data_Th3Al3Cu2Os
_symmetry_space_group_name_H-M   'P 1'
_cell_length_a   7.21248200
_cell_length_b   7.21248318
_cell_length_c   4.13467200
_cell_angle_alpha   90.00000000
_cell_angle_beta   90.00000000
_cell_angle_gamma   119.99999458
_symmetry_Int_Tables_number   1
_chemical_formula_structural   Th3Al3Cu2Os
_chemical_formula_sum   'Th3 Al3 Cu2 Os1'
_cell_volume   186.26929643
_cell_formula_units_Z   1
loop_
 _symmetry_equiv_pos_site_id
 _symmetry_equiv_pos_as_xyz
  1  'x, y, z'
loop_
 _atom_site_type_symbol
 _atom_site_label
 _atom_site_symmetry_multiplicity
 _atom_site_fract_x
 _atom_site_fract_y
 _atom_site_fract_z
 _atom_site_occupancy
  Th  Th0  1  0.581057  0.004822  0.000000  1
  Th  Th1  1  0.995178  0.576236  0.000000  1
  Th  Th2  1  0.423764  0.418943  0.000000  1
  Al  Al3  1  0.235673  0.006286  0.500000  1
  Al  Al4  1  0.993714  0.229387  0.500000  1
  Al  Al5  1  0.770613  0.764327  0.500000  1
  Cu  Cu6  1  0.333333  0.666667  0.500000  1
  Cu  Cu7  1  0.000000  0.000000  0.000000  1
  Os  Os8  1  0.666667  0.333333  0.500000  1
