# generated using pymatgen
data_Hf6Al16Co2NiPt4
_symmetry_space_group_name_H-M   'P 1'
_cell_length_a   8.63423763
_cell_length_b   8.62511931
_cell_length_c   8.63534637
_cell_angle_alpha   60.05947247
_cell_angle_beta   59.93411227
_cell_angle_gamma   60.18945501
_symmetry_Int_Tables_number   1
_chemical_formula_structural   Hf6Al16Co2NiPt4
_chemical_formula_sum   'Hf6 Al16 Co2 Ni1 Pt4'
_cell_volume   455.35456025
_cell_formula_units_Z   1
loop_
 _symmetry_equiv_pos_site_id
 _symmetry_equiv_pos_as_xyz
  1  'x, y, z'
loop_
 _atom_site_type_symbol
 _atom_site_label
 _atom_site_symmetry_multiplicity
 _atom_site_fract_x
 _atom_site_fract_y
 _atom_site_fract_z
 _atom_site_occupancy
  Hf  Hf0  1  0.683010  0.681686  0.318062  1
  Hf  Hf1  1  0.314443  0.684325  0.315743  1
  Hf  Hf2  1  0.686236  0.314030  0.313896  1
  Hf  Hf3  1  0.316990  0.318314  0.681938  1
  Hf  Hf4  1  0.685557  0.315675  0.684257  1
  Hf  Hf5  1  0.313764  0.685970  0.686104  1
  Al  Al6  1  0.886412  0.872505  0.351360  1
  Al  Al7  1  0.883904  0.350554  0.876325  1
  Al  Al8  1  0.349213  0.877472  0.884589  1
  Al  Al9  1  0.884819  0.881678  0.884049  1
  Al  Al10  1  0.113588  0.127495  0.648640  1
  Al  Al11  1  0.116096  0.649446  0.123675  1
  Al  Al12  1  0.650787  0.122528  0.115411  1
  Al  Al13  1  0.115181  0.118322  0.115951  1
  Al  Al14  1  0.660471  0.659691  0.004553  1
  Al  Al15  1  0.665185  0.004506  0.664801  1
  Al  Al16  1  0.004822  0.659266  0.659568  1
  Al  Al17  1  0.670937  0.655684  0.668092  1
  Al  Al18  1  0.339529  0.340309  0.995447  1
  Al  Al19  1  0.334815  0.995494  0.335199  1
  Al  Al20  1  0.995178  0.340734  0.340432  1
  Al  Al21  1  0.329063  0.344316  0.331908  1
  Co  Co22  1  0.000000  0.000000  0.000000  1
  Co  Co23  1  0.000000  0.500000  0.500000  1
  Ni  Ni24  1  0.500000  0.500000  0.000000  1
  Pt  Pt25  1  0.000000  0.000000  0.500000  1
  Pt  Pt26  1  0.500000  0.000000  0.500000  1
  Pt  Pt27  1  0.000000  0.500000  0.000000  1
  Pt  Pt28  1  0.500000  0.000000  0.000000  1
