# generated using pymatgen
data_Nd4Bi5SbRh7
_symmetry_space_group_name_H-M   'P 1'
_cell_length_a   7.88217196
_cell_length_b   7.88217292
_cell_length_c   7.88217264
_cell_angle_alpha   110.17330790
_cell_angle_beta   110.17329905
_cell_angle_gamma   108.07600198
_symmetry_Int_Tables_number   1
_chemical_formula_structural   Nd4Bi5SbRh7
_chemical_formula_sum   'Nd4 Bi5 Sb1 Rh7'
_cell_volume   376.81075367
_cell_formula_units_Z   1
loop_
 _symmetry_equiv_pos_site_id
 _symmetry_equiv_pos_as_xyz
  1  'x, y, z'
loop_
 _atom_site_type_symbol
 _atom_site_label
 _atom_site_symmetry_multiplicity
 _atom_site_fract_x
 _atom_site_fract_y
 _atom_site_fract_z
 _atom_site_occupancy
  Nd  Nd0  1  0.482497  0.001669  0.000000  1
  Nd  Nd1  1  0.001669  0.482497  0.000000  1
  Nd  Nd2  1  0.001669  0.001669  0.519172  1
  Nd  Nd3  1  0.482497  0.482497  0.480828  1
  Bi  Bi4  1  0.989697  0.305625  0.315929  1
  Bi  Bi5  1  0.673769  0.989697  0.684071  1
  Bi  Bi6  1  0.693636  0.693636  0.000000  1
  Bi  Bi7  1  0.989697  0.673769  0.684071  1
  Bi  Bi8  1  0.305625  0.989697  0.315929  1
  Sb  Sb9  1  0.343029  0.343029  0.000000  1
  Rh  Rh10  1  0.057283  0.057283  0.000000  1
  Rh  Rh11  1  0.499101  0.747659  0.248558  1
  Rh  Rh12  1  0.747659  0.499101  0.248558  1
  Rh  Rh13  1  0.241262  0.741262  0.500000  1
  Rh  Rh14  1  0.250543  0.499101  0.751442  1
  Rh  Rh15  1  0.499101  0.250543  0.751442  1
  Rh  Rh16  1  0.741262  0.241262  0.500000  1
