# generated using pymatgen
data_Ce6Ga7Rh16
_symmetry_space_group_name_H-M   'P 1'
_cell_length_a   8.91079266
_cell_length_b   8.91079181
_cell_length_c   8.91079300
_cell_angle_alpha   59.99999930
_cell_angle_beta   60.00000244
_cell_angle_gamma   60.00000063
_symmetry_Int_Tables_number   1
_chemical_formula_structural   Ce6Ga7Rh16
_chemical_formula_sum   'Ce6 Ga7 Rh16'
_cell_volume   500.30402920
_cell_formula_units_Z   1
loop_
 _symmetry_equiv_pos_site_id
 _symmetry_equiv_pos_as_xyz
  1  'x, y, z'
loop_
 _atom_site_type_symbol
 _atom_site_label
 _atom_site_symmetry_multiplicity
 _atom_site_fract_x
 _atom_site_fract_y
 _atom_site_fract_z
 _atom_site_occupancy
  Ce  Ce0  1  0.719747  0.719747  0.280253  1
  Ce  Ce1  1  0.280253  0.719747  0.280253  1
  Ce  Ce2  1  0.719747  0.280253  0.280253  1
  Ce  Ce3  1  0.280253  0.280253  0.719747  1
  Ce  Ce4  1  0.719747  0.280253  0.719747  1
  Ce  Ce5  1  0.280253  0.719747  0.719747  1
  Ga  Ga6  1  0.000000  0.000000  0.000000  1
  Ga  Ga7  1  0.000000  0.000000  0.500000  1
  Ga  Ga8  1  0.500000  0.000000  0.500000  1
  Ga  Ga9  1  0.000000  0.500000  0.500000  1
  Ga  Ga10  1  0.500000  0.500000  0.000000  1
  Ga  Ga11  1  0.000000  0.500000  0.000000  1
  Ga  Ga12  1  0.500000  0.000000  0.000000  1
  Rh  Rh13  1  0.879177  0.879177  0.362468  1
  Rh  Rh14  1  0.879177  0.362468  0.879177  1
  Rh  Rh15  1  0.362468  0.879177  0.879177  1
  Rh  Rh16  1  0.879177  0.879177  0.879177  1
  Rh  Rh17  1  0.120823  0.120823  0.637532  1
  Rh  Rh18  1  0.120823  0.637532  0.120823  1
  Rh  Rh19  1  0.637532  0.120823  0.120823  1
  Rh  Rh20  1  0.120823  0.120823  0.120823  1
  Rh  Rh21  1  0.664148  0.664148  0.007554  1
  Rh  Rh22  1  0.664148  0.007554  0.664148  1
  Rh  Rh23  1  0.007554  0.664148  0.664148  1
  Rh  Rh24  1  0.664148  0.664148  0.664148  1
  Rh  Rh25  1  0.335852  0.335852  0.992446  1
  Rh  Rh26  1  0.335852  0.992446  0.335852  1
  Rh  Rh27  1  0.992446  0.335852  0.335852  1
  Rh  Rh28  1  0.335852  0.335852  0.335852  1
