# generated using pymatgen
data_Ho4Lu16TlSb11
_symmetry_space_group_name_H-M   'P 1'
_cell_length_a   7.99945917
_cell_length_b   9.18132101
_cell_length_c   11.67348000
_cell_angle_alpha   90.05485376
_cell_angle_beta   89.92329723
_cell_angle_gamma   90.04481134
_symmetry_Int_Tables_number   1
_chemical_formula_structural   Ho4Lu16TlSb11
_chemical_formula_sum   'Ho4 Lu16 Tl1 Sb11'
_cell_volume   857.36434934
_cell_formula_units_Z   1
loop_
 _symmetry_equiv_pos_site_id
 _symmetry_equiv_pos_as_xyz
  1  'x, y, z'
loop_
 _atom_site_type_symbol
 _atom_site_label
 _atom_site_symmetry_multiplicity
 _atom_site_fract_x
 _atom_site_fract_y
 _atom_site_fract_z
 _atom_site_occupancy
  Ho  Ho0  1  0.313542  0.251202  0.219033  1
  Ho  Ho1  1  0.814401  0.251947  0.281312  1
  Ho  Ho2  1  0.685470  0.750519  0.780641  1
  Ho  Ho3  1  0.185841  0.750036  0.718389  1
  Lu  Lu4  1  0.352489  0.748486  0.216639  1
  Lu  Lu5  1  0.851718  0.749336  0.282968  1
  Lu  Lu6  1  0.647547  0.249844  0.783299  1
  Lu  Lu7  1  0.147772  0.250044  0.715489  1
  Lu  Lu8  1  0.692055  0.562371  0.060380  1
  Lu  Lu9  1  0.195027  0.936777  0.438605  1
  Lu  Lu10  1  0.306887  0.063738  0.936621  1
  Lu  Lu11  1  0.807378  0.436984  0.561631  1
  Lu  Lu12  1  0.307888  0.437724  0.938175  1
  Lu  Lu13  1  0.806705  0.063112  0.560888  1
  Lu  Lu14  1  0.694764  0.937316  0.061896  1
  Lu  Lu15  1  0.192599  0.561924  0.439363  1
  Lu  Lu16  1  0.474016  0.250254  0.490809  1
  Lu  Lu17  1  0.975327  0.248193  0.011149  1
  Lu  Lu18  1  0.527053  0.749442  0.510417  1
  Lu  Lu19  1  0.025950  0.750837  0.991360  1
  Tl  Tl20  1  0.063830  0.996047  0.174680  1
  Sb  Sb21  1  0.407747  0.750809  0.960459  1
  Sb  Sb22  1  0.908023  0.750464  0.538825  1
  Sb  Sb23  1  0.591228  0.249729  0.039248  1
  Sb  Sb24  1  0.092452  0.249508  0.460751  1
  Sb  Sb25  1  0.563423  0.995266  0.327731  1
  Sb  Sb26  1  0.063647  0.503797  0.172536  1
  Sb  Sb27  1  0.434409  0.494855  0.672908  1
  Sb  Sb28  1  0.935987  0.004835  0.825862  1
  Sb  Sb29  1  0.435285  0.004968  0.672881  1
  Sb  Sb30  1  0.934837  0.494817  0.827213  1
  Sb  Sb31  1  0.564701  0.504818  0.327840  1
