# generated using pymatgen
data_Li12CrReN8
_symmetry_space_group_name_H-M   'P 1'
_cell_length_a   6.58669600
_cell_length_b   6.58669600
_cell_length_c   4.90048300
_cell_angle_alpha   90.00000000
_cell_angle_beta   90.00000000
_cell_angle_gamma   90.00000000
_symmetry_Int_Tables_number   1
_chemical_formula_structural   Li12CrReN8
_chemical_formula_sum   'Li12 Cr1 Re1 N8'
_cell_volume   212.60531931
_cell_formula_units_Z   1
loop_
 _symmetry_equiv_pos_site_id
 _symmetry_equiv_pos_as_xyz
  1  'x, y, z'
loop_
 _atom_site_type_symbol
 _atom_site_label
 _atom_site_symmetry_multiplicity
 _atom_site_fract_x
 _atom_site_fract_y
 _atom_site_fract_z
 _atom_site_occupancy
  Li  Li0  1  0.500000  0.000000  0.609800  1
  Li  Li1  1  0.000000  0.500000  0.908244  1
  Li  Li2  1  0.000000  0.500000  0.390200  1
  Li  Li3  1  0.500000  0.000000  0.091756  1
  Li  Li4  1  0.202866  0.202866  0.500000  1
  Li  Li5  1  0.797134  0.797134  0.500000  1
  Li  Li6  1  0.724838  0.724838  0.000000  1
  Li  Li7  1  0.275162  0.275162  0.000000  1
  Li  Li8  1  0.202866  0.797134  0.500000  1
  Li  Li9  1  0.797134  0.202866  0.500000  1
  Li  Li10  1  0.724838  0.275162  0.000000  1
  Li  Li11  1  0.275162  0.724838  0.000000  1
  Cr  Cr12  1  0.000000  0.000000  0.000000  1
  Re  Re13  1  0.500000  0.500000  0.500000  1
  N  N14  1  0.500000  0.261340  0.302636  1
  N  N15  1  0.500000  0.738660  0.302636  1
  N  N16  1  0.000000  0.760607  0.186898  1
  N  N17  1  0.000000  0.239393  0.186898  1
  N  N18  1  0.261340  0.500000  0.697364  1
  N  N19  1  0.738660  0.500000  0.697364  1
  N  N20  1  0.760607  0.000000  0.813102  1
  N  N21  1  0.239393  0.000000  0.813102  1
