# generated using pymatgen
data_Er2Si13GeIr6
_symmetry_space_group_name_H-M   'P 1'
_cell_length_a   8.06174543
_cell_length_b   8.06174707
_cell_length_c   8.06174643
_cell_angle_alpha   56.58559047
_cell_angle_beta   56.58557880
_cell_angle_gamma   56.58558894
_symmetry_Int_Tables_number   1
_chemical_formula_structural   Er2Si13GeIr6
_chemical_formula_sum   'Er2 Si13 Ge1 Ir6'
_cell_volume   341.25985178
_cell_formula_units_Z   1
loop_
 _symmetry_equiv_pos_site_id
 _symmetry_equiv_pos_as_xyz
  1  'x, y, z'
loop_
 _atom_site_type_symbol
 _atom_site_label
 _atom_site_symmetry_multiplicity
 _atom_site_fract_x
 _atom_site_fract_y
 _atom_site_fract_z
 _atom_site_occupancy
  Er  Er0  1  0.000069  0.000069  0.000069  1
  Er  Er1  1  0.499931  0.499931  0.499931  1
  Si  Si2  1  0.250000  0.250000  0.250000  1
  Si  Si3  1  0.851141  0.066695  0.671377  1
  Si  Si4  1  0.671377  0.851141  0.066695  1
  Si  Si5  1  0.066695  0.671377  0.851141  1
  Si  Si6  1  0.648859  0.828623  0.433305  1
  Si  Si7  1  0.433305  0.648859  0.828623  1
  Si  Si8  1  0.828623  0.433305  0.648859  1
  Si  Si9  1  0.172699  0.562107  0.351268  1
  Si  Si10  1  0.562107  0.351268  0.172699  1
  Si  Si11  1  0.351268  0.172699  0.562107  1
  Si  Si12  1  0.937893  0.327301  0.148732  1
  Si  Si13  1  0.327301  0.148732  0.937893  1
  Si  Si14  1  0.148732  0.937893  0.327301  1
  Ge  Ge15  1  0.750000  0.750000  0.750000  1
  Ir  Ir16  1  0.076515  0.423485  0.750000  1
  Ir  Ir17  1  0.250000  0.929359  0.570641  1
  Ir  Ir18  1  0.570641  0.250000  0.929359  1
  Ir  Ir19  1  0.929359  0.570641  0.250000  1
  Ir  Ir20  1  0.423485  0.750000  0.076515  1
  Ir  Ir21  1  0.750000  0.076515  0.423485  1
