# generated using pymatgen
data_Ta7Ti4NbAl8(IrN)4
_symmetry_space_group_name_H-M   'P 1'
_cell_length_a   8.24023297
_cell_length_b   8.24883911
_cell_length_c   8.23041402
_cell_angle_alpha   60.07615602
_cell_angle_beta   60.04238032
_cell_angle_gamma   59.98130888
_symmetry_Int_Tables_number   1
_chemical_formula_structural   Ta7Ti4NbAl8(IrN)4
_chemical_formula_sum   'Ta7 Ti4 Nb1 Al8 Ir4 N4'
_cell_volume   395.88214490
_cell_formula_units_Z   1
loop_
 _symmetry_equiv_pos_site_id
 _symmetry_equiv_pos_as_xyz
  1  'x, y, z'
loop_
 _atom_site_type_symbol
 _atom_site_label
 _atom_site_symmetry_multiplicity
 _atom_site_fract_x
 _atom_site_fract_y
 _atom_site_fract_z
 _atom_site_occupancy
  Ta  Ta0  1  0.063148  0.435154  0.436382  1
  Ta  Ta1  1  0.437154  0.063885  0.065208  1
  Ta  Ta2  1  0.064957  0.065217  0.434912  1
  Ta  Ta3  1  0.063152  0.435147  0.065325  1
  Ta  Ta4  1  0.437158  0.063887  0.433749  1
  Ta  Ta5  1  0.184711  0.816974  0.185060  1
  Ta  Ta6  1  0.184703  0.816980  0.813253  1
  Ti  Ti7  1  0.814151  0.182209  0.186870  1
  Ti  Ti8  1  0.814146  0.182220  0.816761  1
  Ti  Ti9  1  0.438296  0.433269  0.064219  1
  Ti  Ti10  1  0.186807  0.182389  0.815395  1
  Nb  Nb11  1  0.812589  0.817730  0.184843  1
  Al  Al12  1  0.416876  0.750385  0.416377  1
  Al  Al13  1  0.832618  0.835155  0.498269  1
  Al  Al14  1  0.498987  0.834964  0.833017  1
  Al  Al15  1  0.832632  0.835108  0.833979  1
  Al  Al16  1  0.748916  0.416511  0.417271  1
  Al  Al17  1  0.417111  0.415969  0.414944  1
  Al  Al18  1  0.417090  0.415983  0.751969  1
  Al  Al19  1  0.834986  0.494035  0.835513  1
  Ir  Ir20  1  0.624220  0.125632  0.625091  1
  Ir  Ir21  1  0.624447  0.622794  0.124117  1
  Ir  Ir22  1  0.124857  0.623282  0.625919  1
  Ir  Ir23  1  0.624480  0.622761  0.628648  1
  N  N24  1  0.132379  0.621135  0.123246  1
  N  N25  1  0.122112  0.128170  0.629366  1
  N  N26  1  0.625183  0.134884  0.119957  1
  N  N27  1  0.122133  0.128169  0.120344  1
