# generated using pymatgen
data_Sr5PrNbCo4O15
_symmetry_space_group_name_H-M   'P 1'
_cell_length_a   6.90364092
_cell_length_b   6.98066036
_cell_length_c   6.98065967
_cell_angle_alpha   87.04521606
_cell_angle_beta   86.97976917
_cell_angle_gamma   86.97974854
_symmetry_Int_Tables_number   1
_chemical_formula_structural   Sr5PrNbCo4O15
_chemical_formula_sum   'Sr5 Pr1 Nb1 Co4 O15'
_cell_volume   335.07638289
_cell_formula_units_Z   1
loop_
 _symmetry_equiv_pos_site_id
 _symmetry_equiv_pos_as_xyz
  1  'x, y, z'
loop_
 _atom_site_type_symbol
 _atom_site_label
 _atom_site_symmetry_multiplicity
 _atom_site_fract_x
 _atom_site_fract_y
 _atom_site_fract_z
 _atom_site_occupancy
  Sr  Sr0  1  0.129527  0.500196  0.865550  1
  Sr  Sr1  1  0.870473  0.134450  0.499804  1
  Sr  Sr2  1  0.000000  0.677215  0.322785  1
  Sr  Sr3  1  0.314967  0.000967  0.679234  1
  Sr  Sr4  1  0.685033  0.320766  0.999033  1
  Pr  Pr5  1  0.500000  0.867257  0.132743  1
  Nb  Nb6  1  0.500000  0.499670  0.500330  1
  Co  Co7  1  0.704561  0.709149  0.707025  1
  Co  Co8  1  0.295439  0.292975  0.290851  1
  Co  Co9  1  0.902504  0.902614  0.903956  1
  Co  Co10  1  0.097496  0.096044  0.097386  1
  O  O11  1  0.383374  0.557882  0.238790  1
  O  O12  1  0.240833  0.381298  0.550116  1
  O  O13  1  0.556490  0.243854  0.379912  1
  O  O14  1  0.616626  0.761210  0.442118  1
  O  O15  1  0.443510  0.620088  0.756146  1
  O  O16  1  0.759167  0.449884  0.618702  1
  O  O17  1  0.213879  0.030811  0.342507  1
  O  O18  1  0.352421  0.196094  0.035697  1
  O  O19  1  0.034511  0.344392  0.203542  1
  O  O20  1  0.786121  0.657493  0.969189  1
  O  O21  1  0.965489  0.796458  0.655608  1
  O  O22  1  0.161781  0.844364  0.002799  1
  O  O23  1  0.838219  0.997201  0.155636  1
  O  O24  1  0.000000  0.153366  0.846634  1
  O  O25  1  0.647579  0.964303  0.803906  1
