# generated using pymatgen
data_Eu2Er8IrRh5
_symmetry_space_group_name_H-M   'P 1'
_cell_length_a   10.84880720
_cell_length_b   10.84982200
_cell_length_c   6.33973500
_cell_angle_alpha   90.00000000
_cell_angle_beta   90.01036374
_cell_angle_gamma   90.00000000
_symmetry_Int_Tables_number   1
_chemical_formula_structural   Eu2Er8IrRh5
_chemical_formula_sum   'Eu4 Er16 Ir2 Rh10'
_cell_volume   746.23515062
_cell_formula_units_Z   2
loop_
 _symmetry_equiv_pos_site_id
 _symmetry_equiv_pos_as_xyz
  1  'x, y, z'
loop_
 _atom_site_type_symbol
 _atom_site_label
 _atom_site_symmetry_multiplicity
 _atom_site_fract_x
 _atom_site_fract_y
 _atom_site_fract_z
 _atom_site_occupancy
  Eu  Eu0  1  0.290900  0.089445  0.377570  1
  Eu  Eu1  1  0.290900  0.910555  0.877570  1
  Eu  Eu2  1  0.709147  0.088210  0.877459  1
  Eu  Eu3  1  0.709147  0.911790  0.377459  1
  Er  Er4  1  0.586851  0.790341  0.877758  1
  Er  Er5  1  0.586851  0.209659  0.377758  1
  Er  Er6  1  0.411349  0.790457  0.378606  1
  Er  Er7  1  0.411349  0.209543  0.878606  1
  Er  Er8  1  0.210217  0.412808  0.621655  1
  Er  Er9  1  0.210217  0.587192  0.121655  1
  Er  Er10  1  0.791072  0.411674  0.122044  1
  Er  Er11  1  0.791072  0.588326  0.622044  1
  Er  Er12  1  0.911945  0.709149  0.122146  1
  Er  Er13  1  0.911945  0.290851  0.622146  1
  Er  Er14  1  0.089602  0.708825  0.622371  1
  Er  Er15  1  0.089602  0.291175  0.122371  1
  Er  Er16  1  0.999930  0.999826  0.499930  1
  Er  Er17  1  0.999930  0.000174  0.999930  1
  Er  Er18  1  0.499601  0.499861  0.999985  1
  Er  Er19  1  0.499601  0.500139  0.499985  1
  Ir  Ir20  1  0.346062  0.345578  0.249826  1
  Ir  Ir21  1  0.346062  0.654422  0.749826  1
  Rh  Rh22  1  0.845869  0.154318  0.250414  1
  Rh  Rh23  1  0.845869  0.845682  0.750414  1
  Rh  Rh24  1  0.153150  0.153865  0.750077  1
  Rh  Rh25  1  0.153150  0.846135  0.250077  1
  Rh  Rh26  1  0.654856  0.345895  0.750063  1
  Rh  Rh27  1  0.654856  0.654105  0.250063  1
  Rh  Rh28  1  0.500540  0.999795  0.122836  1
  Rh  Rh29  1  0.500540  0.000205  0.622836  1
  Rh  Rh30  1  0.998910  0.499908  0.877259  1
  Rh  Rh31  1  0.998910  0.500092  0.377259  1
