# generated using pymatgen
data_Y8Ho12GaBi11
_symmetry_space_group_name_H-M   'P 1'
_cell_length_a   8.21434177
_cell_length_b   9.46118100
_cell_length_c   12.06299655
_cell_angle_alpha   90.00000000
_cell_angle_beta   90.31083338
_cell_angle_gamma   90.00000000
_symmetry_Int_Tables_number   1
_chemical_formula_structural   Y8Ho12GaBi11
_chemical_formula_sum   'Y8 Ho12 Ga1 Bi11'
_cell_volume   937.49062183
_cell_formula_units_Z   1
loop_
 _symmetry_equiv_pos_site_id
 _symmetry_equiv_pos_as_xyz
  1  'x, y, z'
loop_
 _atom_site_type_symbol
 _atom_site_label
 _atom_site_symmetry_multiplicity
 _atom_site_fract_x
 _atom_site_fract_y
 _atom_site_fract_z
 _atom_site_occupancy
  Y  Y0  1  0.190456  0.750000  0.722561  1
  Y  Y1  1  0.673328  0.750000  0.788076  1
  Y  Y2  1  0.811731  0.250000  0.280308  1
  Y  Y3  1  0.313888  0.250000  0.220141  1
  Y  Y4  1  0.355440  0.750000  0.205779  1
  Y  Y5  1  0.852415  0.750000  0.285575  1
  Y  Y6  1  0.648477  0.250000  0.785448  1
  Y  Y7  1  0.148997  0.250000  0.715681  1
  Ho  Ho8  1  0.036293  0.750000  0.990195  1
  Ho  Ho9  1  0.526666  0.750000  0.511332  1
  Ho  Ho10  1  0.977897  0.250000  0.009977  1
  Ho  Ho11  1  0.474182  0.250000  0.488997  1
  Ho  Ho12  1  0.308698  0.451490  0.940534  1
  Ho  Ho13  1  0.805397  0.063143  0.559588  1
  Ho  Ho14  1  0.685801  0.930256  0.055225  1
  Ho  Ho15  1  0.194868  0.563622  0.439156  1
  Ho  Ho16  1  0.685801  0.569744  0.055225  1
  Ho  Ho17  1  0.194868  0.936378  0.439156  1
  Ho  Ho18  1  0.308698  0.048510  0.940534  1
  Ho  Ho19  1  0.805397  0.436857  0.559588  1
  Ga  Ga20  1  0.410721  0.750000  0.961458  1
  Bi  Bi21  1  0.435258  0.003941  0.674133  1
  Bi  Bi22  1  0.935056  0.497634  0.825881  1
  Bi  Bi23  1  0.565032  0.504471  0.326359  1
  Bi  Bi24  1  0.063935  0.996855  0.174334  1
  Bi  Bi25  1  0.565032  0.995529  0.326359  1
  Bi  Bi26  1  0.063935  0.503145  0.174334  1
  Bi  Bi27  1  0.435258  0.496059  0.674133  1
  Bi  Bi28  1  0.935056  0.002366  0.825881  1
  Bi  Bi29  1  0.911305  0.750000  0.543845  1
  Bi  Bi30  1  0.590279  0.250000  0.041997  1
  Bi  Bi31  1  0.089837  0.250000  0.458214  1
