# generated using pymatgen
data_Nd4Er4Re(TcB8)3
_symmetry_space_group_name_H-M   'P 1'
_cell_length_a   3.72589300
_cell_length_b   9.21896866
_cell_length_c   11.67493007
_cell_angle_alpha   90.01540041
_cell_angle_beta   90.00000000
_cell_angle_gamma   90.00000000
_symmetry_Int_Tables_number   1
_chemical_formula_structural   Nd4Er4Re(TcB8)3
_chemical_formula_sum   'Nd4 Er4 Re1 Tc3 B24'
_cell_volume   401.02088370
_cell_formula_units_Z   1
loop_
 _symmetry_equiv_pos_site_id
 _symmetry_equiv_pos_as_xyz
  1  'x, y, z'
loop_
 _atom_site_type_symbol
 _atom_site_label
 _atom_site_symmetry_multiplicity
 _atom_site_fract_x
 _atom_site_fract_y
 _atom_site_fract_z
 _atom_site_occupancy
  Nd  Nd0  1  0.000000  0.323161  0.414377  1
  Nd  Nd1  1  0.000000  0.676980  0.585507  1
  Nd  Nd2  1  0.000000  0.823009  0.085810  1
  Nd  Nd3  1  0.000000  0.177281  0.914508  1
  Er  Er4  1  0.000000  0.942600  0.368431  1
  Er  Er5  1  0.000000  0.057911  0.630725  1
  Er  Er6  1  0.000000  0.442618  0.131637  1
  Er  Er7  1  0.000000  0.556404  0.868865  1
  Re  Re8  1  0.000000  0.860439  0.819132  1
  Tc  Tc9  1  0.000000  0.639778  0.318981  1
  Tc  Tc10  1  0.000000  0.360282  0.680966  1
  Tc  Tc11  1  0.000000  0.139726  0.181041  1
  B  B12  1  0.500000  0.555277  0.430459  1
  B  B13  1  0.500000  0.444880  0.569570  1
  B  B14  1  0.500000  0.055235  0.069581  1
  B  B15  1  0.500000  0.944917  0.930641  1
  B  B16  1  0.500000  0.750318  0.415935  1
  B  B17  1  0.500000  0.249976  0.583986  1
  B  B18  1  0.500000  0.250287  0.084090  1
  B  B19  1  0.500000  0.749394  0.916150  1
  B  B20  1  0.500000  0.791508  0.265963  1
  B  B21  1  0.500000  0.208441  0.733915  1
  B  B22  1  0.500000  0.291461  0.234102  1
  B  B23  1  0.500000  0.708157  0.765982  1
  B  B24  1  0.500000  0.629352  0.186280  1
  B  B25  1  0.500000  0.370467  0.813709  1
  B  B26  1  0.500000  0.129389  0.313836  1
  B  B27  1  0.500000  0.870745  0.686009  1
  B  B28  1  0.500000  0.983848  0.213043  1
  B  B29  1  0.500000  0.016511  0.786786  1
  B  B30  1  0.500000  0.483815  0.287024  1
  B  B31  1  0.500000  0.516140  0.713115  1
  B  B32  1  0.500000  0.595570  0.026525  1
  B  B33  1  0.500000  0.403964  0.973731  1
  B  B34  1  0.500000  0.095794  0.473239  1
  B  B35  1  0.500000  0.904365  0.526349  1
