# generated using pymatgen
data_NaSmH9W
_symmetry_space_group_name_H-M   'P 1'
_cell_length_a   8.69735000
_cell_length_b   8.69734959
_cell_length_c   5.06208500
_cell_angle_alpha   90.00000000
_cell_angle_beta   90.00000000
_cell_angle_gamma   120.00000915
_symmetry_Int_Tables_number   1
_chemical_formula_structural   NaSmH9W
_chemical_formula_sum   'Na3 Sm3 H27 W3'
_cell_volume   331.61479585
_cell_formula_units_Z   3
loop_
 _symmetry_equiv_pos_site_id
 _symmetry_equiv_pos_as_xyz
  1  'x, y, z'
loop_
 _atom_site_type_symbol
 _atom_site_label
 _atom_site_symmetry_multiplicity
 _atom_site_fract_x
 _atom_site_fract_y
 _atom_site_fract_z
 _atom_site_occupancy
  Na  Na0  1  0.000000  0.602425  0.000000  1
  Na  Na1  1  0.397575  0.397575  0.000000  1
  Na  Na2  1  0.602425  0.000000  0.000000  1
  Sm  Sm3  1  0.000000  0.263982  0.500000  1
  Sm  Sm4  1  0.736018  0.736018  0.500000  1
  Sm  Sm5  1  0.263982  0.000000  0.500000  1
  H  H6  1  0.817506  0.345127  0.749653  1
  H  H7  1  0.654873  0.472379  0.749653  1
  H  H8  1  0.527621  0.182494  0.749653  1
  H  H9  1  0.182494  0.527621  0.250347  1
  H  H10  1  0.527621  0.182494  0.250347  1
  H  H11  1  0.817506  0.345127  0.250347  1
  H  H12  1  0.654873  0.472379  0.250347  1
  H  H13  1  0.345127  0.817506  0.749653  1
  H  H14  1  0.472379  0.654873  0.749653  1
  H  H15  1  0.206061  0.000000  0.000000  1
  H  H16  1  0.793939  0.793939  0.000000  1
  H  H17  1  0.000000  0.206061  0.000000  1
  H  H18  1  0.849315  0.000000  0.259664  1
  H  H19  1  0.150685  0.150685  0.740336  1
  H  H20  1  0.000000  0.849315  0.740336  1
  H  H21  1  0.000000  0.849315  0.259664  1
  H  H22  1  0.150685  0.150685  0.259664  1
  H  H23  1  0.849315  0.000000  0.740336  1
  H  H24  1  0.140494  0.687514  0.500000  1
  H  H25  1  0.547020  0.859506  0.500000  1
  H  H26  1  0.312486  0.452980  0.500000  1
  H  H27  1  0.452980  0.312486  0.500000  1
  H  H28  1  0.859506  0.547020  0.500000  1
  H  H29  1  0.687514  0.140494  0.500000  1
  H  H30  1  0.182494  0.527621  0.749653  1
  H  H31  1  0.345127  0.817506  0.250347  1
  H  H32  1  0.472379  0.654873  0.250347  1
  W  W33  1  0.666667  0.333333  0.500000  1
  W  W34  1  0.333333  0.666667  0.500000  1
  W  W35  1  0.000000  0.000000  0.000000  1
