# generated using pymatgen
data_Zr10Tl5InCuAs
_symmetry_space_group_name_H-M   'P 1'
_cell_length_a   8.80969413
_cell_length_b   8.81100946
_cell_length_c   5.89095826
_cell_angle_alpha   89.96612082
_cell_angle_beta   90.01694050
_cell_angle_gamma   120.00493338
_symmetry_Int_Tables_number   1
_chemical_formula_structural   Zr10Tl5InCuAs
_chemical_formula_sum   'Zr10 Tl5 In1 Cu1 As1'
_cell_volume   395.98743612
_cell_formula_units_Z   1
loop_
 _symmetry_equiv_pos_site_id
 _symmetry_equiv_pos_as_xyz
  1  'x, y, z'
loop_
 _atom_site_type_symbol
 _atom_site_label
 _atom_site_symmetry_multiplicity
 _atom_site_fract_x
 _atom_site_fract_y
 _atom_site_fract_z
 _atom_site_occupancy
  Zr  Zr0  1  0.743090  0.743423  0.250375  1
  Zr  Zr1  1  0.256910  0.000332  0.250375  1
  Zr  Zr2  1  0.000000  0.257003  0.249584  1
  Zr  Zr3  1  0.255999  0.257392  0.749851  1
  Zr  Zr4  1  0.744001  0.001393  0.749851  1
  Zr  Zr5  1  0.000000  0.741865  0.750142  1
  Zr  Zr6  1  0.667493  0.333437  0.500472  1
  Zr  Zr7  1  0.332507  0.665945  0.500472  1
  Zr  Zr8  1  0.332667  0.666067  0.999433  1
  Zr  Zr9  1  0.667333  0.333399  0.999433  1
  Tl  Tl10  1  0.387722  0.387701  0.247852  1
  Tl  Tl11  1  0.612278  0.999979  0.247852  1
  Tl  Tl12  1  0.000000  0.611627  0.247848  1
  Tl  Tl13  1  0.612440  0.612528  0.752165  1
  Tl  Tl14  1  0.387560  0.000088  0.752165  1
  In  In15  1  0.000000  0.387953  0.752199  1
  Cu  Cu16  1  0.000000  0.000113  0.999635  1
  As  As17  1  0.000000  0.999756  0.500299  1
