# generated using pymatgen
data_Li2LaDySi4
_symmetry_space_group_name_H-M   'P 1'
_cell_length_a   3.86382700
_cell_length_b   7.71424026
_cell_length_c   10.43077251
_cell_angle_alpha   89.59162645
_cell_angle_beta   90.00000000
_cell_angle_gamma   90.00000000
_symmetry_Int_Tables_number   1
_chemical_formula_structural   Li2LaDySi4
_chemical_formula_sum   'Li4 La2 Dy2 Si8'
_cell_volume   310.89681742
_cell_formula_units_Z   2
loop_
 _symmetry_equiv_pos_site_id
 _symmetry_equiv_pos_as_xyz
  1  'x, y, z'
loop_
 _atom_site_type_symbol
 _atom_site_label
 _atom_site_symmetry_multiplicity
 _atom_site_fract_x
 _atom_site_fract_y
 _atom_site_fract_z
 _atom_site_occupancy
  Li  Li0  1  0.250000  0.996083  0.388371  1
  Li  Li1  1  0.750000  0.003917  0.611629  1
  Li  Li2  1  0.250000  0.491184  0.106368  1
  Li  Li3  1  0.750000  0.508816  0.893632  1
  La  La4  1  0.250000  0.641065  0.636915  1
  La  La5  1  0.750000  0.358935  0.363085  1
  Dy  Dy6  1  0.250000  0.132421  0.865895  1
  Dy  Dy7  1  0.750000  0.867579  0.134105  1
  Si  Si8  1  0.750000  0.263814  0.063274  1
  Si  Si9  1  0.250000  0.736186  0.936726  1
  Si  Si10  1  0.750000  0.779926  0.422233  1
  Si  Si11  1  0.250000  0.220074  0.577767  1
  Si  Si12  1  0.750000  0.843564  0.827655  1
  Si  Si13  1  0.250000  0.156436  0.172345  1
  Si  Si14  1  0.750000  0.330450  0.684796  1
  Si  Si15  1  0.250000  0.669550  0.315204  1
