# generated using pymatgen
data_Na7PaSe6
_symmetry_space_group_name_H-M   'P 1'
_cell_length_a   8.24302434
_cell_length_b   8.24275267
_cell_length_c   8.25458815
_cell_angle_alpha   60.04536855
_cell_angle_beta   119.95715210
_cell_angle_gamma   120.00167471
_symmetry_Int_Tables_number   1
_chemical_formula_structural   Na7PaSe6
_chemical_formula_sum   'Na7 Pa1 Se6'
_cell_volume   396.84688724
_cell_formula_units_Z   1
loop_
 _symmetry_equiv_pos_site_id
 _symmetry_equiv_pos_as_xyz
  1  'x, y, z'
loop_
 _atom_site_type_symbol
 _atom_site_label
 _atom_site_symmetry_multiplicity
 _atom_site_fract_x
 _atom_site_fract_y
 _atom_site_fract_z
 _atom_site_occupancy
  Na  Na0  1  0.341663  0.658304  0.025075  1
  Na  Na1  1  0.508183  0.942982  0.325346  1
  Na  Na2  1  0.760130  0.491840  0.325337  1
  Na  Na3  1  0.057063  0.239860  0.325353  1
  Na  Na4  1  0.274914  0.488029  0.668710  1
  Na  Na5  1  0.881841  0.725095  0.668689  1
  Na  Na6  1  0.511984  0.118153  0.668774  1
  Pa  Pa7  1  0.999212  0.000782  0.997637  1
  Se  Se8  1  0.768986  0.888973  0.226465  1
  Se  Se9  1  0.111036  0.653533  0.226512  1
  Se  Se10  1  0.346463  0.230974  0.226554  1
  Se  Se11  1  0.637701  0.796250  0.768506  1
  Se  Se12  1  0.927109  0.362319  0.768514  1
  Se  Se13  1  0.203724  0.072910  0.768522  1
