# generated using pymatgen
data_Dy5Ho3Sc12GaSi15
_symmetry_space_group_name_H-M   'P 1'
_cell_length_a   7.09903545
_cell_length_b   7.39070822
_cell_length_c   14.01904466
_cell_angle_alpha   89.94314951
_cell_angle_beta   89.97811584
_cell_angle_gamma   90.01055539
_symmetry_Int_Tables_number   1
_chemical_formula_structural   Dy5Ho3Sc12GaSi15
_chemical_formula_sum   'Dy5 Ho3 Sc12 Ga1 Si15'
_cell_volume   735.53538183
_cell_formula_units_Z   1
loop_
 _symmetry_equiv_pos_site_id
 _symmetry_equiv_pos_as_xyz
  1  'x, y, z'
loop_
 _atom_site_type_symbol
 _atom_site_label
 _atom_site_symmetry_multiplicity
 _atom_site_fract_x
 _atom_site_fract_y
 _atom_site_fract_z
 _atom_site_occupancy
  Dy  Dy0  1  0.011899  0.175436  0.096997  1
  Dy  Dy1  1  0.988016  0.824791  0.903461  1
  Dy  Dy2  1  0.487756  0.676256  0.903411  1
  Dy  Dy3  1  0.987423  0.826560  0.597440  1
  Dy  Dy4  1  0.512100  0.323913  0.096846  1
  Ho  Ho5  1  0.011059  0.174178  0.401614  1
  Ho  Ho6  1  0.512898  0.323266  0.401586  1
  Ho  Ho7  1  0.489893  0.678334  0.597571  1
  Sc  Sc8  1  0.161093  0.502641  0.751435  1
  Sc  Sc9  1  0.839044  0.497482  0.249943  1
  Sc  Sc10  1  0.338914  0.002624  0.249781  1
  Sc  Sc11  1  0.661325  0.996779  0.750104  1
  Sc  Sc12  1  0.332483  0.174194  0.626007  1
  Sc  Sc13  1  0.668471  0.823972  0.374378  1
  Sc  Sc14  1  0.169896  0.677425  0.373507  1
  Sc  Sc15  1  0.669593  0.823642  0.125305  1
  Sc  Sc16  1  0.828612  0.323144  0.625536  1
  Sc  Sc17  1  0.330251  0.175917  0.874960  1
  Sc  Sc18  1  0.830492  0.323032  0.874957  1
  Sc  Sc19  1  0.169181  0.676804  0.125390  1
  Ga  Ga20  1  0.160439  0.462506  0.539187  1
  Si  Si21  1  0.033711  0.117679  0.750684  1
  Si  Si22  1  0.966419  0.883506  0.249740  1
  Si  Si23  1  0.467555  0.615828  0.250008  1
  Si  Si24  1  0.532229  0.384882  0.749718  1
  Si  Si25  1  0.284780  0.872770  0.750284  1
  Si  Si26  1  0.714538  0.127385  0.249727  1
  Si  Si27  1  0.214361  0.372278  0.249650  1
  Si  Si28  1  0.785591  0.627133  0.750677  1
  Si  Si29  1  0.841090  0.535645  0.460330  1
  Si  Si30  1  0.341540  0.964499  0.460183  1
  Si  Si31  1  0.842197  0.535422  0.038707  1
  Si  Si32  1  0.657513  0.035739  0.538991  1
  Si  Si33  1  0.157747  0.464285  0.961651  1
  Si  Si34  1  0.657382  0.035308  0.960681  1
  Si  Si35  1  0.342511  0.964748  0.039552  1
