# generated using pymatgen
data_Sr5SnP2
_symmetry_space_group_name_H-M   'P 1'
_cell_length_a   9.60132283
_cell_length_b   9.60132244
_cell_length_c   9.60132142
_cell_angle_alpha   128.19833192
_cell_angle_beta   128.19833586
_cell_angle_gamma   76.30395760
_symmetry_Int_Tables_number   1
_chemical_formula_structural   Sr5SnP2
_chemical_formula_sum   'Sr10 Sn2 P4'
_cell_volume   531.22389998
_cell_formula_units_Z   2
loop_
 _symmetry_equiv_pos_site_id
 _symmetry_equiv_pos_as_xyz
  1  'x, y, z'
loop_
 _atom_site_type_symbol
 _atom_site_label
 _atom_site_symmetry_multiplicity
 _atom_site_fract_x
 _atom_site_fract_y
 _atom_site_fract_z
 _atom_site_occupancy
  Sr  Sr0  1  0.787087  0.287087  0.816706  1
  Sr  Sr1  1  0.212913  0.712913  0.183294  1
  Sr  Sr2  1  0.470380  0.970380  0.183294  1
  Sr  Sr3  1  0.287087  0.470380  0.500000  1
  Sr  Sr4  1  0.029620  0.212913  0.500000  1
  Sr  Sr5  1  0.529620  0.029620  0.816706  1
  Sr  Sr6  1  0.712913  0.529620  0.500000  1
  Sr  Sr7  1  0.970380  0.787087  0.500000  1
  Sr  Sr8  1  0.000000  0.000000  0.000000  1
  Sr  Sr9  1  0.500000  0.500000  0.000000  1
  Sn  Sn10  1  0.250000  0.250000  0.000000  1
  Sn  Sn11  1  0.750000  0.750000  0.000000  1
  P  P12  1  0.152850  0.652850  0.805701  1
  P  P13  1  0.847150  0.347150  0.194299  1
  P  P14  1  0.652850  0.847150  0.500000  1
  P  P15  1  0.347150  0.152850  0.500000  1
