# generated using pymatgen
data_Dy2Tm3P12Ru10Rh9
_symmetry_space_group_name_H-M   'P 1'
_cell_length_a   12.59039717
_cell_length_b   12.55968065
_cell_length_c   3.92328200
_cell_angle_alpha   90.00000000
_cell_angle_beta   90.00000000
_cell_angle_gamma   119.83072759
_symmetry_Int_Tables_number   1
_chemical_formula_structural   Dy2Tm3P12Ru10Rh9
_chemical_formula_sum   'Dy2 Tm3 P12 Ru10 Rh9'
_cell_volume   538.19100738
_cell_formula_units_Z   1
loop_
 _symmetry_equiv_pos_site_id
 _symmetry_equiv_pos_as_xyz
  1  'x, y, z'
loop_
 _atom_site_type_symbol
 _atom_site_label
 _atom_site_symmetry_multiplicity
 _atom_site_fract_x
 _atom_site_fract_y
 _atom_site_fract_z
 _atom_site_occupancy
  Dy  Dy0  1  0.666560  0.332431  0.000000  1
  Dy  Dy1  1  0.333417  0.666870  0.000000  1
  Tm  Tm2  1  0.812370  0.000918  0.500000  1
  Tm  Tm3  1  0.185153  0.187153  0.500000  1
  Tm  Tm4  1  0.000093  0.813509  0.500000  1
  P  P5  1  0.632048  0.997709  0.000000  1
  P  P6  1  0.365464  0.370925  0.000000  1
  P  P7  1  0.005872  0.634492  0.000000  1
  P  P8  1  0.686700  0.519800  0.500000  1
  P  P9  1  0.831621  0.308593  0.500000  1
  P  P10  1  0.315161  0.833007  0.500000  1
  P  P11  1  0.518128  0.685368  0.500000  1
  P  P12  1  0.179509  0.001444  0.000000  1
  P  P13  1  0.820663  0.820189  0.000000  1
  P  P14  1  0.995988  0.179245  0.000000  1
  P  P15  1  0.478899  0.164847  0.500000  1
  P  P16  1  0.167511  0.482652  0.500000  1
  Ru  Ru17  1  0.126910  0.641961  0.500000  1
  Ru  Ru18  1  0.359881  0.486484  0.500000  1
  Ru  Ru19  1  0.513136  0.871680  0.500000  1
  Ru  Ru20  1  0.718086  0.716560  0.500000  1
  Ru  Ru21  1  0.001155  0.284027  0.500000  1
  Ru  Ru22  1  0.450718  0.002688  0.000000  1
  Ru  Ru23  1  0.553026  0.547616  0.000000  1
  Ru  Ru24  1  0.000315  0.449539  0.000000  1
  Ru  Ru25  1  0.817154  0.193784  0.000000  1
  Ru  Ru26  1  0.282727  0.001432  0.500000  1
  Rh  Rh27  1  0.625762  0.804970  0.000000  1
  Rh  Rh28  1  0.180706  0.374134  0.000000  1
  Rh  Rh29  1  0.373631  0.184066  0.000000  1
  Rh  Rh30  1  0.194671  0.821506  0.000000  1
  Rh  Rh31  1  0.810173  0.625548  0.000000  1
  Rh  Rh32  1  0.869976  0.507964  0.500000  1
  Rh  Rh33  1  0.489763  0.359197  0.500000  1
  Rh  Rh34  1  0.637566  0.127549  0.500000  1
  Rh  Rh35  1  0.999491  0.000141  0.000000  1
