# generated using pymatgen
data_HoTm2Al10(SiOs2)2
_symmetry_space_group_name_H-M   'P 1'
_cell_length_a   8.67832800
_cell_length_b   8.67433720
_cell_length_c   9.60529700
_cell_angle_alpha   90.00000000
_cell_angle_beta   90.00000000
_cell_angle_gamma   120.01619693
_symmetry_Int_Tables_number   1
_chemical_formula_structural   HoTm2Al10(SiOs2)2
_chemical_formula_sum   'Ho2 Tm4 Al20 Si4 Os8'
_cell_volume   626.09882059
_cell_formula_units_Z   2
loop_
 _symmetry_equiv_pos_site_id
 _symmetry_equiv_pos_as_xyz
  1  'x, y, z'
loop_
 _atom_site_type_symbol
 _atom_site_label
 _atom_site_symmetry_multiplicity
 _atom_site_fract_x
 _atom_site_fract_y
 _atom_site_fract_z
 _atom_site_occupancy
  Ho  Ho0  1  0.195876  0.391754  0.250000  1
  Ho  Ho1  1  0.804124  0.608246  0.750000  1
  Tm  Tm2  1  0.605471  0.802961  0.250000  1
  Tm  Tm3  1  0.394529  0.197039  0.750000  1
  Tm  Tm4  1  0.197488  0.802962  0.250000  1
  Tm  Tm5  1  0.802512  0.197038  0.750000  1
  Al  Al6  1  0.164717  0.329426  0.578144  1
  Al  Al7  1  0.835283  0.670574  0.421856  1
  Al  Al8  1  0.670404  0.835393  0.577464  1
  Al  Al9  1  0.835283  0.670574  0.078144  1
  Al  Al10  1  0.329596  0.164607  0.422536  1
  Al  Al11  1  0.164717  0.329426  0.921856  1
  Al  Al12  1  0.165014  0.835387  0.577537  1
  Al  Al13  1  0.329596  0.164607  0.077464  1
  Al  Al14  1  0.834986  0.164613  0.422463  1
  Al  Al15  1  0.670404  0.835393  0.922536  1
  Al  Al16  1  0.834986  0.164613  0.077537  1
  Al  Al17  1  0.165014  0.835387  0.922463  1
  Al  Al18  1  0.563405  0.126839  0.250000  1
  Al  Al19  1  0.436595  0.873161  0.750000  1
  Al  Al20  1  0.873034  0.436626  0.250000  1
  Al  Al21  1  0.126966  0.563374  0.750000  1
  Al  Al22  1  0.563621  0.436605  0.250000  1
  Al  Al23  1  0.436379  0.563395  0.750000  1
  Al  Al24  1  0.999077  0.998174  0.250000  1
  Al  Al25  1  0.000923  0.001826  0.750000  1
  Si  Si26  1  0.333350  0.666687  0.037253  1
  Si  Si27  1  0.666650  0.333313  0.962747  1
  Si  Si28  1  0.666650  0.333313  0.537253  1
  Si  Si29  1  0.333350  0.666687  0.462747  1
  Os  Os30  1  0.500000  0.000000  0.000000  1
  Os  Os31  1  0.000000  0.500000  0.000000  1
  Os  Os32  1  0.500000  0.000000  0.500000  1
  Os  Os33  1  0.500000  0.500000  0.000000  1
  Os  Os34  1  0.000000  0.500000  0.500000  1
  Os  Os35  1  0.500000  0.500000  0.500000  1
  Os  Os36  1  0.000000  0.000000  0.000000  1
  Os  Os37  1  0.000000  0.000000  0.500000  1
