# generated using pymatgen
data_V2(SiW)3
_symmetry_space_group_name_H-M   'P 1'
_cell_length_a   7.23878400
_cell_length_b   7.23878501
_cell_length_c   4.86412900
_cell_angle_alpha   90.00000000
_cell_angle_beta   90.00000000
_cell_angle_gamma   119.99999540
_symmetry_Int_Tables_number   1
_chemical_formula_structural   V2(SiW)3
_chemical_formula_sum   'V4 Si6 W6'
_cell_volume   220.73288118
_cell_formula_units_Z   2
loop_
 _symmetry_equiv_pos_site_id
 _symmetry_equiv_pos_as_xyz
  1  'x, y, z'
loop_
 _atom_site_type_symbol
 _atom_site_label
 _atom_site_symmetry_multiplicity
 _atom_site_fract_x
 _atom_site_fract_y
 _atom_site_fract_z
 _atom_site_occupancy
  V  V0  1  0.666667  0.333333  0.000000  1
  V  V1  1  0.333333  0.666667  0.000000  1
  V  V2  1  0.333333  0.666667  0.500000  1
  V  V3  1  0.666667  0.333333  0.500000  1
  Si  Si4  1  0.402646  0.402646  0.750000  1
  Si  Si5  1  0.597354  0.000000  0.750000  1
  Si  Si6  1  0.000000  0.597354  0.750000  1
  Si  Si7  1  0.597354  0.597354  0.250000  1
  Si  Si8  1  0.402646  0.000000  0.250000  1
  Si  Si9  1  0.000000  0.402646  0.250000  1
  W  W10  1  0.758479  0.758479  0.750000  1
  W  W11  1  0.241521  0.000000  0.750000  1
  W  W12  1  0.000000  0.241521  0.750000  1
  W  W13  1  0.241521  0.241521  0.250000  1
  W  W14  1  0.758479  0.000000  0.250000  1
  W  W15  1  0.000000  0.758479  0.250000  1
