# generated using pymatgen
data_Y12AlFe4Pb
_symmetry_space_group_name_H-M   'P 1'
_cell_length_a   8.46861051
_cell_length_b   8.46861055
_cell_length_c   8.46861200
_cell_angle_alpha   111.21061233
_cell_angle_beta   110.11476910
_cell_angle_gamma   107.11562904
_symmetry_Int_Tables_number   1
_chemical_formula_structural   Y12AlFe4Pb
_chemical_formula_sum   'Y12 Al1 Fe4 Pb1'
_cell_volume   466.90128518
_cell_formula_units_Z   1
loop_
 _symmetry_equiv_pos_site_id
 _symmetry_equiv_pos_as_xyz
  1  'x, y, z'
loop_
 _atom_site_type_symbol
 _atom_site_label
 _atom_site_symmetry_multiplicity
 _atom_site_fract_x
 _atom_site_fract_y
 _atom_site_fract_z
 _atom_site_occupancy
  Y  Y0  1  0.435036  0.224441  0.210417  1
  Y  Y1  1  0.564964  0.775559  0.789583  1
  Y  Y2  1  0.014023  0.224441  0.789405  1
  Y  Y3  1  0.985977  0.775559  0.210595  1
  Y  Y4  1  0.185470  0.283415  0.468823  1
  Y  Y5  1  0.814530  0.716585  0.531177  1
  Y  Y6  1  0.185408  0.716585  0.902057  1
  Y  Y7  1  0.814592  0.283415  0.097943  1
  Y  Y8  1  0.310247  0.609671  0.299423  1
  Y  Y9  1  0.689753  0.390329  0.700577  1
  Y  Y10  1  0.310305  0.010952  0.700646  1
  Y  Y11  1  0.689695  0.989048  0.299354  1
  Al  Al12  1  0.000000  0.000000  0.000000  1
  Fe  Fe13  1  0.387917  0.000000  0.387917  1
  Fe  Fe14  1  0.612083  0.000000  0.612083  1
  Fe  Fe15  1  0.105900  0.605955  0.500055  1
  Fe  Fe16  1  0.894100  0.394045  0.499945  1
  Pb  Pb17  1  0.500000  0.500000  0.000000  1
