# generated using pymatgen
data_Tb4Y12Cd4RuPt3
_symmetry_space_group_name_H-M   'P 1'
_cell_length_a   9.73128224
_cell_length_b   9.73128222
_cell_length_c   9.73128235
_cell_angle_alpha   59.66843450
_cell_angle_beta   59.66843658
_cell_angle_gamma   59.66843347
_symmetry_Int_Tables_number   1
_chemical_formula_structural   Tb4Y12Cd4RuPt3
_chemical_formula_sum   'Tb4 Y12 Cd4 Ru1 Pt3'
_cell_volume   646.71259417
_cell_formula_units_Z   1
loop_
 _symmetry_equiv_pos_site_id
 _symmetry_equiv_pos_as_xyz
  1  'x, y, z'
loop_
 _atom_site_type_symbol
 _atom_site_label
 _atom_site_symmetry_multiplicity
 _atom_site_fract_x
 _atom_site_fract_y
 _atom_site_fract_z
 _atom_site_occupancy
  Tb  Tb0  1  0.352164  0.352164  0.352164  1
  Tb  Tb1  1  0.349524  0.349524  0.948131  1
  Tb  Tb2  1  0.349524  0.948131  0.349524  1
  Tb  Tb3  1  0.948131  0.349524  0.349524  1
  Y  Y4  1  0.814959  0.188836  0.188836  1
  Y  Y5  1  0.189163  0.809670  0.809670  1
  Y  Y6  1  0.188836  0.814959  0.188836  1
  Y  Y7  1  0.809670  0.189163  0.809670  1
  Y  Y8  1  0.188836  0.188836  0.814959  1
  Y  Y9  1  0.809670  0.809670  0.189163  1
  Y  Y10  1  0.936104  0.564762  0.564762  1
  Y  Y11  1  0.560638  0.936541  0.936541  1
  Y  Y12  1  0.564762  0.936104  0.564762  1
  Y  Y13  1  0.936541  0.560638  0.936541  1
  Y  Y14  1  0.564762  0.564762  0.936104  1
  Y  Y15  1  0.936541  0.936541  0.560638  1
  Cd  Cd16  1  0.580354  0.580354  0.580354  1
  Cd  Cd17  1  0.581369  0.581369  0.254352  1
  Cd  Cd18  1  0.581369  0.254352  0.581369  1
  Cd  Cd19  1  0.254352  0.581369  0.581369  1
  Ru  Ru20  1  0.143586  0.143586  0.143586  1
  Pt  Pt21  1  0.143974  0.143974  0.571193  1
  Pt  Pt22  1  0.143974  0.571193  0.143974  1
  Pt  Pt23  1  0.571193  0.143974  0.143974  1
