# generated using pymatgen
data_Sc10CdNiPt2
_symmetry_space_group_name_H-M   'P 1'
_cell_length_a   8.78010076
_cell_length_b   8.78010091
_cell_length_c   8.78349800
_cell_angle_alpha   90.00000000
_cell_angle_beta   90.00000000
_cell_angle_gamma   119.78288247
_symmetry_Int_Tables_number   1
_chemical_formula_structural   Sc10CdNiPt2
_chemical_formula_sum   'Sc20 Cd2 Ni2 Pt4'
_cell_volume   587.68303268
_cell_formula_units_Z   2
loop_
 _symmetry_equiv_pos_site_id
 _symmetry_equiv_pos_as_xyz
  1  'x, y, z'
loop_
 _atom_site_type_symbol
 _atom_site_label
 _atom_site_symmetry_multiplicity
 _atom_site_fract_x
 _atom_site_fract_y
 _atom_site_fract_z
 _atom_site_occupancy
  Sc  Sc0  1  0.003531  0.996469  0.477404  1
  Sc  Sc1  1  0.003531  0.996469  0.022596  1
  Sc  Sc2  1  0.543020  0.456980  0.250000  1
  Sc  Sc3  1  0.541458  0.084077  0.250000  1
  Sc  Sc4  1  0.915923  0.458542  0.250000  1
  Sc  Sc5  1  0.457515  0.542485  0.750000  1
  Sc  Sc6  1  0.446444  0.916594  0.750000  1
  Sc  Sc7  1  0.083406  0.553556  0.750000  1
  Sc  Sc8  1  0.205503  0.794497  0.440817  1
  Sc  Sc9  1  0.206289  0.413264  0.434813  1
  Sc  Sc10  1  0.586736  0.793711  0.434813  1
  Sc  Sc11  1  0.792312  0.207688  0.552823  1
  Sc  Sc12  1  0.794951  0.586417  0.555538  1
  Sc  Sc13  1  0.413583  0.205049  0.555538  1
  Sc  Sc14  1  0.792312  0.207688  0.947177  1
  Sc  Sc15  1  0.794951  0.586417  0.944462  1
  Sc  Sc16  1  0.413583  0.205049  0.944462  1
  Sc  Sc17  1  0.205503  0.794497  0.059183  1
  Sc  Sc18  1  0.206289  0.413264  0.065187  1
  Sc  Sc19  1  0.586736  0.793711  0.065187  1
  Cd  Cd20  1  0.112866  0.224458  0.750000  1
  Cd  Cd21  1  0.775542  0.887134  0.750000  1
  Ni  Ni22  1  0.331901  0.668099  0.250000  1
  Ni  Ni23  1  0.666598  0.333402  0.750000  1
  Pt  Pt24  1  0.877104  0.122896  0.250000  1
  Pt  Pt25  1  0.874570  0.751497  0.250000  1
  Pt  Pt26  1  0.248503  0.125430  0.250000  1
  Pt  Pt27  1  0.119343  0.880657  0.750000  1
