# generated using pymatgen
data_Nd4Al14Ga4Ir5Pt
_symmetry_space_group_name_H-M   'P 1'
_cell_length_a   7.60982799
_cell_length_b   7.60905584
_cell_length_c   9.66832161
_cell_angle_alpha   89.99391298
_cell_angle_beta   89.96790567
_cell_angle_gamma   119.46842946
_symmetry_Int_Tables_number   1
_chemical_formula_structural   Nd4Al14Ga4Ir5Pt
_chemical_formula_sum   'Nd4 Al14 Ga4 Ir5 Pt1'
_cell_volume   487.40352841
_cell_formula_units_Z   1
loop_
 _symmetry_equiv_pos_site_id
 _symmetry_equiv_pos_as_xyz
  1  'x, y, z'
loop_
 _atom_site_type_symbol
 _atom_site_label
 _atom_site_symmetry_multiplicity
 _atom_site_fract_x
 _atom_site_fract_y
 _atom_site_fract_z
 _atom_site_occupancy
  Nd  Nd0  1  0.998563  0.673079  0.250552  1
  Nd  Nd1  1  0.001437  0.326921  0.749448  1
  Nd  Nd2  1  0.669212  0.993594  0.250526  1
  Nd  Nd3  1  0.330788  0.006406  0.749474  1
  Al  Al4  1  0.002451  0.338057  0.073606  1
  Al  Al5  1  0.997549  0.661943  0.926394  1
  Al  Al6  1  0.998630  0.665693  0.571346  1
  Al  Al7  1  0.335170  0.002858  0.428774  1
  Al  Al8  1  0.001370  0.334307  0.428654  1
  Al  Al9  1  0.664830  0.997142  0.571226  1
  Al  Al10  1  0.661079  0.996353  0.926467  1
  Al  Al11  1  0.338921  0.003647  0.073533  1
  Al  Al12  1  0.334600  0.335308  0.551090  1
  Al  Al13  1  0.665400  0.664692  0.448910  1
  Al  Al14  1  0.662723  0.662105  0.052913  1
  Al  Al15  1  0.337277  0.337895  0.947087  1
  Al  Al16  1  0.548388  0.339391  0.250324  1
  Al  Al17  1  0.451612  0.660609  0.749676  1
  Ga  Ga18  1  0.133602  0.134735  0.253091  1
  Ga  Ga19  1  0.866398  0.865265  0.746909  1
  Ga  Ga20  1  0.338382  0.544687  0.250316  1
  Ga  Ga21  1  0.661618  0.455313  0.749684  1
  Ir  Ir22  1  0.670409  0.329050  0.002257  1
  Ir  Ir23  1  0.329591  0.670950  0.997743  1
  Ir  Ir24  1  0.329675  0.670981  0.502274  1
  Ir  Ir25  1  0.670325  0.329019  0.497726  1
  Ir  Ir26  1  0.000000  0.000000  0.500000  1
  Pt  Pt27  1  0.000000  0.000000  0.000000  1
