# generated using pymatgen
data_La16Dy4Ir7Rh5
_symmetry_space_group_name_H-M   'P 1'
_cell_length_a   11.37026057
_cell_length_b   11.37025981
_cell_length_c   6.60977929
_cell_angle_alpha   90.07057032
_cell_angle_beta   90.07056740
_cell_angle_gamma   90.02988105
_symmetry_Int_Tables_number   1
_chemical_formula_structural   La16Dy4Ir7Rh5
_chemical_formula_sum   'La16 Dy4 Ir7 Rh5'
_cell_volume   854.52947188
_cell_formula_units_Z   1
loop_
 _symmetry_equiv_pos_site_id
 _symmetry_equiv_pos_as_xyz
  1  'x, y, z'
loop_
 _atom_site_type_symbol
 _atom_site_label
 _atom_site_symmetry_multiplicity
 _atom_site_fract_x
 _atom_site_fract_y
 _atom_site_fract_z
 _atom_site_occupancy
  La  La0  1  0.286913  0.088514  0.387501  1
  La  La1  1  0.287646  0.911213  0.887429  1
  La  La2  1  0.711925  0.088116  0.886421  1
  La  La3  1  0.712080  0.909387  0.388063  1
  La  La4  1  0.588518  0.786929  0.887941  1
  La  La5  1  0.587236  0.213083  0.387567  1
  La  La6  1  0.410928  0.787354  0.387865  1
  La  La7  1  0.411155  0.212578  0.887532  1
  La  La8  1  0.213071  0.411482  0.612059  1
  La  La9  1  0.212646  0.589072  0.112135  1
  La  La10  1  0.786917  0.412764  0.112433  1
  La  La11  1  0.787422  0.588845  0.612468  1
  La  La12  1  0.911486  0.713087  0.112499  1
  La  La13  1  0.911884  0.288075  0.613579  1
  La  La14  1  0.088787  0.712354  0.612571  1
  La  La15  1  0.090613  0.287920  0.111937  1
  Dy  Dy16  1  0.000066  0.999456  0.500130  1
  Dy  Dy17  1  0.000544  0.999934  0.999870  1
  Dy  Dy18  1  0.499799  0.499805  0.999852  1
  Dy  Dy19  1  0.500195  0.500201  0.500148  1
  Ir  Ir20  1  0.851030  0.851531  0.749991  1
  Ir  Ir21  1  0.148469  0.148970  0.750009  1
  Ir  Ir22  1  0.149001  0.850999  0.250000  1
  Ir  Ir23  1  0.649504  0.350496  0.750000  1
  Ir  Ir24  1  0.649317  0.649040  0.249993  1
  Ir  Ir25  1  0.350960  0.350683  0.250007  1
  Ir  Ir26  1  0.350878  0.649122  0.750000  1
  Rh  Rh27  1  0.850098  0.149902  0.250000  1
  Rh  Rh28  1  0.500918  0.000213  0.119714  1
  Rh  Rh29  1  0.500298  0.000091  0.619134  1
  Rh  Rh30  1  0.999909  0.499702  0.880866  1
  Rh  Rh31  1  0.999787  0.499082  0.380286  1
