# generated using pymatgen
data_Ho5Ta3(Co4As3)4
_symmetry_space_group_name_H-M   'P 1'
_cell_length_a   12.58512900
_cell_length_b   12.58512938
_cell_length_c   3.81449900
_cell_angle_alpha   90.00000000
_cell_angle_beta   90.00000000
_cell_angle_gamma   120.00000688
_symmetry_Int_Tables_number   1
_chemical_formula_structural   Ho5Ta3(Co4As3)4
_chemical_formula_sum   'Ho5 Ta3 Co16 As12'
_cell_volume   523.21894792
_cell_formula_units_Z   1
loop_
 _symmetry_equiv_pos_site_id
 _symmetry_equiv_pos_as_xyz
  1  'x, y, z'
loop_
 _atom_site_type_symbol
 _atom_site_label
 _atom_site_symmetry_multiplicity
 _atom_site_fract_x
 _atom_site_fract_y
 _atom_site_fract_z
 _atom_site_occupancy
  Ho  Ho0  1  0.182827  0.182827  0.500000  1
  Ho  Ho1  1  0.817173  0.000000  0.500000  1
  Ho  Ho2  1  0.000000  0.817173  0.500000  1
  Ho  Ho3  1  0.333333  0.666667  0.000000  1
  Ho  Ho4  1  0.666667  0.333333  0.000000  1
  Ta  Ta5  1  0.560532  0.560532  0.000000  1
  Ta  Ta6  1  0.439468  0.000000  0.000000  1
  Ta  Ta7  1  0.000000  0.439468  0.000000  1
  Co  Co8  1  0.715839  0.715839  0.500000  1
  Co  Co9  1  0.284161  0.000000  0.500000  1
  Co  Co10  1  0.000000  0.284161  0.500000  1
  Co  Co11  1  0.176229  0.375415  0.000000  1
  Co  Co12  1  0.624585  0.800813  0.000000  1
  Co  Co13  1  0.199187  0.823771  0.000000  1
  Co  Co14  1  0.800813  0.624585  0.000000  1
  Co  Co15  1  0.823771  0.199187  0.000000  1
  Co  Co16  1  0.375415  0.176229  0.000000  1
  Co  Co17  1  0.357403  0.480895  0.500000  1
  Co  Co18  1  0.519105  0.876509  0.500000  1
  Co  Co19  1  0.123491  0.642597  0.500000  1
  Co  Co20  1  0.876509  0.519105  0.500000  1
  Co  Co21  1  0.642597  0.123491  0.500000  1
  Co  Co22  1  0.480895  0.357403  0.500000  1
  Co  Co23  1  0.000000  0.000000  0.000000  1
  As  As24  1  0.823849  0.823849  0.000000  1
  As  As25  1  0.176151  0.000000  0.000000  1
  As  As26  1  0.000000  0.176151  0.000000  1
  As  As27  1  0.171090  0.483262  0.500000  1
  As  As28  1  0.516738  0.687828  0.500000  1
  As  As29  1  0.312172  0.828910  0.500000  1
  As  As30  1  0.687828  0.516738  0.500000  1
  As  As31  1  0.828910  0.312172  0.500000  1
  As  As32  1  0.483262  0.171090  0.500000  1
  As  As33  1  0.354506  0.354506  0.000000  1
  As  As34  1  0.645494  0.000000  0.000000  1
  As  As35  1  0.000000  0.645494  0.000000  1
