# generated using pymatgen
data_Mg3Sc2Co19P12
_symmetry_space_group_name_H-M   'P 1'
_cell_length_a   11.79723100
_cell_length_b   11.79723061
_cell_length_c   3.58367400
_cell_angle_alpha   90.00000000
_cell_angle_beta   90.00000000
_cell_angle_gamma   120.00000390
_symmetry_Int_Tables_number   1
_chemical_formula_structural   Mg3Sc2Co19P12
_chemical_formula_sum   'Mg3 Sc2 Co19 P12'
_cell_volume   431.93586143
_cell_formula_units_Z   1
loop_
 _symmetry_equiv_pos_site_id
 _symmetry_equiv_pos_as_xyz
  1  'x, y, z'
loop_
 _atom_site_type_symbol
 _atom_site_label
 _atom_site_symmetry_multiplicity
 _atom_site_fract_x
 _atom_site_fract_y
 _atom_site_fract_z
 _atom_site_occupancy
  Mg  Mg0  1  0.817151  0.000000  0.000000  1
  Mg  Mg1  1  0.000000  0.817151  0.000000  1
  Mg  Mg2  1  0.182849  0.182849  0.000000  1
  Sc  Sc3  1  0.333333  0.666667  0.500000  1
  Sc  Sc4  1  0.666667  0.333333  0.500000  1
  Co  Co5  1  0.625129  0.804087  0.500000  1
  Co  Co6  1  0.195913  0.821043  0.500000  1
  Co  Co7  1  0.178957  0.374871  0.500000  1
  Co  Co8  1  0.374871  0.178957  0.500000  1
  Co  Co9  1  0.804087  0.625129  0.500000  1
  Co  Co10  1  0.821043  0.195913  0.500000  1
  Co  Co11  1  0.283510  0.000000  0.000000  1
  Co  Co12  1  0.000000  0.283510  0.000000  1
  Co  Co13  1  0.716490  0.716490  0.000000  1
  Co  Co14  1  0.449274  0.000000  0.500000  1
  Co  Co15  1  0.000000  0.449274  0.500000  1
  Co  Co16  1  0.550726  0.550726  0.500000  1
  Co  Co17  1  0.516766  0.872640  0.000000  1
  Co  Co18  1  0.127360  0.644126  0.000000  1
  Co  Co19  1  0.355874  0.483234  0.000000  1
  Co  Co20  1  0.483234  0.355874  0.000000  1
  Co  Co21  1  0.872640  0.516766  0.000000  1
  Co  Co22  1  0.644126  0.127360  0.000000  1
  Co  Co23  1  0.000000  0.000000  0.500000  1
  P  P24  1  0.177944  0.000000  0.500000  1
  P  P25  1  0.000000  0.177944  0.500000  1
  P  P26  1  0.822056  0.822056  0.500000  1
  P  P27  1  0.517224  0.683210  0.000000  1
  P  P28  1  0.316790  0.834014  0.000000  1
  P  P29  1  0.165986  0.482776  0.000000  1
  P  P30  1  0.482776  0.165986  0.000000  1
  P  P31  1  0.683210  0.517224  0.000000  1
  P  P32  1  0.834014  0.316790  0.000000  1
  P  P33  1  0.636164  0.000000  0.500000  1
  P  P34  1  0.000000  0.636164  0.500000  1
  P  P35  1  0.363836  0.363836  0.500000  1
