# generated using pymatgen
data_YbInRh2O7
_symmetry_space_group_name_H-M   'P 1'
_cell_length_a   7.06500935
_cell_length_b   7.17431390
_cell_length_c   7.17431359
_cell_angle_alpha   60.85798109
_cell_angle_beta   60.50271559
_cell_angle_gamma   60.50272159
_symmetry_Int_Tables_number   1
_chemical_formula_structural   YbInRh2O7
_chemical_formula_sum   'Yb2 In2 Rh4 O14'
_cell_volume   260.73350348
_cell_formula_units_Z   2
loop_
 _symmetry_equiv_pos_site_id
 _symmetry_equiv_pos_as_xyz
  1  'x, y, z'
loop_
 _atom_site_type_symbol
 _atom_site_label
 _atom_site_symmetry_multiplicity
 _atom_site_fract_x
 _atom_site_fract_y
 _atom_site_fract_z
 _atom_site_occupancy
  Yb  Yb0  1  0.125000  0.625000  0.125000  1
  Yb  Yb1  1  0.125000  0.125000  0.625000  1
  In  In2  1  0.125000  0.125000  0.125000  1
  In  In3  1  0.625000  0.125000  0.125000  1
  Rh  Rh4  1  0.625000  0.625000  0.125000  1
  Rh  Rh5  1  0.625000  0.125000  0.625000  1
  Rh  Rh6  1  0.125000  0.625000  0.625000  1
  Rh  Rh7  1  0.625000  0.625000  0.625000  1
  O  O8  1  0.263028  0.236972  0.236972  1
  O  O9  1  0.704725  0.295275  0.295275  1
  O  O10  1  0.698507  0.293836  0.714348  1
  O  O11  1  0.293310  0.714348  0.293836  1
  O  O12  1  0.698507  0.714348  0.293836  1
  O  O13  1  0.293310  0.293836  0.714348  1
  O  O14  1  0.959027  0.540973  0.540973  1
  O  O15  1  0.290973  0.709027  0.709027  1
  O  O16  1  0.956690  0.956164  0.535652  1
  O  O17  1  0.551493  0.956164  0.535652  1
  O  O18  1  0.551493  0.535652  0.956164  1
  O  O19  1  0.956690  0.535652  0.956164  1
  O  O20  1  0.545275  0.954725  0.954725  1
  O  O21  1  0.986972  0.013028  0.013028  1
