# generated using pymatgen
data_Mg3TiAl2(B2Rh5)2
_symmetry_space_group_name_H-M   'P 1'
_cell_length_a   2.94287100
_cell_length_b   9.37793170
_cell_length_c   9.37793170
_cell_angle_alpha   90.20969516
_cell_angle_beta   90.00000000
_cell_angle_gamma   90.00000000
_symmetry_Int_Tables_number   1
_chemical_formula_structural   Mg3TiAl2(B2Rh5)2
_chemical_formula_sum   'Mg3 Ti1 Al2 B4 Rh10'
_cell_volume   258.81083130
_cell_formula_units_Z   1
loop_
 _symmetry_equiv_pos_site_id
 _symmetry_equiv_pos_as_xyz
  1  'x, y, z'
loop_
 _atom_site_type_symbol
 _atom_site_label
 _atom_site_symmetry_multiplicity
 _atom_site_fract_x
 _atom_site_fract_y
 _atom_site_fract_z
 _atom_site_occupancy
  Mg  Mg0  1  0.000000  0.823214  0.176785  1
  Mg  Mg1  1  0.000000  0.324837  0.323509  1
  Mg  Mg2  1  0.000000  0.676490  0.675162  1
  Ti  Ti3  1  0.000000  0.175228  0.824771  1
  Al  Al4  1  0.000000  0.501353  0.000762  1
  Al  Al5  1  0.000000  0.999238  0.498649  1
  B  B6  1  0.000000  0.127410  0.127351  1
  B  B7  1  0.000000  0.626235  0.373767  1
  B  B8  1  0.000000  0.375417  0.624585  1
  B  B9  1  0.000000  0.872649  0.872590  1
  Rh  Rh10  1  0.499999  0.002592  0.997408  1
  Rh  Rh11  1  0.499999  0.283467  0.063250  1
  Rh  Rh12  1  0.499999  0.570021  0.214613  1
  Rh  Rh13  1  0.499999  0.071693  0.284700  1
  Rh  Rh14  1  0.499999  0.785388  0.429980  1
  Rh  Rh15  1  0.499999  0.498717  0.501283  1
  Rh  Rh16  1  0.499999  0.212375  0.578372  1
  Rh  Rh17  1  0.499999  0.936751  0.716534  1
  Rh  Rh18  1  0.499999  0.421629  0.787626  1
  Rh  Rh19  1  0.499999  0.715301  0.928308  1
