# generated using pymatgen
data_Dy7Ho3In8(RuPt)2
_symmetry_space_group_name_H-M   'P 1'
_cell_length_a   3.62652600
_cell_length_b   8.08387092
_cell_length_c   18.29874913
_cell_angle_alpha   89.95032580
_cell_angle_beta   90.00000000
_cell_angle_gamma   90.00000000
_symmetry_Int_Tables_number   1
_chemical_formula_structural   Dy7Ho3In8(RuPt)2
_chemical_formula_sum   'Dy7 Ho3 In8 Ru2 Pt2'
_cell_volume   536.45266305
_cell_formula_units_Z   1
loop_
 _symmetry_equiv_pos_site_id
 _symmetry_equiv_pos_as_xyz
  1  'x, y, z'
loop_
 _atom_site_type_symbol
 _atom_site_label
 _atom_site_symmetry_multiplicity
 _atom_site_fract_x
 _atom_site_fract_y
 _atom_site_fract_z
 _atom_site_occupancy
  Dy  Dy0  1  0.000000  0.618757  0.086522  1
  Dy  Dy1  1  0.000000  0.235297  0.222503  1
  Dy  Dy2  1  0.000000  0.764711  0.777531  1
  Dy  Dy3  1  0.000000  0.247857  0.720551  1
  Dy  Dy4  1  0.000000  0.752087  0.279514  1
  Dy  Dy5  1  0.000000  0.000081  0.999961  1
  Dy  Dy6  1  0.000000  0.499988  0.500002  1
  Ho  Ho7  1  0.000000  0.115846  0.412262  1
  Ho  Ho8  1  0.000000  0.884188  0.587827  1
  Ho  Ho9  1  0.000000  0.381501  0.913130  1
  In  In10  1  0.500000  0.424561  0.351574  1
  In  In11  1  0.500000  0.575439  0.648437  1
  In  In12  1  0.500000  0.068066  0.849817  1
  In  In13  1  0.500000  0.932518  0.150229  1
  In  In14  1  0.500000  0.292475  0.066159  1
  In  In15  1  0.500000  0.707103  0.933652  1
  In  In16  1  0.500000  0.205695  0.568596  1
  In  In17  1  0.500000  0.794286  0.431382  1
  Ru  Ru18  1  0.500000  0.020141  0.304299  1
  Ru  Ru19  1  0.500000  0.979787  0.695719  1
  Pt  Pt20  1  0.500000  0.477810  0.803529  1
  Pt  Pt21  1  0.500000  0.521807  0.196800  1
