# generated using pymatgen
data_Yb3PrHo2(CoSn6)2
_symmetry_space_group_name_H-M   'P 1'
_cell_length_a   8.41427788
_cell_length_b   8.41427802
_cell_length_c   13.30606909
_cell_angle_alpha   90.15886383
_cell_angle_beta   89.84113527
_cell_angle_gamma   147.90857135
_symmetry_Int_Tables_number   1
_chemical_formula_structural   Yb3PrHo2(CoSn6)2
_chemical_formula_sum   'Yb3 Pr1 Ho2 Co2 Sn12'
_cell_volume   500.49353925
_cell_formula_units_Z   1
loop_
 _symmetry_equiv_pos_site_id
 _symmetry_equiv_pos_as_xyz
  1  'x, y, z'
loop_
 _atom_site_type_symbol
 _atom_site_label
 _atom_site_symmetry_multiplicity
 _atom_site_fract_x
 _atom_site_fract_y
 _atom_site_fract_z
 _atom_site_occupancy
  Yb  Yb0  1  0.100830  0.899170  0.597604  1
  Yb  Yb1  1  0.100491  0.899509  0.902158  1
  Yb  Yb2  1  0.899867  0.100133  0.403508  1
  Pr  Pr3  1  0.899954  0.100046  0.093349  1
  Ho  Ho4  1  0.900611  0.099389  0.753509  1
  Ho  Ho5  1  0.099645  0.900355  0.249647  1
  Co  Co6  1  0.298156  0.701844  0.250755  1
  Co  Co7  1  0.702948  0.297052  0.748746  1
  Sn  Sn8  1  0.758897  0.241103  0.572110  1
  Sn  Sn9  1  0.425494  0.574506  0.579206  1
  Sn  Sn10  1  0.574258  0.425742  0.423588  1
  Sn  Sn11  1  0.732413  0.267587  0.249731  1
  Sn  Sn12  1  0.267286  0.732714  0.749672  1
  Sn  Sn13  1  0.240114  0.759886  0.072827  1
  Sn  Sn14  1  0.242475  0.757525  0.427913  1
  Sn  Sn15  1  0.573009  0.426991  0.077015  1
  Sn  Sn16  1  0.455938  0.544062  0.252389  1
  Sn  Sn17  1  0.545538  0.454462  0.748526  1
  Sn  Sn18  1  0.754834  0.245166  0.927576  1
  Sn  Sn19  1  0.427241  0.572759  0.920170  1
