# generated using pymatgen
data_Er6TlTcNi
_symmetry_space_group_name_H-M   'P 1'
_cell_length_a   8.40147734
_cell_length_b   8.40147660
_cell_length_c   8.40147600
_cell_angle_alpha   113.71349740
_cell_angle_beta   110.93689735
_cell_angle_gamma   103.91587801
_symmetry_Int_Tables_number   1
_chemical_formula_structural   Er6TlTcNi
_chemical_formula_sum   'Er12 Tl2 Tc2 Ni2'
_cell_volume   453.03173129
_cell_formula_units_Z   2
loop_
 _symmetry_equiv_pos_site_id
 _symmetry_equiv_pos_as_xyz
  1  'x, y, z'
loop_
 _atom_site_type_symbol
 _atom_site_label
 _atom_site_symmetry_multiplicity
 _atom_site_fract_x
 _atom_site_fract_y
 _atom_site_fract_z
 _atom_site_occupancy
  Er  Er0  1  0.441730  0.242008  0.199719  1
  Er  Er1  1  0.558270  0.757992  0.800281  1
  Er  Er2  1  0.042289  0.242008  0.800276  1
  Er  Er3  1  0.957711  0.757992  0.199724  1
  Er  Er4  1  0.183806  0.288107  0.471928  1
  Er  Er5  1  0.816194  0.711893  0.528072  1
  Er  Er6  1  0.183823  0.711893  0.895700  1
  Er  Er7  1  0.816177  0.288107  0.104300  1
  Er  Er8  1  0.332571  0.650040  0.317468  1
  Er  Er9  1  0.667429  0.349960  0.682532  1
  Er  Er10  1  0.332570  0.015103  0.682534  1
  Er  Er11  1  0.667430  0.984897  0.317466  1
  Tl  Tl12  1  0.500000  0.500000  0.000000  1
  Tl  Tl13  1  0.000000  0.000000  0.000000  1
  Tc  Tc14  1  0.323622  0.000000  0.323622  1
  Tc  Tc15  1  0.676378  0.000000  0.676378  1
  Ni  Ni16  1  0.117682  0.617664  0.499981  1
  Ni  Ni17  1  0.882318  0.382336  0.500019  1
