# generated using pymatgen
data_SrMg2In7Ir2
_symmetry_space_group_name_H-M   'P 1'
_cell_length_a   9.16171700
_cell_length_b   9.10443509
_cell_length_c   4.00260800
_cell_angle_alpha   90.00000000
_cell_angle_beta   90.00000000
_cell_angle_gamma   120.20834159
_symmetry_Int_Tables_number   1
_chemical_formula_structural   SrMg2In7Ir2
_chemical_formula_sum   'Sr1 Mg2 In7 Ir2'
_cell_volume   288.52801045
_cell_formula_units_Z   1
loop_
 _symmetry_equiv_pos_site_id
 _symmetry_equiv_pos_as_xyz
  1  'x, y, z'
loop_
 _atom_site_type_symbol
 _atom_site_label
 _atom_site_symmetry_multiplicity
 _atom_site_fract_x
 _atom_site_fract_y
 _atom_site_fract_z
 _atom_site_occupancy
  Sr  Sr0  1  0.000000  0.000000  0.000000  1
  Mg  Mg1  1  0.000000  0.500000  0.000000  1
  Mg  Mg2  1  0.500000  0.500000  0.000000  1
  In  In3  1  0.593023  0.788730  0.500000  1
  In  In4  1  0.195708  0.788730  0.500000  1
  In  In5  1  0.204635  0.409270  0.500000  1
  In  In6  1  0.795365  0.590730  0.500000  1
  In  In7  1  0.804292  0.211270  0.500000  1
  In  In8  1  0.406977  0.211270  0.500000  1
  In  In9  1  0.500000  0.000000  0.000000  1
  Ir  Ir10  1  0.332639  0.665280  0.000000  1
  Ir  Ir11  1  0.667361  0.334720  0.000000  1
