# generated using pymatgen
data_PrGd(HoB5)2
_symmetry_space_group_name_H-M   'P 1'
_cell_length_a   7.12793300
_cell_length_b   7.11640014
_cell_length_c   7.14817200
_cell_angle_alpha   76.68589377
_cell_angle_beta   90.00000000
_cell_angle_gamma   90.00000000
_symmetry_Int_Tables_number   1
_chemical_formula_structural   PrGd(HoB5)2
_chemical_formula_sum   'Pr2 Gd2 Ho4 B20'
_cell_volume   352.84693165
_cell_formula_units_Z   2
loop_
 _symmetry_equiv_pos_site_id
 _symmetry_equiv_pos_as_xyz
  1  'x, y, z'
loop_
 _atom_site_type_symbol
 _atom_site_label
 _atom_site_symmetry_multiplicity
 _atom_site_fract_x
 _atom_site_fract_y
 _atom_site_fract_z
 _atom_site_occupancy
  Pr  Pr0  1  0.687027  0.783321  0.619498  1
  Pr  Pr1  1  0.187027  0.216679  0.880502  1
  Gd  Gd2  1  0.308367  0.228858  0.375414  1
  Gd  Gd3  1  0.808367  0.771142  0.124586  1
  Ho  Ho4  1  0.315190  0.753272  0.254353  1
  Ho  Ho5  1  0.815190  0.246728  0.245647  1
  Ho  Ho6  1  0.684027  0.248409  0.746539  1
  Ho  Ho7  1  0.184027  0.751591  0.753461  1
  B  B8  1  0.504748  0.313322  0.043319  1
  B  B9  1  0.004748  0.686678  0.456681  1
  B  B10  1  0.496298  0.685301  0.961312  1
  B  B11  1  0.996298  0.314699  0.538688  1
  B  B12  1  0.488966  0.924908  0.930322  1
  B  B13  1  0.988966  0.075092  0.569678  1
  B  B14  1  0.519191  0.071767  0.080394  1
  B  B15  1  0.019191  0.928233  0.419606  1
  B  B16  1  0.326216  0.495883  0.041364  1
  B  B17  1  0.826216  0.504117  0.458636  1
  B  B18  1  0.672856  0.504177  0.960723  1
  B  B19  1  0.172856  0.495823  0.539277  1
  B  B20  1  0.909737  0.500696  0.910237  1
  B  B21  1  0.409737  0.499304  0.589763  1
  B  B22  1  0.088750  0.502442  0.089025  1
  B  B23  1  0.588750  0.497558  0.410975  1
  B  B24  1  0.960560  0.498072  0.672429  1
  B  B25  1  0.460560  0.501928  0.827571  1
  B  B26  1  0.038070  0.503777  0.325059  1
  B  B27  1  0.538070  0.496223  0.174941  1
