# generated using pymatgen
data_LiPr16Co4Hg3
_symmetry_space_group_name_H-M   'P 1'
_cell_length_a   9.89617916
_cell_length_b   9.89617883
_cell_length_c   9.89617871
_cell_angle_alpha   60.17809889
_cell_angle_beta   60.17809746
_cell_angle_gamma   60.17809896
_symmetry_Int_Tables_number   1
_chemical_formula_structural   LiPr16Co4Hg3
_chemical_formula_sum   'Li1 Pr16 Co4 Hg3'
_cell_volume   688.07498083
_cell_formula_units_Z   1
loop_
 _symmetry_equiv_pos_site_id
 _symmetry_equiv_pos_as_xyz
  1  'x, y, z'
loop_
 _atom_site_type_symbol
 _atom_site_label
 _atom_site_symmetry_multiplicity
 _atom_site_fract_x
 _atom_site_fract_y
 _atom_site_fract_z
 _atom_site_occupancy
  Li  Li0  1  0.683746  0.683746  0.683746  1
  Pr  Pr1  1  0.288278  0.903774  0.903774  1
  Pr  Pr2  1  0.688482  0.688482  0.312188  1
  Pr  Pr3  1  0.903774  0.903774  0.288278  1
  Pr  Pr4  1  0.310698  0.689034  0.310698  1
  Pr  Pr5  1  0.689034  0.310698  0.310698  1
  Pr  Pr6  1  0.062731  0.437694  0.437694  1
  Pr  Pr7  1  0.440404  0.058300  0.058300  1
  Pr  Pr8  1  0.058300  0.058300  0.440404  1
  Pr  Pr9  1  0.310698  0.310698  0.689034  1
  Pr  Pr10  1  0.437694  0.062731  0.437694  1
  Pr  Pr11  1  0.902329  0.902329  0.902329  1
  Pr  Pr12  1  0.437694  0.437694  0.062731  1
  Pr  Pr13  1  0.312188  0.688482  0.688482  1
  Pr  Pr14  1  0.688482  0.312188  0.688482  1
  Pr  Pr15  1  0.058300  0.440404  0.058300  1
  Pr  Pr16  1  0.903774  0.288278  0.903774  1
  Co  Co17  1  0.108511  0.108511  0.108511  1
  Co  Co18  1  0.108072  0.108072  0.670990  1
  Co  Co19  1  0.670990  0.108072  0.108072  1
  Co  Co20  1  0.108072  0.670990  0.108072  1
  Hg  Hg21  1  0.664363  0.664363  0.999024  1
  Hg  Hg22  1  0.999024  0.664363  0.664363  1
  Hg  Hg23  1  0.664363  0.999024  0.664363  1
