# generated using pymatgen
data_K3Ho(VS4)2
_symmetry_space_group_name_H-M   'P 1'
_cell_length_a   8.73991336
_cell_length_b   9.88709533
_cell_length_c   10.55792500
_cell_angle_alpha   107.39426228
_cell_angle_beta   102.85524203
_cell_angle_gamma   114.13484349
_symmetry_Int_Tables_number   1
_chemical_formula_structural   K3Ho(VS4)2
_chemical_formula_sum   'K6 Ho2 V4 S16'
_cell_volume   729.61247943
_cell_formula_units_Z   2
loop_
 _symmetry_equiv_pos_site_id
 _symmetry_equiv_pos_as_xyz
  1  'x, y, z'
loop_
 _atom_site_type_symbol
 _atom_site_label
 _atom_site_symmetry_multiplicity
 _atom_site_fract_x
 _atom_site_fract_y
 _atom_site_fract_z
 _atom_site_occupancy
  K  K0  1  0.000018  0.500024  0.999967  1
  K  K1  1  0.499982  0.500046  0.000003  1
  K  K2  1  0.756080  0.006013  0.012255  1
  K  K3  1  0.987256  0.737294  0.474714  1
  K  K4  1  0.012640  0.262645  0.525318  1
  K  K5  1  0.243857  0.993881  0.987694  1
  Ho  Ho6  1  0.491966  0.241945  0.483886  1
  Ho  Ho7  1  0.508053  0.758058  0.516126  1
  V  V8  1  0.245691  0.345632  0.251009  1
  V  V9  1  0.505321  0.905405  0.251020  1
  V  V10  1  0.494731  0.094640  0.749005  1
  V  V11  1  0.754299  0.654380  0.749021  1
  S  S12  1  0.142152  0.267722  0.023786  1
  S  S13  1  0.381596  0.756071  0.023797  1
  S  S14  1  0.153332  0.127816  0.290431  1
  S  S15  1  0.637083  0.162673  0.290449  1
  S  S16  1  0.538747  0.479078  0.344761  1
  S  S17  1  0.306013  0.865670  0.344750  1
  S  S18  1  0.148819  0.499241  0.352799  1
  S  S19  1  0.704000  0.853586  0.352843  1
  S  S20  1  0.295991  0.146394  0.647126  1
  S  S21  1  0.851164  0.500776  0.647239  1
  S  S22  1  0.694046  0.134339  0.655226  1
  S  S23  1  0.461284  0.520926  0.655250  1
  S  S24  1  0.362939  0.837348  0.709535  1
  S  S25  1  0.846676  0.872197  0.709577  1
  S  S26  1  0.618406  0.243919  0.976172  1
  S  S27  1  0.857860  0.732287  0.976240  1
