# generated using pymatgen
data_Yb11Sm(AgGe)12
_symmetry_space_group_name_H-M   'P 1'
_cell_length_a   4.56322700
_cell_length_b   7.86121938
_cell_length_c   21.33621200
_cell_angle_alpha   89.98217255
_cell_angle_beta   90.00000000
_cell_angle_gamma   90.00000000
_symmetry_Int_Tables_number   1
_chemical_formula_structural   Yb11Sm(AgGe)12
_chemical_formula_sum   'Yb11 Sm1 Ag12 Ge12'
_cell_volume   765.38383665
_cell_formula_units_Z   1
loop_
 _symmetry_equiv_pos_site_id
 _symmetry_equiv_pos_as_xyz
  1  'x, y, z'
loop_
 _atom_site_type_symbol
 _atom_site_label
 _atom_site_symmetry_multiplicity
 _atom_site_fract_x
 _atom_site_fract_y
 _atom_site_fract_z
 _atom_site_occupancy
  Yb  Yb0  1  0.250000  0.225117  0.001130  1
  Yb  Yb1  1  0.250000  0.277259  0.499721  1
  Yb  Yb2  1  0.750000  0.772218  0.001556  1
  Yb  Yb3  1  0.750000  0.722257  0.499632  1
  Yb  Yb4  1  0.250000  0.211214  0.333872  1
  Yb  Yb5  1  0.250000  0.285396  0.833390  1
  Yb  Yb6  1  0.750000  0.786756  0.665233  1
  Yb  Yb7  1  0.750000  0.710638  0.166268  1
  Yb  Yb8  1  0.250000  0.214512  0.665904  1
  Yb  Yb9  1  0.250000  0.286948  0.167017  1
  Yb  Yb10  1  0.750000  0.787576  0.333067  1
  Sm  Sm11  1  0.750000  0.713492  0.833837  1
  Ag  Ag12  1  0.250000  0.915398  0.760657  1
  Ag  Ag13  1  0.250000  0.586607  0.261859  1
  Ag  Ag14  1  0.750000  0.087166  0.238407  1
  Ag  Ag15  1  0.750000  0.410482  0.737743  1
  Ag  Ag16  1  0.250000  0.924142  0.907736  1
  Ag  Ag17  1  0.250000  0.581592  0.405991  1
  Ag  Ag18  1  0.750000  0.081003  0.093704  1
  Ag  Ag19  1  0.750000  0.418763  0.593863  1
  Ag  Ag20  1  0.250000  0.917000  0.565638  1
  Ag  Ag21  1  0.250000  0.581817  0.069209  1
  Ag  Ag22  1  0.750000  0.082705  0.434350  1
  Ag  Ag23  1  0.750000  0.417756  0.938633  1
  Ge  Ge24  1  0.250000  0.582701  0.730364  1
  Ge  Ge25  1  0.250000  0.917842  0.228055  1
  Ge  Ge26  1  0.750000  0.417473  0.271986  1
  Ge  Ge27  1  0.750000  0.080826  0.771185  1
  Ge  Ge28  1  0.250000  0.911636  0.102171  1
  Ge  Ge29  1  0.250000  0.586778  0.602848  1
  Ge  Ge30  1  0.750000  0.089876  0.897401  1
  Ge  Ge31  1  0.750000  0.413120  0.398045  1
  Ge  Ge32  1  0.250000  0.591623  0.916343  1
  Ge  Ge33  1  0.250000  0.910529  0.427345  1
  Ge  Ge34  1  0.750000  0.410063  0.072729  1
  Ge  Ge35  1  0.750000  0.089714  0.573113  1
