# generated using pymatgen
data_Y6CuRh17
_symmetry_space_group_name_H-M   'P 1'
_cell_length_a   5.28765314
_cell_length_b   5.28971803
_cell_length_c   17.38686100
_cell_angle_alpha   90.00000000
_cell_angle_beta   90.00000000
_cell_angle_gamma   119.96038851
_symmetry_Int_Tables_number   1
_chemical_formula_structural   Y6CuRh17
_chemical_formula_sum   'Y6 Cu1 Rh17'
_cell_volume   421.32817912
_cell_formula_units_Z   1
loop_
 _symmetry_equiv_pos_site_id
 _symmetry_equiv_pos_as_xyz
  1  'x, y, z'
loop_
 _atom_site_type_symbol
 _atom_site_label
 _atom_site_symmetry_multiplicity
 _atom_site_fract_x
 _atom_site_fract_y
 _atom_site_fract_z
 _atom_site_occupancy
  Y  Y0  1  0.333334  0.666689  0.957719  1
  Y  Y1  1  0.666662  0.333327  0.041960  1
  Y  Y2  1  0.666662  0.333327  0.458040  1
  Y  Y3  1  0.333334  0.666689  0.542281  1
  Y  Y4  1  0.333327  0.666648  0.750000  1
  Y  Y5  1  0.666674  0.333318  0.250000  1
  Cu  Cu6  1  0.333366  0.666689  0.250000  1
  Rh  Rh7  1  0.168689  0.831319  0.373396  1
  Rh  Rh8  1  0.168678  0.337336  0.373395  1
  Rh  Rh9  1  0.662620  0.831300  0.373407  1
  Rh  Rh10  1  0.832924  0.167049  0.625126  1
  Rh  Rh11  1  0.832922  0.665878  0.625120  1
  Rh  Rh12  1  0.334112  0.167059  0.625118  1
  Rh  Rh13  1  0.832924  0.167049  0.874874  1
  Rh  Rh14  1  0.832922  0.665878  0.874880  1
  Rh  Rh15  1  0.334112  0.167059  0.874882  1
  Rh  Rh16  1  0.168689  0.831319  0.126604  1
  Rh  Rh17  1  0.168678  0.337336  0.126605  1
  Rh  Rh18  1  0.662620  0.831300  0.126593  1
  Rh  Rh19  1  0.666694  0.333327  0.750000  1
  Rh  Rh20  1  0.000003  0.999986  0.250000  1
  Rh  Rh21  1  0.000013  0.000037  0.750000  1
  Rh  Rh22  1  0.000019  0.000040  0.497999  1
  Rh  Rh23  1  0.000019  0.000040  0.002001  1
