# generated using pymatgen
data_Nd6Ho3Tm7(CdIr)4
_symmetry_space_group_name_H-M   'P 1'
_cell_length_a   9.67885217
_cell_length_b   9.67838451
_cell_length_c   9.67838400
_cell_angle_alpha   60.00000174
_cell_angle_beta   60.00160006
_cell_angle_gamma   60.00159994
_symmetry_Int_Tables_number   1
_chemical_formula_structural   Nd6Ho3Tm7(CdIr)4
_chemical_formula_sum   'Nd6 Ho3 Tm7 Cd4 Ir4'
_cell_volume   641.09898365
_cell_formula_units_Z   1
loop_
 _symmetry_equiv_pos_site_id
 _symmetry_equiv_pos_as_xyz
  1  'x, y, z'
loop_
 _atom_site_type_symbol
 _atom_site_label
 _atom_site_symmetry_multiplicity
 _atom_site_fract_x
 _atom_site_fract_y
 _atom_site_fract_z
 _atom_site_occupancy
  Nd  Nd0  1  0.940624  0.559289  0.559289  1
  Nd  Nd1  1  0.559486  0.940555  0.940555  1
  Nd  Nd2  1  0.559486  0.940555  0.559404  1
  Nd  Nd3  1  0.940624  0.559289  0.940799  1
  Nd  Nd4  1  0.559486  0.559404  0.940555  1
  Nd  Nd5  1  0.940624  0.940799  0.559289  1
  Ho  Ho6  1  0.347238  0.347314  0.347314  1
  Ho  Ho7  1  0.347238  0.347314  0.958136  1
  Ho  Ho8  1  0.347238  0.958136  0.347314  1
  Tm  Tm9  1  0.959089  0.346971  0.346971  1
  Tm  Tm10  1  0.813926  0.186183  0.186183  1
  Tm  Tm11  1  0.186085  0.813921  0.813921  1
  Tm  Tm12  1  0.186085  0.813921  0.186072  1
  Tm  Tm13  1  0.813926  0.186183  0.813708  1
  Tm  Tm14  1  0.186085  0.186072  0.813921  1
  Tm  Tm15  1  0.813926  0.813708  0.186183  1
  Cd  Cd16  1  0.579335  0.579156  0.579156  1
  Cd  Cd17  1  0.579335  0.579156  0.262351  1
  Cd  Cd18  1  0.579335  0.262351  0.579156  1
  Cd  Cd19  1  0.262244  0.579251  0.579251  1
  Ir  Ir20  1  0.140501  0.141427  0.141427  1
  Ir  Ir21  1  0.140501  0.141427  0.576645  1
  Ir  Ir22  1  0.140501  0.576645  0.141427  1
  Ir  Ir23  1  0.577080  0.140973  0.140973  1
