# generated using pymatgen
data_Tm4Sc4Co(B8Ir)3
_symmetry_space_group_name_H-M   'P 1'
_cell_length_a   3.51154600
_cell_length_b   8.97066639
_cell_length_c   11.32297601
_cell_angle_alpha   89.91642798
_cell_angle_beta   90.00000000
_cell_angle_gamma   90.00000000
_symmetry_Int_Tables_number   1
_chemical_formula_structural   Tm4Sc4Co(B8Ir)3
_chemical_formula_sum   'Tm4 Sc4 Co1 B24 Ir3'
_cell_volume   356.68364238
_cell_formula_units_Z   1
loop_
 _symmetry_equiv_pos_site_id
 _symmetry_equiv_pos_as_xyz
  1  'x, y, z'
loop_
 _atom_site_type_symbol
 _atom_site_label
 _atom_site_symmetry_multiplicity
 _atom_site_fract_x
 _atom_site_fract_y
 _atom_site_fract_z
 _atom_site_occupancy
  Tm  Tm0  1  0.500000  0.317155  0.410985  1
  Tm  Tm1  1  0.500000  0.680806  0.585657  1
  Tm  Tm2  1  0.500000  0.179369  0.917926  1
  Tm  Tm3  1  0.500000  0.823621  0.087307  1
  Sc  Sc4  1  0.500000  0.440499  0.125556  1
  Sc  Sc5  1  0.500000  0.554946  0.876529  1
  Sc  Sc6  1  0.500000  0.055147  0.623801  1
  Sc  Sc7  1  0.500000  0.947882  0.372241  1
  Co  Co8  1  0.500000  0.141525  0.181918  1
  B  B9  1  0.000000  0.101283  0.471742  1
  B  B10  1  0.000000  0.899802  0.526421  1
  B  B11  1  0.000000  0.397779  0.973556  1
  B  B12  1  0.000000  0.600548  0.027764  1
  B  B13  1  0.000000  0.130526  0.316046  1
  B  B14  1  0.000000  0.869624  0.680777  1
  B  B15  1  0.000000  0.369656  0.819569  1
  B  B16  1  0.000000  0.630112  0.181625  1
  B  B17  1  0.000000  0.055076  0.067455  1
  B  B18  1  0.000000  0.946246  0.935650  1
  B  B19  1  0.000000  0.445479  0.565063  1
  B  B20  1  0.000000  0.554100  0.434115  1
  B  B21  1  0.000000  0.480011  0.285227  1
  B  B22  1  0.000000  0.518802  0.714934  1
  B  B23  1  0.000000  0.019072  0.785981  1
  B  B24  1  0.000000  0.984495  0.213021  1
  B  B25  1  0.000000  0.250985  0.082333  1
  B  B26  1  0.000000  0.746616  0.921111  1
  B  B27  1  0.000000  0.245945  0.579106  1
  B  B28  1  0.000000  0.755032  0.419257  1
  B  B29  1  0.000000  0.293220  0.234920  1
  B  B30  1  0.000000  0.704474  0.764004  1
  B  B31  1  0.000000  0.204300  0.736090  1
  B  B32  1  0.000000  0.796859  0.263830  1
  Ir  Ir33  1  0.500000  0.858841  0.818056  1
  Ir  Ir34  1  0.500000  0.359527  0.680796  1
  Ir  Ir35  1  0.500000  0.640642  0.319631  1
