# generated using pymatgen
data_Y6AlCoOs
_symmetry_space_group_name_H-M   'P 1'
_cell_length_a   8.40256220
_cell_length_b   8.40257349
_cell_length_c   8.40256106
_cell_angle_alpha   112.40643108
_cell_angle_beta   110.69433274
_cell_angle_gamma   105.39325514
_symmetry_Int_Tables_number   1
_chemical_formula_structural   Y6AlCoOs
_chemical_formula_sum   'Y12 Al2 Co2 Os2'
_cell_volume   454.85356890
_cell_formula_units_Z   2
loop_
 _symmetry_equiv_pos_site_id
 _symmetry_equiv_pos_as_xyz
  1  'x, y, z'
loop_
 _atom_site_type_symbol
 _atom_site_label
 _atom_site_symmetry_multiplicity
 _atom_site_fract_x
 _atom_site_fract_y
 _atom_site_fract_z
 _atom_site_occupancy
  Y  Y0  1  0.051268  0.743622  0.307648  1
  Y  Y1  1  0.948732  0.256378  0.692352  1
  Y  Y2  1  0.564026  0.256378  0.307647  1
  Y  Y3  1  0.435974  0.743622  0.692353  1
  Y  Y4  1  0.675241  0.858655  0.183414  1
  Y  Y5  1  0.324760  0.508174  0.183415  1
  Y  Y6  1  0.324759  0.141345  0.816586  1
  Y  Y7  1  0.675240  0.491826  0.816585  1
  Y  Y8  1  0.182031  0.219274  0.401305  1
  Y  Y9  1  0.817969  0.219274  0.037243  1
  Y  Y10  1  0.182031  0.780726  0.962757  1
  Y  Y11  1  0.817969  0.780726  0.598695  1
  Al  Al12  1  0.000000  0.500000  0.500000  1
  Al  Al13  1  0.500000  0.000000  0.500000  1
  Co  Co14  1  0.889616  0.889616  0.000000  1
  Co  Co15  1  0.110384  0.110384  0.000000  1
  Os  Os16  1  0.677348  0.500000  0.177348  1
  Os  Os17  1  0.322652  0.500000  0.822652  1
