# generated using pymatgen
data_RbY2CoH12Ir
_symmetry_space_group_name_H-M   'P 1'
_cell_length_a   4.92245600
_cell_length_b   4.92245655
_cell_length_c   9.14729100
_cell_angle_alpha   90.00000000
_cell_angle_beta   90.00000000
_cell_angle_gamma   120.00000976
_symmetry_Int_Tables_number   1
_chemical_formula_structural   RbY2CoH12Ir
_chemical_formula_sum   'Rb1 Y2 Co1 H12 Ir1'
_cell_volume   191.94942626
_cell_formula_units_Z   1
loop_
 _symmetry_equiv_pos_site_id
 _symmetry_equiv_pos_as_xyz
  1  'x, y, z'
loop_
 _atom_site_type_symbol
 _atom_site_label
 _atom_site_symmetry_multiplicity
 _atom_site_fract_x
 _atom_site_fract_y
 _atom_site_fract_z
 _atom_site_occupancy
  Rb  Rb0  1  0.000000  0.000000  0.994191  1
  Y  Y1  1  0.666667  0.333333  0.383459  1
  Y  Y2  1  0.333333  0.666667  0.638700  1
  Co  Co3  1  0.666667  0.333333  0.702582  1
  H  H4  1  0.166487  0.833513  0.396728  1
  H  H5  1  0.667028  0.833513  0.396728  1
  H  H6  1  0.166487  0.332972  0.396728  1
  H  H7  1  0.821273  0.178727  0.606496  1
  H  H8  1  0.357455  0.178727  0.606496  1
  H  H9  1  0.821273  0.642545  0.606496  1
  H  H10  1  0.520940  0.041880  0.808080  1
  H  H11  1  0.520940  0.479060  0.808080  1
  H  H12  1  0.958120  0.479060  0.808080  1
  H  H13  1  0.488464  0.976927  0.183732  1
  H  H14  1  0.488464  0.511536  0.183732  1
  H  H15  1  0.023073  0.511536  0.183732  1
  Ir  Ir16  1  0.333333  0.666667  0.295958  1
