# generated using pymatgen
data_Dy3Ho13Cd4NiRu3
_symmetry_space_group_name_H-M   'P 1'
_cell_length_a   9.55628746
_cell_length_b   9.61753432
_cell_length_c   9.61655931
_cell_angle_alpha   59.67045081
_cell_angle_beta   59.46663069
_cell_angle_gamma   59.47212408
_symmetry_Int_Tables_number   1
_chemical_formula_structural   Dy3Ho13Cd4NiRu3
_chemical_formula_sum   'Dy3 Ho13 Cd4 Ni1 Ru3'
_cell_volume   618.37480633
_cell_formula_units_Z   1
loop_
 _symmetry_equiv_pos_site_id
 _symmetry_equiv_pos_as_xyz
  1  'x, y, z'
loop_
 _atom_site_type_symbol
 _atom_site_label
 _atom_site_symmetry_multiplicity
 _atom_site_fract_x
 _atom_site_fract_y
 _atom_site_fract_z
 _atom_site_occupancy
  Dy  Dy0  1  0.189292  0.810496  0.189786  1
  Dy  Dy1  1  0.808273  0.817219  0.187181  1
  Dy  Dy2  1  0.189100  0.189828  0.810428  1
  Ho  Ho3  1  0.600329  0.595900  0.596018  1
  Ho  Ho4  1  0.601166  0.595821  0.209209  1
  Ho  Ho5  1  0.601257  0.209091  0.595972  1
  Ho  Ho6  1  0.209586  0.596916  0.596956  1
  Ho  Ho7  1  0.060247  0.438003  0.438251  1
  Ho  Ho8  1  0.435960  0.061437  0.061308  1
  Ho  Ho9  1  0.437810  0.060756  0.438822  1
  Ho  Ho10  1  0.060237  0.438783  0.061140  1
  Ho  Ho11  1  0.437966  0.438738  0.060630  1
  Ho  Ho12  1  0.060066  0.061093  0.439005  1
  Ho  Ho13  1  0.188590  0.810781  0.810681  1
  Ho  Ho14  1  0.808657  0.187482  0.187108  1
  Ho  Ho15  1  0.808180  0.187524  0.816968  1
  Cd  Cd16  1  0.829365  0.830931  0.830756  1
  Cd  Cd17  1  0.829469  0.830792  0.508157  1
  Cd  Cd18  1  0.829417  0.507979  0.830820  1
  Cd  Cd19  1  0.506978  0.830595  0.830640  1
  Ni  Ni20  1  0.827711  0.391854  0.392221  1
  Ru  Ru21  1  0.392942  0.389052  0.389131  1
  Ru  Ru22  1  0.393856  0.390384  0.828375  1
  Ru  Ru23  1  0.393542  0.828542  0.390435  1
