# generated using pymatgen
data_Zr(NbCl3)6
_symmetry_space_group_name_H-M   'P 1'
_cell_length_a   10.10757083
_cell_length_b   10.10757118
_cell_length_c   10.10757053
_cell_angle_alpha   55.98978466
_cell_angle_beta   55.98978121
_cell_angle_gamma   55.98978614
_symmetry_Int_Tables_number   1
_chemical_formula_structural   Zr(NbCl3)6
_chemical_formula_sum   'Zr1 Nb6 Cl18'
_cell_volume   662.33261028
_cell_formula_units_Z   1
loop_
 _symmetry_equiv_pos_site_id
 _symmetry_equiv_pos_as_xyz
  1  'x, y, z'
loop_
 _atom_site_type_symbol
 _atom_site_label
 _atom_site_symmetry_multiplicity
 _atom_site_fract_x
 _atom_site_fract_y
 _atom_site_fract_z
 _atom_site_occupancy
  Zr  Zr0  1  0.000000  0.000000  0.000000  1
  Nb  Nb1  1  0.408418  0.302391  0.648933  1
  Nb  Nb2  1  0.351067  0.591582  0.697609  1
  Nb  Nb3  1  0.697609  0.351067  0.591582  1
  Nb  Nb4  1  0.302391  0.648933  0.408418  1
  Nb  Nb5  1  0.648933  0.408418  0.302391  1
  Nb  Nb6  1  0.591582  0.697609  0.351067  1
  Cl  Cl7  1  0.568602  0.158204  0.442182  1
  Cl  Cl8  1  0.221541  0.369667  0.912598  1
  Cl  Cl9  1  0.912598  0.221541  0.369667  1
  Cl  Cl10  1  0.369667  0.912598  0.221541  1
  Cl  Cl11  1  0.778459  0.630333  0.087402  1
  Cl  Cl12  1  0.087402  0.778459  0.630333  1
  Cl  Cl13  1  0.718000  0.963322  0.150114  1
  Cl  Cl14  1  0.963322  0.150114  0.718000  1
  Cl  Cl15  1  0.150114  0.718000  0.963322  1
  Cl  Cl16  1  0.282000  0.036678  0.849886  1
  Cl  Cl17  1  0.036678  0.849886  0.282000  1
  Cl  Cl18  1  0.849886  0.282000  0.036678  1
  Cl  Cl19  1  0.557818  0.431398  0.841796  1
  Cl  Cl20  1  0.158204  0.442182  0.568602  1
  Cl  Cl21  1  0.442182  0.568602  0.158204  1
  Cl  Cl22  1  0.431398  0.841796  0.557818  1
  Cl  Cl23  1  0.841796  0.557818  0.431398  1
  Cl  Cl24  1  0.630333  0.087402  0.778459  1
