# generated using pymatgen
data_Tb6PrFeI12
_symmetry_space_group_name_H-M   'P 1'
_cell_length_a   9.84049516
_cell_length_b   9.82342454
_cell_length_c   9.85941179
_cell_angle_alpha   106.82496138
_cell_angle_beta   106.84196069
_cell_angle_gamma   107.10454828
_symmetry_Int_Tables_number   1
_chemical_formula_structural   Tb6PrFeI12
_chemical_formula_sum   'Tb6 Pr1 Fe1 I12'
_cell_volume   795.37593088
_cell_formula_units_Z   1
loop_
 _symmetry_equiv_pos_site_id
 _symmetry_equiv_pos_as_xyz
  1  'x, y, z'
loop_
 _atom_site_type_symbol
 _atom_site_label
 _atom_site_symmetry_multiplicity
 _atom_site_fract_x
 _atom_site_fract_y
 _atom_site_fract_z
 _atom_site_occupancy
  Tb  Tb0  1  0.500385  0.498476  0.501896  1
  Tb  Tb1  1  0.020867  0.091812  0.291038  1
  Tb  Tb2  1  0.293199  0.023517  0.093610  1
  Tb  Tb3  1  0.911528  0.725268  0.979006  1
  Tb  Tb4  1  0.977755  0.904952  0.707128  1
  Tb  Tb5  1  0.705852  0.978009  0.905534  1
  Pr  Pr6  1  0.092101  0.288049  0.021200  1
  Fe  Fe7  1  0.000830  0.003771  0.999293  1
  I  I8  1  0.470421  0.386046  0.166563  1
  I  I9  1  0.162494  0.461952  0.392246  1
  I  I10  1  0.384481  0.158450  0.461422  1
  I  I11  1  0.541270  0.615870  0.841111  1
  I  I12  1  0.840160  0.538805  0.620193  1
  I  I13  1  0.615164  0.837388  0.537509  1
  I  I14  1  0.764787  0.314862  0.924645  1
  I  I15  1  0.927126  0.771870  0.315071  1
  I  I16  1  0.320045  0.927165  0.775341  1
  I  I17  1  0.223299  0.685438  0.071938  1
  I  I18  1  0.069182  0.218640  0.670917  1
  I  I19  1  0.679053  0.069659  0.224339  1
