# generated using pymatgen
data_Pr2Nd8Sn20IrPd7
_symmetry_space_group_name_H-M   'P 1'
_cell_length_a   14.28160703
_cell_length_b   14.30144121
_cell_length_c   4.66903000
_cell_angle_alpha   90.00000000
_cell_angle_beta   90.00000000
_cell_angle_gamma   90.01335392
_symmetry_Int_Tables_number   1
_chemical_formula_structural   Pr2Nd8Sn20IrPd7
_chemical_formula_sum   'Pr2 Nd8 Sn20 Ir1 Pd7'
_cell_volume   953.63797444
_cell_formula_units_Z   1
loop_
 _symmetry_equiv_pos_site_id
 _symmetry_equiv_pos_as_xyz
  1  'x, y, z'
loop_
 _atom_site_type_symbol
 _atom_site_label
 _atom_site_symmetry_multiplicity
 _atom_site_fract_x
 _atom_site_fract_y
 _atom_site_fract_z
 _atom_site_occupancy
  Pr  Pr0  1  0.391552  0.108133  0.500000  1
  Pr  Pr1  1  0.609270  0.892083  0.500000  1
  Nd  Nd2  1  0.500238  0.498686  0.000000  1
  Nd  Nd3  1  0.999444  0.996054  0.000000  1
  Nd  Nd4  1  0.680272  0.179870  0.500000  1
  Nd  Nd5  1  0.319674  0.819035  0.500000  1
  Nd  Nd6  1  0.179716  0.320766  0.500000  1
  Nd  Nd7  1  0.822960  0.681725  0.500000  1
  Nd  Nd8  1  0.892425  0.393580  0.500000  1
  Nd  Nd9  1  0.105101  0.610767  0.500000  1
  Sn  Sn10  1  0.568988  0.068813  0.000000  1
  Sn  Sn11  1  0.429921  0.931103  0.000000  1
  Sn  Sn12  1  0.069209  0.432789  0.000000  1
  Sn  Sn13  1  0.930893  0.572114  0.000000  1
  Sn  Sn14  1  0.653160  0.700870  0.000000  1
  Sn  Sn15  1  0.347658  0.298423  0.000000  1
  Sn  Sn16  1  0.151497  0.796923  0.000000  1
  Sn  Sn17  1  0.848269  0.200641  0.000000  1
  Sn  Sn18  1  0.299187  0.652544  0.000000  1
  Sn  Sn19  1  0.701649  0.347076  0.000000  1
  Sn  Sn20  1  0.200242  0.151892  0.000000  1
  Sn  Sn21  1  0.800767  0.847342  0.000000  1
  Sn  Sn22  1  0.662928  0.501439  0.500000  1
  Sn  Sn23  1  0.336904  0.499884  0.500000  1
  Sn  Sn24  1  0.161331  0.996632  0.500000  1
  Sn  Sn25  1  0.837294  0.999814  0.500000  1
  Sn  Sn26  1  0.499790  0.662104  0.500000  1
  Sn  Sn27  1  0.501188  0.337712  0.500000  1
  Sn  Sn28  1  0.001358  0.162070  0.500000  1
  Sn  Sn29  1  0.996476  0.837095  0.500000  1
  Ir  Ir30  1  0.967688  0.756815  0.000000  1
  Pd  Pd31  1  0.745047  0.531055  0.000000  1
  Pd  Pd32  1  0.255898  0.467671  0.000000  1
  Pd  Pd33  1  0.243439  0.967765  0.000000  1
  Pd  Pd34  1  0.755495  0.031651  0.000000  1
  Pd  Pd35  1  0.468982  0.745432  0.000000  1
  Pd  Pd36  1  0.532295  0.255060  0.000000  1
  Pd  Pd37  1  0.031792  0.246573  0.000000  1
