# generated using pymatgen
data_CsZrMnF7
_symmetry_space_group_name_H-M   'P 1'
_cell_length_a   6.62991102
_cell_length_b   6.62991194
_cell_length_c   8.51713500
_cell_angle_alpha   90.00000000
_cell_angle_beta   90.00000000
_cell_angle_gamma   118.60358006
_symmetry_Int_Tables_number   1
_chemical_formula_structural   CsZrMnF7
_chemical_formula_sum   'Cs2 Zr2 Mn2 F14'
_cell_volume   328.68530588
_cell_formula_units_Z   2
loop_
 _symmetry_equiv_pos_site_id
 _symmetry_equiv_pos_as_xyz
  1  'x, y, z'
loop_
 _atom_site_type_symbol
 _atom_site_label
 _atom_site_symmetry_multiplicity
 _atom_site_fract_x
 _atom_site_fract_y
 _atom_site_fract_z
 _atom_site_occupancy
  Cs  Cs0  1  0.500000  0.500000  0.500000  1
  Cs  Cs1  1  0.500000  0.500000  0.000000  1
  Zr  Zr2  1  0.808651  0.191349  0.250000  1
  Zr  Zr3  1  0.191349  0.808651  0.750000  1
  Mn  Mn4  1  0.188634  0.811366  0.250000  1
  Mn  Mn5  1  0.811366  0.188634  0.750000  1
  F  F6  1  0.845529  0.553931  0.750000  1
  F  F7  1  0.154471  0.446069  0.250000  1
  F  F8  1  0.160643  0.470995  0.750000  1
  F  F9  1  0.801402  0.198598  0.492753  1
  F  F10  1  0.446069  0.154471  0.750000  1
  F  F11  1  0.801402  0.198598  0.007247  1
  F  F12  1  0.198598  0.801402  0.992753  1
  F  F13  1  0.839357  0.529005  0.250000  1
  F  F14  1  0.553931  0.845529  0.250000  1
  F  F15  1  0.991887  0.008113  0.250000  1
  F  F16  1  0.008113  0.991887  0.750000  1
  F  F17  1  0.198598  0.801402  0.507247  1
  F  F18  1  0.529005  0.839357  0.750000  1
  F  F19  1  0.470995  0.160643  0.250000  1
