# generated using pymatgen
data_Tb2Ga9Ru5
_symmetry_space_group_name_H-M   'P 1'
_cell_length_a   8.07375911
_cell_length_b   8.07375819
_cell_length_c   8.07375941
_cell_angle_alpha   134.88972970
_cell_angle_beta   134.88972203
_cell_angle_gamma   65.70158840
_symmetry_Int_Tables_number   1
_chemical_formula_structural   Tb2Ga9Ru5
_chemical_formula_sum   'Tb2 Ga9 Ru5'
_cell_volume   260.19899687
_cell_formula_units_Z   1
loop_
 _symmetry_equiv_pos_site_id
 _symmetry_equiv_pos_as_xyz
  1  'x, y, z'
loop_
 _atom_site_type_symbol
 _atom_site_label
 _atom_site_symmetry_multiplicity
 _atom_site_fract_x
 _atom_site_fract_y
 _atom_site_fract_z
 _atom_site_occupancy
  Tb  Tb0  1  0.000000  0.500000  0.500000  1
  Tb  Tb1  1  0.500000  0.000000  0.500000  1
  Ga  Ga2  1  0.439257  0.858878  0.000000  1
  Ga  Ga3  1  0.141122  0.141122  0.580379  1
  Ga  Ga4  1  0.858878  0.439257  0.000000  1
  Ga  Ga5  1  0.858878  0.858878  0.419621  1
  Ga  Ga6  1  0.560743  0.141122  0.000000  1
  Ga  Ga7  1  0.141122  0.560743  0.000000  1
  Ga  Ga8  1  0.560743  0.560743  0.419621  1
  Ga  Ga9  1  0.000000  0.000000  0.000000  1
  Ga  Ga10  1  0.439257  0.439257  0.580379  1
  Ru  Ru11  1  0.180213  0.180213  0.000000  1
  Ru  Ru12  1  0.819787  0.819787  0.000000  1
  Ru  Ru13  1  0.250000  0.750000  0.500000  1
  Ru  Ru14  1  0.750000  0.250000  0.500000  1
  Ru  Ru15  1  0.500000  0.500000  0.000000  1
