# generated using pymatgen
data_Hf6Al16Cu(Rh2Au)2
_symmetry_space_group_name_H-M   'P 1'
_cell_length_a   8.74233391
_cell_length_b   8.74119323
_cell_length_c   8.74279958
_cell_angle_alpha   59.99079771
_cell_angle_beta   59.89338234
_cell_angle_gamma   60.18601010
_symmetry_Int_Tables_number   1
_chemical_formula_structural   Hf6Al16Cu(Rh2Au)2
_chemical_formula_sum   'Hf6 Al16 Cu1 Rh4 Au2'
_cell_volume   472.67000228
_cell_formula_units_Z   1
loop_
 _symmetry_equiv_pos_site_id
 _symmetry_equiv_pos_as_xyz
  1  'x, y, z'
loop_
 _atom_site_type_symbol
 _atom_site_label
 _atom_site_symmetry_multiplicity
 _atom_site_fract_x
 _atom_site_fract_y
 _atom_site_fract_z
 _atom_site_occupancy
  Hf  Hf0  1  0.686280  0.313155  0.312161  1
  Hf  Hf1  1  0.313688  0.686779  0.687807  1
  Hf  Hf2  1  0.316619  0.683227  0.315638  1
  Hf  Hf3  1  0.322480  0.321647  0.677302  1
  Hf  Hf4  1  0.683309  0.316768  0.684356  1
  Hf  Hf5  1  0.677465  0.678377  0.322618  1
  Al  Al6  1  0.336911  0.335168  0.333223  1
  Al  Al7  1  0.342891  0.331498  0.997657  1
  Al  Al8  1  0.996178  0.337915  0.338979  1
  Al  Al9  1  0.342342  0.993500  0.332926  1
  Al  Al10  1  0.663183  0.664912  0.666570  1
  Al  Al11  1  0.657011  0.668492  0.002388  1
  Al  Al12  1  0.657502  0.006521  0.667113  1
  Al  Al13  1  0.003791  0.662114  0.661040  1
  Al  Al14  1  0.131750  0.110972  0.111951  1
  Al  Al15  1  0.127986  0.124202  0.642321  1
  Al  Al16  1  0.643123  0.112883  0.124119  1
  Al  Al17  1  0.121070  0.645423  0.126617  1
  Al  Al18  1  0.868304  0.888997  0.888050  1
  Al  Al19  1  0.871943  0.875861  0.357628  1
  Al  Al20  1  0.879060  0.354520  0.873249  1
  Al  Al21  1  0.356934  0.887028  0.875892  1
  Cu  Cu22  1  0.500177  0.500070  0.000688  1
  Rh  Rh23  1  0.000104  0.999942  0.999939  1
  Rh  Rh24  1  0.500084  0.999960  0.999954  1
  Rh  Rh25  1  0.999985  0.500175  0.499894  1
  Rh  Rh26  1  0.499915  0.000014  0.499986  1
  Au  Au27  1  0.999989  0.499859  0.999990  1
  Au  Au28  1  0.999924  0.000018  0.499942  1
