# generated using pymatgen
data_Na5Ga2P10Ir19
_symmetry_space_group_name_H-M   'P 1'
_cell_length_a   12.69107002
_cell_length_b   12.68262736
_cell_length_c   3.98210200
_cell_angle_alpha   90.00000000
_cell_angle_beta   90.00000000
_cell_angle_gamma   120.11796354
_symmetry_Int_Tables_number   1
_chemical_formula_structural   Na5Ga2P10Ir19
_chemical_formula_sum   'Na5 Ga2 P10 Ir19'
_cell_volume   554.41250746
_cell_formula_units_Z   1
loop_
 _symmetry_equiv_pos_site_id
 _symmetry_equiv_pos_as_xyz
  1  'x, y, z'
loop_
 _atom_site_type_symbol
 _atom_site_label
 _atom_site_symmetry_multiplicity
 _atom_site_fract_x
 _atom_site_fract_y
 _atom_site_fract_z
 _atom_site_occupancy
  Na  Na0  1  0.002473  0.821321  0.500000  1
  Na  Na1  1  0.176253  0.177908  0.500000  1
  Na  Na2  1  0.822698  0.999322  0.500000  1
  Na  Na3  1  0.334481  0.666815  0.000000  1
  Na  Na4  1  0.665305  0.333784  0.000000  1
  Ga  Ga5  1  0.513381  0.679977  0.500000  1
  Ga  Ga6  1  0.323410  0.832131  0.500000  1
  P  P7  1  0.992818  0.176435  0.000000  1
  P  P8  1  0.824964  0.818777  0.000000  1
  P  P9  1  0.179448  0.999891  0.000000  1
  P  P10  1  0.168356  0.481197  0.500000  1
  P  P11  1  0.481935  0.175380  0.500000  1
  P  P12  1  0.690738  0.516056  0.500000  1
  P  P13  1  0.824602  0.311976  0.500000  1
  P  P14  1  0.003332  0.638401  0.000000  1
  P  P15  1  0.359032  0.364220  0.000000  1
  P  P16  1  0.636169  0.995841  0.000000  1
  Ir  Ir17  1  0.993022  0.287116  0.500000  1
  Ir  Ir18  1  0.724189  0.711651  0.500000  1
  Ir  Ir19  1  0.287140  0.008734  0.500000  1
  Ir  Ir20  1  0.637397  0.810899  0.000000  1
  Ir  Ir21  1  0.188365  0.817943  0.000000  1
  Ir  Ir22  1  0.171626  0.374023  0.000000  1
  Ir  Ir23  1  0.378409  0.188030  0.000000  1
  Ir  Ir24  1  0.807496  0.618604  0.000000  1
  Ir  Ir25  1  0.810819  0.191796  0.000000  1
  Ir  Ir26  1  0.538736  0.890389  0.500000  1
  Ir  Ir27  1  0.123628  0.634228  0.500000  1
  Ir  Ir28  1  0.345755  0.466760  0.500000  1
  Ir  Ir29  1  0.494607  0.363221  0.500000  1
  Ir  Ir30  1  0.868214  0.507602  0.500000  1
  Ir  Ir31  1  0.638078  0.137870  0.500000  1
  Ir  Ir32  1  0.000688  0.001821  0.000000  1
  Ir  Ir33  1  0.990926  0.451592  0.000000  1
  Ir  Ir34  1  0.543962  0.542949  0.000000  1
  Ir  Ir35  1  0.457547  0.005337  0.000000  1
