# generated using pymatgen
data_Te8IrRh2
_symmetry_space_group_name_H-M   'P 1'
_cell_length_a   6.50634105
_cell_length_b   6.52554543
_cell_length_c   6.52492877
_cell_angle_alpha   91.03392630
_cell_angle_beta   90.73937622
_cell_angle_gamma   90.93328730
_symmetry_Int_Tables_number   1
_chemical_formula_structural   Te8IrRh2
_chemical_formula_sum   'Te8 Ir1 Rh2'
_cell_volume   276.92568144
_cell_formula_units_Z   1
loop_
 _symmetry_equiv_pos_site_id
 _symmetry_equiv_pos_as_xyz
  1  'x, y, z'
loop_
 _atom_site_type_symbol
 _atom_site_label
 _atom_site_symmetry_multiplicity
 _atom_site_fract_x
 _atom_site_fract_y
 _atom_site_fract_z
 _atom_site_occupancy
  Te  Te0  1  0.631493  0.631096  0.630585  1
  Te  Te1  1  0.368507  0.368904  0.369415  1
  Te  Te2  1  0.122949  0.869036  0.372497  1
  Te  Te3  1  0.373291  0.122983  0.870183  1
  Te  Te4  1  0.869885  0.372891  0.123911  1
  Te  Te5  1  0.877051  0.130964  0.627503  1
  Te  Te6  1  0.626709  0.877017  0.129817  1
  Te  Te7  1  0.130115  0.627109  0.876089  1
  Ir  Ir8  1  0.000000  0.500000  0.500000  1
  Rh  Rh9  1  0.500000  0.000000  0.500000  1
  Rh  Rh10  1  0.500000  0.500000  0.000000  1
