# generated using pymatgen
data_Hf2Zr6PdPt3O2
_symmetry_space_group_name_H-M   'P 1'
_cell_length_a   8.87481748
_cell_length_b   8.86605820
_cell_length_c   8.86778408
_cell_angle_alpha   60.08424621
_cell_angle_beta   59.97862736
_cell_angle_gamma   59.96216159
_symmetry_Int_Tables_number   1
_chemical_formula_structural   Hf2Zr6PdPt3O2
_chemical_formula_sum   'Hf4 Zr12 Pd2 Pt6 O4'
_cell_volume   493.48177284
_cell_formula_units_Z   2
loop_
 _symmetry_equiv_pos_site_id
 _symmetry_equiv_pos_as_xyz
  1  'x, y, z'
loop_
 _atom_site_type_symbol
 _atom_site_label
 _atom_site_symmetry_multiplicity
 _atom_site_fract_x
 _atom_site_fract_y
 _atom_site_fract_z
 _atom_site_occupancy
  Hf  Hf0  1  0.624999  0.126170  0.123794  1
  Hf  Hf1  1  0.121708  0.634810  0.121900  1
  Hf  Hf2  1  0.128389  0.128073  0.615221  1
  Hf  Hf3  1  0.124998  0.126130  0.123795  1
  Zr  Zr4  1  0.314714  0.685468  0.314913  1
  Zr  Zr5  1  0.931996  0.564589  0.931977  1
  Zr  Zr6  1  0.678599  0.317981  0.685530  1
  Zr  Zr7  1  0.683080  0.316267  0.317455  1
  Zr  Zr8  1  0.315692  0.681628  0.686895  1
  Zr  Zr9  1  0.935337  0.935040  0.564431  1
  Zr  Zr10  1  0.684870  0.685456  0.314961  1
  Zr  Zr11  1  0.317918  0.317958  0.685508  1
  Zr  Zr12  1  0.571426  0.564626  0.931961  1
  Zr  Zr13  1  0.566776  0.932371  0.933950  1
  Zr  Zr14  1  0.934321  0.562997  0.568289  1
  Zr  Zr15  1  0.565118  0.935093  0.564430  1
  Pd  Pd16  1  0.331894  0.336553  0.999675  1
  Pd  Pd17  1  0.917859  0.251193  0.913162  1
  Pt  Pt18  1  0.282974  0.910864  0.901966  1
  Pt  Pt19  1  0.904226  0.910921  0.901924  1
  Pt  Pt20  1  0.904041  0.911106  0.280823  1
  Pt  Pt21  1  0.346050  0.969064  0.338885  1
  Pt  Pt22  1  0.345815  0.348081  0.339111  1
  Pt  Pt23  1  0.967056  0.348130  0.339033  1
  O  O24  1  0.625126  0.624869  0.625091  1
  O  O25  1  0.124934  0.624883  0.625078  1
  O  O26  1  0.624910  0.625017  0.125196  1
  O  O27  1  0.625174  0.124661  0.625048  1
