# generated using pymatgen
data_La7Tm13(Ga3Si5)2
_symmetry_space_group_name_H-M   'P 1'
_cell_length_a   7.81079907
_cell_length_b   7.80726278
_cell_length_c   14.53210392
_cell_angle_alpha   90.22158582
_cell_angle_beta   89.88312079
_cell_angle_gamma   90.11821389
_symmetry_Int_Tables_number   1
_chemical_formula_structural   La7Tm13(Ga3Si5)2
_chemical_formula_sum   'La7 Tm13 Ga6 Si10'
_cell_volume   886.17131791
_cell_formula_units_Z   1
loop_
 _symmetry_equiv_pos_site_id
 _symmetry_equiv_pos_as_xyz
  1  'x, y, z'
loop_
 _atom_site_type_symbol
 _atom_site_label
 _atom_site_symmetry_multiplicity
 _atom_site_fract_x
 _atom_site_fract_y
 _atom_site_fract_z
 _atom_site_occupancy
  La  La0  1  0.011283  0.354988  0.539936  1
  La  La1  1  0.645342  0.988813  0.961993  1
  La  La2  1  0.141834  0.514818  0.792409  1
  La  La3  1  0.853641  0.488283  0.288559  1
  La  La4  1  0.509645  0.140051  0.207205  1
  La  La5  1  0.485604  0.856991  0.710163  1
  La  La6  1  0.357148  0.009446  0.456924  1
  Tm  Tm7  1  0.361690  0.490754  0.374265  1
  Tm  Tm8  1  0.857224  0.008352  0.370630  1
  Tm  Tm9  1  0.992753  0.136116  0.125265  1
  Tm  Tm10  1  0.011458  0.859916  0.626054  1
  Tm  Tm11  1  0.643309  0.515345  0.880129  1
  Tm  Tm12  1  0.487172  0.358763  0.622988  1
  Tm  Tm13  1  0.512444  0.643467  0.123027  1
  Tm  Tm14  1  0.138142  0.988713  0.876139  1
  Tm  Tm15  1  0.997250  0.638068  0.044341  1
  Tm  Tm16  1  0.678857  0.681567  0.499249  1
  Tm  Tm17  1  0.816208  0.182637  0.750724  1
  Tm  Tm18  1  0.183657  0.816994  0.248937  1
  Tm  Tm19  1  0.319245  0.317299  0.000462  1
  Ga  Ga20  1  0.063045  0.712828  0.435277  1
  Ga  Ga21  1  0.939497  0.293844  0.939031  1
  Ga  Ga22  1  0.712552  0.062498  0.562777  1
  Ga  Ga23  1  0.212840  0.438665  0.185168  1
  Ga  Ga24  1  0.784702  0.565206  0.687308  1
  Ga  Ga25  1  0.436117  0.215103  0.814985  1
  Si  Si26  1  0.566269  0.786179  0.310952  1
  Si  Si27  1  0.284756  0.930026  0.063135  1
  Si  Si28  1  0.845767  0.802082  0.808033  1
  Si  Si29  1  0.149772  0.203365  0.307541  1
  Si  Si30  1  0.803291  0.843067  0.187304  1
  Si  Si31  1  0.297098  0.650738  0.557774  1
  Si  Si32  1  0.708345  0.354923  0.061484  1
  Si  Si33  1  0.650475  0.296416  0.440265  1
  Si  Si34  1  0.341545  0.700419  0.946145  1
  Si  Si35  1  0.200020  0.153258  0.693425  1
