# generated using pymatgen
data_Hf5Al16AsIr7
_symmetry_space_group_name_H-M   'P 1'
_cell_length_a   8.68309272
_cell_length_b   8.73105823
_cell_length_c   8.73105841
_cell_angle_alpha   59.63687051
_cell_angle_beta   60.18156528
_cell_angle_gamma   60.18156913
_symmetry_Int_Tables_number   1
_chemical_formula_structural   Hf5Al16AsIr7
_chemical_formula_sum   'Hf5 Al16 As1 Ir7'
_cell_volume   468.02296368
_cell_formula_units_Z   1
loop_
 _symmetry_equiv_pos_site_id
 _symmetry_equiv_pos_as_xyz
  1  'x, y, z'
loop_
 _atom_site_type_symbol
 _atom_site_label
 _atom_site_symmetry_multiplicity
 _atom_site_fract_x
 _atom_site_fract_y
 _atom_site_fract_z
 _atom_site_occupancy
  Hf  Hf0  1  0.312847  0.687153  0.687153  1
  Hf  Hf1  1  0.290516  0.709484  0.290367  1
  Hf  Hf2  1  0.709633  0.290367  0.709484  1
  Hf  Hf3  1  0.290516  0.290367  0.709484  1
  Hf  Hf4  1  0.709633  0.709484  0.290367  1
  Al  Al5  1  0.367093  0.332294  0.332294  1
  Al  Al6  1  0.677553  0.655541  0.655541  1
  Al  Al7  1  0.344459  0.322447  0.988634  1
  Al  Al8  1  0.344459  0.988634  0.322447  1
  Al  Al9  1  0.667706  0.632907  0.031680  1
  Al  Al10  1  0.667706  0.031680  0.632907  1
  Al  Al11  1  0.968320  0.332294  0.332294  1
  Al  Al12  1  0.011366  0.655541  0.655541  1
  Al  Al13  1  0.112366  0.118673  0.118673  1
  Al  Al14  1  0.884394  0.871828  0.871828  1
  Al  Al15  1  0.128172  0.115606  0.628051  1
  Al  Al16  1  0.128172  0.628051  0.115606  1
  Al  Al17  1  0.881327  0.887634  0.349711  1
  Al  Al18  1  0.881327  0.349711  0.887634  1
  Al  Al19  1  0.650289  0.118673  0.118673  1
  Al  Al20  1  0.371949  0.871828  0.871828  1
  As  As21  1  0.535777  0.464223  0.464223  1
  Ir  Ir22  1  0.511464  0.988536  0.988536  1
  Ir  Ir23  1  0.011464  0.488536  0.488536  1
  Ir  Ir24  1  0.012340  0.496987  0.987660  1
  Ir  Ir25  1  0.503013  0.987660  0.496987  1
  Ir  Ir26  1  0.012340  0.987660  0.496987  1
  Ir  Ir27  1  0.503013  0.496987  0.987660  1
  Ir  Ir28  1  0.010785  0.989215  0.989215  1
