# generated using pymatgen
data_Dy6Y2Re(TcB8)3
_symmetry_space_group_name_H-M   'P 1'
_cell_length_a   3.69055300
_cell_length_b   9.17241479
_cell_length_c   11.55745000
_cell_angle_alpha   90.02426122
_cell_angle_beta   90.00000000
_cell_angle_gamma   90.00000000
_symmetry_Int_Tables_number   1
_chemical_formula_structural   Dy6Y2Re(TcB8)3
_chemical_formula_sum   'Dy6 Y2 Re1 Tc3 B24'
_cell_volume   391.23447466
_cell_formula_units_Z   1
loop_
 _symmetry_equiv_pos_site_id
 _symmetry_equiv_pos_as_xyz
  1  'x, y, z'
loop_
 _atom_site_type_symbol
 _atom_site_label
 _atom_site_symmetry_multiplicity
 _atom_site_fract_x
 _atom_site_fract_y
 _atom_site_fract_z
 _atom_site_occupancy
  Dy  Dy0  1  0.000000  0.823917  0.085974  1
  Dy  Dy1  1  0.000000  0.176267  0.914298  1
  Dy  Dy2  1  0.000000  0.942527  0.368984  1
  Dy  Dy3  1  0.000000  0.058053  0.630025  1
  Dy  Dy4  1  0.000000  0.442488  0.130924  1
  Dy  Dy5  1  0.000000  0.556383  0.869637  1
  Y  Y6  1  0.000000  0.324021  0.414163  1
  Y  Y7  1  0.000000  0.676324  0.585819  1
  Re  Re8  1  0.000000  0.861592  0.820844  1
  Tc  Tc9  1  0.000000  0.638753  0.320504  1
  Tc  Tc10  1  0.000000  0.361298  0.679473  1
  Tc  Tc11  1  0.000000  0.138571  0.179331  1
  B  B12  1  0.500000  0.553575  0.432833  1
  B  B13  1  0.500000  0.446700  0.567242  1
  B  B14  1  0.500000  0.053435  0.067205  1
  B  B15  1  0.500000  0.946768  0.933090  1
  B  B16  1  0.500000  0.748823  0.418249  1
  B  B17  1  0.500000  0.251524  0.581624  1
  B  B18  1  0.500000  0.248580  0.081612  1
  B  B19  1  0.500000  0.750954  0.918576  1
  B  B20  1  0.500000  0.791604  0.265164  1
  B  B21  1  0.500000  0.208357  0.734640  1
  B  B22  1  0.500000  0.291564  0.234752  1
  B  B23  1  0.500000  0.708091  0.765457  1
  B  B24  1  0.500000  0.630813  0.185727  1
  B  B25  1  0.500000  0.368905  0.814295  1
  B  B26  1  0.500000  0.130739  0.314240  1
  B  B27  1  0.500000  0.869493  0.685614  1
  B  B28  1  0.500000  0.982436  0.211520  1
  B  B29  1  0.500000  0.017883  0.788203  1
  B  B30  1  0.500000  0.482581  0.288349  1
  B  B31  1  0.500000  0.517344  0.711839  1
  B  B32  1  0.500000  0.600105  0.028149  1
  B  B33  1  0.500000  0.399232  0.972121  1
  B  B34  1  0.500000  0.100261  0.471688  1
  B  B35  1  0.500000  0.900040  0.527833  1
