# generated using pymatgen
data_Pr2NiB4Ru3
_symmetry_space_group_name_H-M   'P 1'
_cell_length_a   6.87192647
_cell_length_b   6.00959006
_cell_length_c   5.44817722
_cell_angle_alpha   73.52155985
_cell_angle_beta   56.99194520
_cell_angle_gamma   51.64695944
_symmetry_Int_Tables_number   1
_chemical_formula_structural   Pr2NiB4Ru3
_chemical_formula_sum   'Pr2 Ni1 B4 Ru3'
_cell_volume   147.45688645
_cell_formula_units_Z   1
loop_
 _symmetry_equiv_pos_site_id
 _symmetry_equiv_pos_as_xyz
  1  'x, y, z'
loop_
 _atom_site_type_symbol
 _atom_site_label
 _atom_site_symmetry_multiplicity
 _atom_site_fract_x
 _atom_site_fract_y
 _atom_site_fract_z
 _atom_site_occupancy
  Pr  Pr0  1  0.002279  0.002279  0.997721  1
  Pr  Pr1  1  0.245571  0.245571  0.254429  1
  Ni  Ni2  1  0.618680  0.618680  0.881320  1
  B  B3  1  0.675989  0.324324  0.678877  1
  B  B4  1  0.324324  0.675989  0.320810  1
  B  B5  1  0.934559  0.567492  0.928090  1
  B  B6  1  0.567492  0.934559  0.569860  1
  Ru  Ru7  1  0.634370  0.634370  0.365629  1
  Ru  Ru8  1  0.365564  0.365565  0.634435  1
  Ru  Ru9  1  0.881173  0.881172  0.618827  1
