# generated using pymatgen
data_Tb4Al3Ga15Ir5Pt
_symmetry_space_group_name_H-M   'P 1'
_cell_length_a   7.61284351
_cell_length_b   7.61306179
_cell_length_c   9.51255003
_cell_angle_alpha   89.96892526
_cell_angle_beta   89.97230192
_cell_angle_gamma   119.75880226
_symmetry_Int_Tables_number   1
_chemical_formula_structural   Tb4Al3Ga15Ir5Pt
_chemical_formula_sum   'Tb4 Al3 Ga15 Ir5 Pt1'
_cell_volume   478.61249457
_cell_formula_units_Z   1
loop_
 _symmetry_equiv_pos_site_id
 _symmetry_equiv_pos_as_xyz
  1  'x, y, z'
loop_
 _atom_site_type_symbol
 _atom_site_label
 _atom_site_symmetry_multiplicity
 _atom_site_fract_x
 _atom_site_fract_y
 _atom_site_fract_z
 _atom_site_occupancy
  Tb  Tb0  1  0.999760  0.670238  0.250759  1
  Tb  Tb1  1  0.000107  0.329872  0.748613  1
  Tb  Tb2  1  0.671063  0.000243  0.250523  1
  Tb  Tb3  1  0.330744  0.000526  0.748353  1
  Al  Al4  1  0.665029  0.664971  0.448296  1
  Al  Al5  1  0.668301  0.671777  0.054514  1
  Al  Al6  1  0.328433  0.331933  0.945124  1
  Ga  Ga7  1  0.126740  0.125611  0.249612  1
  Ga  Ga8  1  0.874845  0.873729  0.749073  1
  Ga  Ga9  1  0.002848  0.335186  0.081300  1
  Ga  Ga10  1  0.003971  0.668367  0.918446  1
  Ga  Ga11  1  0.000117  0.664794  0.579253  1
  Ga  Ga12  1  0.335858  0.001002  0.418854  1
  Ga  Ga13  1  0.001361  0.335635  0.418640  1
  Ga  Ga14  1  0.664926  0.999587  0.579404  1
  Ga  Ga15  1  0.665300  0.997605  0.918392  1
  Ga  Ga16  1  0.331992  0.996356  0.081116  1
  Ga  Ga17  1  0.328066  0.328075  0.565313  1
  Ga  Ga18  1  0.349266  0.551937  0.250264  1
  Ga  Ga19  1  0.655636  0.452689  0.747471  1
  Ga  Ga20  1  0.548846  0.348651  0.252631  1
  Ga  Ga21  1  0.449663  0.654670  0.749694  1
  Ir  Ir22  1  0.331004  0.668472  0.999613  1
  Ir  Ir23  1  0.330264  0.671818  0.499148  1
  Ir  Ir24  1  0.672199  0.329802  0.499234  1
  Ir  Ir25  1  0.000457  0.999814  0.999179  1
  Ir  Ir26  1  0.995197  0.995452  0.497449  1
  Pt  Pt27  1  0.668004  0.331184  0.999731  1
