# generated using pymatgen
data_Ca3Eu4Mg(BO4)4
_symmetry_space_group_name_H-M   'P 1'
_cell_length_a   3.66785100
_cell_length_b   9.85771424
_cell_length_c   10.44878232
_cell_angle_alpha   89.13660612
_cell_angle_beta   90.00000000
_cell_angle_gamma   90.00000000
_symmetry_Int_Tables_number   1
_chemical_formula_structural   Ca3Eu4Mg(BO4)4
_chemical_formula_sum   'Ca3 Eu4 Mg1 B4 O16'
_cell_volume   377.74983196
_cell_formula_units_Z   1
loop_
 _symmetry_equiv_pos_site_id
 _symmetry_equiv_pos_as_xyz
  1  'x, y, z'
loop_
 _atom_site_type_symbol
 _atom_site_label
 _atom_site_symmetry_multiplicity
 _atom_site_fract_x
 _atom_site_fract_y
 _atom_site_fract_z
 _atom_site_occupancy
  Ca  Ca0  1  0.750000  0.312352  0.917070  1
  Ca  Ca1  1  0.750000  0.189186  0.418355  1
  Ca  Ca2  1  0.250000  0.813997  0.582209  1
  Eu  Eu3  1  0.250000  0.079351  0.127044  1
  Eu  Eu4  1  0.750000  0.913404  0.883661  1
  Eu  Eu5  1  0.750000  0.578833  0.367265  1
  Eu  Eu6  1  0.250000  0.424002  0.625737  1
  Mg  Mg7  1  0.250000  0.690516  0.081350  1
  B  B8  1  0.250000  0.378425  0.178749  1
  B  B9  1  0.750000  0.628563  0.821027  1
  B  B10  1  0.750000  0.868465  0.308879  1
  B  B11  1  0.250000  0.127075  0.689456  1
  O  O12  1  0.250000  0.517809  0.205671  1
  O  O13  1  0.750000  0.496572  0.776331  1
  O  O14  1  0.750000  0.005183  0.271929  1
  O  O15  1  0.250000  0.993494  0.734550  1
  O  O16  1  0.250000  0.278411  0.275739  1
  O  O17  1  0.750000  0.736242  0.731356  1
  O  O18  1  0.750000  0.764250  0.219159  1
  O  O19  1  0.250000  0.235840  0.773955  1
  O  O20  1  0.250000  0.335257  0.053469  1
  O  O21  1  0.750000  0.657216  0.951983  1
  O  O22  1  0.750000  0.834773  0.438480  1
  O  O23  1  0.250000  0.155196  0.558542  1
  O  O24  1  0.250000  0.606975  0.492655  1
  O  O25  1  0.750000  0.395453  0.502826  1
  O  O26  1  0.750000  0.102560  0.003041  1
  O  O27  1  0.250000  0.880598  0.009512  1
