# generated using pymatgen
data_U6Pa2Bi3Sb7
_symmetry_space_group_name_H-M   'P 1'
_cell_length_a   9.49277600
_cell_length_b   9.49277535
_cell_length_c   6.25900400
_cell_angle_alpha   90.00000000
_cell_angle_beta   90.00000000
_cell_angle_gamma   119.99999528
_symmetry_Int_Tables_number   1
_chemical_formula_structural   U6Pa2Bi3Sb7
_chemical_formula_sum   'U6 Pa2 Bi3 Sb7'
_cell_volume   488.45247878
_cell_formula_units_Z   1
loop_
 _symmetry_equiv_pos_site_id
 _symmetry_equiv_pos_as_xyz
  1  'x, y, z'
loop_
 _atom_site_type_symbol
 _atom_site_label
 _atom_site_symmetry_multiplicity
 _atom_site_fract_x
 _atom_site_fract_y
 _atom_site_fract_z
 _atom_site_occupancy
  U  U0  1  0.003707  0.620749  0.246620  1
  U  U1  1  0.003707  0.382957  0.753380  1
  U  U2  1  0.379251  0.996293  0.753380  1
  U  U3  1  0.379251  0.382957  0.246620  1
  U  U4  1  0.617043  0.996293  0.246620  1
  U  U5  1  0.617043  0.620749  0.753380  1
  Pa  Pa6  1  0.000000  0.000000  0.000000  1
  Pa  Pa7  1  0.000000  0.000000  0.500000  1
  Bi  Bi8  1  0.666667  0.333333  0.000000  1
  Bi  Bi9  1  0.333333  0.666667  0.500000  1
  Bi  Bi10  1  0.666667  0.333333  0.500000  1
  Sb  Sb11  1  0.717957  0.000842  0.749200  1
  Sb  Sb12  1  0.282885  0.282043  0.749200  1
  Sb  Sb13  1  0.999158  0.717115  0.749200  1
  Sb  Sb14  1  0.282885  0.000842  0.250800  1
  Sb  Sb15  1  0.717957  0.717115  0.250800  1
  Sb  Sb16  1  0.333333  0.666667  0.000000  1
  Sb  Sb17  1  0.999158  0.282043  0.250800  1
