# generated using pymatgen
data_Tm3ZnIn3CuPt
_symmetry_space_group_name_H-M   'P 1'
_cell_length_a   7.65164300
_cell_length_b   7.65164429
_cell_length_c   3.79391400
_cell_angle_alpha   90.00000000
_cell_angle_beta   90.00000000
_cell_angle_gamma   119.99999009
_symmetry_Int_Tables_number   1
_chemical_formula_structural   Tm3ZnIn3CuPt
_chemical_formula_sum   'Tm3 Zn1 In3 Cu1 Pt1'
_cell_volume   192.36569627
_cell_formula_units_Z   1
loop_
 _symmetry_equiv_pos_site_id
 _symmetry_equiv_pos_as_xyz
  1  'x, y, z'
loop_
 _atom_site_type_symbol
 _atom_site_label
 _atom_site_symmetry_multiplicity
 _atom_site_fract_x
 _atom_site_fract_y
 _atom_site_fract_z
 _atom_site_occupancy
  Tm  Tm0  1  0.019297  0.607609  0.500000  1
  Tm  Tm1  1  0.588312  0.980703  0.500000  1
  Tm  Tm2  1  0.392391  0.411688  0.500000  1
  Zn  Zn3  1  0.666667  0.333333  0.000000  1
  In  In4  1  0.988443  0.249988  0.000000  1
  In  In5  1  0.261545  0.011557  0.000000  1
  In  In6  1  0.750012  0.738455  0.000000  1
  Cu  Cu7  1  0.000000  0.000000  0.500000  1
  Pt  Pt8  1  0.333333  0.666667  0.000000  1
