# generated using pymatgen
data_Ho4Hf3GeF28
_symmetry_space_group_name_H-M   'P 1'
_cell_length_a   5.63285572
_cell_length_b   8.93631272
_cell_length_c   11.98488370
_cell_angle_alpha   62.49698784
_cell_angle_beta   89.95473986
_cell_angle_gamma   90.02034778
_symmetry_Int_Tables_number   1
_chemical_formula_structural   Ho4Hf3GeF28
_chemical_formula_sum   'Ho4 Hf3 Ge1 F28'
_cell_volume   535.10322525
_cell_formula_units_Z   1
loop_
 _symmetry_equiv_pos_site_id
 _symmetry_equiv_pos_as_xyz
  1  'x, y, z'
loop_
 _atom_site_type_symbol
 _atom_site_label
 _atom_site_symmetry_multiplicity
 _atom_site_fract_x
 _atom_site_fract_y
 _atom_site_fract_z
 _atom_site_occupancy
  Ho  Ho0  1  0.757594  0.817704  0.764383  1
  Ho  Ho1  1  0.258585  0.187831  0.727141  1
  Ho  Ho2  1  0.242550  0.186590  0.241408  1
  Ho  Ho3  1  0.743177  0.813018  0.267763  1
  Hf  Hf4  1  0.756692  0.273070  0.956287  1
  Hf  Hf5  1  0.256004  0.725977  0.543759  1
  Hf  Hf6  1  0.244718  0.726370  0.045014  1
  Ge  Ge7  1  0.741468  0.273897  0.454427  1
  F  F8  1  0.463237  0.708585  0.920273  1
  F  F9  1  0.929691  0.291384  0.572766  1
  F  F10  1  0.534993  0.289569  0.080827  1
  F  F11  1  0.038713  0.708847  0.418995  1
  F  F12  1  0.465247  0.279562  0.537736  1
  F  F13  1  0.949935  0.722112  0.950956  1
  F  F14  1  0.552612  0.716238  0.453535  1
  F  F15  1  0.048293  0.277600  0.052294  1
  F  F16  1  0.772791  0.524764  0.858926  1
  F  F17  1  0.266530  0.473780  0.637941  1
  F  F18  1  0.226124  0.474506  0.145269  1
  F  F19  1  0.729655  0.503255  0.363890  1
  F  F20  1  0.758572  0.021515  0.058194  1
  F  F21  1  0.261516  0.977102  0.445700  1
  F  F22  1  0.242756  0.976704  0.940803  1
  F  F23  1  0.741945  0.043662  0.544187  1
  F  F24  1  0.979337  0.733534  0.645974  1
  F  F25  1  0.485338  0.267971  0.849439  1
  F  F26  1  0.006409  0.269545  0.365429  1
  F  F27  1  0.519376  0.729613  0.149980  1
  F  F28  1  0.037463  0.746249  0.174540  1
  F  F29  1  0.555152  0.257145  0.332656  1
  F  F30  1  0.968423  0.253056  0.827005  1
  F  F31  1  0.465142  0.745907  0.672849  1
  F  F32  1  0.423016  0.972629  0.236849  1
  F  F33  1  0.923804  0.027949  0.269072  1
  F  F34  1  0.574959  0.029728  0.764237  1
  F  F35  1  0.078181  0.973027  0.729496  1
