# generated using pymatgen
data_Ba2NiSb4Pt
_symmetry_space_group_name_H-M   'P 1'
_cell_length_a   9.57425622
_cell_length_b   9.57425619
_cell_length_c   4.99395000
_cell_angle_alpha   90.00000000
_cell_angle_beta   90.00000000
_cell_angle_gamma   150.48021238
_symmetry_Int_Tables_number   1
_chemical_formula_structural   Ba2NiSb4Pt
_chemical_formula_sum   'Ba2 Ni1 Sb4 Pt1'
_cell_volume   225.55792917
_cell_formula_units_Z   1
loop_
 _symmetry_equiv_pos_site_id
 _symmetry_equiv_pos_as_xyz
  1  'x, y, z'
loop_
 _atom_site_type_symbol
 _atom_site_label
 _atom_site_symmetry_multiplicity
 _atom_site_fract_x
 _atom_site_fract_y
 _atom_site_fract_z
 _atom_site_occupancy
  Ba  Ba0  1  0.394998  0.605002  0.750000  1
  Ba  Ba1  1  0.606393  0.393607  0.250000  1
  Ni  Ni2  1  0.811543  0.188457  0.250000  1
  Sb  Sb3  1  0.041550  0.958450  0.750000  1
  Sb  Sb4  1  0.950927  0.049073  0.250000  1
  Sb  Sb5  1  0.252084  0.747916  0.250000  1
  Sb  Sb6  1  0.755106  0.244894  0.750000  1
  Pt  Pt7  1  0.187400  0.812600  0.750000  1
