# generated using pymatgen
data_Ca2Co11Si7Ni
_symmetry_space_group_name_H-M   'P 1'
_cell_length_a   9.16541544
_cell_length_b   9.13075928
_cell_length_c   3.64638700
_cell_angle_alpha   90.00000000
_cell_angle_beta   90.00000000
_cell_angle_gamma   120.18993011
_symmetry_Int_Tables_number   1
_chemical_formula_structural   Ca2Co11Si7Ni
_chemical_formula_sum   'Ca2 Co11 Si7 Ni1'
_cell_volume   263.76555128
_cell_formula_units_Z   1
loop_
 _symmetry_equiv_pos_site_id
 _symmetry_equiv_pos_as_xyz
  1  'x, y, z'
loop_
 _atom_site_type_symbol
 _atom_site_label
 _atom_site_symmetry_multiplicity
 _atom_site_fract_x
 _atom_site_fract_y
 _atom_site_fract_z
 _atom_site_occupancy
  Ca  Ca0  1  0.998990  0.000601  0.000000  1
  Ca  Ca1  1  0.667575  0.333401  0.500000  1
  Co  Co2  1  0.386857  0.283013  0.000000  1
  Co  Co3  1  0.894752  0.611462  0.000000  1
  Co  Co4  1  0.716778  0.104205  0.000000  1
  Co  Co5  1  0.610634  0.794312  0.000000  1
  Co  Co6  1  0.184777  0.389990  0.000000  1
  Co  Co7  1  0.761525  0.715441  0.500000  1
  Co  Co8  1  0.954079  0.237720  0.500000  1
  Co  Co9  1  0.283249  0.045154  0.500000  1
  Co  Co10  1  0.431708  0.554161  0.500000  1
  Co  Co11  1  0.120147  0.568637  0.500000  1
  Co  Co12  1  0.449214  0.879947  0.500000  1
  Si  Si13  1  0.615469  0.553822  0.000000  1
  Si  Si14  1  0.939606  0.384749  0.000000  1
  Si  Si15  1  0.448026  0.062820  0.000000  1
  Si  Si16  1  0.731959  0.960361  0.500000  1
  Si  Si17  1  0.227956  0.268027  0.500000  1
  Si  Si18  1  0.035889  0.769456  0.500000  1
  Si  Si19  1  0.335117  0.666819  0.000000  1
  Ni  Ni20  1  0.205694  0.815902  0.000000  1
