# generated using pymatgen
data_Dy10Sn6AsAu
_symmetry_space_group_name_H-M   'P 1'
_cell_length_a   9.15471000
_cell_length_b   9.15471136
_cell_length_c   6.70586400
_cell_angle_alpha   90.00000000
_cell_angle_beta   90.00000000
_cell_angle_gamma   119.99999507
_symmetry_Int_Tables_number   1
_chemical_formula_structural   Dy10Sn6AsAu
_chemical_formula_sum   'Dy10 Sn6 As1 Au1'
_cell_volume   486.71490058
_cell_formula_units_Z   1
loop_
 _symmetry_equiv_pos_site_id
 _symmetry_equiv_pos_as_xyz
  1  'x, y, z'
loop_
 _atom_site_type_symbol
 _atom_site_label
 _atom_site_symmetry_multiplicity
 _atom_site_fract_x
 _atom_site_fract_y
 _atom_site_fract_z
 _atom_site_occupancy
  Dy  Dy0  1  0.256655  0.000000  0.737594  1
  Dy  Dy1  1  0.743345  0.000000  0.262406  1
  Dy  Dy2  1  0.000000  0.256655  0.737594  1
  Dy  Dy3  1  0.000000  0.743345  0.262406  1
  Dy  Dy4  1  0.743345  0.743345  0.737594  1
  Dy  Dy5  1  0.256655  0.256655  0.262406  1
  Dy  Dy6  1  0.333333  0.666667  0.500000  1
  Dy  Dy7  1  0.666667  0.333333  0.500000  1
  Dy  Dy8  1  0.666667  0.333333  0.000000  1
  Dy  Dy9  1  0.333333  0.666667  0.000000  1
  Sn  Sn10  1  0.607660  0.000000  0.749469  1
  Sn  Sn11  1  0.392340  0.000000  0.250531  1
  Sn  Sn12  1  0.000000  0.607660  0.749469  1
  Sn  Sn13  1  0.000000  0.392340  0.250531  1
  Sn  Sn14  1  0.392340  0.392340  0.749469  1
  Sn  Sn15  1  0.607660  0.607660  0.250531  1
  As  As16  1  0.000000  0.000000  0.500000  1
  Au  Au17  1  0.000000  0.000000  0.000000  1
