# generated using pymatgen
data_NdDyLu4(TeO6)3
_symmetry_space_group_name_H-M   'P 1'
_cell_length_a   9.08754838
_cell_length_b   9.09119096
_cell_length_c   5.19768321
_cell_angle_alpha   89.91992282
_cell_angle_beta   90.12734809
_cell_angle_gamma   120.03306543
_symmetry_Int_Tables_number   1
_chemical_formula_structural   NdDyLu4(TeO6)3
_chemical_formula_sum   'Nd1 Dy1 Lu4 Te3 O18'
_cell_volume   371.75948668
_cell_formula_units_Z   1
loop_
 _symmetry_equiv_pos_site_id
 _symmetry_equiv_pos_as_xyz
  1  'x, y, z'
loop_
 _atom_site_type_symbol
 _atom_site_label
 _atom_site_symmetry_multiplicity
 _atom_site_fract_x
 _atom_site_fract_y
 _atom_site_fract_z
 _atom_site_occupancy
  Nd  Nd0  1  0.000677  0.615130  0.999763  1
  Dy  Dy1  1  0.620249  0.001130  0.000580  1
  Lu  Lu2  1  0.999385  0.283233  0.500219  1
  Lu  Lu3  1  0.376497  0.377143  0.000017  1
  Lu  Lu4  1  0.284764  0.000075  0.499809  1
  Lu  Lu5  1  0.715337  0.715849  0.500081  1
  Te  Te6  1  0.336875  0.665193  0.499479  1
  Te  Te7  1  0.001709  0.003945  0.999939  1
  Te  Te8  1  0.661524  0.331132  0.500557  1
  O  O9  1  0.085045  0.887636  0.784985  1
  O  O10  1  0.232508  0.768226  0.292484  1
  O  O11  1  0.133713  0.534591  0.701964  1
  O  O12  1  0.407572  0.864938  0.718306  1
  O  O13  1  0.237568  0.461787  0.278069  1
  O  O14  1  0.121436  0.208531  0.791876  1
  O  O15  1  0.206457  0.122557  0.210598  1
  O  O16  1  0.541525  0.775074  0.289390  1
  O  O17  1  0.459987  0.586740  0.716558  1
  O  O18  1  0.798767  0.918461  0.785744  1
  O  O19  1  0.458391  0.235774  0.717360  1
  O  O20  1  0.587002  0.456640  0.278491  1
  O  O21  1  0.536857  0.128263  0.290899  1
  O  O22  1  0.769365  0.538389  0.704114  1
  O  O23  1  0.917596  0.804086  0.216805  1
  O  O24  1  0.763716  0.228223  0.718565  1
  O  O25  1  0.862929  0.399933  0.293642  1
  O  O26  1  0.882548  0.087320  0.209705  1
