# generated using pymatgen
data_Tb5YbSmFeI12
_symmetry_space_group_name_H-M   'P 1'
_cell_length_a   9.85678767
_cell_length_b   9.79361857
_cell_length_c   9.77124158
_cell_angle_alpha   106.81014207
_cell_angle_beta   106.65379341
_cell_angle_gamma   107.28192132
_symmetry_Int_Tables_number   1
_chemical_formula_structural   Tb5YbSmFeI12
_chemical_formula_sum   'Tb5 Yb1 Sm1 Fe1 I12'
_cell_volume   787.33877967
_cell_formula_units_Z   1
loop_
 _symmetry_equiv_pos_site_id
 _symmetry_equiv_pos_as_xyz
  1  'x, y, z'
loop_
 _atom_site_type_symbol
 _atom_site_label
 _atom_site_symmetry_multiplicity
 _atom_site_fract_x
 _atom_site_fract_y
 _atom_site_fract_z
 _atom_site_occupancy
  Tb  Tb0  1  0.023553  0.092571  0.286329  1
  Tb  Tb1  1  0.301217  0.025923  0.096431  1
  Tb  Tb2  1  0.906968  0.714357  0.975839  1
  Tb  Tb3  1  0.976230  0.906095  0.713190  1
  Tb  Tb4  1  0.698968  0.975042  0.903395  1
  Yb  Yb5  1  0.500256  0.499608  0.500908  1
  Sm  Sm6  1  0.094264  0.291057  0.023998  1
  Fe  Fe7  1  0.000328  0.001742  0.999776  1
  I  I8  1  0.460395  0.380124  0.153209  1
  I  I9  1  0.152943  0.455995  0.383148  1
  I  I10  1  0.375671  0.149683  0.455132  1
  I  I11  1  0.545051  0.621107  0.850396  1
  I  I12  1  0.848173  0.544252  0.622786  1
  I  I13  1  0.624139  0.848870  0.544427  1
  I  I14  1  0.771358  0.315762  0.924761  1
  I  I15  1  0.925664  0.774966  0.314589  1
  I  I16  1  0.316851  0.924611  0.772592  1
  I  I17  1  0.222737  0.684296  0.073793  1
  I  I18  1  0.072602  0.220288  0.678297  1
  I  I19  1  0.682631  0.073654  0.227006  1
