# generated using pymatgen
data_Sc5(GaTe)2
_symmetry_space_group_name_H-M   'P 1'
_cell_length_a   8.15309795
_cell_length_b   8.15309827
_cell_length_c   7.45224700
_cell_angle_alpha   90.00000000
_cell_angle_beta   90.00000000
_cell_angle_gamma   125.78347658
_symmetry_Int_Tables_number   1
_chemical_formula_structural   Sc5(GaTe)2
_chemical_formula_sum   'Sc10 Ga4 Te4'
_cell_volume   401.86289479
_cell_formula_units_Z   2
loop_
 _symmetry_equiv_pos_site_id
 _symmetry_equiv_pos_as_xyz
  1  'x, y, z'
loop_
 _atom_site_type_symbol
 _atom_site_label
 _atom_site_symmetry_multiplicity
 _atom_site_fract_x
 _atom_site_fract_y
 _atom_site_fract_z
 _atom_site_occupancy
  Sc  Sc0  1  0.000000  0.000000  0.000000  1
  Sc  Sc1  1  0.500000  0.500000  0.500000  1
  Sc  Sc2  1  0.792189  0.540297  0.167216  1
  Sc  Sc3  1  0.459703  0.207811  0.832784  1
  Sc  Sc4  1  0.959703  0.707811  0.667216  1
  Sc  Sc5  1  0.292189  0.040297  0.332784  1
  Sc  Sc6  1  0.207811  0.459703  0.832784  1
  Sc  Sc7  1  0.540297  0.792189  0.167216  1
  Sc  Sc8  1  0.040297  0.292189  0.332784  1
  Sc  Sc9  1  0.707811  0.959703  0.667216  1
  Ga  Ga10  1  0.869781  0.869781  0.371318  1
  Ga  Ga11  1  0.130219  0.130219  0.628682  1
  Ga  Ga12  1  0.630219  0.630219  0.871318  1
  Ga  Ga13  1  0.369781  0.369781  0.128682  1
  Te  Te14  1  0.205986  0.794014  0.000000  1
  Te  Te15  1  0.705986  0.294014  0.500000  1
  Te  Te16  1  0.794014  0.205986  0.000000  1
  Te  Te17  1  0.294014  0.705986  0.500000  1
