# generated using pymatgen
data_Yb4Dy5LuRu4
_symmetry_space_group_name_H-M   'P 1'
_cell_length_a   6.39522704
_cell_length_b   7.23162028
_cell_length_c   8.50491594
_cell_angle_alpha   97.12228920
_cell_angle_beta   112.08443345
_cell_angle_gamma   89.99999397
_symmetry_Int_Tables_number   1
_chemical_formula_structural   Yb4Dy5LuRu4
_chemical_formula_sum   'Yb4 Dy5 Lu1 Ru4'
_cell_volume   361.19804243
_cell_formula_units_Z   1
loop_
 _symmetry_equiv_pos_site_id
 _symmetry_equiv_pos_as_xyz
  1  'x, y, z'
loop_
 _atom_site_type_symbol
 _atom_site_label
 _atom_site_symmetry_multiplicity
 _atom_site_fract_x
 _atom_site_fract_y
 _atom_site_fract_z
 _atom_site_occupancy
  Yb  Yb0  1  0.522244  0.079101  0.817047  1
  Yb  Yb1  1  0.478469  0.918963  0.183015  1
  Yb  Yb2  1  0.705198  0.420899  0.182953  1
  Yb  Yb3  1  0.295455  0.581037  0.816985  1
  Dy  Dy4  1  0.302168  0.315453  0.433332  1
  Dy  Dy5  1  0.698685  0.685130  0.568201  1
  Dy  Dy6  1  0.868836  0.184547  0.566668  1
  Dy  Dy7  1  0.130483  0.814870  0.431799  1
  Dy  Dy8  1  0.068718  0.250000  0.000000  1
  Lu  Lu9  1  0.932796  0.750000  0.000000  1
  Ru  Ru10  1  0.312880  0.575383  0.229310  1
  Ru  Ru11  1  0.685827  0.427360  0.771158  1
  Ru  Ru12  1  0.083572  0.924617  0.770690  1
  Ru  Ru13  1  0.914668  0.072640  0.228842  1
