# generated using pymatgen
data_TbLu(Pa2Ga5)2
_symmetry_space_group_name_H-M   'P 1'
_cell_length_a   6.06433800
_cell_length_b   9.50329500
_cell_length_c   11.62527800
_cell_angle_alpha   90.00000000
_cell_angle_beta   90.00000000
_cell_angle_gamma   90.00000000
_symmetry_Int_Tables_number   1
_chemical_formula_structural   TbLu(Pa2Ga5)2
_chemical_formula_sum   'Tb2 Lu2 Pa8 Ga20'
_cell_volume   669.97864002
_cell_formula_units_Z   2
loop_
 _symmetry_equiv_pos_site_id
 _symmetry_equiv_pos_as_xyz
  1  'x, y, z'
loop_
 _atom_site_type_symbol
 _atom_site_label
 _atom_site_symmetry_multiplicity
 _atom_site_fract_x
 _atom_site_fract_y
 _atom_site_fract_z
 _atom_site_occupancy
  Tb  Tb0  1  0.143277  0.250000  0.926963  1
  Tb  Tb1  1  0.356723  0.250000  0.426963  1
  Lu  Lu2  1  0.855985  0.750000  0.073485  1
  Lu  Lu3  1  0.644015  0.750000  0.573485  1
  Pa  Pa4  1  0.882466  0.504630  0.352343  1
  Pa  Pa5  1  0.617534  0.995370  0.852343  1
  Pa  Pa6  1  0.117099  0.003815  0.647777  1
  Pa  Pa7  1  0.382901  0.496185  0.147777  1
  Pa  Pa8  1  0.117099  0.496185  0.647777  1
  Pa  Pa9  1  0.382901  0.003815  0.147777  1
  Pa  Pa10  1  0.882466  0.995370  0.352343  1
  Pa  Pa11  1  0.617534  0.504630  0.852343  1
  Ga  Ga12  1  0.872913  0.050922  0.090585  1
  Ga  Ga13  1  0.627087  0.449078  0.590585  1
  Ga  Ga14  1  0.126595  0.553019  0.909561  1
  Ga  Ga15  1  0.373405  0.946981  0.409561  1
  Ga  Ga16  1  0.126595  0.946981  0.909561  1
  Ga  Ga17  1  0.373405  0.553019  0.409561  1
  Ga  Ga18  1  0.872913  0.449078  0.090585  1
  Ga  Ga19  1  0.627087  0.050922  0.590585  1
  Ga  Ga20  1  0.158930  0.750000  0.262533  1
  Ga  Ga21  1  0.341070  0.750000  0.762533  1
  Ga  Ga22  1  0.839427  0.250000  0.736520  1
  Ga  Ga23  1  0.660573  0.250000  0.236520  1
  Ga  Ga24  1  0.389316  0.750000  0.996366  1
  Ga  Ga25  1  0.110684  0.750000  0.496366  1
  Ga  Ga26  1  0.612873  0.250000  0.003981  1
  Ga  Ga27  1  0.887127  0.250000  0.503981  1
  Ga  Ga28  1  0.598591  0.750000  0.293468  1
  Ga  Ga29  1  0.901409  0.750000  0.793468  1
  Ga  Ga30  1  0.402208  0.250000  0.706154  1
  Ga  Ga31  1  0.097792  0.250000  0.206154  1
