# generated using pymatgen
data_Ti8VBi4S
_symmetry_space_group_name_H-M   'P 1'
_cell_length_a   7.84657552
_cell_length_b   7.84657600
_cell_length_c   7.84657568
_cell_angle_alpha   95.74186401
_cell_angle_beta   95.74187010
_cell_angle_gamma   143.12115233
_symmetry_Int_Tables_number   1
_chemical_formula_structural   Ti8VBi4S
_chemical_formula_sum   'Ti8 V1 Bi4 S1'
_cell_volume   275.03766155
_cell_formula_units_Z   1
loop_
 _symmetry_equiv_pos_site_id
 _symmetry_equiv_pos_as_xyz
  1  'x, y, z'
loop_
 _atom_site_type_symbol
 _atom_site_label
 _atom_site_symmetry_multiplicity
 _atom_site_fract_x
 _atom_site_fract_y
 _atom_site_fract_z
 _atom_site_occupancy
  Ti  Ti0  1  0.579670  0.693391  0.275832  1
  Ti  Ti1  1  0.920330  0.196161  0.113722  1
  Ti  Ti2  1  0.303839  0.579670  0.886278  1
  Ti  Ti3  1  0.806609  0.920330  0.724168  1
  Ti  Ti4  1  0.693391  0.417561  0.113722  1
  Ti  Ti5  1  0.082439  0.806609  0.886278  1
  Ti  Ti6  1  0.417561  0.303839  0.724168  1
  Ti  Ti7  1  0.196161  0.082439  0.275832  1
  V  V8  1  0.750000  0.750000  0.000000  1
  Bi  Bi9  1  0.360590  0.860590  0.221179  1
  Bi  Bi10  1  0.139410  0.360590  0.500000  1
  Bi  Bi11  1  0.639410  0.139410  0.778821  1
  Bi  Bi12  1  0.860590  0.639410  0.500000  1
  S  S13  1  0.250000  0.250000  0.000000  1
