# generated using pymatgen
data_MgPa7(BiPt2)4
_symmetry_space_group_name_H-M   'P 1'
_cell_length_a   7.80565800
_cell_length_b   7.80565845
_cell_length_c   7.60496400
_cell_angle_alpha   90.00000000
_cell_angle_beta   90.00000000
_cell_angle_gamma   90.70234367
_symmetry_Int_Tables_number   1
_chemical_formula_structural   MgPa7(BiPt2)4
_chemical_formula_sum   'Mg1 Pa7 Bi4 Pt8'
_cell_volume   463.32271786
_cell_formula_units_Z   1
loop_
 _symmetry_equiv_pos_site_id
 _symmetry_equiv_pos_as_xyz
  1  'x, y, z'
loop_
 _atom_site_type_symbol
 _atom_site_label
 _atom_site_symmetry_multiplicity
 _atom_site_fract_x
 _atom_site_fract_y
 _atom_site_fract_z
 _atom_site_occupancy
  Mg  Mg0  1  0.165684  0.834316  0.500000  1
  Pa  Pa1  1  0.675470  0.680235  0.000000  1
  Pa  Pa2  1  0.335357  0.338516  0.500000  1
  Pa  Pa3  1  0.823612  0.176388  0.500000  1
  Pa  Pa4  1  0.661484  0.664643  0.500000  1
  Pa  Pa5  1  0.319765  0.324530  0.000000  1
  Pa  Pa6  1  0.845128  0.154872  0.000000  1
  Pa  Pa7  1  0.168824  0.831176  0.000000  1
  Bi  Bi8  1  0.491159  0.997895  0.745822  1
  Bi  Bi9  1  0.491159  0.997895  0.254178  1
  Bi  Bi10  1  0.002105  0.508841  0.745822  1
  Bi  Bi11  1  0.002105  0.508841  0.254178  1
  Pt  Pt12  1  0.870072  0.871353  0.736699  1
  Pt  Pt13  1  0.128647  0.129928  0.736699  1
  Pt  Pt14  1  0.632665  0.367335  0.772535  1
  Pt  Pt15  1  0.632665  0.367335  0.227465  1
  Pt  Pt16  1  0.377688  0.622312  0.243717  1
  Pt  Pt17  1  0.128647  0.129928  0.263301  1
  Pt  Pt18  1  0.870072  0.871353  0.263301  1
  Pt  Pt19  1  0.377688  0.622312  0.756283  1
