# generated using pymatgen
data_Nd2Sm4CoP12Rh17
_symmetry_space_group_name_H-M   'P 1'
_cell_length_a   3.92905200
_cell_length_b   11.23670900
_cell_length_c   12.89039600
_cell_angle_alpha   90.00000000
_cell_angle_beta   90.00000000
_cell_angle_gamma   90.00000000
_symmetry_Int_Tables_number   1
_chemical_formula_structural   Nd2Sm4CoP12Rh17
_chemical_formula_sum   'Nd2 Sm4 Co1 P12 Rh17'
_cell_volume   569.10600732
_cell_formula_units_Z   1
loop_
 _symmetry_equiv_pos_site_id
 _symmetry_equiv_pos_as_xyz
  1  'x, y, z'
loop_
 _atom_site_type_symbol
 _atom_site_label
 _atom_site_symmetry_multiplicity
 _atom_site_fract_x
 _atom_site_fract_y
 _atom_site_fract_z
 _atom_site_occupancy
  Nd  Nd0  1  0.000000  0.500000  0.520544  1
  Nd  Nd1  1  0.500000  0.000000  0.478414  1
  Sm  Sm2  1  0.500000  0.817537  0.203066  1
  Sm  Sm3  1  0.500000  0.182463  0.203066  1
  Sm  Sm4  1  0.000000  0.688113  0.797440  1
  Sm  Sm5  1  0.000000  0.311887  0.797440  1
  Co  Co6  1  0.500000  0.000000  0.020747  1
  P  P7  1  0.500000  0.500000  0.881118  1
  P  P8  1  0.000000  0.000000  0.117954  1
  P  P9  1  0.500000  0.500000  0.346658  1
  P  P10  1  0.000000  0.000000  0.651037  1
  P  P11  1  0.500000  0.313411  0.618669  1
  P  P12  1  0.500000  0.686589  0.618669  1
  P  P13  1  0.000000  0.186608  0.381482  1
  P  P14  1  0.000000  0.813392  0.381482  1
  P  P15  1  0.500000  0.856330  0.896760  1
  P  P16  1  0.500000  0.143670  0.896760  1
  P  P17  1  0.000000  0.655010  0.105801  1
  P  P18  1  0.000000  0.344990  0.105801  1
  Rh  Rh19  1  0.500000  0.500000  0.166788  1
  Rh  Rh20  1  0.000000  0.000000  0.830392  1
  Rh  Rh21  1  0.500000  0.500000  0.704061  1
  Rh  Rh22  1  0.000000  0.000000  0.296497  1
  Rh  Rh23  1  0.000000  0.500000  0.981674  1
  Rh  Rh24  1  0.500000  0.331521  0.994945  1
  Rh  Rh25  1  0.500000  0.668479  0.994945  1
  Rh  Rh26  1  0.000000  0.160187  0.004652  1
  Rh  Rh27  1  0.000000  0.839813  0.004652  1
  Rh  Rh28  1  0.500000  0.292690  0.429609  1
  Rh  Rh29  1  0.500000  0.707310  0.429609  1
  Rh  Rh30  1  0.000000  0.207097  0.570355  1
  Rh  Rh31  1  0.000000  0.792903  0.570355  1
  Rh  Rh32  1  0.500000  0.875071  0.711796  1
  Rh  Rh33  1  0.500000  0.124929  0.711796  1
  Rh  Rh34  1  0.000000  0.626150  0.287485  1
  Rh  Rh35  1  0.000000  0.373850  0.287485  1
