# generated using pymatgen
data_Yb4Pr16(Ir3Rh)3
_symmetry_space_group_name_H-M   'P 1'
_cell_length_a   11.23438900
_cell_length_b   11.23438900
_cell_length_c   6.59539200
_cell_angle_alpha   90.00000000
_cell_angle_beta   90.00000000
_cell_angle_gamma   90.00000000
_symmetry_Int_Tables_number   1
_chemical_formula_structural   Yb4Pr16(Ir3Rh)3
_chemical_formula_sum   'Yb4 Pr16 Ir9 Rh3'
_cell_volume   832.41429237
_cell_formula_units_Z   1
loop_
 _symmetry_equiv_pos_site_id
 _symmetry_equiv_pos_as_xyz
  1  'x, y, z'
loop_
 _atom_site_type_symbol
 _atom_site_label
 _atom_site_symmetry_multiplicity
 _atom_site_fract_x
 _atom_site_fract_y
 _atom_site_fract_z
 _atom_site_occupancy
  Yb  Yb0  1  0.000000  0.000000  0.500013  1
  Yb  Yb1  1  0.000000  0.000000  0.999514  1
  Yb  Yb2  1  0.500000  0.500000  0.999514  1
  Yb  Yb3  1  0.500000  0.500000  0.500013  1
  Pr  Pr4  1  0.287149  0.088831  0.387082  1
  Pr  Pr5  1  0.287325  0.910688  0.886937  1
  Pr  Pr6  1  0.712675  0.089312  0.886937  1
  Pr  Pr7  1  0.712851  0.911169  0.387082  1
  Pr  Pr8  1  0.589312  0.787325  0.886937  1
  Pr  Pr9  1  0.588831  0.212851  0.387082  1
  Pr  Pr10  1  0.411169  0.787149  0.387082  1
  Pr  Pr11  1  0.410688  0.212675  0.886937  1
  Pr  Pr12  1  0.212109  0.411236  0.611785  1
  Pr  Pr13  1  0.212556  0.588945  0.114525  1
  Pr  Pr14  1  0.787444  0.411055  0.114525  1
  Pr  Pr15  1  0.787891  0.588764  0.611785  1
  Pr  Pr16  1  0.911055  0.712556  0.114525  1
  Pr  Pr17  1  0.911236  0.287891  0.611785  1
  Pr  Pr18  1  0.088764  0.712109  0.611785  1
  Pr  Pr19  1  0.088945  0.287444  0.114525  1
  Ir  Ir20  1  0.845114  0.153236  0.249977  1
  Ir  Ir21  1  0.845739  0.845932  0.749809  1
  Ir  Ir22  1  0.154261  0.154068  0.749809  1
  Ir  Ir23  1  0.154886  0.846764  0.249977  1
  Ir  Ir24  1  0.654068  0.345739  0.749809  1
  Ir  Ir25  1  0.653236  0.654886  0.249977  1
  Ir  Ir26  1  0.346764  0.345114  0.249977  1
  Ir  Ir27  1  0.345932  0.654261  0.749809  1
  Ir  Ir28  1  0.000000  0.500000  0.382304  1
  Rh  Rh29  1  0.500000  0.000000  0.115293  1
  Rh  Rh30  1  0.500000  0.000000  0.616226  1
  Rh  Rh31  1  0.000000  0.500000  0.886661  1
