# generated using pymatgen
data_DyY3Sc6(Si5Ir2)4
_symmetry_space_group_name_H-M   'P 1'
_cell_length_a   12.48211607
_cell_length_b   12.48211699
_cell_length_c   4.15828100
_cell_angle_alpha   90.00000000
_cell_angle_beta   90.00000000
_cell_angle_gamma   90.02047243
_symmetry_Int_Tables_number   1
_chemical_formula_structural   DyY3Sc6(Si5Ir2)4
_chemical_formula_sum   'Dy1 Y3 Sc6 Si20 Ir8'
_cell_volume   647.87358257
_cell_formula_units_Z   1
loop_
 _symmetry_equiv_pos_site_id
 _symmetry_equiv_pos_as_xyz
  1  'x, y, z'
loop_
 _atom_site_type_symbol
 _atom_site_label
 _atom_site_symmetry_multiplicity
 _atom_site_fract_x
 _atom_site_fract_y
 _atom_site_fract_z
 _atom_site_occupancy
  Dy  Dy0  1  0.384625  0.115375  0.500000  1
  Y  Y1  1  0.115641  0.615588  0.500000  1
  Y  Y2  1  0.884412  0.384359  0.500000  1
  Y  Y3  1  0.615320  0.884680  0.500000  1
  Sc  Sc4  1  0.673863  0.174081  0.500000  1
  Sc  Sc5  1  0.325919  0.826137  0.500000  1
  Sc  Sc6  1  0.174618  0.325382  0.500000  1
  Sc  Sc7  1  0.825718  0.674282  0.500000  1
  Sc  Sc8  1  0.000286  0.000028  0.000000  1
  Sc  Sc9  1  0.499972  0.499714  0.000000  1
  Si  Si10  1  0.567747  0.067699  0.000000  1
  Si  Si11  1  0.432301  0.932253  0.000000  1
  Si  Si12  1  0.068108  0.431892  0.000000  1
  Si  Si13  1  0.932114  0.567886  0.000000  1
  Si  Si14  1  0.199833  0.165465  0.000000  1
  Si  Si15  1  0.800384  0.834666  0.000000  1
  Si  Si16  1  0.165579  0.800827  0.000000  1
  Si  Si17  1  0.699173  0.334421  0.000000  1
  Si  Si18  1  0.834431  0.199650  0.000000  1
  Si  Si19  1  0.300350  0.665569  0.000000  1
  Si  Si20  1  0.665334  0.699616  0.000000  1
  Si  Si21  1  0.334535  0.300167  0.000000  1
  Si  Si22  1  0.007724  0.150609  0.500000  1
  Si  Si23  1  0.992738  0.849478  0.500000  1
  Si  Si24  1  0.151453  0.993497  0.500000  1
  Si  Si25  1  0.506503  0.348547  0.500000  1
  Si  Si26  1  0.849163  0.007958  0.500000  1
  Si  Si27  1  0.492042  0.650837  0.500000  1
  Si  Si28  1  0.650522  0.507262  0.500000  1
  Si  Si29  1  0.349391  0.492276  0.500000  1
  Ir  Ir30  1  0.020600  0.243797  0.000000  1
  Ir  Ir31  1  0.979586  0.756205  0.000000  1
  Ir  Ir32  1  0.244511  0.979740  0.000000  1
  Ir  Ir33  1  0.520260  0.255489  0.000000  1
  Ir  Ir34  1  0.755824  0.020577  0.000000  1
  Ir  Ir35  1  0.479423  0.744176  0.000000  1
  Ir  Ir36  1  0.743795  0.520414  0.000000  1
  Ir  Ir37  1  0.256203  0.479400  0.000000  1
