# generated using pymatgen
data_Er4Al4NiPd2Ru
_symmetry_space_group_name_H-M   'P 1'
_cell_length_a   4.26468000
_cell_length_b   6.79554435
_cell_length_c   7.87928714
_cell_angle_alpha   90.17615387
_cell_angle_beta   90.00000000
_cell_angle_gamma   90.00000000
_symmetry_Int_Tables_number   1
_chemical_formula_structural   Er4Al4NiPd2Ru
_chemical_formula_sum   'Er4 Al4 Ni1 Pd2 Ru1'
_cell_volume   228.34713946
_cell_formula_units_Z   1
loop_
 _symmetry_equiv_pos_site_id
 _symmetry_equiv_pos_as_xyz
  1  'x, y, z'
loop_
 _atom_site_type_symbol
 _atom_site_label
 _atom_site_symmetry_multiplicity
 _atom_site_fract_x
 _atom_site_fract_y
 _atom_site_fract_z
 _atom_site_occupancy
  Er  Er0  1  0.250000  0.029093  0.325375  1
  Er  Er1  1  0.250000  0.538145  0.184981  1
  Er  Er2  1  0.750000  0.970703  0.670380  1
  Er  Er3  1  0.750000  0.460851  0.818024  1
  Al  Al4  1  0.250000  0.140925  0.939318  1
  Al  Al5  1  0.250000  0.638382  0.553906  1
  Al  Al6  1  0.750000  0.858643  0.065584  1
  Al  Al7  1  0.750000  0.368201  0.443176  1
  Ni  Ni8  1  0.750000  0.730438  0.373242  1
  Pd  Pd9  1  0.250000  0.767575  0.876038  1
  Pd  Pd10  1  0.750000  0.234532  0.126686  1
  Ru  Ru11  1  0.250000  0.262510  0.623293  1
