# generated using pymatgen
data_Tb3Tm7(In2Rh)4
_symmetry_space_group_name_H-M   'P 1'
_cell_length_a   3.58371100
_cell_length_b   8.00522872
_cell_length_c   18.22447647
_cell_angle_alpha   89.88951465
_cell_angle_beta   90.00000000
_cell_angle_gamma   90.00000000
_symmetry_Int_Tables_number   1
_chemical_formula_structural   Tb3Tm7(In2Rh)4
_chemical_formula_sum   'Tb3 Tm7 In8 Rh4'
_cell_volume   522.83057665
_cell_formula_units_Z   1
loop_
 _symmetry_equiv_pos_site_id
 _symmetry_equiv_pos_as_xyz
  1  'x, y, z'
loop_
 _atom_site_type_symbol
 _atom_site_label
 _atom_site_symmetry_multiplicity
 _atom_site_fract_x
 _atom_site_fract_y
 _atom_site_fract_z
 _atom_site_occupancy
  Tb  Tb0  1  0.000000  0.499992  0.499998  1
  Tb  Tb1  1  0.000000  0.999987  0.999784  1
  Tb  Tb2  1  0.000000  0.745620  0.278880  1
  Tm  Tm3  1  0.000000  0.254077  0.721413  1
  Tm  Tm4  1  0.000000  0.754062  0.778546  1
  Tm  Tm5  1  0.000000  0.245630  0.221393  1
  Tm  Tm6  1  0.000000  0.617292  0.087254  1
  Tm  Tm7  1  0.000000  0.382167  0.912419  1
  Tm  Tm8  1  0.000000  0.882341  0.587651  1
  Tm  Tm9  1  0.000000  0.118124  0.412722  1
  In  In10  1  0.500000  0.704586  0.931866  1
  In  In11  1  0.500000  0.295121  0.067848  1
  In  In12  1  0.500000  0.796109  0.433040  1
  In  In13  1  0.500000  0.204533  0.568126  1
  In  In14  1  0.500000  0.572046  0.650761  1
  In  In15  1  0.500000  0.425787  0.349604  1
  In  In16  1  0.500000  0.929794  0.149937  1
  In  In17  1  0.500000  0.072049  0.849230  1
  Rh  Rh18  1  0.500000  0.522201  0.194607  1
  Rh  Rh19  1  0.500000  0.475081  0.804560  1
  Rh  Rh20  1  0.500000  0.975164  0.695505  1
  Rh  Rh21  1  0.500000  0.028237  0.304856  1
