# generated using pymatgen
data_Tb3NdDy3FeI12
_symmetry_space_group_name_H-M   'P 1'
_cell_length_a   9.76819451
_cell_length_b   9.81536668
_cell_length_c   9.82126507
_cell_angle_alpha   106.87908737
_cell_angle_beta   107.20658475
_cell_angle_gamma   106.80145582
_symmetry_Int_Tables_number   1
_chemical_formula_structural   Tb3NdDy3FeI12
_chemical_formula_sum   'Tb3 Nd1 Dy3 Fe1 I12'
_cell_volume   785.00778612
_cell_formula_units_Z   1
loop_
 _symmetry_equiv_pos_site_id
 _symmetry_equiv_pos_as_xyz
  1  'x, y, z'
loop_
 _atom_site_type_symbol
 _atom_site_label
 _atom_site_symmetry_multiplicity
 _atom_site_fract_x
 _atom_site_fract_y
 _atom_site_fract_z
 _atom_site_occupancy
  Tb  Tb0  1  0.904788  0.706310  0.977124  1
  Tb  Tb1  1  0.977336  0.906333  0.705990  1
  Tb  Tb2  1  0.721780  0.978537  0.910890  1
  Nd  Nd3  1  0.286143  0.021701  0.091748  1
  Dy  Dy4  1  0.499438  0.500170  0.499853  1
  Dy  Dy5  1  0.091643  0.291346  0.021927  1
  Dy  Dy6  1  0.021730  0.093569  0.291540  1
  Fe  Fe7  1  0.001805  0.999747  0.000591  1
  I  I8  1  0.463014  0.392178  0.163372  1
  I  I9  1  0.160093  0.462177  0.385203  1
  I  I10  1  0.385655  0.165637  0.469250  1
  I  I11  1  0.537177  0.616049  0.837630  1
  I  I12  1  0.838513  0.536914  0.613886  1
  I  I13  1  0.613856  0.838799  0.539689  1
  I  I14  1  0.773585  0.318184  0.927599  1
  I  I15  1  0.928441  0.776292  0.320410  1
  I  I16  1  0.317550  0.926028  0.767390  1
  I  I17  1  0.221685  0.672327  0.070865  1
  I  I18  1  0.071531  0.225627  0.680235  1
  I  I19  1  0.684237  0.072073  0.224809  1
