# generated using pymatgen
data_Tb3Gd4LuC14
_symmetry_space_group_name_H-M   'P 1'
_cell_length_a   13.79791705
_cell_length_b   3.73703655
_cell_length_c   6.51545399
_cell_angle_alpha   75.24353321
_cell_angle_beta   89.56624008
_cell_angle_gamma   89.44678596
_symmetry_Int_Tables_number   1
_chemical_formula_structural   Tb3Gd4LuC14
_chemical_formula_sum   'Tb3 Gd4 Lu1 C14'
_cell_volume   324.85790799
_cell_formula_units_Z   1
loop_
 _symmetry_equiv_pos_site_id
 _symmetry_equiv_pos_as_xyz
  1  'x, y, z'
loop_
 _atom_site_type_symbol
 _atom_site_label
 _atom_site_symmetry_multiplicity
 _atom_site_fract_x
 _atom_site_fract_y
 _atom_site_fract_z
 _atom_site_occupancy
  Tb  Tb0  1  0.942640  0.384482  0.262272  1
  Tb  Tb1  1  0.445551  0.624990  0.238850  1
  Tb  Tb2  1  0.055412  0.641894  0.739662  1
  Gd  Gd3  1  0.557596  0.357530  0.759207  1
  Gd  Gd4  1  0.668534  0.045965  0.331917  1
  Gd  Gd5  1  0.163201  0.948140  0.163932  1
  Gd  Gd6  1  0.337682  0.941852  0.661772  1
  Lu  Lu7  1  0.842127  0.066990  0.842477  1
  C  C8  1  0.500566  0.998830  0.496459  1
  C  C9  1  0.997100  0.001738  0.003376  1
  C  C10  1  0.784366  0.488980  0.060531  1
  C  C11  1  0.280956  0.525599  0.426027  1
  C  C12  1  0.215799  0.532982  0.924364  1
  C  C13  1  0.719594  0.443434  0.574476  1
  C  C14  1  0.193621  0.375307  0.457008  1
  C  C15  1  0.695380  0.631518  0.035220  1
  C  C16  1  0.394475  0.257429  0.953959  1
  C  C17  1  0.893475  0.745291  0.559170  1
  C  C18  1  0.602806  0.728219  0.048222  1
  C  C19  1  0.101516  0.270410  0.452405  1
  C  C20  1  0.303150  0.376506  0.955347  1
  C  C21  1  0.804451  0.611914  0.553344  1
