# generated using pymatgen
data_Ti3Al2Mo
_symmetry_space_group_name_H-M   'P 1'
_cell_length_a   4.48741100
_cell_length_b   4.48741082
_cell_length_c   5.52634100
_cell_angle_alpha   90.00000000
_cell_angle_beta   90.00000000
_cell_angle_gamma   119.99999398
_symmetry_Int_Tables_number   1
_chemical_formula_structural   Ti3Al2Mo
_chemical_formula_sum   'Ti3 Al2 Mo1'
_cell_volume   96.37402913
_cell_formula_units_Z   1
loop_
 _symmetry_equiv_pos_site_id
 _symmetry_equiv_pos_as_xyz
  1  'x, y, z'
loop_
 _atom_site_type_symbol
 _atom_site_label
 _atom_site_symmetry_multiplicity
 _atom_site_fract_x
 _atom_site_fract_y
 _atom_site_fract_z
 _atom_site_occupancy
  Ti  Ti0  1  0.333333  0.666667  0.675217  1
  Ti  Ti1  1  0.666667  0.333333  0.324783  1
  Ti  Ti2  1  0.000000  0.000000  0.000000  1
  Al  Al3  1  0.333333  0.666667  0.193282  1
  Al  Al4  1  0.666667  0.333333  0.806718  1
  Mo  Mo5  1  0.000000  0.000000  0.500000  1
