# generated using pymatgen
data_Ce3Er(B4Mo)4
_symmetry_space_group_name_H-M   'P 1'
_cell_length_a   3.68335900
_cell_length_b   6.05101081
_cell_length_c   11.69793251
_cell_angle_alpha   89.91122416
_cell_angle_beta   90.00000000
_cell_angle_gamma   90.00000000
_symmetry_Int_Tables_number   1
_chemical_formula_structural   Ce3Er(B4Mo)4
_chemical_formula_sum   'Ce3 Er1 B16 Mo4'
_cell_volume   260.72373496
_cell_formula_units_Z   1
loop_
 _symmetry_equiv_pos_site_id
 _symmetry_equiv_pos_as_xyz
  1  'x, y, z'
loop_
 _atom_site_type_symbol
 _atom_site_label
 _atom_site_symmetry_multiplicity
 _atom_site_fract_x
 _atom_site_fract_y
 _atom_site_fract_z
 _atom_site_occupancy
  Ce  Ce0  1  0.000000  0.625581  0.349236  1
  Ce  Ce1  1  0.000000  0.374348  0.651519  1
  Ce  Ce2  1  0.000000  0.125019  0.150160  1
  Er  Er3  1  0.000000  0.874113  0.849713  1
  B  B4  1  0.500000  0.786930  0.184651  1
  B  B5  1  0.500000  0.212590  0.814759  1
  B  B6  1  0.500000  0.285947  0.314442  1
  B  B7  1  0.500000  0.713922  0.686439  1
  B  B8  1  0.500000  0.865268  0.031556  1
  B  B9  1  0.500000  0.134628  0.967168  1
  B  B10  1  0.500000  0.364398  0.468114  1
  B  B11  1  0.500000  0.635851  0.532610  1
  B  B12  1  0.500000  0.886138  0.453605  1
  B  B13  1  0.500000  0.113351  0.547612  1
  B  B14  1  0.500000  0.386662  0.045952  1
  B  B15  1  0.500000  0.615823  0.952086  1
  B  B16  1  0.500000  0.975311  0.307930  1
  B  B17  1  0.500000  0.024190  0.693380  1
  B  B18  1  0.500000  0.475478  0.191591  1
  B  B19  1  0.500000  0.523849  0.807732  1
  Mo  Mo20  1  0.000000  0.630129  0.084252  1
  Mo  Mo21  1  0.000000  0.370843  0.914903  1
  Mo  Mo22  1  0.000000  0.130619  0.415065  1
  Mo  Mo23  1  0.000000  0.869011  0.585524  1
