# generated using pymatgen
data_Tb16Er4(Ir3Pt)3
_symmetry_space_group_name_H-M   'P 1'
_cell_length_a   10.99814750
_cell_length_b   10.99814750
_cell_length_c   6.35211755
_cell_angle_alpha   89.96631925
_cell_angle_beta   89.96631925
_cell_angle_gamma   90.00884097
_symmetry_Int_Tables_number   1
_chemical_formula_structural   Tb16Er4(Ir3Pt)3
_chemical_formula_sum   'Tb16 Er4 Ir9 Pt3'
_cell_volume   768.34709106
_cell_formula_units_Z   1
loop_
 _symmetry_equiv_pos_site_id
 _symmetry_equiv_pos_as_xyz
  1  'x, y, z'
loop_
 _atom_site_type_symbol
 _atom_site_label
 _atom_site_symmetry_multiplicity
 _atom_site_fract_x
 _atom_site_fract_y
 _atom_site_fract_z
 _atom_site_occupancy
  Tb  Tb0  1  0.293183  0.086702  0.372656  1
  Tb  Tb1  1  0.292397  0.908636  0.877672  1
  Tb  Tb2  1  0.705987  0.089828  0.874308  1
  Tb  Tb3  1  0.704918  0.909906  0.373828  1
  Tb  Tb4  1  0.584943  0.790027  0.878965  1
  Tb  Tb5  1  0.585196  0.210101  0.378836  1
  Tb  Tb6  1  0.411145  0.790218  0.378755  1
  Tb  Tb7  1  0.414470  0.209970  0.878832  1
  Tb  Tb8  1  0.209973  0.415057  0.621035  1
  Tb  Tb9  1  0.209782  0.588855  0.121245  1
  Tb  Tb10  1  0.789899  0.414804  0.121164  1
  Tb  Tb11  1  0.790030  0.585530  0.621168  1
  Tb  Tb12  1  0.913298  0.706817  0.127344  1
  Tb  Tb13  1  0.910172  0.294013  0.625692  1
  Tb  Tb14  1  0.091364  0.707603  0.622328  1
  Tb  Tb15  1  0.090094  0.295082  0.126172  1
  Er  Er16  1  0.001058  0.998128  0.499407  1
  Er  Er17  1  0.001872  0.998942  0.000593  1
  Er  Er18  1  0.499745  0.499866  0.000371  1
  Er  Er19  1  0.500134  0.500255  0.499629  1
  Ir  Ir20  1  0.150714  0.849286  0.250000  1
  Ir  Ir21  1  0.652997  0.347003  0.750000  1
  Ir  Ir22  1  0.653357  0.652801  0.249532  1
  Ir  Ir23  1  0.347199  0.346643  0.250468  1
  Ir  Ir24  1  0.347829  0.652171  0.750000  1
  Ir  Ir25  1  0.500567  0.999985  0.121931  1
  Ir  Ir26  1  0.500412  0.000289  0.623245  1
  Ir  Ir27  1  0.999711  0.499588  0.876755  1
  Ir  Ir28  1  0.000015  0.499433  0.378069  1
  Pt  Pt29  1  0.848389  0.151611  0.250000  1
  Pt  Pt30  1  0.847667  0.848517  0.749915  1
  Pt  Pt31  1  0.151483  0.152333  0.750085  1
