# generated using pymatgen
data_Nb6Al6CoCu5
_symmetry_space_group_name_H-M   'P 1'
_cell_length_a   8.74529600
_cell_length_b   8.73894673
_cell_length_c   8.10427600
_cell_angle_alpha   90.00000000
_cell_angle_beta   90.00000000
_cell_angle_gamma   120.45307946
_symmetry_Int_Tables_number   1
_chemical_formula_structural   Nb6Al6CoCu5
_chemical_formula_sum   'Nb12 Al12 Co2 Cu10'
_cell_volume   533.92163091
_cell_formula_units_Z   2
loop_
 _symmetry_equiv_pos_site_id
 _symmetry_equiv_pos_as_xyz
  1  'x, y, z'
loop_
 _atom_site_type_symbol
 _atom_site_label
 _atom_site_symmetry_multiplicity
 _atom_site_fract_x
 _atom_site_fract_y
 _atom_site_fract_z
 _atom_site_occupancy
  Nb  Nb0  1  0.326338  0.995849  0.067065  1
  Nb  Nb1  1  0.673662  0.004151  0.932935  1
  Nb  Nb2  1  0.996888  0.329255  0.065960  1
  Nb  Nb3  1  0.673662  0.004151  0.567065  1
  Nb  Nb4  1  0.996888  0.329255  0.434040  1
  Nb  Nb5  1  0.003112  0.670745  0.934040  1
  Nb  Nb6  1  0.326338  0.995849  0.432935  1
  Nb  Nb7  1  0.003112  0.670745  0.565960  1
  Nb  Nb8  1  0.668067  0.668531  0.066863  1
  Nb  Nb9  1  0.331933  0.331469  0.933137  1
  Nb  Nb10  1  0.331933  0.331469  0.566863  1
  Nb  Nb11  1  0.668067  0.668531  0.433137  1
  Al  Al12  1  0.843460  0.342586  0.750000  1
  Al  Al13  1  0.156540  0.657414  0.250000  1
  Al  Al14  1  0.340136  0.667230  0.507264  1
  Al  Al15  1  0.659864  0.332770  0.492736  1
  Al  Al16  1  0.659864  0.332770  0.007264  1
  Al  Al17  1  0.340136  0.667230  0.992736  1
  Al  Al18  1  0.178691  0.999974  0.750000  1
  Al  Al19  1  0.821309  0.000026  0.250000  1
  Al  Al20  1  0.007280  0.171942  0.750000  1
  Al  Al21  1  0.992720  0.828058  0.250000  1
  Al  Al22  1  0.826738  0.823330  0.750000  1
  Al  Al23  1  0.173262  0.176670  0.250000  1
  Co  Co24  1  0.000000  0.000000  0.500000  1
  Co  Co25  1  0.000000  0.000000  0.000000  1
  Cu  Cu26  1  0.164695  0.495307  0.750000  1
  Cu  Cu27  1  0.835305  0.504693  0.250000  1
  Cu  Cu28  1  0.507602  0.667379  0.750000  1
  Cu  Cu29  1  0.501706  0.164507  0.750000  1
  Cu  Cu30  1  0.492398  0.332621  0.250000  1
  Cu  Cu31  1  0.498294  0.835493  0.250000  1
  Cu  Cu32  1  0.337159  0.839207  0.750000  1
  Cu  Cu33  1  0.665876  0.501075  0.750000  1
  Cu  Cu34  1  0.662841  0.160793  0.250000  1
  Cu  Cu35  1  0.334124  0.498925  0.250000  1
