# generated using pymatgen
data_Th2Al16RePt8
_symmetry_space_group_name_H-M   'P 1'
_cell_length_a   11.15765386
_cell_length_b   11.15765466
_cell_length_c   11.15765400
_cell_angle_alpha   158.48367012
_cell_angle_beta   116.86527282
_cell_angle_gamma   67.52953681
_symmetry_Int_Tables_number   1
_chemical_formula_structural   Th2Al16RePt8
_chemical_formula_sum   'Th2 Al16 Re1 Pt8'
_cell_volume   451.36527064
_cell_formula_units_Z   1
loop_
 _symmetry_equiv_pos_site_id
 _symmetry_equiv_pos_as_xyz
  1  'x, y, z'
loop_
 _atom_site_type_symbol
 _atom_site_label
 _atom_site_symmetry_multiplicity
 _atom_site_fract_x
 _atom_site_fract_y
 _atom_site_fract_z
 _atom_site_occupancy
  Th  Th0  1  0.231825  0.231019  0.000788  1
  Th  Th1  1  0.769789  0.769015  0.000840  1
  Al  Al2  1  0.276568  0.393032  0.883527  1
  Al  Al3  1  0.090310  0.925315  0.164995  1
  Al  Al4  1  0.502111  0.199439  0.302686  1
  Al  Al5  1  0.239676  0.074686  0.164988  1
  Al  Al6  1  0.909082  0.417211  0.491865  1
  Al  Al7  1  0.725014  0.599887  0.125129  1
  Al  Al8  1  0.902096  0.208332  0.693776  1
  Al  Al9  1  0.485444  0.791663  0.693768  1
  Al  Al10  1  0.391352  0.999997  0.391349  1
  Al  Al11  1  0.626512  0.000000  0.626512  1
  Al  Al12  1  0.490496  0.606969  0.883528  1
  Al  Al13  1  0.103248  0.800564  0.302674  1
  Al  Al14  1  0.905863  0.085859  0.820003  1
  Al  Al15  1  0.734137  0.914144  0.820004  1
  Al  Al16  1  0.525244  0.400109  0.125129  1
  Al  Al17  1  0.074649  0.582772  0.491853  1
  Re  Re18  1  0.782009  0.500006  0.282012  1
  Pt  Pt19  1  0.023295  0.343210  0.680084  1
  Pt  Pt20  1  0.630991  0.127769  0.503224  1
  Pt  Pt21  1  0.256017  0.500001  0.756012  1
  Pt  Pt22  1  0.375460  0.872229  0.503222  1
  Pt  Pt23  1  0.982576  0.999988  0.982570  1
  Pt  Pt24  1  0.648378  0.333687  0.314692  1
  Pt  Pt25  1  0.336864  0.656787  0.680078  1
  Pt  Pt26  1  0.980995  0.666309  0.314687  1
