# generated using pymatgen
data_Er12AlCo4Pb
_symmetry_space_group_name_H-M   'P 1'
_cell_length_a   8.29344050
_cell_length_b   8.29344131
_cell_length_c   8.29344086
_cell_angle_alpha   112.03225892
_cell_angle_beta   109.37815747
_cell_angle_gamma   107.04183980
_symmetry_Int_Tables_number   1
_chemical_formula_structural   Er12AlCo4Pb
_chemical_formula_sum   'Er12 Al1 Co4 Pb1'
_cell_volume   438.28393611
_cell_formula_units_Z   1
loop_
 _symmetry_equiv_pos_site_id
 _symmetry_equiv_pos_as_xyz
  1  'x, y, z'
loop_
 _atom_site_type_symbol
 _atom_site_label
 _atom_site_symmetry_multiplicity
 _atom_site_fract_x
 _atom_site_fract_y
 _atom_site_fract_z
 _atom_site_occupancy
  Er  Er0  1  0.970058  0.266664  0.703395  1
  Er  Er1  1  0.029942  0.733336  0.296605  1
  Er  Er2  1  0.676307  0.862499  0.186191  1
  Er  Er3  1  0.323693  0.509885  0.186191  1
  Er  Er4  1  0.323693  0.137501  0.813809  1
  Er  Er5  1  0.676307  0.490115  0.813809  1
  Er  Er6  1  0.563269  0.266664  0.296605  1
  Er  Er7  1  0.436731  0.733336  0.703395  1
  Er  Er8  1  0.180070  0.780810  0.960880  1
  Er  Er9  1  0.819930  0.780810  0.600742  1
  Er  Er10  1  0.180070  0.219190  0.399258  1
  Er  Er11  1  0.819930  0.219190  0.039120  1
  Al  Al12  1  0.000000  0.500000  0.500000  1
  Co  Co13  1  0.114743  0.114743  0.000000  1
  Co  Co14  1  0.885257  0.885257  0.000000  1
  Co  Co15  1  0.663583  0.500000  0.163583  1
  Co  Co16  1  0.336417  0.500000  0.836417  1
  Pb  Pb17  1  0.500000  0.000000  0.500000  1
