# generated using pymatgen
data_Tb5Dy(Al3Co)8
_symmetry_space_group_name_H-M   'P 1'
_cell_length_a   8.66363800
_cell_length_b   8.66198253
_cell_length_c   9.30789500
_cell_angle_alpha   90.00000000
_cell_angle_beta   90.00000000
_cell_angle_gamma   119.99368150
_symmetry_Int_Tables_number   1
_chemical_formula_structural   Tb5Dy(Al3Co)8
_chemical_formula_sum   'Tb5 Dy1 Al24 Co8'
_cell_volume   604.96096931
_cell_formula_units_Z   1
loop_
 _symmetry_equiv_pos_site_id
 _symmetry_equiv_pos_as_xyz
  1  'x, y, z'
loop_
 _atom_site_type_symbol
 _atom_site_label
 _atom_site_symmetry_multiplicity
 _atom_site_fract_x
 _atom_site_fract_y
 _atom_site_fract_z
 _atom_site_occupancy
  Tb  Tb0  1  0.193736  0.806159  0.250000  1
  Tb  Tb1  1  0.193736  0.387578  0.250000  1
  Tb  Tb2  1  0.612329  0.806165  0.250000  1
  Tb  Tb3  1  0.806153  0.193837  0.750000  1
  Tb  Tb4  1  0.806153  0.612316  0.750000  1
  Dy  Dy5  1  0.388428  0.194213  0.750000  1
  Al  Al6  1  0.559780  0.440055  0.250000  1
  Al  Al7  1  0.559780  0.119725  0.250000  1
  Al  Al8  1  0.880173  0.440087  0.250000  1
  Al  Al9  1  0.440139  0.559573  0.750000  1
  Al  Al10  1  0.440139  0.880566  0.750000  1
  Al  Al11  1  0.119811  0.559906  0.750000  1
  Al  Al12  1  0.325794  0.162897  0.425120  1
  Al  Al13  1  0.837069  0.162899  0.424884  1
  Al  Al14  1  0.837069  0.674170  0.424884  1
  Al  Al15  1  0.674182  0.837091  0.575257  1
  Al  Al16  1  0.163043  0.837407  0.575335  1
  Al  Al17  1  0.163043  0.325636  0.575335  1
  Al  Al18  1  0.674182  0.837091  0.924743  1
  Al  Al19  1  0.163043  0.837407  0.924665  1
  Al  Al20  1  0.163043  0.325636  0.924665  1
  Al  Al21  1  0.325794  0.162897  0.074880  1
  Al  Al22  1  0.837069  0.162899  0.075116  1
  Al  Al23  1  0.837069  0.674170  0.075116  1
  Al  Al24  1  0.666462  0.333231  0.518755  1
  Al  Al25  1  0.333297  0.666649  0.481626  1
  Al  Al26  1  0.333297  0.666649  0.018374  1
  Al  Al27  1  0.666462  0.333231  0.981245  1
  Al  Al28  1  0.999958  0.999980  0.250000  1
  Al  Al29  1  0.000557  0.000279  0.750000  1
  Co  Co30  1  0.999937  0.999968  0.500013  1
  Co  Co31  1  0.999937  0.999968  0.999987  1
  Co  Co32  1  0.499886  0.499794  0.500158  1
  Co  Co33  1  0.499886  0.000092  0.500158  1
  Co  Co34  1  0.999896  0.499947  0.500075  1
  Co  Co35  1  0.499886  0.499794  0.999842  1
  Co  Co36  1  0.499886  0.000092  0.999842  1
  Co  Co37  1  0.999896  0.499947  0.999925  1
