# generated using pymatgen
data_Co2Sb12RuPt
_symmetry_space_group_name_H-M   'P 1'
_cell_length_a   8.08322881
_cell_length_b   8.02838810
_cell_length_c   8.08701019
_cell_angle_alpha   109.48904087
_cell_angle_beta   109.70213900
_cell_angle_gamma   109.40918334
_symmetry_Int_Tables_number   1
_chemical_formula_structural   Co2Sb12RuPt
_chemical_formula_sum   'Co2 Sb12 Ru1 Pt1'
_cell_volume   403.06243879
_cell_formula_units_Z   1
loop_
 _symmetry_equiv_pos_site_id
 _symmetry_equiv_pos_as_xyz
  1  'x, y, z'
loop_
 _atom_site_type_symbol
 _atom_site_label
 _atom_site_symmetry_multiplicity
 _atom_site_fract_x
 _atom_site_fract_y
 _atom_site_fract_z
 _atom_site_occupancy
  Co  Co0  1  0.500000  0.000000  0.000000  1
  Co  Co1  1  0.000000  0.000000  0.500000  1
  Sb  Sb2  1  0.338369  0.846616  0.175782  1
  Sb  Sb3  1  0.661631  0.153384  0.824218  1
  Sb  Sb4  1  0.330414  0.145736  0.495703  1
  Sb  Sb5  1  0.669586  0.854264  0.504297  1
  Sb  Sb6  1  0.840072  0.173190  0.332673  1
  Sb  Sb7  1  0.159928  0.826810  0.667327  1
  Sb  Sb8  1  0.148832  0.495183  0.337476  1
  Sb  Sb9  1  0.851168  0.504817  0.662524  1
  Sb  Sb10  1  0.175673  0.329492  0.837740  1
  Sb  Sb11  1  0.824327  0.670508  0.162260  1
  Sb  Sb12  1  0.495571  0.331127  0.146478  1
  Sb  Sb13  1  0.504429  0.668873  0.853522  1
  Ru  Ru14  1  0.000000  0.500000  0.000000  1
  Pt  Pt15  1  0.500000  0.500000  0.500000  1
