# generated using pymatgen
data_Hf16Fe2Ni2MoRh3
_symmetry_space_group_name_H-M   'P 1'
_cell_length_a   8.64938946
_cell_length_b   8.59311956
_cell_length_c   8.62538900
_cell_angle_alpha   59.87570274
_cell_angle_beta   60.09175159
_cell_angle_gamma   60.24371876
_symmetry_Int_Tables_number   1
_chemical_formula_structural   Hf16Fe2Ni2MoRh3
_chemical_formula_sum   'Hf16 Fe2 Ni2 Mo1 Rh3'
_cell_volume   454.02861317
_cell_formula_units_Z   1
loop_
 _symmetry_equiv_pos_site_id
 _symmetry_equiv_pos_as_xyz
  1  'x, y, z'
loop_
 _atom_site_type_symbol
 _atom_site_label
 _atom_site_symmetry_multiplicity
 _atom_site_fract_x
 _atom_site_fract_y
 _atom_site_fract_z
 _atom_site_occupancy
  Hf  Hf0  1  0.669620  0.112015  0.109182  1
  Hf  Hf1  1  0.109940  0.678956  0.105552  1
  Hf  Hf2  1  0.106296  0.106092  0.683873  1
  Hf  Hf3  1  0.106296  0.106092  0.103738  1
  Hf  Hf4  1  0.312594  0.312436  0.687485  1
  Hf  Hf5  1  0.691080  0.681272  0.313824  1
  Hf  Hf6  1  0.315103  0.686501  0.312412  1
  Hf  Hf7  1  0.691383  0.314578  0.681343  1
  Hf  Hf8  1  0.691383  0.314578  0.312696  1
  Hf  Hf9  1  0.315103  0.686501  0.685984  1
  Hf  Hf10  1  0.944645  0.951794  0.551780  1
  Hf  Hf11  1  0.558958  0.557394  0.941824  1
  Hf  Hf12  1  0.941327  0.552053  0.945111  1
  Hf  Hf13  1  0.551546  0.943497  0.561191  1
  Hf  Hf14  1  0.551546  0.943497  0.943767  1
  Hf  Hf15  1  0.941327  0.552053  0.561510  1
  Fe  Fe16  1  0.319158  0.895219  0.892812  1
  Fe  Fe17  1  0.893228  0.316740  0.895017  1
  Ni  Ni18  1  0.891326  0.895576  0.315961  1
  Ni  Ni19  1  0.891326  0.895576  0.897137  1
  Mo  Mo20  1  0.002910  0.331049  0.333020  1
  Rh  Rh21  1  0.334604  0.992382  0.336507  1
  Rh  Rh22  1  0.334653  0.337076  0.993232  1
  Rh  Rh23  1  0.334653  0.337076  0.335039  1
