# generated using pymatgen
data_Yb3(B3Ir4)2
_symmetry_space_group_name_H-M   'P 1'
_cell_length_a   9.88569013
_cell_length_b   9.03179253
_cell_length_c   5.61785507
_cell_angle_alpha   81.26746628
_cell_angle_beta   64.55951713
_cell_angle_gamma   34.17302200
_symmetry_Int_Tables_number   1
_chemical_formula_structural   Yb3(B3Ir4)2
_chemical_formula_sum   'Yb3 B6 Ir8'
_cell_volume   233.02957032
_cell_formula_units_Z   1
loop_
 _symmetry_equiv_pos_site_id
 _symmetry_equiv_pos_as_xyz
  1  'x, y, z'
loop_
 _atom_site_type_symbol
 _atom_site_label
 _atom_site_symmetry_multiplicity
 _atom_site_fract_x
 _atom_site_fract_y
 _atom_site_fract_z
 _atom_site_occupancy
  Yb  Yb0  1  0.677663  0.677663  0.322337  1
  Yb  Yb1  1  0.500000  0.500000  0.500000  1
  Yb  Yb2  1  0.322337  0.322337  0.677663  1
  B  B3  1  0.017849  0.328243  0.671757  1
  B  B4  1  0.982151  0.671757  0.328243  1
  B  B5  1  0.830962  0.169038  0.830962  1
  B  B6  1  0.328243  0.017849  0.982151  1
  B  B7  1  0.671757  0.982151  0.017849  1
  B  B8  1  0.169038  0.830962  0.169038  1
  Ir  Ir9  1  0.585208  0.585208  0.914792  1
  Ir  Ir10  1  0.086000  0.086000  0.914000  1
  Ir  Ir11  1  0.085208  0.085208  0.414792  1
  Ir  Ir12  1  0.250000  0.250000  0.250000  1
  Ir  Ir13  1  0.914792  0.914792  0.585208  1
  Ir  Ir14  1  0.414792  0.414792  0.085208  1
  Ir  Ir15  1  0.750000  0.750000  0.750000  1
  Ir  Ir16  1  0.914000  0.914000  0.086000  1
