# generated using pymatgen
data_Li(TiTe2)4
_symmetry_space_group_name_H-M   'P 1'
_cell_length_a   8.06792146
_cell_length_b   8.06792154
_cell_length_c   9.64714100
_cell_angle_alpha   49.73310301
_cell_angle_beta   49.73310084
_cell_angle_gamma   56.07005237
_symmetry_Int_Tables_number   1
_chemical_formula_structural   Li(TiTe2)4
_chemical_formula_sum   'Li1 Ti4 Te8'
_cell_volume   354.81959929
_cell_formula_units_Z   1
loop_
 _symmetry_equiv_pos_site_id
 _symmetry_equiv_pos_as_xyz
  1  'x, y, z'
loop_
 _atom_site_type_symbol
 _atom_site_label
 _atom_site_symmetry_multiplicity
 _atom_site_fract_x
 _atom_site_fract_y
 _atom_site_fract_z
 _atom_site_occupancy
  Li  Li0  1  0.000000  0.000000  0.000000  1
  Ti  Ti1  1  0.742911  0.257089  0.500000  1
  Ti  Ti2  1  0.257089  0.742911  0.500000  1
  Ti  Ti3  1  0.747515  0.747515  0.004026  1
  Ti  Ti4  1  0.252485  0.252485  0.995974  1
  Te  Te5  1  0.461392  0.461392  0.330555  1
  Te  Te6  1  0.538608  0.538608  0.669445  1
  Te  Te7  1  0.533318  0.038296  0.170743  1
  Te  Te8  1  0.466682  0.961704  0.829257  1
  Te  Te9  1  0.961704  0.466682  0.829257  1
  Te  Te10  1  0.038296  0.533318  0.170743  1
  Te  Te11  1  0.964553  0.964553  0.334460  1
  Te  Te12  1  0.035447  0.035447  0.665540  1
