# generated using pymatgen
data_Er4BCl6
_symmetry_space_group_name_H-M   'P 1'
_cell_length_a   3.81703300
_cell_length_b   12.56061800
_cell_length_c   13.02220500
_cell_angle_alpha   90.00000000
_cell_angle_beta   90.00000000
_cell_angle_gamma   90.00000000
_symmetry_Int_Tables_number   1
_chemical_formula_structural   Er4BCl6
_chemical_formula_sum   'Er8 B2 Cl12'
_cell_volume   624.34041732
_cell_formula_units_Z   2
loop_
 _symmetry_equiv_pos_site_id
 _symmetry_equiv_pos_as_xyz
  1  'x, y, z'
loop_
 _atom_site_type_symbol
 _atom_site_label
 _atom_site_symmetry_multiplicity
 _atom_site_fract_x
 _atom_site_fract_y
 _atom_site_fract_z
 _atom_site_occupancy
  Er  Er0  1  0.000000  0.105603  0.083736  1
  Er  Er1  1  0.000000  0.894397  0.916264  1
  Er  Er2  1  0.000000  0.605603  0.416264  1
  Er  Er3  1  0.000000  0.394397  0.583736  1
  Er  Er4  1  0.500000  0.125568  0.852341  1
  Er  Er5  1  0.500000  0.874432  0.147659  1
  Er  Er6  1  0.500000  0.625568  0.647659  1
  Er  Er7  1  0.500000  0.374432  0.352341  1
  B  B8  1  0.500000  0.000000  0.000000  1
  B  B9  1  0.500000  0.500000  0.500000  1
  Cl  Cl10  1  0.500000  0.268174  0.681910  1
  Cl  Cl11  1  0.500000  0.731826  0.318090  1
  Cl  Cl12  1  0.500000  0.768174  0.818090  1
  Cl  Cl13  1  0.500000  0.231826  0.181910  1
  Cl  Cl14  1  0.000000  0.256396  0.930056  1
  Cl  Cl15  1  0.000000  0.743604  0.069944  1
  Cl  Cl16  1  0.000000  0.478817  0.243685  1
  Cl  Cl17  1  0.000000  0.521183  0.756315  1
  Cl  Cl18  1  0.000000  0.978817  0.256315  1
  Cl  Cl19  1  0.000000  0.021183  0.743685  1
  Cl  Cl20  1  0.000000  0.243604  0.430056  1
  Cl  Cl21  1  0.000000  0.756396  0.569944  1
