# generated using pymatgen
data_La2SmU3(Sb4Pt3)2
_symmetry_space_group_name_H-M   'P 1'
_cell_length_a   8.54408983
_cell_length_b   8.55276349
_cell_length_c   8.56395468
_cell_angle_alpha   109.87714488
_cell_angle_beta   109.54035190
_cell_angle_gamma   109.06628858
_symmetry_Int_Tables_number   1
_chemical_formula_structural   La2SmU3(Sb4Pt3)2
_chemical_formula_sum   'La2 Sm1 U3 Sb8 Pt6'
_cell_volume   481.31774190
_cell_formula_units_Z   1
loop_
 _symmetry_equiv_pos_site_id
 _symmetry_equiv_pos_as_xyz
  1  'x, y, z'
loop_
 _atom_site_type_symbol
 _atom_site_label
 _atom_site_symmetry_multiplicity
 _atom_site_fract_x
 _atom_site_fract_y
 _atom_site_fract_z
 _atom_site_occupancy
  La  La0  1  0.627209  0.751135  0.375131  1
  La  La1  1  0.249990  0.126030  0.876220  1
  Sm  Sm2  1  0.874401  0.250137  0.125311  1
  U  U3  1  0.748850  0.374400  0.624378  1
  U  U4  1  0.124076  0.874925  0.249926  1
  U  U5  1  0.376195  0.624498  0.749944  1
  Sb  Sb6  1  0.674429  0.500845  0.999771  1
  Sb  Sb7  1  0.495617  0.995786  0.671674  1
  Sb  Sb8  1  0.003198  0.672490  0.499209  1
  Sb  Sb9  1  0.828258  0.829561  0.828116  1
  Sb  Sb10  1  0.495452  0.995345  0.166315  1
  Sb  Sb11  1  0.173435  0.501821  0.004463  1
  Sb  Sb12  1  0.004184  0.175714  0.501525  1
  Sb  Sb13  1  0.324644  0.326329  0.326033  1
  Pt  Pt14  1  0.390430  0.256619  0.618453  1
  Pt  Pt15  1  0.108372  0.724594  0.863004  1
  Pt  Pt16  1  0.248501  0.625148  0.379578  1
  Pt  Pt17  1  0.751425  0.875246  0.119402  1
  Pt  Pt18  1  0.639874  0.375852  0.276883  1
  Pt  Pt19  1  0.861460  0.143526  0.744664  1
