# generated using pymatgen
data_ErLu(TaN2)2
_symmetry_space_group_name_H-M   'P 1'
_cell_length_a   3.16064700
_cell_length_b   3.16064574
_cell_length_c   10.94110400
_cell_angle_alpha   90.00000000
_cell_angle_beta   90.00000000
_cell_angle_gamma   119.99998184
_symmetry_Int_Tables_number   1
_chemical_formula_structural   ErLu(TaN2)2
_chemical_formula_sum   'Er1 Lu1 Ta2 N4'
_cell_volume   94.65502433
_cell_formula_units_Z   1
loop_
 _symmetry_equiv_pos_site_id
 _symmetry_equiv_pos_as_xyz
  1  'x, y, z'
loop_
 _atom_site_type_symbol
 _atom_site_label
 _atom_site_symmetry_multiplicity
 _atom_site_fract_x
 _atom_site_fract_y
 _atom_site_fract_z
 _atom_site_occupancy
  Er  Er0  1  0.000000  0.000000  0.000000  1
  Lu  Lu1  1  0.000000  0.000000  0.500000  1
  Ta  Ta2  1  0.333333  0.666667  0.251406  1
  Ta  Ta3  1  0.666667  0.333333  0.748594  1
  N  N4  1  0.333333  0.666667  0.627837  1
  N  N5  1  0.666667  0.333333  0.372163  1
  N  N6  1  0.666667  0.333333  0.132835  1
  N  N7  1  0.333333  0.666667  0.867165  1
