# generated using pymatgen
data_U4Re5(Si3Rh)2
_symmetry_space_group_name_H-M   'P 1'
_cell_length_a   7.14434799
_cell_length_b   7.14434782
_cell_length_c   7.14434879
_cell_angle_alpha   110.12363930
_cell_angle_beta   109.14599741
_cell_angle_gamma   109.14600052
_symmetry_Int_Tables_number   1
_chemical_formula_structural   U4Re5(Si3Rh)2
_chemical_formula_sum   'U4 Re5 Si6 Rh2'
_cell_volume   280.68788230
_cell_formula_units_Z   1
loop_
 _symmetry_equiv_pos_site_id
 _symmetry_equiv_pos_as_xyz
  1  'x, y, z'
loop_
 _atom_site_type_symbol
 _atom_site_label
 _atom_site_symmetry_multiplicity
 _atom_site_fract_x
 _atom_site_fract_y
 _atom_site_fract_z
 _atom_site_occupancy
  U  U0  1  0.499999  0.495143  0.504855  1
  U  U1  1  0.009711  0.004856  0.504855  1
  U  U2  1  0.499999  0.004856  0.995144  1
  U  U3  1  0.990289  0.495143  0.995144  1
  Re  Re4  1  0.500000  0.250000  0.750000  1
  Re  Re5  1  0.250157  0.501422  0.751578  1
  Re  Re6  1  0.749843  0.248422  0.498578  1
  Re  Re7  1  0.749843  0.501422  0.251265  1
  Re  Re8  1  0.250157  0.748735  0.498578  1
  Si  Si9  1  0.000000  0.309524  0.309524  1
  Si  Si10  1  0.000000  0.690475  0.690475  1
  Si  Si11  1  0.309605  0.996718  0.306323  1
  Si  Si12  1  0.309605  0.312886  0.003282  1
  Si  Si13  1  0.690394  0.996718  0.687113  1
  Si  Si14  1  0.690394  0.693676  0.003282  1
  Rh  Rh15  1  0.000000  0.000000  0.000000  1
  Rh  Rh16  1  0.500000  0.750000  0.250000  1
