# generated using pymatgen
data_TmTiNbGa4
_symmetry_space_group_name_H-M   'P 1'
_cell_length_a   5.51054154
_cell_length_b   5.51054112
_cell_length_c   5.51054180
_cell_angle_alpha   104.30861936
_cell_angle_beta   104.30861732
_cell_angle_gamma   120.37852515
_symmetry_Int_Tables_number   1
_chemical_formula_structural   TmTiNbGa4
_chemical_formula_sum   'Tm1 Ti1 Nb1 Ga4'
_cell_volume   125.25642521
_cell_formula_units_Z   1
loop_
 _symmetry_equiv_pos_site_id
 _symmetry_equiv_pos_as_xyz
  1  'x, y, z'
loop_
 _atom_site_type_symbol
 _atom_site_label
 _atom_site_symmetry_multiplicity
 _atom_site_fract_x
 _atom_site_fract_y
 _atom_site_fract_z
 _atom_site_occupancy
  Tm  Tm0  1  0.000000  0.000000  0.000000  1
  Ti  Ti1  1  0.750000  0.250000  0.500000  1
  Nb  Nb2  1  0.250000  0.750000  0.500000  1
  Ga  Ga3  1  0.302473  0.302473  0.604944  1
  Ga  Ga4  1  0.697527  0.697527  0.395056  1
  Ga  Ga5  1  0.697527  0.302473  0.000000  1
  Ga  Ga6  1  0.302473  0.697527  0.000000  1
