# generated using pymatgen
data_Tb11Nd5Cd4IrPd3
_symmetry_space_group_name_H-M   'P 1'
_cell_length_a   9.79762493
_cell_length_b   9.77731460
_cell_length_c   9.77731525
_cell_angle_alpha   60.09065712
_cell_angle_beta   60.19858932
_cell_angle_gamma   60.19859078
_symmetry_Int_Tables_number   1
_chemical_formula_structural   Tb11Nd5Cd4IrPd3
_chemical_formula_sum   'Tb11 Nd5 Cd4 Ir1 Pd3'
_cell_volume   664.72280733
_cell_formula_units_Z   1
loop_
 _symmetry_equiv_pos_site_id
 _symmetry_equiv_pos_as_xyz
  1  'x, y, z'
loop_
 _atom_site_type_symbol
 _atom_site_label
 _atom_site_symmetry_multiplicity
 _atom_site_fract_x
 _atom_site_fract_y
 _atom_site_fract_z
 _atom_site_occupancy
  Tb  Tb0  1  0.353348  0.346809  0.346809  1
  Tb  Tb1  1  0.356270  0.351667  0.945276  1
  Tb  Tb2  1  0.356270  0.945276  0.351667  1
  Tb  Tb3  1  0.934999  0.356322  0.356322  1
  Tb  Tb4  1  0.807327  0.188408  0.188408  1
  Tb  Tb5  1  0.188128  0.811789  0.811789  1
  Tb  Tb6  1  0.190275  0.811694  0.189170  1
  Tb  Tb7  1  0.807875  0.187835  0.816523  1
  Tb  Tb8  1  0.190275  0.189170  0.811694  1
  Tb  Tb9  1  0.807875  0.816523  0.187835  1
  Tb  Tb10  1  0.942637  0.560050  0.560050  1
  Nd  Nd11  1  0.562917  0.939371  0.939371  1
  Nd  Nd12  1  0.566809  0.936449  0.560624  1
  Nd  Nd13  1  0.939656  0.559604  0.935063  1
  Nd  Nd14  1  0.566809  0.560624  0.936449  1
  Nd  Nd15  1  0.939656  0.935063  0.559604  1
  Cd  Cd16  1  0.582182  0.579769  0.579769  1
  Cd  Cd17  1  0.577949  0.581296  0.259498  1
  Cd  Cd18  1  0.577949  0.259498  0.581296  1
  Cd  Cd19  1  0.259100  0.578582  0.578582  1
  Ir  Ir20  1  0.571079  0.142000  0.142000  1
  Pd  Pd21  1  0.141539  0.146671  0.146671  1
  Pd  Pd22  1  0.139537  0.146137  0.569387  1
  Pd  Pd23  1  0.139537  0.569387  0.146137  1
