# generated using pymatgen
data_Tb4Dy5(BiO)5
_symmetry_space_group_name_H-M   'P 1'
_cell_length_a   10.02799209
_cell_length_b   10.03411413
_cell_length_c   8.97305718
_cell_angle_alpha   90.01775656
_cell_angle_beta   90.01485482
_cell_angle_gamma   90.00395145
_symmetry_Int_Tables_number   1
_chemical_formula_structural   Tb4Dy5(BiO)5
_chemical_formula_sum   'Tb8 Dy10 Bi10 O10'
_cell_volume   902.88703740
_cell_formula_units_Z   2
loop_
 _symmetry_equiv_pos_site_id
 _symmetry_equiv_pos_as_xyz
  1  'x, y, z'
loop_
 _atom_site_type_symbol
 _atom_site_label
 _atom_site_symmetry_multiplicity
 _atom_site_fract_x
 _atom_site_fract_y
 _atom_site_fract_z
 _atom_site_occupancy
  Tb  Tb0  1  0.500019  0.999855  0.678965  1
  Tb  Tb1  1  0.793208  0.105298  0.336093  1
  Tb  Tb2  1  0.274361  0.083356  0.002068  1
  Tb  Tb3  1  0.583601  0.225565  0.002144  1
  Tb  Tb4  1  0.206771  0.894510  0.336203  1
  Tb  Tb5  1  0.605292  0.706876  0.336059  1
  Tb  Tb6  1  0.293178  0.605408  0.663871  1
  Tb  Tb7  1  0.000023  0.500023  0.320868  1
  Dy  Dy8  1  0.416344  0.774307  0.002293  1
  Dy  Dy9  1  0.225433  0.416587  0.997850  1
  Dy  Dy10  1  0.894654  0.793035  0.664726  1
  Dy  Dy11  1  0.083692  0.725458  0.997660  1
  Dy  Dy12  1  0.916423  0.274508  0.997647  1
  Dy  Dy13  1  0.774513  0.583777  0.997687  1
  Dy  Dy14  1  0.725592  0.916174  0.002140  1
  Dy  Dy15  1  0.394494  0.293200  0.335384  1
  Dy  Dy16  1  0.706989  0.394690  0.664617  1
  Dy  Dy17  1  0.105382  0.206955  0.664616  1
  Bi  Bi18  1  0.595247  0.693858  0.697251  1
  Bi  Bi19  1  0.905084  0.805931  0.303022  1
  Bi  Bi20  1  0.693874  0.405035  0.303109  1
  Bi  Bi21  1  0.999705  0.499916  0.681115  1
  Bi  Bi22  1  0.305992  0.594638  0.302729  1
  Bi  Bi23  1  0.806200  0.094988  0.697248  1
  Bi  Bi24  1  0.405032  0.305969  0.696794  1
  Bi  Bi25  1  0.193700  0.905216  0.697131  1
  Bi  Bi26  1  0.095124  0.194201  0.303157  1
  Bi  Bi27  1  0.499911  0.000301  0.318861  1
  O  O28  1  0.225980  0.878815  0.083797  1
  O  O29  1  0.273800  0.620244  0.916632  1
  O  O30  1  0.119584  0.226711  0.915332  1
  O  O31  1  0.879760  0.773951  0.915758  1
  O  O32  1  0.726587  0.380357  0.915320  1
  O  O33  1  0.500238  0.999455  0.937321  1
  O  O34  1  0.774606  0.119921  0.083734  1
  O  O35  1  0.999985  0.499965  0.062411  1
  O  O36  1  0.379291  0.274801  0.085000  1
  O  O37  1  0.620333  0.726150  0.083387  1
