# generated using pymatgen
data_LaCeBr6
_symmetry_space_group_name_H-M   'P 1'
_cell_length_a   8.26069600
_cell_length_b   8.26069627
_cell_length_c   4.37647600
_cell_angle_alpha   90.00000000
_cell_angle_beta   90.00000000
_cell_angle_gamma   119.99999751
_symmetry_Int_Tables_number   1
_chemical_formula_structural   LaCeBr6
_chemical_formula_sum   'La1 Ce1 Br6'
_cell_volume   258.63571001
_cell_formula_units_Z   1
loop_
 _symmetry_equiv_pos_site_id
 _symmetry_equiv_pos_as_xyz
  1  'x, y, z'
loop_
 _atom_site_type_symbol
 _atom_site_label
 _atom_site_symmetry_multiplicity
 _atom_site_fract_x
 _atom_site_fract_y
 _atom_site_fract_z
 _atom_site_occupancy
  La  La0  1  0.666667  0.333333  0.750000  1
  Ce  Ce1  1  0.333333  0.666667  0.250000  1
  Br  Br2  1  0.911341  0.610056  0.250000  1
  Br  Br3  1  0.092196  0.393198  0.750000  1
  Br  Br4  1  0.606802  0.698998  0.750000  1
  Br  Br5  1  0.389944  0.301285  0.250000  1
  Br  Br6  1  0.301002  0.907804  0.750000  1
  Br  Br7  1  0.698715  0.088659  0.250000  1
