# generated using pymatgen
data_Lu8NiAg2Rh
_symmetry_space_group_name_H-M   'P 1'
_cell_length_a   9.28383612
_cell_length_b   9.28383715
_cell_length_c   9.31194300
_cell_angle_alpha   59.89980750
_cell_angle_beta   59.89980382
_cell_angle_gamma   59.82812299
_symmetry_Int_Tables_number   1
_chemical_formula_structural   Lu8NiAg2Rh
_chemical_formula_sum   'Lu16 Ni2 Ag4 Rh2'
_cell_volume   565.92035890
_cell_formula_units_Z   2
loop_
 _symmetry_equiv_pos_site_id
 _symmetry_equiv_pos_as_xyz
  1  'x, y, z'
loop_
 _atom_site_type_symbol
 _atom_site_label
 _atom_site_symmetry_multiplicity
 _atom_site_fract_x
 _atom_site_fract_y
 _atom_site_fract_z
 _atom_site_occupancy
  Lu  Lu0  1  0.352927  0.352927  0.345639  1
  Lu  Lu1  1  0.352927  0.352927  0.948505  1
  Lu  Lu2  1  0.356859  0.944222  0.349458  1
  Lu  Lu3  1  0.944222  0.356859  0.349458  1
  Lu  Lu4  1  0.808327  0.188725  0.188795  1
  Lu  Lu5  1  0.188725  0.808327  0.814152  1
  Lu  Lu6  1  0.188725  0.808327  0.188795  1
  Lu  Lu7  1  0.808327  0.188725  0.814152  1
  Lu  Lu8  1  0.188702  0.188702  0.811298  1
  Lu  Lu9  1  0.811109  0.811109  0.188891  1
  Lu  Lu10  1  0.935225  0.564150  0.565733  1
  Lu  Lu11  1  0.564150  0.935225  0.934892  1
  Lu  Lu12  1  0.564150  0.935225  0.565733  1
  Lu  Lu13  1  0.935225  0.564150  0.934892  1
  Lu  Lu14  1  0.565447  0.565447  0.934553  1
  Lu  Lu15  1  0.935638  0.935638  0.564362  1
  Ni  Ni16  1  0.142890  0.571359  0.142875  1
  Ni  Ni17  1  0.571359  0.142890  0.142875  1
  Ag  Ag18  1  0.582386  0.582386  0.582823  1
  Ag  Ag19  1  0.582386  0.582386  0.252406  1
  Ag  Ag20  1  0.582417  0.251260  0.583162  1
  Ag  Ag21  1  0.251260  0.582417  0.583162  1
  Rh  Rh22  1  0.143308  0.143308  0.143721  1
  Rh  Rh23  1  0.143308  0.143308  0.569663  1
