# generated using pymatgen
data_Ce(NpS2)3
_symmetry_space_group_name_H-M   'P 1'
_cell_length_a   3.97269300
_cell_length_b   7.31485634
_cell_length_c   15.01846810
_cell_angle_alpha   89.90697929
_cell_angle_beta   90.00000000
_cell_angle_gamma   90.00000000
_symmetry_Int_Tables_number   1
_chemical_formula_structural   Ce(NpS2)3
_chemical_formula_sum   'Ce2 Np6 S12'
_cell_volume   436.43128038
_cell_formula_units_Z   2
loop_
 _symmetry_equiv_pos_site_id
 _symmetry_equiv_pos_as_xyz
  1  'x, y, z'
loop_
 _atom_site_type_symbol
 _atom_site_label
 _atom_site_symmetry_multiplicity
 _atom_site_fract_x
 _atom_site_fract_y
 _atom_site_fract_z
 _atom_site_occupancy
  Ce  Ce0  1  0.250000  0.630290  0.709629  1
  Ce  Ce1  1  0.750000  0.369710  0.290371  1
  Np  Np2  1  0.250000  0.257369  0.040131  1
  Np  Np3  1  0.750000  0.742631  0.959869  1
  Np  Np4  1  0.250000  0.759953  0.460094  1
  Np  Np5  1  0.750000  0.240047  0.539906  1
  Np  Np6  1  0.250000  0.128853  0.789296  1
  Np  Np7  1  0.750000  0.871147  0.210704  1
  S  S8  1  0.250000  0.146076  0.218185  1
  S  S9  1  0.750000  0.853924  0.781815  1
  S  S10  1  0.250000  0.654505  0.278963  1
  S  S11  1  0.750000  0.345495  0.721037  1
  S  S12  1  0.250000  0.371456  0.431950  1
  S  S13  1  0.750000  0.628544  0.568050  1
  S  S14  1  0.250000  0.868870  0.069726  1
  S  S15  1  0.750000  0.131130  0.930274  1
  S  S16  1  0.750000  0.488801  0.104238  1
  S  S17  1  0.250000  0.511199  0.895762  1
  S  S18  1  0.750000  0.988033  0.393430  1
  S  S19  1  0.250000  0.011967  0.606570  1
