# generated using pymatgen
data_Tm9LuRh4
_symmetry_space_group_name_H-M   'P 1'
_cell_length_a   6.38001290
_cell_length_b   7.08125906
_cell_length_c   8.44117524
_cell_angle_alpha   96.69424710
_cell_angle_beta   112.20430156
_cell_angle_gamma   89.99999828
_symmetry_Int_Tables_number   1
_chemical_formula_structural   Tm9LuRh4
_chemical_formula_sum   'Tm9 Lu1 Rh4'
_cell_volume   350.26920518
_cell_formula_units_Z   1
loop_
 _symmetry_equiv_pos_site_id
 _symmetry_equiv_pos_as_xyz
  1  'x, y, z'
loop_
 _atom_site_type_symbol
 _atom_site_label
 _atom_site_symmetry_multiplicity
 _atom_site_fract_x
 _atom_site_fract_y
 _atom_site_fract_z
 _atom_site_occupancy
  Tm  Tm0  1  0.523815  0.081899  0.813866  1
  Tm  Tm1  1  0.476322  0.917831  0.186040  1
  Tm  Tm2  1  0.709948  0.418101  0.186134  1
  Tm  Tm3  1  0.290283  0.582169  0.813960  1
  Tm  Tm4  1  0.289796  0.312525  0.439956  1
  Tm  Tm5  1  0.710184  0.687551  0.560291  1
  Tm  Tm6  1  0.849841  0.187475  0.560044  1
  Tm  Tm7  1  0.149892  0.812449  0.439709  1
  Tm  Tm8  1  0.074108  0.250000  0.000000  1
  Lu  Lu9  1  0.926103  0.750000  0.000000  1
  Rh  Rh10  1  0.323018  0.571478  0.219535  1
  Rh  Rh11  1  0.676849  0.429034  0.780489  1
  Rh  Rh12  1  0.103484  0.928522  0.780465  1
  Rh  Rh13  1  0.896359  0.070966  0.219511  1
