# generated using pymatgen
data_CsAuSe5
_symmetry_space_group_name_H-M   'P 1'
_cell_length_a   11.50320577
_cell_length_b   11.50320648
_cell_length_c   11.50320650
_cell_angle_alpha   125.93828330
_cell_angle_beta   120.32285197
_cell_angle_gamma   84.73367002
_symmetry_Int_Tables_number   1
_chemical_formula_structural   CsAuSe5
_chemical_formula_sum   'Cs4 Au4 Se20'
_cell_volume   1017.23114877
_cell_formula_units_Z   4
loop_
 _symmetry_equiv_pos_site_id
 _symmetry_equiv_pos_as_xyz
  1  'x, y, z'
loop_
 _atom_site_type_symbol
 _atom_site_label
 _atom_site_symmetry_multiplicity
 _atom_site_fract_x
 _atom_site_fract_y
 _atom_site_fract_z
 _atom_site_occupancy
  Cs  Cs0  1  0.500000  0.500000  0.000000  1
  Cs  Cs1  1  0.000000  0.000000  0.000000  1
  Cs  Cs2  1  0.750000  0.250000  0.500000  1
  Cs  Cs3  1  0.250000  0.750000  0.500000  1
  Au  Au4  1  0.615383  0.750000  0.865383  1
  Au  Au5  1  0.884617  0.750000  0.134617  1
  Au  Au6  1  0.384617  0.250000  0.134617  1
  Au  Au7  1  0.115383  0.250000  0.865383  1
  Se  Se8  1  0.210140  0.149106  0.686046  1
  Se  Se9  1  0.289860  0.975906  0.938966  1
  Se  Se10  1  0.036940  0.350894  0.061034  1
  Se  Se11  1  0.463060  0.524094  0.313954  1
  Se  Se12  1  0.789860  0.850894  0.313954  1
  Se  Se13  1  0.710140  0.024094  0.061034  1
  Se  Se14  1  0.963060  0.649106  0.938966  1
  Se  Se15  1  0.536940  0.475906  0.686046  1
  Se  Se16  1  0.934755  0.836552  0.541371  1
  Se  Se17  1  0.565245  0.106617  0.901797  1
  Se  Se18  1  0.204821  0.663448  0.098203  1
  Se  Se19  1  0.295179  0.393383  0.458629  1
  Se  Se20  1  0.065245  0.163448  0.458629  1
  Se  Se21  1  0.434755  0.893383  0.098203  1
  Se  Se22  1  0.795180  0.336552  0.901797  1
  Se  Se23  1  0.704821  0.606617  0.541371  1
  Se  Se24  1  0.649671  0.094465  0.744136  1
  Se  Se25  1  0.850329  0.594465  0.444794  1
  Se  Se26  1  0.149671  0.405535  0.555206  1
  Se  Se27  1  0.350329  0.905535  0.255864  1
