# generated using pymatgen
data_La2Al20Re3Rh
_symmetry_space_group_name_H-M   'P 1'
_cell_length_a   6.96900809
_cell_length_b   6.95810376
_cell_length_c   9.29224347
_cell_angle_alpha   90.36817979
_cell_angle_beta   90.16700694
_cell_angle_gamma   96.67545318
_symmetry_Int_Tables_number   1
_chemical_formula_structural   La2Al20Re3Rh
_chemical_formula_sum   'La2 Al20 Re3 Rh1'
_cell_volume   447.52389149
_cell_formula_units_Z   1
loop_
 _symmetry_equiv_pos_site_id
 _symmetry_equiv_pos_as_xyz
  1  'x, y, z'
loop_
 _atom_site_type_symbol
 _atom_site_label
 _atom_site_symmetry_multiplicity
 _atom_site_fract_x
 _atom_site_fract_y
 _atom_site_fract_z
 _atom_site_occupancy
  La  La0  1  0.874172  0.120239  0.750538  1
  La  La1  1  0.125828  0.879761  0.249462  1
  Al  Al2  1  0.618692  0.377138  0.547947  1
  Al  Al3  1  0.381308  0.622862  0.452053  1
  Al  Al4  1  0.378066  0.622165  0.046531  1
  Al  Al5  1  0.621934  0.377835  0.953469  1
  Al  Al6  1  0.227288  0.227360  0.498713  1
  Al  Al7  1  0.772712  0.772640  0.501287  1
  Al  Al8  1  0.771420  0.771570  0.999256  1
  Al  Al9  1  0.228580  0.228430  0.000744  1
  Al  Al10  1  0.838555  0.163107  0.100813  1
  Al  Al11  1  0.161445  0.836893  0.899187  1
  Al  Al12  1  0.161536  0.839636  0.601625  1
  Al  Al13  1  0.838464  0.160364  0.398375  1
  Al  Al14  1  0.861623  0.591555  0.749893  1
  Al  Al15  1  0.138377  0.408445  0.250107  1
  Al  Al16  1  0.407844  0.138520  0.749778  1
  Al  Al17  1  0.592156  0.861480  0.250222  1
  Al  Al18  1  0.220936  0.479217  0.753423  1
  Al  Al19  1  0.779064  0.520783  0.246577  1
  Al  Al20  1  0.520147  0.779780  0.748676  1
  Al  Al21  1  0.479853  0.220220  0.251324  1
  Re  Re22  1  0.000000  0.500000  0.000000  1
  Re  Re23  1  0.500000  0.000000  0.000000  1
  Re  Re24  1  0.500000  0.000000  0.500000  1
  Rh  Rh25  1  0.000000  0.500000  0.500000  1
