# generated using pymatgen
data_La6Zn4Pd12Pt
_symmetry_space_group_name_H-M   'P 1'
_cell_length_a   8.48026135
_cell_length_b   8.48026213
_cell_length_c   8.48026200
_cell_angle_alpha   109.47122032
_cell_angle_beta   109.47122219
_cell_angle_gamma   109.47122060
_symmetry_Int_Tables_number   1
_chemical_formula_structural   La6Zn4Pd12Pt
_chemical_formula_sum   'La6 Zn4 Pd12 Pt1'
_cell_volume   469.46788277
_cell_formula_units_Z   1
loop_
 _symmetry_equiv_pos_site_id
 _symmetry_equiv_pos_as_xyz
  1  'x, y, z'
loop_
 _atom_site_type_symbol
 _atom_site_label
 _atom_site_symmetry_multiplicity
 _atom_site_fract_x
 _atom_site_fract_y
 _atom_site_fract_z
 _atom_site_occupancy
  La  La0  1  0.697536  0.697536  0.000000  1
  La  La1  1  0.302464  0.000000  0.302464  1
  La  La2  1  0.000000  0.302464  0.302464  1
  La  La3  1  0.302464  0.302464  0.000000  1
  La  La4  1  0.697536  0.000000  0.697536  1
  La  La5  1  0.000000  0.697536  0.697536  1
  Zn  Zn6  1  0.000000  0.000000  0.500000  1
  Zn  Zn7  1  0.000000  0.500000  0.000000  1
  Zn  Zn8  1  0.500000  0.000000  0.000000  1
  Zn  Zn9  1  0.500000  0.500000  0.500000  1
  Pd  Pd10  1  0.330294  0.330294  0.660589  1
  Pd  Pd11  1  0.669706  0.000000  0.330294  1
  Pd  Pd12  1  0.000000  0.669706  0.330294  1
  Pd  Pd13  1  0.669706  0.330294  0.000000  1
  Pd  Pd14  1  0.330294  0.660589  0.330294  1
  Pd  Pd15  1  0.000000  0.330294  0.669706  1
  Pd  Pd16  1  0.330294  0.669706  0.000000  1
  Pd  Pd17  1  0.330294  0.000000  0.669706  1
  Pd  Pd18  1  0.660589  0.330294  0.330294  1
  Pd  Pd19  1  0.669706  0.669706  0.339411  1
  Pd  Pd20  1  0.669706  0.339411  0.669706  1
  Pd  Pd21  1  0.339411  0.669706  0.669706  1
  Pt  Pt22  1  0.000000  0.000000  0.000000  1
