# generated using pymatgen
data_Lu5SiSe4
_symmetry_space_group_name_H-M   'P 1'
_cell_length_a   6.93690467
_cell_length_b   6.93690560
_cell_length_c   6.93690559
_cell_angle_alpha   99.55689827
_cell_angle_beta   99.55690912
_cell_angle_gamma   131.90871884
_symmetry_Int_Tables_number   1
_chemical_formula_structural   Lu5SiSe4
_chemical_formula_sum   'Lu5 Si1 Se4'
_cell_volume   226.86564439
_cell_formula_units_Z   1
loop_
 _symmetry_equiv_pos_site_id
 _symmetry_equiv_pos_as_xyz
  1  'x, y, z'
loop_
 _atom_site_type_symbol
 _atom_site_label
 _atom_site_symmetry_multiplicity
 _atom_site_fract_x
 _atom_site_fract_y
 _atom_site_fract_z
 _atom_site_occupancy
  Lu  Lu0  1  0.404065  0.788285  0.192350  1
  Lu  Lu1  1  0.000000  0.000000  0.000000  1
  Lu  Lu2  1  0.595935  0.211715  0.807650  1
  Lu  Lu3  1  0.211715  0.404065  0.615780  1
  Lu  Lu4  1  0.788285  0.595935  0.384220  1
  Si  Si5  1  0.500000  0.500000  0.000000  1
  Se  Se6  1  0.096721  0.697240  0.793960  1
  Se  Se7  1  0.697240  0.903279  0.600520  1
  Se  Se8  1  0.302760  0.096721  0.399480  1
  Se  Se9  1  0.903279  0.302760  0.206040  1
