# generated using pymatgen
data_Ca10Nd2Sn3AsN4
_symmetry_space_group_name_H-M   'P 1'
_cell_length_a   6.88300921
_cell_length_b   6.88110449
_cell_length_c   9.86907300
_cell_angle_alpha   90.00000000
_cell_angle_beta   90.00000000
_cell_angle_gamma   90.02943487
_symmetry_Int_Tables_number   1
_chemical_formula_structural   Ca10Nd2Sn3AsN4
_chemical_formula_sum   'Ca10 Nd2 Sn3 As1 N4'
_cell_volume   467.42593706
_cell_formula_units_Z   1
loop_
 _symmetry_equiv_pos_site_id
 _symmetry_equiv_pos_as_xyz
  1  'x, y, z'
loop_
 _atom_site_type_symbol
 _atom_site_label
 _atom_site_symmetry_multiplicity
 _atom_site_fract_x
 _atom_site_fract_y
 _atom_site_fract_z
 _atom_site_occupancy
  Ca  Ca0  1  0.004744  0.498139  0.250000  1
  Ca  Ca1  1  0.490830  0.000847  0.250000  1
  Ca  Ca2  1  0.748418  0.251461  0.012401  1
  Ca  Ca3  1  0.755101  0.755194  0.485904  1
  Ca  Ca4  1  0.245835  0.245894  0.007738  1
  Ca  Ca5  1  0.252193  0.747742  0.491972  1
  Ca  Ca6  1  0.252193  0.747742  0.008028  1
  Ca  Ca7  1  0.245835  0.245894  0.492262  1
  Ca  Ca8  1  0.755101  0.755194  0.014096  1
  Ca  Ca9  1  0.748418  0.251461  0.487599  1
  Nd  Nd10  1  0.503683  0.999227  0.750000  1
  Nd  Nd11  1  0.995977  0.500713  0.750000  1
  Sn  Sn12  1  0.000248  0.999914  0.750000  1
  Sn  Sn13  1  0.499486  0.499655  0.750000  1
  Sn  Sn14  1  0.499941  0.500180  0.250000  1
  As  As15  1  0.001729  0.000658  0.250000  1
  N  N16  1  0.500017  0.000027  0.500570  1
  N  N17  1  0.000119  0.500015  0.999433  1
  N  N18  1  0.000119  0.500015  0.500567  1
  N  N19  1  0.500017  0.000027  0.999430  1
