# generated using pymatgen
data_YTm3(Ga2Ag)4
_symmetry_space_group_name_H-M   'P 1'
_cell_length_a   4.36960200
_cell_length_b   6.91781667
_cell_length_c   10.23525507
_cell_angle_alpha   90.08624931
_cell_angle_beta   90.00000000
_cell_angle_gamma   90.00000000
_symmetry_Int_Tables_number   1
_chemical_formula_structural   YTm3(Ga2Ag)4
_chemical_formula_sum   'Y1 Tm3 Ga8 Ag4'
_cell_volume   309.39202003
_cell_formula_units_Z   1
loop_
 _symmetry_equiv_pos_site_id
 _symmetry_equiv_pos_as_xyz
  1  'x, y, z'
loop_
 _atom_site_type_symbol
 _atom_site_label
 _atom_site_symmetry_multiplicity
 _atom_site_fract_x
 _atom_site_fract_y
 _atom_site_fract_z
 _atom_site_occupancy
  Y  Y0  1  0.250000  0.278247  0.675771  1
  Tm  Tm1  1  0.250000  0.777961  0.825483  1
  Tm  Tm2  1  0.750000  0.221838  0.174820  1
  Tm  Tm3  1  0.750000  0.722087  0.325299  1
  Ga  Ga4  1  0.250000  0.703720  0.536062  1
  Ga  Ga5  1  0.750000  0.298666  0.462341  1
  Ga  Ga6  1  0.750000  0.797448  0.037035  1
  Ga  Ga7  1  0.250000  0.199616  0.965274  1
  Ga  Ga8  1  0.250000  0.929335  0.155005  1
  Ga  Ga9  1  0.750000  0.068411  0.846855  1
  Ga  Ga10  1  0.750000  0.572370  0.653747  1
  Ga  Ga11  1  0.250000  0.430699  0.344946  1
  Ag  Ag12  1  0.250000  0.544274  0.095897  1
  Ag  Ag13  1  0.750000  0.455451  0.903215  1
  Ag  Ag14  1  0.750000  0.955133  0.595949  1
  Ag  Ag15  1  0.250000  0.044745  0.402300  1
