# generated using pymatgen
data_Li4Sm4Si7Ge
_symmetry_space_group_name_H-M   'P 1'
_cell_length_a   3.86039400
_cell_length_b   7.67901307
_cell_length_c   10.38577442
_cell_angle_alpha   89.93981127
_cell_angle_beta   90.00000000
_cell_angle_gamma   90.00000000
_symmetry_Int_Tables_number   1
_chemical_formula_structural   Li4Sm4Si7Ge
_chemical_formula_sum   'Li4 Sm4 Si7 Ge1'
_cell_volume   307.87589295
_cell_formula_units_Z   1
loop_
 _symmetry_equiv_pos_site_id
 _symmetry_equiv_pos_as_xyz
  1  'x, y, z'
loop_
 _atom_site_type_symbol
 _atom_site_label
 _atom_site_symmetry_multiplicity
 _atom_site_fract_x
 _atom_site_fract_y
 _atom_site_fract_z
 _atom_site_occupancy
  Li  Li0  1  0.250000  0.489692  0.392153  1
  Li  Li1  1  0.250000  0.989120  0.108705  1
  Li  Li2  1  0.750000  0.511785  0.605828  1
  Li  Li3  1  0.750000  0.009274  0.892215  1
  Sm  Sm4  1  0.250000  0.136916  0.633679  1
  Sm  Sm5  1  0.250000  0.643593  0.865548  1
  Sm  Sm6  1  0.750000  0.860058  0.364818  1
  Sm  Sm7  1  0.750000  0.360476  0.136445  1
  Si  Si8  1  0.250000  0.227609  0.932537  1
  Si  Si9  1  0.250000  0.731380  0.570572  1
  Si  Si10  1  0.750000  0.768800  0.071002  1
  Si  Si11  1  0.750000  0.268424  0.429581  1
  Si  Si12  1  0.250000  0.158567  0.320994  1
  Si  Si13  1  0.250000  0.658840  0.179425  1
  Si  Si14  1  0.750000  0.840938  0.679499  1
  Ge  Ge15  1  0.750000  0.344528  0.817001  1
