# generated using pymatgen
data_La3Mg3Pd2Ru
_symmetry_space_group_name_H-M   'P 1'
_cell_length_a   7.67764600
_cell_length_b   7.67764695
_cell_length_c   4.14381900
_cell_angle_alpha   90.00000000
_cell_angle_beta   90.00000000
_cell_angle_gamma   120.00000451
_symmetry_Int_Tables_number   1
_chemical_formula_structural   La3Mg3Pd2Ru
_chemical_formula_sum   'La3 Mg3 Pd2 Ru1'
_cell_volume   211.53761858
_cell_formula_units_Z   1
loop_
 _symmetry_equiv_pos_site_id
 _symmetry_equiv_pos_as_xyz
  1  'x, y, z'
loop_
 _atom_site_type_symbol
 _atom_site_label
 _atom_site_symmetry_multiplicity
 _atom_site_fract_x
 _atom_site_fract_y
 _atom_site_fract_z
 _atom_site_occupancy
  La  La0  1  0.428097  0.411496  0.500000  1
  La  La1  1  0.588504  0.016601  0.500000  1
  La  La2  1  0.983399  0.571903  0.500000  1
  Mg  Mg3  1  0.761226  0.760890  0.000000  1
  Mg  Mg4  1  0.239110  0.000336  0.000000  1
  Mg  Mg5  1  0.999664  0.238774  0.000000  1
  Pd  Pd6  1  0.333333  0.666667  0.000000  1
  Pd  Pd7  1  0.000000  0.000000  0.500000  1
  Ru  Ru8  1  0.666667  0.333333  0.000000  1
