# generated using pymatgen
data_Ca3La2Zr3(Ni4As3)4
_symmetry_space_group_name_H-M   'P 1'
_cell_length_a   12.86254513
_cell_length_b   12.86254609
_cell_length_c   4.00345900
_cell_angle_alpha   90.00000000
_cell_angle_beta   90.00000000
_cell_angle_gamma   119.98358137
_symmetry_Int_Tables_number   1
_chemical_formula_structural   Ca3La2Zr3(Ni4As3)4
_chemical_formula_sum   'Ca3 La2 Zr3 Ni16 As12'
_cell_volume   573.70904992
_cell_formula_units_Z   1
loop_
 _symmetry_equiv_pos_site_id
 _symmetry_equiv_pos_as_xyz
  1  'x, y, z'
loop_
 _atom_site_type_symbol
 _atom_site_label
 _atom_site_symmetry_multiplicity
 _atom_site_fract_x
 _atom_site_fract_y
 _atom_site_fract_z
 _atom_site_occupancy
  Ca  Ca0  1  0.188900  0.188900  0.500000  1
  Ca  Ca1  1  0.333135  0.668039  0.000000  1
  Ca  Ca2  1  0.668039  0.333135  0.000000  1
  La  La3  1  0.813501  0.001088  0.500000  1
  La  La4  1  0.001088  0.813501  0.500000  1
  Zr  Zr5  1  0.567860  0.567860  0.000000  1
  Zr  Zr6  1  0.429001  0.000659  0.000000  1
  Zr  Zr7  1  0.000659  0.429001  0.000000  1
  Ni  Ni8  1  0.720483  0.720483  0.500000  1
  Ni  Ni9  1  0.278384  0.001982  0.500000  1
  Ni  Ni10  1  0.001982  0.278384  0.500000  1
  Ni  Ni11  1  0.190828  0.383642  0.000000  1
  Ni  Ni12  1  0.616182  0.805638  0.000000  1
  Ni  Ni13  1  0.193079  0.812729  0.000000  1
  Ni  Ni14  1  0.805638  0.616182  0.000000  1
  Ni  Ni15  1  0.812729  0.193079  0.000000  1
  Ni  Ni16  1  0.383642  0.190828  0.000000  1
  Ni  Ni17  1  0.363945  0.484449  0.500000  1
  Ni  Ni18  1  0.513452  0.879390  0.500000  1
  Ni  Ni19  1  0.119966  0.634434  0.500000  1
  Ni  Ni20  1  0.879390  0.513452  0.500000  1
  Ni  Ni21  1  0.634434  0.119966  0.500000  1
  Ni  Ni22  1  0.484449  0.363945  0.500000  1
  Ni  Ni23  1  0.999573  0.999573  0.000000  1
  As  As24  1  0.816333  0.816333  0.000000  1
  As  As25  1  0.183819  0.005839  0.000000  1
  As  As26  1  0.005839  0.183819  0.000000  1
  As  As27  1  0.174271  0.478647  0.500000  1
  As  As28  1  0.521191  0.694873  0.500000  1
  As  As29  1  0.302840  0.827296  0.500000  1
  As  As30  1  0.694873  0.521191  0.500000  1
  As  As31  1  0.827296  0.302840  0.500000  1
  As  As32  1  0.478647  0.174271  0.500000  1
  As  As33  1  0.359573  0.359573  0.000000  1
  As  As34  1  0.635313  0.999667  0.000000  1
  As  As35  1  0.999667  0.635313  0.000000  1
