# generated using pymatgen
data_Y2GaB2RuRh4
_symmetry_space_group_name_H-M   'P 1'
_cell_length_a   9.60466400
_cell_length_b   9.60466400
_cell_length_c   3.12614300
_cell_angle_alpha   90.00000000
_cell_angle_beta   90.00000000
_cell_angle_gamma   90.00000000
_symmetry_Int_Tables_number   1
_chemical_formula_structural   Y2GaB2RuRh4
_chemical_formula_sum   'Y4 Ga2 B4 Ru2 Rh8'
_cell_volume   288.38534924
_cell_formula_units_Z   2
loop_
 _symmetry_equiv_pos_site_id
 _symmetry_equiv_pos_as_xyz
  1  'x, y, z'
loop_
 _atom_site_type_symbol
 _atom_site_label
 _atom_site_symmetry_multiplicity
 _atom_site_fract_x
 _atom_site_fract_y
 _atom_site_fract_z
 _atom_site_occupancy
  Y  Y0  1  0.825109  0.325109  0.000000  1
  Y  Y1  1  0.325109  0.174891  0.000000  1
  Y  Y2  1  0.674891  0.825109  0.000000  1
  Y  Y3  1  0.174891  0.674891  0.000000  1
  Ga  Ga4  1  0.000000  0.000000  0.000000  1
  Ga  Ga5  1  0.500000  0.500000  0.000000  1
  B  B6  1  0.621192  0.121192  0.000000  1
  B  B7  1  0.121192  0.378808  0.000000  1
  B  B8  1  0.878808  0.621192  0.000000  1
  B  B9  1  0.378808  0.878808  0.000000  1
  Ru  Ru10  1  0.500000  0.000000  0.500000  1
  Ru  Ru11  1  0.000000  0.500000  0.500000  1
  Rh  Rh12  1  0.070569  0.218131  0.500000  1
  Rh  Rh13  1  0.218131  0.929431  0.500000  1
  Rh  Rh14  1  0.781869  0.070569  0.500000  1
  Rh  Rh15  1  0.929431  0.781869  0.500000  1
  Rh  Rh16  1  0.429431  0.718131  0.500000  1
  Rh  Rh17  1  0.570569  0.281869  0.500000  1
  Rh  Rh18  1  0.718131  0.570569  0.500000  1
  Rh  Rh19  1  0.281869  0.429431  0.500000  1
