# generated using pymatgen
data_Tb2Y2AlCo
_symmetry_space_group_name_H-M   'P 1'
_cell_length_a   9.45602642
_cell_length_b   9.45602717
_cell_length_c   9.46678600
_cell_angle_alpha   59.96235557
_cell_angle_beta   59.96235294
_cell_angle_gamma   60.07529311
_symmetry_Int_Tables_number   1
_chemical_formula_structural   Tb2Y2AlCo
_chemical_formula_sum   'Tb8 Y8 Al4 Co4'
_cell_volume   598.55467882
_cell_formula_units_Z   4
loop_
 _symmetry_equiv_pos_site_id
 _symmetry_equiv_pos_as_xyz
  1  'x, y, z'
loop_
 _atom_site_type_symbol
 _atom_site_label
 _atom_site_symmetry_multiplicity
 _atom_site_fract_x
 _atom_site_fract_y
 _atom_site_fract_z
 _atom_site_occupancy
  Tb  Tb0  1  0.349089  0.349089  0.349242  1
  Tb  Tb1  1  0.349089  0.349089  0.952582  1
  Tb  Tb2  1  0.349242  0.952582  0.349089  1
  Tb  Tb3  1  0.952582  0.349242  0.349089  1
  Tb  Tb4  1  0.808696  0.191304  0.191304  1
  Tb  Tb5  1  0.191304  0.808696  0.808696  1
  Tb  Tb6  1  0.191304  0.808696  0.191304  1
  Tb  Tb7  1  0.808696  0.191304  0.808696  1
  Y  Y8  1  0.192121  0.192121  0.807879  1
  Y  Y9  1  0.807879  0.807879  0.192121  1
  Y  Y10  1  0.938358  0.561642  0.561642  1
  Y  Y11  1  0.561642  0.938358  0.938358  1
  Y  Y12  1  0.561642  0.938358  0.561642  1
  Y  Y13  1  0.938358  0.561642  0.938358  1
  Y  Y14  1  0.561308  0.561308  0.938692  1
  Y  Y15  1  0.938692  0.938692  0.561308  1
  Al  Al16  1  0.577323  0.577323  0.576688  1
  Al  Al17  1  0.577323  0.577323  0.268665  1
  Al  Al18  1  0.576688  0.268665  0.577323  1
  Al  Al19  1  0.268665  0.576688  0.577323  1
  Co  Co20  1  0.140429  0.140429  0.142993  1
  Co  Co21  1  0.140429  0.140429  0.576151  1
  Co  Co22  1  0.142993  0.576151  0.140429  1
  Co  Co23  1  0.576151  0.142993  0.140429  1
