# generated using pymatgen
data_CeDy(ErSb5)2
_symmetry_space_group_name_H-M   'P 1'
_cell_length_a   4.23946600
_cell_length_b   13.24868914
_cell_length_c   14.67871500
_cell_angle_alpha   78.09942612
_cell_angle_beta   90.00000000
_cell_angle_gamma   90.00000000
_symmetry_Int_Tables_number   1
_chemical_formula_structural   CeDy(ErSb5)2
_chemical_formula_sum   'Ce2 Dy2 Er4 Sb20'
_cell_volume   806.74448711
_cell_formula_units_Z   2
loop_
 _symmetry_equiv_pos_site_id
 _symmetry_equiv_pos_as_xyz
  1  'x, y, z'
loop_
 _atom_site_type_symbol
 _atom_site_label
 _atom_site_symmetry_multiplicity
 _atom_site_fract_x
 _atom_site_fract_y
 _atom_site_fract_z
 _atom_site_occupancy
  Ce  Ce0  1  0.250000  0.673227  0.573566  1
  Ce  Ce1  1  0.750000  0.326773  0.426434  1
  Dy  Dy2  1  0.250000  0.951269  0.355140  1
  Dy  Dy3  1  0.750000  0.048731  0.644860  1
  Er  Er4  1  0.250000  0.392294  0.773410  1
  Er  Er5  1  0.750000  0.607706  0.226590  1
  Er  Er6  1  0.250000  0.661857  0.857521  1
  Er  Er7  1  0.750000  0.338143  0.142479  1
  Sb  Sb8  1  0.250000  0.144430  0.778341  1
  Sb  Sb9  1  0.750000  0.855570  0.221659  1
  Sb  Sb10  1  0.250000  0.138446  0.483355  1
  Sb  Sb11  1  0.750000  0.861554  0.516645  1
  Sb  Sb12  1  0.250000  0.152043  0.166167  1
  Sb  Sb13  1  0.750000  0.847957  0.833833  1
  Sb  Sb14  1  0.250000  0.420258  0.977378  1
  Sb  Sb15  1  0.750000  0.579742  0.022622  1
  Sb  Sb16  1  0.750000  0.032347  0.910079  1
  Sb  Sb17  1  0.250000  0.967653  0.089921  1
  Sb  Sb18  1  0.750000  0.137130  0.314663  1
  Sb  Sb19  1  0.250000  0.862870  0.685337  1
  Sb  Sb20  1  0.750000  0.279089  0.938332  1
  Sb  Sb21  1  0.250000  0.720911  0.061668  1
  Sb  Sb22  1  0.750000  0.287087  0.656239  1
  Sb  Sb23  1  0.250000  0.712913  0.343761  1
  Sb  Sb24  1  0.750000  0.576611  0.734606  1
  Sb  Sb25  1  0.250000  0.423389  0.265394  1
  Sb  Sb26  1  0.750000  0.571550  0.446441  1
  Sb  Sb27  1  0.250000  0.428450  0.553559  1
