# generated using pymatgen
data_MgCr5(SiRu2)6
_symmetry_space_group_name_H-M   'P 1'
_cell_length_a   4.19263101
_cell_length_b   5.93427400
_cell_length_c   12.57661702
_cell_angle_alpha   90.00000000
_cell_angle_beta   90.00563972
_cell_angle_gamma   90.00000000
_symmetry_Int_Tables_number   1
_chemical_formula_structural   MgCr5(SiRu2)6
_chemical_formula_sum   'Mg1 Cr5 Si6 Ru12'
_cell_volume   312.90901133
_cell_formula_units_Z   1
loop_
 _symmetry_equiv_pos_site_id
 _symmetry_equiv_pos_as_xyz
  1  'x, y, z'
loop_
 _atom_site_type_symbol
 _atom_site_label
 _atom_site_symmetry_multiplicity
 _atom_site_fract_x
 _atom_site_fract_y
 _atom_site_fract_z
 _atom_site_occupancy
  Mg  Mg0  1  0.000000  0.500001  0.000000  1
  Cr  Cr1  1  0.499693  0.000000  0.164926  1
  Cr  Cr2  1  0.999689  0.500001  0.332668  1
  Cr  Cr3  1  0.500000  0.000000  0.500000  1
  Cr  Cr4  1  0.000312  0.500001  0.667332  1
  Cr  Cr5  1  0.500306  0.000000  0.835074  1
  Si  Si6  1  0.000000  0.000000  0.000000  1
  Si  Si7  1  0.499717  0.500001  0.165821  1
  Si  Si8  1  0.999689  0.000000  0.331877  1
  Si  Si9  1  0.500000  0.500001  0.500000  1
  Si  Si10  1  0.000312  0.000000  0.668123  1
  Si  Si11  1  0.500284  0.500001  0.834179  1
  Ru  Ru12  1  0.500000  0.242269  0.000000  1
  Ru  Ru13  1  0.500000  0.757731  0.000000  1
  Ru  Ru14  1  0.999703  0.246579  0.170622  1
  Ru  Ru15  1  0.999703  0.753421  0.170622  1
  Ru  Ru16  1  0.499771  0.250562  0.334681  1
  Ru  Ru17  1  0.499771  0.749438  0.334681  1
  Ru  Ru18  1  0.000000  0.249357  0.500000  1
  Ru  Ru19  1  0.000000  0.750643  0.500000  1
  Ru  Ru20  1  0.500230  0.250562  0.665319  1
  Ru  Ru21  1  0.500230  0.749438  0.665319  1
  Ru  Ru22  1  0.000298  0.246579  0.829378  1
  Ru  Ru23  1  0.000298  0.753421  0.829378  1
