# generated using pymatgen
data_YHoMn8(CoP3)2
_symmetry_space_group_name_H-M   'P 1'
_cell_length_a   3.60039200
_cell_length_b   10.54922844
_cell_length_c   12.18431750
_cell_angle_alpha   90.03293226
_cell_angle_beta   90.00000000
_cell_angle_gamma   90.00000000
_symmetry_Int_Tables_number   1
_chemical_formula_structural   YHoMn8(CoP3)2
_chemical_formula_sum   'Y2 Ho2 Mn16 Co4 P12'
_cell_volume   462.77684456
_cell_formula_units_Z   2
loop_
 _symmetry_equiv_pos_site_id
 _symmetry_equiv_pos_as_xyz
  1  'x, y, z'
loop_
 _atom_site_type_symbol
 _atom_site_label
 _atom_site_symmetry_multiplicity
 _atom_site_fract_x
 _atom_site_fract_y
 _atom_site_fract_z
 _atom_site_occupancy
  Y  Y0  1  0.750000  0.415868  0.291997  1
  Y  Y1  1  0.250000  0.584132  0.708003  1
  Ho  Ho2  1  0.250000  0.916030  0.207859  1
  Ho  Ho3  1  0.750000  0.083970  0.792141  1
  Mn  Mn4  1  0.250000  0.787772  0.488054  1
  Mn  Mn5  1  0.750000  0.212228  0.511946  1
  Mn  Mn6  1  0.750000  0.287450  0.011894  1
  Mn  Mn7  1  0.250000  0.712550  0.988106  1
  Mn  Mn8  1  0.250000  0.092453  0.992665  1
  Mn  Mn9  1  0.750000  0.907547  0.007335  1
  Mn  Mn10  1  0.750000  0.592695  0.507151  1
  Mn  Mn11  1  0.250000  0.407305  0.492849  1
  Mn  Mn12  1  0.250000  0.282948  0.676556  1
  Mn  Mn13  1  0.750000  0.717052  0.323444  1
  Mn  Mn14  1  0.750000  0.783605  0.823752  1
  Mn  Mn15  1  0.250000  0.216395  0.176248  1
  Mn  Mn16  1  0.250000  0.622074  0.197537  1
  Mn  Mn17  1  0.750000  0.377926  0.802463  1
  Mn  Mn18  1  0.750000  0.121257  0.302302  1
  Mn  Mn19  1  0.250000  0.878743  0.697698  1
  Co  Co20  1  0.250000  0.035357  0.433999  1
  Co  Co21  1  0.750000  0.964643  0.566001  1
  Co  Co22  1  0.750000  0.535830  0.066083  1
  Co  Co23  1  0.250000  0.464170  0.933917  1
  P  P24  1  0.250000  0.079549  0.611861  1
  P  P25  1  0.750000  0.920451  0.388139  1
  P  P26  1  0.750000  0.579635  0.888637  1
  P  P27  1  0.250000  0.420365  0.111363  1
  P  P28  1  0.250000  0.233315  0.372235  1
  P  P29  1  0.750000  0.766685  0.627765  1
  P  P30  1  0.750000  0.734235  0.127991  1
  P  P31  1  0.250000  0.265765  0.872009  1
  P  P32  1  0.250000  0.907166  0.886320  1
  P  P33  1  0.750000  0.092834  0.113680  1
  P  P34  1  0.750000  0.406331  0.613608  1
  P  P35  1  0.250000  0.593669  0.386392  1
