# generated using pymatgen
data_Ho3Er5(TmGa5)4
_symmetry_space_group_name_H-M   'P 1'
_cell_length_a   6.05401003
_cell_length_b   9.57367601
_cell_length_c   11.44522706
_cell_angle_alpha   89.99693982
_cell_angle_beta   89.98912201
_cell_angle_gamma   89.99449631
_symmetry_Int_Tables_number   1
_chemical_formula_structural   Ho3Er5(TmGa5)4
_chemical_formula_sum   'Ho3 Er5 Tm4 Ga20'
_cell_volume   663.35539435
_cell_formula_units_Z   1
loop_
 _symmetry_equiv_pos_site_id
 _symmetry_equiv_pos_as_xyz
  1  'x, y, z'
loop_
 _atom_site_type_symbol
 _atom_site_label
 _atom_site_symmetry_multiplicity
 _atom_site_fract_x
 _atom_site_fract_y
 _atom_site_fract_z
 _atom_site_occupancy
  Ho  Ho0  1  0.890598  0.509921  0.351847  1
  Ho  Ho1  1  0.609391  0.990055  0.851964  1
  Ho  Ho2  1  0.109418  0.009922  0.648049  1
  Er  Er3  1  0.390618  0.490086  0.148017  1
  Er  Er4  1  0.109445  0.490095  0.648292  1
  Er  Er5  1  0.390595  0.009895  0.148297  1
  Er  Er6  1  0.890611  0.990129  0.351708  1
  Er  Er7  1  0.609324  0.509876  0.851890  1
  Tm  Tm8  1  0.848453  0.749965  0.073841  1
  Tm  Tm9  1  0.651405  0.750031  0.573780  1
  Tm  Tm10  1  0.151451  0.250025  0.926273  1
  Tm  Tm11  1  0.348630  0.250050  0.426146  1
  Ga  Ga12  1  0.874914  0.052304  0.090634  1
  Ga  Ga13  1  0.625046  0.447666  0.590609  1
  Ga  Ga14  1  0.125155  0.552292  0.909440  1
  Ga  Ga15  1  0.374957  0.947690  0.409391  1
  Ga  Ga16  1  0.124949  0.947601  0.909674  1
  Ga  Ga17  1  0.375103  0.552371  0.409498  1
  Ga  Ga18  1  0.874835  0.447636  0.090394  1
  Ga  Ga19  1  0.624935  0.052432  0.590313  1
  Ga  Ga20  1  0.172343  0.750100  0.251058  1
  Ga  Ga21  1  0.327798  0.749707  0.751184  1
  Ga  Ga22  1  0.827788  0.250262  0.748837  1
  Ga  Ga23  1  0.672073  0.249853  0.248753  1
  Ga  Ga24  1  0.373392  0.749928  0.005732  1
  Ga  Ga25  1  0.126636  0.749863  0.505529  1
  Ga  Ga26  1  0.626531  0.250189  0.994473  1
  Ga  Ga27  1  0.873333  0.249881  0.494447  1
  Ga  Ga28  1  0.604478  0.750217  0.298945  1
  Ga  Ga29  1  0.895506  0.749731  0.798958  1
  Ga  Ga30  1  0.395505  0.250257  0.701040  1
  Ga  Ga31  1  0.104783  0.249970  0.200988  1
