# generated using pymatgen
data_EuBePF
_symmetry_space_group_name_H-M   'P 1'
_cell_length_a   3.82502600
_cell_length_b   3.82502600
_cell_length_c   8.70143200
_cell_angle_alpha   90.00000000
_cell_angle_beta   90.00000000
_cell_angle_gamma   90.00000000
_symmetry_Int_Tables_number   1
_chemical_formula_structural   EuBePF
_chemical_formula_sum   'Eu2 Be2 P2 F2'
_cell_volume   127.30911928
_cell_formula_units_Z   2
loop_
 _symmetry_equiv_pos_site_id
 _symmetry_equiv_pos_as_xyz
  1  'x, y, z'
loop_
 _atom_site_type_symbol
 _atom_site_label
 _atom_site_symmetry_multiplicity
 _atom_site_fract_x
 _atom_site_fract_y
 _atom_site_fract_z
 _atom_site_occupancy
  Eu  Eu0  1  0.250001  0.250001  0.180819  1
  Eu  Eu1  1  0.750000  0.750000  0.819183  1
  Be  Be2  1  0.750000  0.250001  0.500000  1
  Be  Be3  1  0.250001  0.750000  0.500000  1
  P  P4  1  0.750000  0.750000  0.358990  1
  P  P5  1  0.250001  0.250001  0.641008  1
  F  F6  1  0.750000  0.250001  0.000000  1
  F  F7  1  0.250001  0.750000  0.000000  1
