# generated using pymatgen
data_Ho9Er(Pb3O)2
_symmetry_space_group_name_H-M   'P 1'
_cell_length_a   9.06707996
_cell_length_b   9.06360863
_cell_length_c   9.06674117
_cell_angle_alpha   125.70724433
_cell_angle_beta   125.71724642
_cell_angle_gamma   80.35160336
_symmetry_Int_Tables_number   1
_chemical_formula_structural   Ho9Er(Pb3O)2
_chemical_formula_sum   'Ho9 Er1 Pb6 O2'
_cell_volume   473.99431168
_cell_formula_units_Z   1
loop_
 _symmetry_equiv_pos_site_id
 _symmetry_equiv_pos_as_xyz
  1  'x, y, z'
loop_
 _atom_site_type_symbol
 _atom_site_label
 _atom_site_symmetry_multiplicity
 _atom_site_fract_x
 _atom_site_fract_y
 _atom_site_fract_z
 _atom_site_occupancy
  Ho  Ho0  1  0.998294  0.199420  0.500002  1
  Ho  Ho1  1  0.800589  0.300598  0.798887  1
  Ho  Ho2  1  0.498305  0.998265  0.798883  1
  Ho  Ho3  1  0.501700  0.001710  0.201105  1
  Ho  Ho4  1  0.001724  0.800559  0.500008  1
  Ho  Ho5  1  0.499977  0.500020  0.999941  1
  Ho  Ho6  1  0.199422  0.699377  0.201117  1
  Ho  Ho7  1  0.699319  0.498318  0.500000  1
  Ho  Ho8  1  0.000035  0.000076  0.000056  1
  Er  Er9  1  0.300353  0.502082  0.500005  1
  Pb  Pb10  1  0.851681  0.351563  0.203146  1
  Pb  Pb11  1  0.148529  0.648426  0.796855  1
  Pb  Pb12  1  0.351496  0.148684  0.500000  1
  Pb  Pb13  1  0.749910  0.749943  0.999874  1
  Pb  Pb14  1  0.648490  0.851511  0.500006  1
  Pb  Pb15  1  0.250030  0.250062  0.000114  1
  O  O16  1  0.749995  0.250001  0.500003  1
  O  O17  1  0.250150  0.749385  0.499997  1
