# generated using pymatgen
data_Sm4Mn(Ga2Pt)10
_symmetry_space_group_name_H-M   'P 1'
_cell_length_a   4.21835111
_cell_length_b   11.11331811
_cell_length_c   13.63569756
_cell_angle_alpha   81.37568641
_cell_angle_beta   81.10284541
_cell_angle_gamma   79.06092331
_symmetry_Int_Tables_number   1
_chemical_formula_structural   Sm4Mn(Ga2Pt)10
_chemical_formula_sum   'Sm4 Mn1 Ga20 Pt10'
_cell_volume   615.26120328
_cell_formula_units_Z   1
loop_
 _symmetry_equiv_pos_site_id
 _symmetry_equiv_pos_as_xyz
  1  'x, y, z'
loop_
 _atom_site_type_symbol
 _atom_site_label
 _atom_site_symmetry_multiplicity
 _atom_site_fract_x
 _atom_site_fract_y
 _atom_site_fract_z
 _atom_site_occupancy
  Sm  Sm0  1  0.123776  0.088758  0.663628  1
  Sm  Sm1  1  0.876224  0.911242  0.336372  1
  Sm  Sm2  1  0.775289  0.630880  0.818532  1
  Sm  Sm3  1  0.224711  0.369120  0.181468  1
  Mn  Mn4  1  0.500000  0.500000  0.500000  1
  Ga  Ga5  1  0.008588  0.071029  0.911800  1
  Ga  Ga6  1  0.991412  0.928971  0.088200  1
  Ga  Ga7  1  0.065478  0.671564  0.197500  1
  Ga  Ga8  1  0.934522  0.328436  0.802500  1
  Ga  Ga9  1  0.107683  0.333438  0.451267  1
  Ga  Ga10  1  0.892317  0.666562  0.548733  1
  Ga  Ga11  1  0.203036  0.603160  0.990715  1
  Ga  Ga12  1  0.796964  0.396840  0.009285  1
  Ga  Ga13  1  0.258228  0.782641  0.700918  1
  Ga  Ga14  1  0.741772  0.217359  0.299082  1
  Ga  Ga15  1  0.302818  0.898045  0.496348  1
  Ga  Ga16  1  0.697182  0.101955  0.503652  1
  Ga  Ga17  1  0.388261  0.523091  0.700442  1
  Ga  Ga18  1  0.611739  0.476909  0.299558  1
  Ga  Ga19  1  0.396658  0.204119  0.002422  1
  Ga  Ga20  1  0.603342  0.795881  0.997578  1
  Ga  Ga21  1  0.542626  0.284392  0.630411  1
  Ga  Ga22  1  0.457374  0.715608  0.369589  1
  Ga  Ga23  1  0.634598  0.936847  0.793990  1
  Ga  Ga24  1  0.365402  0.063153  0.206010  1
  Pt  Pt25  1  0.025120  0.569522  0.380216  1
  Pt  Pt26  1  0.974880  0.430478  0.619784  1
  Pt  Pt27  1  0.137135  0.836624  0.889167  1
  Pt  Pt28  1  0.862865  0.163376  0.110833  1
  Pt  Pt29  1  0.242094  0.125091  0.390758  1
  Pt  Pt30  1  0.757906  0.874909  0.609242  1
  Pt  Pt31  1  0.345623  0.416379  0.892451  1
  Pt  Pt32  1  0.654377  0.583621  0.107549  1
  Pt  Pt33  1  0.504397  0.171670  0.819559  1
  Pt  Pt34  1  0.495603  0.828330  0.180441  1
