# generated using pymatgen
data_Tm2Ga10Tc2Ru
_symmetry_space_group_name_H-M   'P 1'
_cell_length_a   9.03932600
_cell_length_b   9.03932600
_cell_length_c   6.26626300
_cell_angle_alpha   90.00000000
_cell_angle_beta   90.00000000
_cell_angle_gamma   90.00000000
_symmetry_Int_Tables_number   1
_chemical_formula_structural   Tm2Ga10Tc2Ru
_chemical_formula_sum   'Tm4 Ga20 Tc4 Ru2'
_cell_volume   512.01268105
_cell_formula_units_Z   2
loop_
 _symmetry_equiv_pos_site_id
 _symmetry_equiv_pos_as_xyz
  1  'x, y, z'
loop_
 _atom_site_type_symbol
 _atom_site_label
 _atom_site_symmetry_multiplicity
 _atom_site_fract_x
 _atom_site_fract_y
 _atom_site_fract_z
 _atom_site_occupancy
  Tm  Tm0  1  0.183073  0.316927  0.000000  1
  Tm  Tm1  1  0.683073  0.183073  0.000000  1
  Tm  Tm2  1  0.816927  0.683073  0.000000  1
  Tm  Tm3  1  0.316927  0.816927  0.000000  1
  Ga  Ga4  1  0.500000  0.000000  0.284636  1
  Ga  Ga5  1  0.500000  0.000000  0.715364  1
  Ga  Ga6  1  0.294286  0.560204  0.709511  1
  Ga  Ga7  1  0.000000  0.500000  0.284636  1
  Ga  Ga8  1  0.000000  0.500000  0.715364  1
  Ga  Ga9  1  0.060204  0.794286  0.709511  1
  Ga  Ga10  1  0.205714  0.060204  0.290489  1
  Ga  Ga11  1  0.060204  0.794286  0.290489  1
  Ga  Ga12  1  0.705714  0.439796  0.709511  1
  Ga  Ga13  1  0.205714  0.060204  0.709511  1
  Ga  Ga14  1  0.939796  0.205714  0.709511  1
  Ga  Ga15  1  0.705714  0.439796  0.290489  1
  Ga  Ga16  1  0.560204  0.705714  0.290489  1
  Ga  Ga17  1  0.939796  0.205714  0.290489  1
  Ga  Ga18  1  0.560204  0.705714  0.709511  1
  Ga  Ga19  1  0.794286  0.939796  0.290489  1
  Ga  Ga20  1  0.439796  0.294286  0.709511  1
  Ga  Ga21  1  0.794286  0.939796  0.709511  1
  Ga  Ga22  1  0.439796  0.294286  0.290489  1
  Ga  Ga23  1  0.294286  0.560204  0.290489  1
  Tc  Tc24  1  0.179071  0.320929  0.500000  1
  Tc  Tc25  1  0.320929  0.820929  0.500000  1
  Tc  Tc26  1  0.820929  0.679071  0.500000  1
  Tc  Tc27  1  0.679071  0.179071  0.500000  1
  Ru  Ru28  1  0.000000  0.000000  0.000000  1
  Ru  Ru29  1  0.500000  0.500000  0.000000  1
