# generated using pymatgen
data_Ca2Er2Ni13C4
_symmetry_space_group_name_H-M   'P 1'
_cell_length_a   8.36220884
_cell_length_b   8.36220907
_cell_length_c   3.89876900
_cell_angle_alpha   90.00000000
_cell_angle_beta   90.00000000
_cell_angle_gamma   90.70657951
_symmetry_Int_Tables_number   1
_chemical_formula_structural   Ca2Er2Ni13C4
_chemical_formula_sum   'Ca2 Er2 Ni13 C4'
_cell_volume   272.60669025
_cell_formula_units_Z   1
loop_
 _symmetry_equiv_pos_site_id
 _symmetry_equiv_pos_as_xyz
  1  'x, y, z'
loop_
 _atom_site_type_symbol
 _atom_site_label
 _atom_site_symmetry_multiplicity
 _atom_site_fract_x
 _atom_site_fract_y
 _atom_site_fract_z
 _atom_site_occupancy
  Ca  Ca0  1  0.351910  0.351910  0.500000  1
  Ca  Ca1  1  0.648090  0.648090  0.500000  1
  Er  Er2  1  0.187540  0.812460  0.500000  1
  Er  Er3  1  0.812460  0.187540  0.500000  1
  Ni  Ni4  1  0.500000  0.000000  0.500000  1
  Ni  Ni5  1  0.000000  0.500000  0.500000  1
  Ni  Ni6  1  0.000000  0.000000  0.000000  1
  Ni  Ni7  1  0.425988  0.785432  0.000000  1
  Ni  Ni8  1  0.574012  0.214568  0.000000  1
  Ni  Ni9  1  0.785432  0.425988  0.000000  1
  Ni  Ni10  1  0.214568  0.574012  0.000000  1
  Ni  Ni11  1  0.711142  0.929414  0.000000  1
  Ni  Ni12  1  0.288858  0.070586  0.000000  1
  Ni  Ni13  1  0.929414  0.711142  0.000000  1
  Ni  Ni14  1  0.070586  0.288858  0.000000  1
  Ni  Ni15  1  0.877864  0.877864  0.500000  1
  Ni  Ni16  1  0.122136  0.122136  0.500000  1
  C  C17  1  0.000000  0.500000  0.000000  1
  C  C18  1  0.500000  0.000000  0.000000  1
  C  C19  1  0.556503  0.443497  0.000000  1
  C  C20  1  0.443497  0.556503  0.000000  1
