# generated using pymatgen
data_Tb2Nb3Si4
_symmetry_space_group_name_H-M   'P 1'
_cell_length_a   6.89201300
_cell_length_b   7.09116400
_cell_length_c   13.47632800
_cell_angle_alpha   90.00000000
_cell_angle_beta   90.00000000
_cell_angle_gamma   90.00000000
_symmetry_Int_Tables_number   1
_chemical_formula_structural   Tb2Nb3Si4
_chemical_formula_sum   'Tb8 Nb12 Si16'
_cell_volume   658.62041807
_cell_formula_units_Z   4
loop_
 _symmetry_equiv_pos_site_id
 _symmetry_equiv_pos_as_xyz
  1  'x, y, z'
loop_
 _atom_site_type_symbol
 _atom_site_label
 _atom_site_symmetry_multiplicity
 _atom_site_fract_x
 _atom_site_fract_y
 _atom_site_fract_z
 _atom_site_occupancy
  Tb  Tb0  1  0.502901  0.328976  0.095732  1
  Tb  Tb1  1  0.002901  0.171024  0.404268  1
  Tb  Tb2  1  0.497099  0.671024  0.595732  1
  Tb  Tb3  1  0.997099  0.828976  0.904268  1
  Tb  Tb4  1  0.497099  0.671024  0.904268  1
  Tb  Tb5  1  0.997099  0.828976  0.595732  1
  Tb  Tb6  1  0.502901  0.328976  0.404268  1
  Tb  Tb7  1  0.002901  0.171024  0.095732  1
  Nb  Nb8  1  0.664371  0.008924  0.750000  1
  Nb  Nb9  1  0.164371  0.491076  0.750000  1
  Nb  Nb10  1  0.335629  0.991076  0.250000  1
  Nb  Nb11  1  0.835629  0.508924  0.250000  1
  Nb  Nb12  1  0.838690  0.324718  0.625740  1
  Nb  Nb13  1  0.338690  0.175282  0.874260  1
  Nb  Nb14  1  0.161310  0.675282  0.125740  1
  Nb  Nb15  1  0.661310  0.824718  0.374260  1
  Nb  Nb16  1  0.161310  0.675282  0.374260  1
  Nb  Nb17  1  0.661310  0.824718  0.125740  1
  Nb  Nb18  1  0.838690  0.324718  0.874260  1
  Nb  Nb19  1  0.338690  0.175282  0.625740  1
  Si  Si20  1  0.796471  0.625046  0.750000  1
  Si  Si21  1  0.296471  0.874954  0.750000  1
  Si  Si22  1  0.203529  0.374954  0.250000  1
  Si  Si23  1  0.703529  0.125046  0.250000  1
  Si  Si24  1  0.543415  0.375636  0.750000  1
  Si  Si25  1  0.043415  0.124364  0.750000  1
  Si  Si26  1  0.456585  0.624364  0.250000  1
  Si  Si27  1  0.956585  0.875636  0.250000  1
  Si  Si28  1  0.662535  0.037968  0.540619  1
  Si  Si29  1  0.162535  0.462032  0.959381  1
  Si  Si30  1  0.337465  0.962032  0.040619  1
  Si  Si31  1  0.837465  0.537968  0.459381  1
  Si  Si32  1  0.337465  0.962032  0.459381  1
  Si  Si33  1  0.837465  0.537968  0.040619  1
  Si  Si34  1  0.662535  0.037968  0.959381  1
  Si  Si35  1  0.162535  0.462032  0.540619  1
