# generated using pymatgen
data_V3Fe4Bi4AsO20
_symmetry_space_group_name_H-M   'P 1'
_cell_length_a   5.36790939
_cell_length_b   7.91244716
_cell_length_c   11.58614407
_cell_angle_alpha   93.84769610
_cell_angle_beta   95.76773329
_cell_angle_gamma   72.13088723
_symmetry_Int_Tables_number   1
_chemical_formula_structural   V3Fe4Bi4AsO20
_chemical_formula_sum   'V3 Fe4 Bi4 As1 O20'
_cell_volume   465.64974525
_cell_formula_units_Z   1
loop_
 _symmetry_equiv_pos_site_id
 _symmetry_equiv_pos_as_xyz
  1  'x, y, z'
loop_
 _atom_site_type_symbol
 _atom_site_label
 _atom_site_symmetry_multiplicity
 _atom_site_fract_x
 _atom_site_fract_y
 _atom_site_fract_z
 _atom_site_occupancy
  V  V0  1  0.625687  0.714011  0.898670  1
  V  V1  1  0.125784  0.215364  0.398006  1
  V  V2  1  0.373794  0.286426  0.102014  1
  Fe  Fe3  1  0.720490  0.948218  0.319827  1
  Fe  Fe4  1  0.283248  0.050121  0.679302  1
  Fe  Fe5  1  0.224346  0.446207  0.817378  1
  Fe  Fe6  1  0.777368  0.554216  0.183767  1
  Bi  Bi7  1  0.295114  0.601433  0.362521  1
  Bi  Bi8  1  0.793011  0.101345  0.859260  1
  Bi  Bi9  1  0.705269  0.399264  0.638223  1
  Bi  Bi10  1  0.204862  0.898651  0.140623  1
  As  As11  1  0.869209  0.785623  0.601869  1
  O  O12  1  0.958248  0.659689  0.904482  1
  O  O13  1  0.458979  0.163730  0.404844  1
  O  O14  1  0.040804  0.341403  0.095414  1
  O  O15  1  0.535500  0.832263  0.593415  1
  O  O16  1  0.510089  0.571318  0.798124  1
  O  O17  1  0.007515  0.074019  0.297319  1
  O  O18  1  0.490665  0.427364  0.203499  1
  O  O19  1  0.992191  0.920770  0.700780  1
  O  O20  1  0.996461  0.275857  0.773312  1
  O  O21  1  0.490781  0.777633  0.277244  1
  O  O22  1  0.006670  0.724740  0.227370  1
  O  O23  1  0.511028  0.223366  0.722543  1
  O  O24  1  0.994960  0.436401  0.352671  1
  O  O25  1  0.497032  0.935248  0.852273  1
  O  O26  1  0.010198  0.566423  0.643198  1
  O  O27  1  0.501068  0.065665  0.148339  1
  O  O28  1  0.533882  0.697374  0.038736  1
  O  O29  1  0.033396  0.197448  0.537235  1
  O  O30  1  0.468702  0.301655  0.962011  1
  O  O31  1  0.963649  0.806752  0.465737  1
