# generated using pymatgen
data_Th4Cd2Ni3Ru
_symmetry_space_group_name_H-M   'P 1'
_cell_length_a   7.67927316
_cell_length_b   7.67927316
_cell_length_c   3.75892700
_cell_angle_alpha   90.00000000
_cell_angle_beta   90.00000000
_cell_angle_gamma   89.91413772
_symmetry_Int_Tables_number   1
_chemical_formula_structural   Th4Cd2Ni3Ru
_chemical_formula_sum   'Th4 Cd2 Ni3 Ru1'
_cell_volume   221.66832307
_cell_formula_units_Z   1
loop_
 _symmetry_equiv_pos_site_id
 _symmetry_equiv_pos_as_xyz
  1  'x, y, z'
loop_
 _atom_site_type_symbol
 _atom_site_label
 _atom_site_symmetry_multiplicity
 _atom_site_fract_x
 _atom_site_fract_y
 _atom_site_fract_z
 _atom_site_occupancy
  Th  Th0  1  0.325421  0.833226  0.500000  1
  Th  Th1  1  0.830105  0.669895  0.500000  1
  Th  Th2  1  0.173801  0.326199  0.500000  1
  Th  Th3  1  0.666774  0.174579  0.500000  1
  Cd  Cd4  1  0.993929  0.998589  0.000000  1
  Cd  Cd5  1  0.501411  0.506071  0.000000  1
  Ni  Ni6  1  0.876704  0.376668  0.000000  1
  Ni  Ni7  1  0.123332  0.623296  0.000000  1
  Ni  Ni8  1  0.633540  0.866460  0.000000  1
  Ru  Ru9  1  0.374983  0.125017  0.000000  1
