# generated using pymatgen
data_Ho2CoH6
_symmetry_space_group_name_H-M   'P 1'
_cell_length_a   6.85609932
_cell_length_b   6.85609917
_cell_length_c   4.92739300
_cell_angle_alpha   90.00000000
_cell_angle_beta   90.00000000
_cell_angle_gamma   137.98201220
_symmetry_Int_Tables_number   1
_chemical_formula_structural   Ho2CoH6
_chemical_formula_sum   'Ho4 Co2 H12'
_cell_volume   155.03639717
_cell_formula_units_Z   2
loop_
 _symmetry_equiv_pos_site_id
 _symmetry_equiv_pos_as_xyz
  1  'x, y, z'
loop_
 _atom_site_type_symbol
 _atom_site_label
 _atom_site_symmetry_multiplicity
 _atom_site_fract_x
 _atom_site_fract_y
 _atom_site_fract_z
 _atom_site_occupancy
  Ho  Ho0  1  0.139298  0.860702  0.500000  1
  Ho  Ho1  1  0.639298  0.360702  0.000000  1
  Ho  Ho2  1  0.860702  0.139298  0.500000  1
  Ho  Ho3  1  0.360702  0.639298  0.000000  1
  Co  Co4  1  0.500000  0.500000  0.500000  1
  Co  Co5  1  0.000000  0.000000  0.000000  1
  H  H6  1  0.000038  0.500038  0.750000  1
  H  H7  1  0.499962  0.999962  0.250000  1
  H  H8  1  0.999962  0.499962  0.250000  1
  H  H9  1  0.500038  0.000038  0.750000  1
  H  H10  1  0.374729  0.625271  0.500000  1
  H  H11  1  0.874729  0.125271  0.000000  1
  H  H12  1  0.625271  0.374729  0.500000  1
  H  H13  1  0.125271  0.874729  0.000000  1
  H  H14  1  0.251007  0.251007  0.749278  1
  H  H15  1  0.748993  0.748993  0.250722  1
  H  H16  1  0.248993  0.248993  0.249278  1
  H  H17  1  0.751007  0.751007  0.750722  1
