# generated using pymatgen
data_HfSc9(Sn3Ge)2
_symmetry_space_group_name_H-M   'P 1'
_cell_length_a   8.71072600
_cell_length_b   8.72385254
_cell_length_c   6.03970400
_cell_angle_alpha   90.00000000
_cell_angle_beta   90.00000000
_cell_angle_gamma   119.95023073
_symmetry_Int_Tables_number   1
_chemical_formula_structural   HfSc9(Sn3Ge)2
_chemical_formula_sum   'Hf1 Sc9 Sn6 Ge2'
_cell_volume   397.67339719
_cell_formula_units_Z   1
loop_
 _symmetry_equiv_pos_site_id
 _symmetry_equiv_pos_as_xyz
  1  'x, y, z'
loop_
 _atom_site_type_symbol
 _atom_site_label
 _atom_site_symmetry_multiplicity
 _atom_site_fract_x
 _atom_site_fract_y
 _atom_site_fract_z
 _atom_site_occupancy
  Hf  Hf0  1  0.745386  0.000000  0.750000  1
  Sc  Sc1  1  0.334852  0.667778  0.999526  1
  Sc  Sc2  1  0.667075  0.332222  0.500474  1
  Sc  Sc3  1  0.667075  0.332222  0.999526  1
  Sc  Sc4  1  0.334852  0.667778  0.500474  1
  Sc  Sc5  1  0.255421  0.000000  0.250000  1
  Sc  Sc6  1  0.257106  0.257616  0.750000  1
  Sc  Sc7  1  0.999490  0.742384  0.750000  1
  Sc  Sc8  1  0.999040  0.257776  0.250000  1
  Sc  Sc9  1  0.741264  0.742224  0.250000  1
  Sn  Sn10  1  0.608601  0.000000  0.250000  1
  Sn  Sn11  1  0.607577  0.608612  0.750000  1
  Sn  Sn12  1  0.998965  0.391388  0.750000  1
  Sn  Sn13  1  0.998764  0.607542  0.250000  1
  Sn  Sn14  1  0.391222  0.392458  0.250000  1
  Sn  Sn15  1  0.392821  0.000000  0.750000  1
  Ge  Ge16  1  0.000244  0.000000  0.000583  1
  Ge  Ge17  1  0.000244  0.000000  0.499417  1
