# generated using pymatgen
data_Cd4IrOs2RhO14
_symmetry_space_group_name_H-M   'P 1'
_cell_length_a   7.24396746
_cell_length_b   7.26000674
_cell_length_c   7.26000700
_cell_angle_alpha   60.48314064
_cell_angle_beta   60.29199106
_cell_angle_gamma   60.29198562
_symmetry_Int_Tables_number   1
_chemical_formula_structural   Cd4IrOs2RhO14
_chemical_formula_sum   'Cd4 Ir1 Os2 Rh1 O14'
_cell_volume   272.15286451
_cell_formula_units_Z   1
loop_
 _symmetry_equiv_pos_site_id
 _symmetry_equiv_pos_as_xyz
  1  'x, y, z'
loop_
 _atom_site_type_symbol
 _atom_site_label
 _atom_site_symmetry_multiplicity
 _atom_site_fract_x
 _atom_site_fract_y
 _atom_site_fract_z
 _atom_site_occupancy
  Cd  Cd0  1  0.125000  0.125000  0.125000  1
  Cd  Cd1  1  0.625000  0.125000  0.125000  1
  Cd  Cd2  1  0.125000  0.625000  0.125000  1
  Cd  Cd3  1  0.125000  0.125000  0.625000  1
  Ir  Ir4  1  0.125000  0.625000  0.625000  1
  Os  Os5  1  0.625000  0.125000  0.625000  1
  Os  Os6  1  0.625000  0.625000  0.125000  1
  Rh  Rh7  1  0.625000  0.625000  0.625000  1
  O  O8  1  0.253944  0.246887  0.246887  1
  O  O9  1  0.996056  0.003113  0.003113  1
  O  O10  1  0.559957  0.954455  0.546129  1
  O  O11  1  0.308239  0.705126  0.300766  1
  O  O12  1  0.559957  0.546129  0.954455  1
  O  O13  1  0.960123  0.543265  0.543265  1
  O  O14  1  0.568138  0.930700  0.930700  1
  O  O15  1  0.941761  0.949234  0.544874  1
  O  O16  1  0.941761  0.544874  0.949234  1
  O  O17  1  0.681862  0.319300  0.319300  1
  O  O18  1  0.289877  0.706735  0.706735  1
  O  O19  1  0.690043  0.295545  0.703871  1
  O  O20  1  0.308239  0.300766  0.705126  1
  O  O21  1  0.690043  0.703871  0.295545  1
