# generated using pymatgen
data_Tm3Lu3Co14(P3Rh)4
_symmetry_space_group_name_H-M   'P 1'
_cell_length_a   3.69358100
_cell_length_b   10.63625413
_cell_length_c   12.31969714
_cell_angle_alpha   90.01756189
_cell_angle_beta   90.00000000
_cell_angle_gamma   90.00000000
_symmetry_Int_Tables_number   1
_chemical_formula_structural   Tm3Lu3Co14(P3Rh)4
_chemical_formula_sum   'Tm3 Lu3 Co14 P12 Rh4'
_cell_volume   483.98995026
_cell_formula_units_Z   1
loop_
 _symmetry_equiv_pos_site_id
 _symmetry_equiv_pos_as_xyz
  1  'x, y, z'
loop_
 _atom_site_type_symbol
 _atom_site_label
 _atom_site_symmetry_multiplicity
 _atom_site_fract_x
 _atom_site_fract_y
 _atom_site_fract_z
 _atom_site_occupancy
  Tm  Tm0  1  0.000000  0.500002  0.520878  1
  Tm  Tm1  1  0.500000  0.999974  0.479137  1
  Tm  Tm2  1  0.000000  0.314374  0.794131  1
  Lu  Lu3  1  0.500000  0.814354  0.205943  1
  Lu  Lu4  1  0.500000  0.185624  0.205875  1
  Lu  Lu5  1  0.000000  0.685754  0.794037  1
  Co  Co6  1  0.000000  0.500177  0.988584  1
  Co  Co7  1  0.500000  0.999780  0.011695  1
  Co  Co8  1  0.500000  0.331918  0.993846  1
  Co  Co9  1  0.500000  0.668216  0.993596  1
  Co  Co10  1  0.000000  0.167844  0.006716  1
  Co  Co11  1  0.000000  0.831916  0.006450  1
  Co  Co12  1  0.500000  0.300206  0.429895  1
  Co  Co13  1  0.500000  0.699845  0.430020  1
  Co  Co14  1  0.000000  0.199672  0.569706  1
  Co  Co15  1  0.000000  0.800255  0.569958  1
  Co  Co16  1  0.500000  0.878963  0.709390  1
  Co  Co17  1  0.500000  0.120486  0.709045  1
  Co  Co18  1  0.000000  0.621056  0.290661  1
  Co  Co19  1  0.000000  0.378970  0.290604  1
  P  P20  1  0.500000  0.500233  0.889519  1
  P  P21  1  0.000000  0.999915  0.110670  1
  P  P22  1  0.500000  0.500027  0.351688  1
  P  P23  1  0.000000  0.000063  0.648298  1
  P  P24  1  0.500000  0.303408  0.613764  1
  P  P25  1  0.500000  0.696773  0.614080  1
  P  P26  1  0.000000  0.196474  0.385756  1
  P  P27  1  0.000000  0.803473  0.385877  1
  P  P28  1  0.500000  0.843553  0.893242  1
  P  P29  1  0.500000  0.155936  0.893637  1
  P  P30  1  0.000000  0.656553  0.106822  1
  P  P31  1  0.000000  0.343474  0.106727  1
  Rh  Rh32  1  0.500000  0.500091  0.160850  1
  Rh  Rh33  1  0.000000  0.000006  0.839213  1
  Rh  Rh34  1  0.500000  0.500690  0.703392  1
  Rh  Rh35  1  0.000000  0.999943  0.296299  1
