# generated using pymatgen
data_Nd4PdSe7
_symmetry_space_group_name_H-M   'P 1'
_cell_length_a   4.06971494
_cell_length_b   8.32963200
_cell_length_c   8.72583866
_cell_angle_alpha   90.00000000
_cell_angle_beta   89.99074195
_cell_angle_gamma   90.00000000
_symmetry_Int_Tables_number   1
_chemical_formula_structural   Nd4PdSe7
_chemical_formula_sum   'Nd4 Pd1 Se7'
_cell_volume   295.79918875
_cell_formula_units_Z   1
loop_
 _symmetry_equiv_pos_site_id
 _symmetry_equiv_pos_as_xyz
  1  'x, y, z'
loop_
 _atom_site_type_symbol
 _atom_site_label
 _atom_site_symmetry_multiplicity
 _atom_site_fract_x
 _atom_site_fract_y
 _atom_site_fract_z
 _atom_site_occupancy
  Nd  Nd0  1  0.000240  0.750000  0.702770  1
  Nd  Nd1  1  0.002370  0.250000  0.747326  1
  Nd  Nd2  1  0.499487  0.007182  0.273057  1
  Nd  Nd3  1  0.499487  0.492818  0.273057  1
  Pd  Pd4  1  0.497696  0.750000  0.002504  1
  Se  Se5  1  0.998213  0.944531  0.998995  1
  Se  Se6  1  0.998213  0.555469  0.998995  1
  Se  Se7  1  0.502580  0.250000  0.003534  1
  Se  Se8  1  0.999731  0.750000  0.361824  1
  Se  Se9  1  0.999904  0.250000  0.374202  1
  Se  Se10  1  0.501038  0.003247  0.632330  1
  Se  Se11  1  0.501038  0.496753  0.632330  1
