# generated using pymatgen
data_Tb2Y2MnCo7O20
_symmetry_space_group_name_H-M   'P 1'
_cell_length_a   5.69613701
_cell_length_b   7.27090206
_cell_length_c   8.41545438
_cell_angle_alpha   89.97586140
_cell_angle_beta   89.99715427
_cell_angle_gamma   89.99889331
_symmetry_Int_Tables_number   1
_chemical_formula_structural   Tb2Y2MnCo7O20
_chemical_formula_sum   'Tb2 Y2 Mn1 Co7 O20'
_cell_volume   348.53488394
_cell_formula_units_Z   1
loop_
 _symmetry_equiv_pos_site_id
 _symmetry_equiv_pos_as_xyz
  1  'x, y, z'
loop_
 _atom_site_type_symbol
 _atom_site_label
 _atom_site_symmetry_multiplicity
 _atom_site_fract_x
 _atom_site_fract_y
 _atom_site_fract_z
 _atom_site_occupancy
  Tb  Tb0  1  0.998924  0.637822  0.327327  1
  Tb  Tb1  1  0.998947  0.362181  0.672679  1
  Y  Y2  1  0.998304  0.138868  0.171186  1
  Y  Y3  1  0.998345  0.861121  0.828820  1
  Mn  Mn4  1  0.257238  0.000010  0.499986  1
  Co  Co5  1  0.499194  0.906920  0.148967  1
  Co  Co6  1  0.499184  0.093062  0.851000  1
  Co  Co7  1  0.500607  0.411056  0.347777  1
  Co  Co8  1  0.500645  0.588946  0.652230  1
  Co  Co9  1  0.255819  0.499975  0.000008  1
  Co  Co10  1  0.743987  0.999993  0.500005  1
  Co  Co11  1  0.744773  0.500010  0.999993  1
  O  O12  1  0.276585  0.500028  0.499982  1
  O  O13  1  0.725222  0.000005  0.000003  1
  O  O14  1  0.724363  0.499973  0.500033  1
  O  O15  1  0.275346  0.999999  0.000002  1
  O  O16  1  0.999988  0.661501  0.053250  1
  O  O17  1  0.999911  0.338494  0.946753  1
  O  O18  1  0.999014  0.163570  0.444543  1
  O  O19  1  0.999024  0.836462  0.555456  1
  O  O20  1  0.500755  0.651473  0.067251  1
  O  O21  1  0.500708  0.348500  0.932762  1
  O  O22  1  0.502787  0.155057  0.430711  1
  O  O23  1  0.502748  0.844961  0.569273  1
  O  O24  1  0.243577  0.894283  0.289726  1
  O  O25  1  0.243571  0.105728  0.710256  1
  O  O26  1  0.755624  0.398107  0.206258  1
  O  O27  1  0.755626  0.601923  0.793778  1
  O  O28  1  0.754740  0.102856  0.706991  1
  O  O29  1  0.754745  0.897140  0.293000  1
  O  O30  1  0.244857  0.602830  0.793693  1
  O  O31  1  0.244844  0.397145  0.206303  1
