# generated using pymatgen
data_Er11LuCo4SnPt
_symmetry_space_group_name_H-M   'P 1'
_cell_length_a   8.22730349
_cell_length_b   8.22170101
_cell_length_c   8.22730431
_cell_angle_alpha   111.18559580
_cell_angle_beta   110.65063037
_cell_angle_gamma   106.64149112
_symmetry_Int_Tables_number   1
_chemical_formula_structural   Er11LuCo4SnPt
_chemical_formula_sum   'Er11 Lu1 Co4 Sn1 Pt1'
_cell_volume   427.46997041
_cell_formula_units_Z   1
loop_
 _symmetry_equiv_pos_site_id
 _symmetry_equiv_pos_as_xyz
  1  'x, y, z'
loop_
 _atom_site_type_symbol
 _atom_site_label
 _atom_site_symmetry_multiplicity
 _atom_site_fract_x
 _atom_site_fract_y
 _atom_site_fract_z
 _atom_site_occupancy
  Er  Er0  1  0.685411  0.380743  0.695333  1
  Er  Er1  1  0.314413  0.009541  0.695128  1
  Er  Er2  1  0.685126  0.989640  0.304514  1
  Er  Er3  1  0.416695  0.217115  0.200093  1
  Er  Er4  1  0.582540  0.782793  0.798908  1
  Er  Er5  1  0.017022  0.217115  0.800420  1
  Er  Er6  1  0.983885  0.782793  0.200254  1
  Er  Er7  1  0.185255  0.289301  0.473568  1
  Er  Er8  1  0.814118  0.710868  0.525834  1
  Er  Er9  1  0.185033  0.710868  0.896750  1
  Er  Er10  1  0.815733  0.289301  0.104046  1
  Lu  Lu11  1  0.315141  0.621066  0.305924  1
  Co  Co12  1  0.113101  0.612741  0.499640  1
  Co  Co13  1  0.887855  0.388050  0.500195  1
  Co  Co14  1  0.376886  0.999042  0.376837  1
  Co  Co15  1  0.622205  0.999042  0.622157  1
  Sn  Sn16  1  0.499739  0.500252  0.000513  1
  Pt  Pt17  1  0.999844  0.999730  0.999887  1
