# generated using pymatgen
data_Nb2V3Cr
_symmetry_space_group_name_H-M   'P 1'
_cell_length_a   4.98926062
_cell_length_b   5.06941177
_cell_length_c   5.06941100
_cell_angle_alpha   59.99999851
_cell_angle_beta   59.46714306
_cell_angle_gamma   59.46713410
_symmetry_Int_Tables_number   1
_chemical_formula_structural   Nb2V3Cr
_chemical_formula_sum   'Nb2 V3 Cr1'
_cell_volume   89.92718571
_cell_formula_units_Z   1
loop_
 _symmetry_equiv_pos_site_id
 _symmetry_equiv_pos_as_xyz
  1  'x, y, z'
loop_
 _atom_site_type_symbol
 _atom_site_label
 _atom_site_symmetry_multiplicity
 _atom_site_fract_x
 _atom_site_fract_y
 _atom_site_fract_z
 _atom_site_occupancy
  Nb  Nb0  1  0.249718  0.250094  0.250094  1
  Nb  Nb1  1  0.000282  0.999906  0.999906  1
  V  V2  1  0.625000  0.625000  0.125000  1
  V  V3  1  0.625000  0.125000  0.625000  1
  V  V4  1  0.625000  0.625000  0.625000  1
  Cr  Cr5  1  0.125000  0.625000  0.625000  1
