# generated using pymatgen
data_Dy3ThAgRu
_symmetry_space_group_name_H-M   'P 1'
_cell_length_a   9.61342588
_cell_length_b   9.61342532
_cell_length_c   9.61342500
_cell_angle_alpha   59.99999767
_cell_angle_beta   59.99999960
_cell_angle_gamma   60.00000376
_symmetry_Int_Tables_number   1
_chemical_formula_structural   Dy3ThAgRu
_chemical_formula_sum   'Dy12 Th4 Ag4 Ru4'
_cell_volume   628.23118038
_cell_formula_units_Z   4
loop_
 _symmetry_equiv_pos_site_id
 _symmetry_equiv_pos_as_xyz
  1  'x, y, z'
loop_
 _atom_site_type_symbol
 _atom_site_label
 _atom_site_symmetry_multiplicity
 _atom_site_fract_x
 _atom_site_fract_y
 _atom_site_fract_z
 _atom_site_occupancy
  Dy  Dy0  1  0.812262  0.187738  0.187738  1
  Dy  Dy1  1  0.187738  0.812262  0.812262  1
  Dy  Dy2  1  0.187738  0.812262  0.187738  1
  Dy  Dy3  1  0.812262  0.187738  0.812262  1
  Dy  Dy4  1  0.187738  0.187738  0.812262  1
  Dy  Dy5  1  0.812262  0.812262  0.187738  1
  Dy  Dy6  1  0.935699  0.564301  0.564301  1
  Dy  Dy7  1  0.564301  0.935699  0.935699  1
  Dy  Dy8  1  0.564301  0.935699  0.564301  1
  Dy  Dy9  1  0.935699  0.564301  0.935699  1
  Dy  Dy10  1  0.564301  0.564301  0.935699  1
  Dy  Dy11  1  0.935699  0.935699  0.564301  1
  Th  Th12  1  0.349980  0.349980  0.349980  1
  Th  Th13  1  0.349980  0.349980  0.950061  1
  Th  Th14  1  0.349980  0.950061  0.349980  1
  Th  Th15  1  0.950061  0.349980  0.349980  1
  Ag  Ag16  1  0.582722  0.582722  0.582722  1
  Ag  Ag17  1  0.582722  0.582722  0.251834  1
  Ag  Ag18  1  0.582722  0.251834  0.582722  1
  Ag  Ag19  1  0.251834  0.582722  0.582722  1
  Ru  Ru20  1  0.143635  0.143635  0.143635  1
  Ru  Ru21  1  0.143635  0.143635  0.569095  1
  Ru  Ru22  1  0.143635  0.569095  0.143635  1
  Ru  Ru23  1  0.569095  0.143635  0.143635  1
