# generated using pymatgen
data_K2Ba2GaP3Pt4
_symmetry_space_group_name_H-M   'P 1'
_cell_length_a   6.64153433
_cell_length_b   6.62394701
_cell_length_c   6.66755591
_cell_angle_alpha   90.99846271
_cell_angle_beta   89.31966098
_cell_angle_gamma   90.26010676
_symmetry_Int_Tables_number   1
_chemical_formula_structural   K2Ba2GaP3Pt4
_chemical_formula_sum   'K2 Ba2 Ga1 P3 Pt4'
_cell_volume   293.25896299
_cell_formula_units_Z   1
loop_
 _symmetry_equiv_pos_site_id
 _symmetry_equiv_pos_as_xyz
  1  'x, y, z'
loop_
 _atom_site_type_symbol
 _atom_site_label
 _atom_site_symmetry_multiplicity
 _atom_site_fract_x
 _atom_site_fract_y
 _atom_site_fract_z
 _atom_site_occupancy
  K  K0  1  0.633174  0.382809  0.871595  1
  K  K1  1  0.870389  0.622801  0.373510  1
  Ba  Ba2  1  0.377832  0.864744  0.618759  1
  Ba  Ba3  1  0.111128  0.131047  0.131316  1
  Ga  Ga4  1  0.597038  0.904224  0.098076  1
  P  P5  1  0.092787  0.590308  0.904923  1
  P  P6  1  0.913997  0.090745  0.588957  1
  P  P7  1  0.401588  0.409236  0.405839  1
  Pt  Pt8  1  0.150779  0.349151  0.649139  1
  Pt  Pt9  1  0.654892  0.171054  0.370813  1
  Pt  Pt10  1  0.866628  0.846500  0.832169  1
  Pt  Pt11  1  0.329767  0.637382  0.154903  1
