# generated using pymatgen
data_Y2Ho3Er3(Si3Rh)4
_symmetry_space_group_name_H-M   'P 1'
_cell_length_a   8.15823600
_cell_length_b   8.15823546
_cell_length_c   7.86877800
_cell_angle_alpha   90.00000000
_cell_angle_beta   90.00000000
_cell_angle_gamma   120.00000220
_symmetry_Int_Tables_number   1
_chemical_formula_structural   Y2Ho3Er3(Si3Rh)4
_chemical_formula_sum   'Y2 Ho3 Er3 Si12 Rh4'
_cell_volume   453.55547599
_cell_formula_units_Z   1
loop_
 _symmetry_equiv_pos_site_id
 _symmetry_equiv_pos_as_xyz
  1  'x, y, z'
loop_
 _atom_site_type_symbol
 _atom_site_label
 _atom_site_symmetry_multiplicity
 _atom_site_fract_x
 _atom_site_fract_y
 _atom_site_fract_z
 _atom_site_occupancy
  Y  Y0  1  0.000000  0.000000  0.250000  1
  Y  Y1  1  0.000000  0.000000  0.750000  1
  Ho  Ho2  1  0.491070  0.508930  0.750000  1
  Ho  Ho3  1  0.491070  0.982140  0.750000  1
  Ho  Ho4  1  0.017860  0.508930  0.750000  1
  Er  Er5  1  0.508989  0.491011  0.250000  1
  Er  Er6  1  0.508989  0.017976  0.250000  1
  Er  Er7  1  0.982024  0.491011  0.250000  1
  Si  Si8  1  0.167161  0.832839  0.499421  1
  Si  Si9  1  0.167161  0.334319  0.499421  1
  Si  Si10  1  0.665681  0.832839  0.499421  1
  Si  Si11  1  0.832835  0.167165  0.500080  1
  Si  Si12  1  0.832835  0.665672  0.500080  1
  Si  Si13  1  0.334328  0.167165  0.500080  1
  Si  Si14  1  0.832835  0.167165  0.999920  1
  Si  Si15  1  0.832835  0.665672  0.999920  1
  Si  Si16  1  0.334328  0.167165  0.999920  1
  Si  Si17  1  0.167161  0.832839  0.000579  1
  Si  Si18  1  0.167161  0.334319  0.000579  1
  Si  Si19  1  0.665681  0.832839  0.000579  1
  Rh  Rh20  1  0.333333  0.666667  0.465493  1
  Rh  Rh21  1  0.666667  0.333333  0.533300  1
  Rh  Rh22  1  0.666667  0.333333  0.966700  1
  Rh  Rh23  1  0.333333  0.666667  0.034507  1
