# generated using pymatgen
data_Ho7Er9(HfIr3)4
_symmetry_space_group_name_H-M   'P 1'
_cell_length_a   10.79129701
_cell_length_b   10.78897701
_cell_length_c   6.23234701
_cell_angle_alpha   90.00364716
_cell_angle_beta   90.00325195
_cell_angle_gamma   89.99672898
_symmetry_Int_Tables_number   1
_chemical_formula_structural   Ho7Er9(HfIr3)4
_chemical_formula_sum   'Ho7 Er9 Hf4 Ir12'
_cell_volume   725.61380587
_cell_formula_units_Z   1
loop_
 _symmetry_equiv_pos_site_id
 _symmetry_equiv_pos_as_xyz
  1  'x, y, z'
loop_
 _atom_site_type_symbol
 _atom_site_label
 _atom_site_symmetry_multiplicity
 _atom_site_fract_x
 _atom_site_fract_y
 _atom_site_fract_z
 _atom_site_occupancy
  Ho  Ho0  1  0.289444  0.086487  0.374376  1
  Ho  Ho1  1  0.289435  0.913691  0.874420  1
  Ho  Ho2  1  0.710509  0.086455  0.874384  1
  Ho  Ho3  1  0.710605  0.913577  0.374389  1
  Ho  Ho4  1  0.586392  0.789402  0.874396  1
  Ho  Ho5  1  0.586326  0.210633  0.374401  1
  Ho  Ho6  1  0.413579  0.789365  0.374353  1
  Er  Er7  1  0.413729  0.210454  0.874584  1
  Er  Er8  1  0.210226  0.413933  0.625418  1
  Er  Er9  1  0.210196  0.586006  0.125311  1
  Er  Er10  1  0.789824  0.414008  0.125264  1
  Er  Er11  1  0.789837  0.586025  0.625325  1
  Er  Er12  1  0.913953  0.710167  0.125360  1
  Er  Er13  1  0.913986  0.289843  0.625314  1
  Er  Er14  1  0.086045  0.710167  0.625320  1
  Er  Er15  1  0.086041  0.289832  0.125224  1
  Hf  Hf16  1  0.000000  0.000020  0.500325  1
  Hf  Hf17  1  0.999994  0.999990  0.000235  1
  Hf  Hf18  1  0.499920  0.499857  0.000229  1
  Hf  Hf19  1  0.499966  0.499971  0.500275  1
  Ir  Ir20  1  0.856338  0.144337  0.250149  1
  Ir  Ir21  1  0.856358  0.855666  0.750115  1
  Ir  Ir22  1  0.143837  0.144366  0.750242  1
  Ir  Ir23  1  0.143669  0.855684  0.250119  1
  Ir  Ir24  1  0.644172  0.356219  0.750231  1
  Ir  Ir25  1  0.644338  0.643640  0.250160  1
  Ir  Ir26  1  0.355760  0.356201  0.249794  1
  Ir  Ir27  1  0.355669  0.643669  0.750143  1
  Ir  Ir28  1  0.499919  0.000184  0.122021  1
  Ir  Ir29  1  0.499918  0.000161  0.622396  1
  Ir  Ir30  1  0.000019  0.499987  0.877877  1
  Ir  Ir31  1  0.999993  0.500003  0.377852  1
