# generated using pymatgen
data_Hf12Ta4Mn3Fe5N4
_symmetry_space_group_name_H-M   'P 1'
_cell_length_a   8.45035690
_cell_length_b   8.45035581
_cell_length_c   8.45035751
_cell_angle_alpha   60.03250208
_cell_angle_beta   60.03250594
_cell_angle_gamma   60.03250347
_symmetry_Int_Tables_number   1
_chemical_formula_structural   Hf12Ta4Mn3Fe5N4
_chemical_formula_sum   'Hf12 Ta4 Mn3 Fe5 N4'
_cell_volume   427.00208900
_cell_formula_units_Z   1
loop_
 _symmetry_equiv_pos_site_id
 _symmetry_equiv_pos_as_xyz
  1  'x, y, z'
loop_
 _atom_site_type_symbol
 _atom_site_label
 _atom_site_symmetry_multiplicity
 _atom_site_fract_x
 _atom_site_fract_y
 _atom_site_fract_z
 _atom_site_occupancy
  Hf  Hf0  1  0.811928  0.811928  0.187809  1
  Hf  Hf1  1  0.187838  0.187838  0.812750  1
  Hf  Hf2  1  0.811928  0.187809  0.811928  1
  Hf  Hf3  1  0.187838  0.812750  0.187838  1
  Hf  Hf4  1  0.187809  0.811928  0.811928  1
  Hf  Hf5  1  0.812750  0.187838  0.187838  1
  Hf  Hf6  1  0.437143  0.437143  0.061977  1
  Hf  Hf7  1  0.062815  0.062815  0.437291  1
  Hf  Hf8  1  0.437143  0.061977  0.437143  1
  Hf  Hf9  1  0.062815  0.437291  0.062815  1
  Hf  Hf10  1  0.061977  0.437143  0.437143  1
  Hf  Hf11  1  0.437291  0.062815  0.062815  1
  Ta  Ta12  1  0.125259  0.624532  0.624532  1
  Ta  Ta13  1  0.624532  0.125259  0.624532  1
  Ta  Ta14  1  0.624532  0.624532  0.125259  1
  Ta  Ta15  1  0.625459  0.625459  0.625459  1
  Mn  Mn16  1  0.742896  0.418990  0.418990  1
  Mn  Mn17  1  0.418990  0.742896  0.418990  1
  Mn  Mn18  1  0.418990  0.418990  0.742896  1
  Fe  Fe19  1  0.418622  0.418622  0.418622  1
  Fe  Fe20  1  0.508419  0.830794  0.830794  1
  Fe  Fe21  1  0.830794  0.508419  0.830794  1
  Fe  Fe22  1  0.830794  0.830794  0.508419  1
  Fe  Fe23  1  0.830723  0.830723  0.830723  1
  N  N24  1  0.624656  0.125572  0.125572  1
  N  N25  1  0.125572  0.624656  0.125572  1
  N  N26  1  0.125572  0.125572  0.624656  1
  N  N27  1  0.124916  0.124916  0.124916  1
