# generated using pymatgen
data_Tb2Tm4Mn3(Co5P4)3
_symmetry_space_group_name_H-M   'P 1'
_cell_length_a   3.69283300
_cell_length_b   10.53071800
_cell_length_c   12.13366800
_cell_angle_alpha   90.00000000
_cell_angle_beta   90.00000000
_cell_angle_gamma   90.00000000
_symmetry_Int_Tables_number   1
_chemical_formula_structural   Tb2Tm4Mn3(Co5P4)3
_chemical_formula_sum   'Tb2 Tm4 Mn3 Co15 P12'
_cell_volume   471.85630097
_cell_formula_units_Z   1
loop_
 _symmetry_equiv_pos_site_id
 _symmetry_equiv_pos_as_xyz
  1  'x, y, z'
loop_
 _atom_site_type_symbol
 _atom_site_label
 _atom_site_symmetry_multiplicity
 _atom_site_fract_x
 _atom_site_fract_y
 _atom_site_fract_z
 _atom_site_occupancy
  Tb  Tb0  1  0.000000  0.500000  0.523827  1
  Tb  Tb1  1  0.500000  0.000000  0.476930  1
  Tm  Tm2  1  0.500000  0.818634  0.204261  1
  Tm  Tm3  1  0.500000  0.181366  0.204261  1
  Tm  Tm4  1  0.000000  0.680465  0.796127  1
  Tm  Tm5  1  0.000000  0.319535  0.796127  1
  Mn  Mn6  1  0.500000  0.500000  0.155138  1
  Mn  Mn7  1  0.000000  0.000000  0.841882  1
  Mn  Mn8  1  0.000000  0.500000  0.988543  1
  Co  Co9  1  0.500000  0.500000  0.701243  1
  Co  Co10  1  0.000000  0.000000  0.296179  1
  Co  Co11  1  0.500000  0.000000  0.013332  1
  Co  Co12  1  0.500000  0.330383  0.994074  1
  Co  Co13  1  0.500000  0.669617  0.994074  1
  Co  Co14  1  0.000000  0.165484  0.005459  1
  Co  Co15  1  0.000000  0.834516  0.005459  1
  Co  Co16  1  0.500000  0.295548  0.430206  1
  Co  Co17  1  0.500000  0.704452  0.430206  1
  Co  Co18  1  0.000000  0.203746  0.570288  1
  Co  Co19  1  0.000000  0.796254  0.570288  1
  Co  Co20  1  0.500000  0.879130  0.710216  1
  Co  Co21  1  0.500000  0.120870  0.710216  1
  Co  Co22  1  0.000000  0.621883  0.290751  1
  Co  Co23  1  0.000000  0.378117  0.290751  1
  P  P24  1  0.500000  0.500000  0.882203  1
  P  P25  1  0.000000  0.000000  0.117619  1
  P  P26  1  0.500000  0.500000  0.345165  1
  P  P27  1  0.000000  0.000000  0.655594  1
  P  P28  1  0.500000  0.310315  0.617623  1
  P  P29  1  0.500000  0.689685  0.617623  1
  P  P30  1  0.000000  0.188875  0.382846  1
  P  P31  1  0.000000  0.811125  0.382846  1
  P  P32  1  0.500000  0.846403  0.892398  1
  P  P33  1  0.500000  0.153597  0.892398  1
  P  P34  1  0.000000  0.655293  0.106923  1
  P  P35  1  0.000000  0.344707  0.106923  1
