# generated using pymatgen
data_HoUB6Ru
_symmetry_space_group_name_H-M   'P 1'
_cell_length_a   3.58247400
_cell_length_b   9.32728100
_cell_length_c   11.42228100
_cell_angle_alpha   90.00000000
_cell_angle_beta   90.00000000
_cell_angle_gamma   90.00000000
_symmetry_Int_Tables_number   1
_chemical_formula_structural   HoUB6Ru
_chemical_formula_sum   'Ho4 U4 B24 Ru4'
_cell_volume   381.67256893
_cell_formula_units_Z   4
loop_
 _symmetry_equiv_pos_site_id
 _symmetry_equiv_pos_as_xyz
  1  'x, y, z'
loop_
 _atom_site_type_symbol
 _atom_site_label
 _atom_site_symmetry_multiplicity
 _atom_site_fract_x
 _atom_site_fract_y
 _atom_site_fract_z
 _atom_site_occupancy
  Ho  Ho0  1  0.000000  0.336355  0.407315  1
  Ho  Ho1  1  0.000000  0.663645  0.592685  1
  Ho  Ho2  1  0.000000  0.836355  0.092685  1
  Ho  Ho3  1  0.000000  0.163645  0.907315  1
  U  U4  1  0.000000  0.957328  0.397911  1
  U  U5  1  0.000000  0.042672  0.602089  1
  U  U6  1  0.000000  0.457328  0.102089  1
  U  U7  1  0.000000  0.542672  0.897911  1
  B  B8  1  0.500000  0.551269  0.431438  1
  B  B9  1  0.500000  0.448731  0.568562  1
  B  B10  1  0.500000  0.051269  0.068562  1
  B  B11  1  0.500000  0.948731  0.931438  1
  B  B12  1  0.500000  0.742141  0.423250  1
  B  B13  1  0.500000  0.257859  0.576750  1
  B  B14  1  0.500000  0.242141  0.076750  1
  B  B15  1  0.500000  0.757859  0.923250  1
  B  B16  1  0.500000  0.802210  0.274599  1
  B  B17  1  0.500000  0.197790  0.725401  1
  B  B18  1  0.500000  0.302210  0.225401  1
  B  B19  1  0.500000  0.697790  0.774599  1
  B  B20  1  0.500000  0.644425  0.189018  1
  B  B21  1  0.500000  0.355575  0.810982  1
  B  B22  1  0.500000  0.144425  0.310982  1
  B  B23  1  0.500000  0.855575  0.689018  1
  B  B24  1  0.500000  0.988096  0.219004  1
  B  B25  1  0.500000  0.011904  0.780996  1
  B  B26  1  0.500000  0.488096  0.280996  1
  B  B27  1  0.500000  0.511904  0.719004  1
  B  B28  1  0.500000  0.643068  0.039818  1
  B  B29  1  0.500000  0.356932  0.960182  1
  B  B30  1  0.500000  0.143068  0.460182  1
  B  B31  1  0.500000  0.856932  0.539818  1
  Ru  Ru32  1  0.000000  0.644732  0.319871  1
  Ru  Ru33  1  0.000000  0.355268  0.680129  1
  Ru  Ru34  1  0.000000  0.144732  0.180129  1
  Ru  Ru35  1  0.000000  0.855268  0.819871  1
