# generated using pymatgen
data_Dy2Si5Pt2Rh
_symmetry_space_group_name_H-M   'P 1'
_cell_length_a   8.13994283
_cell_length_b   8.13994308
_cell_length_c   5.95402519
_cell_angle_alpha   68.65056369
_cell_angle_beta   68.65056194
_cell_angle_gamma   89.06913881
_symmetry_Int_Tables_number   1
_chemical_formula_structural   Dy2Si5Pt2Rh
_chemical_formula_sum   'Dy4 Si10 Pt4 Rh2'
_cell_volume   339.13052948
_cell_formula_units_Z   2
loop_
 _symmetry_equiv_pos_site_id
 _symmetry_equiv_pos_as_xyz
  1  'x, y, z'
loop_
 _atom_site_type_symbol
 _atom_site_label
 _atom_site_symmetry_multiplicity
 _atom_site_fract_x
 _atom_site_fract_y
 _atom_site_fract_z
 _atom_site_occupancy
  Dy  Dy0  1  0.860204  0.597962  0.772033  1
  Dy  Dy1  1  0.402038  0.139796  0.727967  1
  Dy  Dy2  1  0.139796  0.402038  0.227967  1
  Dy  Dy3  1  0.597962  0.860204  0.272033  1
  Si  Si4  1  0.045953  0.255819  0.848703  1
  Si  Si5  1  0.744181  0.954047  0.651297  1
  Si  Si6  1  0.954047  0.744181  0.151297  1
  Si  Si7  1  0.255819  0.045953  0.348703  1
  Si  Si8  1  0.223283  0.776717  0.750000  1
  Si  Si9  1  0.776717  0.223283  0.250000  1
  Si  Si10  1  0.500668  0.499332  0.750000  1
  Si  Si11  1  0.499332  0.500668  0.250000  1
  Si  Si12  1  0.776039  0.223961  0.750000  1
  Si  Si13  1  0.223961  0.776039  0.250000  1
  Pt  Pt14  1  0.247620  0.524752  0.614198  1
  Pt  Pt15  1  0.475248  0.752380  0.885802  1
  Pt  Pt16  1  0.752380  0.475248  0.385802  1
  Pt  Pt17  1  0.524752  0.247620  0.114198  1
  Rh  Rh18  1  0.999898  0.000102  0.750000  1
  Rh  Rh19  1  0.000102  0.999898  0.250000  1
