# generated using pymatgen
data_Tm16MgZn(Co2Hg)2
_symmetry_space_group_name_H-M   'P 1'
_cell_length_a   9.35689565
_cell_length_b   9.32346700
_cell_length_c   9.33996400
_cell_angle_alpha   59.94145123
_cell_angle_beta   60.05984099
_cell_angle_gamma   59.91647250
_symmetry_Int_Tables_number   1
_chemical_formula_structural   Tm16MgZn(Co2Hg)2
_chemical_formula_sum   'Tm16 Mg1 Zn1 Co4 Hg2'
_cell_volume   575.79492505
_cell_formula_units_Z   1
loop_
 _symmetry_equiv_pos_site_id
 _symmetry_equiv_pos_as_xyz
  1  'x, y, z'
loop_
 _atom_site_type_symbol
 _atom_site_label
 _atom_site_symmetry_multiplicity
 _atom_site_fract_x
 _atom_site_fract_y
 _atom_site_fract_z
 _atom_site_occupancy
  Tm  Tm0  1  0.347877  0.345351  0.345563  1
  Tm  Tm1  1  0.347877  0.345351  0.961209  1
  Tm  Tm2  1  0.347236  0.960971  0.345896  1
  Tm  Tm3  1  0.950754  0.348638  0.350304  1
  Tm  Tm4  1  0.809638  0.189294  0.190453  1
  Tm  Tm5  1  0.185736  0.813358  0.813320  1
  Tm  Tm6  1  0.185736  0.813358  0.187586  1
  Tm  Tm7  1  0.809638  0.189294  0.810614  1
  Tm  Tm8  1  0.186577  0.187788  0.812817  1
  Tm  Tm9  1  0.809041  0.810185  0.190387  1
  Tm  Tm10  1  0.936809  0.562344  0.561575  1
  Tm  Tm11  1  0.560658  0.942031  0.934403  1
  Tm  Tm12  1  0.560658  0.942031  0.562909  1
  Tm  Tm13  1  0.936809  0.562344  0.939272  1
  Tm  Tm14  1  0.560783  0.563491  0.937863  1
  Tm  Tm15  1  0.932601  0.942421  0.562489  1
  Mg  Mg16  1  0.285630  0.569190  0.572589  1
  Zn  Zn17  1  0.585941  0.251293  0.581382  1
  Co  Co18  1  0.139217  0.142821  0.141961  1
  Co  Co19  1  0.139217  0.142821  0.576002  1
  Co  Co20  1  0.138064  0.574948  0.143494  1
  Co  Co21  1  0.576624  0.140813  0.141282  1
  Hg  Hg22  1  0.583438  0.579931  0.587275  1
  Hg  Hg23  1  0.583438  0.579931  0.249354  1
