# generated using pymatgen
data_RbSiSbS4
_symmetry_space_group_name_H-M   'P 1'
_cell_length_a   7.03436100
_cell_length_b   6.54241118
_cell_length_c   18.23578300
_cell_angle_alpha   71.82610155
_cell_angle_beta   90.00000000
_cell_angle_gamma   90.00000000
_symmetry_Int_Tables_number   1
_chemical_formula_structural   RbSiSbS4
_chemical_formula_sum   'Rb4 Si4 Sb4 S16'
_cell_volume   797.37521108
_cell_formula_units_Z   4
loop_
 _symmetry_equiv_pos_site_id
 _symmetry_equiv_pos_as_xyz
  1  'x, y, z'
loop_
 _atom_site_type_symbol
 _atom_site_label
 _atom_site_symmetry_multiplicity
 _atom_site_fract_x
 _atom_site_fract_y
 _atom_site_fract_z
 _atom_site_occupancy
  Rb  Rb0  1  0.756556  0.287500  0.465196  1
  Rb  Rb1  1  0.256556  0.712500  0.034804  1
  Rb  Rb2  1  0.243444  0.712500  0.534804  1
  Rb  Rb3  1  0.743444  0.287500  0.965196  1
  Si  Si4  1  0.220245  0.201312  0.339508  1
  Si  Si5  1  0.720245  0.798688  0.160492  1
  Si  Si6  1  0.779755  0.798688  0.660492  1
  Si  Si7  1  0.279755  0.201312  0.839508  1
  Sb  Sb8  1  0.837283  0.237809  0.221200  1
  Sb  Sb9  1  0.662717  0.237809  0.721200  1
  Sb  Sb10  1  0.337283  0.762191  0.278800  1
  Sb  Sb11  1  0.162717  0.762191  0.778800  1
  S  S12  1  0.517674  0.995567  0.865475  1
  S  S13  1  0.765278  0.589030  0.093148  1
  S  S14  1  0.029513  0.003108  0.853207  1
  S  S15  1  0.470487  0.003108  0.353207  1
  S  S16  1  0.970487  0.996892  0.146793  1
  S  S17  1  0.330834  0.394412  0.720498  1
  S  S18  1  0.234722  0.410970  0.906852  1
  S  S19  1  0.982326  0.995567  0.365475  1
  S  S20  1  0.265278  0.410970  0.406852  1
  S  S21  1  0.017674  0.004433  0.634525  1
  S  S22  1  0.734722  0.589030  0.593148  1
  S  S23  1  0.669166  0.605588  0.279502  1
  S  S24  1  0.529513  0.996892  0.646793  1
  S  S25  1  0.830834  0.605588  0.779502  1
  S  S26  1  0.169166  0.394412  0.220498  1
  S  S27  1  0.482326  0.004433  0.134525  1
