# generated using pymatgen
data_YbPdCl6
_symmetry_space_group_name_H-M   'P 1'
_cell_length_a   6.62616702
_cell_length_b   6.62616723
_cell_length_c   6.58867070
_cell_angle_alpha   80.13085763
_cell_angle_beta   80.13085148
_cell_angle_gamma   120.22855299
_symmetry_Int_Tables_number   1
_chemical_formula_structural   YbPdCl6
_chemical_formula_sum   'Yb1 Pd1 Cl6'
_cell_volume   234.69416105
_cell_formula_units_Z   1
loop_
 _symmetry_equiv_pos_site_id
 _symmetry_equiv_pos_as_xyz
  1  'x, y, z'
loop_
 _atom_site_type_symbol
 _atom_site_label
 _atom_site_symmetry_multiplicity
 _atom_site_fract_x
 _atom_site_fract_y
 _atom_site_fract_z
 _atom_site_occupancy
  Yb  Yb0  1  0.164759  0.835241  0.000000  1
  Pd  Pd1  1  0.833567  0.166433  0.000000  1
  Cl  Cl2  1  0.468040  0.086198  0.225537  1
  Cl  Cl3  1  0.615138  0.950318  0.782328  1
  Cl  Cl4  1  0.913802  0.531960  0.774463  1
  Cl  Cl5  1  0.049682  0.384862  0.217672  1
  Cl  Cl6  1  0.761719  0.806708  0.228073  1
  Cl  Cl7  1  0.193292  0.238281  0.771927  1
