# generated using pymatgen
data_Tb3ErTmPb3
_symmetry_space_group_name_H-M   'P 1'
_cell_length_a   9.05287100
_cell_length_b   9.05287052
_cell_length_c   6.62020300
_cell_angle_alpha   90.00000000
_cell_angle_beta   90.00000000
_cell_angle_gamma   119.99999809
_symmetry_Int_Tables_number   1
_chemical_formula_structural   Tb3ErTmPb3
_chemical_formula_sum   'Tb6 Er2 Tm2 Pb6'
_cell_volume   469.86661393
_cell_formula_units_Z   2
loop_
 _symmetry_equiv_pos_site_id
 _symmetry_equiv_pos_as_xyz
  1  'x, y, z'
loop_
 _atom_site_type_symbol
 _atom_site_label
 _atom_site_symmetry_multiplicity
 _atom_site_fract_x
 _atom_site_fract_y
 _atom_site_fract_z
 _atom_site_occupancy
  Tb  Tb0  1  0.760832  0.760832  0.750132  1
  Tb  Tb1  1  0.239168  0.000000  0.750132  1
  Tb  Tb2  1  0.000000  0.239168  0.750132  1
  Tb  Tb3  1  0.239168  0.239168  0.249868  1
  Tb  Tb4  1  0.760832  0.000000  0.249868  1
  Tb  Tb5  1  0.000000  0.760832  0.249868  1
  Er  Er6  1  0.333333  0.666667  0.500000  1
  Er  Er7  1  0.666667  0.333333  0.500000  1
  Tm  Tm8  1  0.666667  0.333333  0.000000  1
  Tm  Tm9  1  0.333333  0.666667  0.000000  1
  Pb  Pb10  1  0.395242  0.395242  0.750368  1
  Pb  Pb11  1  0.604758  0.000000  0.750368  1
  Pb  Pb12  1  0.000000  0.604758  0.750368  1
  Pb  Pb13  1  0.604758  0.604758  0.249632  1
  Pb  Pb14  1  0.395242  0.000000  0.249632  1
  Pb  Pb15  1  0.000000  0.395242  0.249632  1
