# generated using pymatgen
data_Tb2Dy2Ga12Au
_symmetry_space_group_name_H-M   'P 1'
_cell_length_a   7.55314124
_cell_length_b   7.55722310
_cell_length_c   7.55314015
_cell_angle_alpha   109.47155219
_cell_angle_beta   109.44863920
_cell_angle_gamma   109.47156120
_symmetry_Int_Tables_number   1
_chemical_formula_structural   Tb2Dy2Ga12Au
_chemical_formula_sum   'Tb2 Dy2 Ga12 Au1'
_cell_volume   331.98071631
_cell_formula_units_Z   1
loop_
 _symmetry_equiv_pos_site_id
 _symmetry_equiv_pos_as_xyz
  1  'x, y, z'
loop_
 _atom_site_type_symbol
 _atom_site_label
 _atom_site_symmetry_multiplicity
 _atom_site_fract_x
 _atom_site_fract_y
 _atom_site_fract_z
 _atom_site_occupancy
  Tb  Tb0  1  0.000000  0.000000  0.500000  1
  Tb  Tb1  1  0.500000  0.000000  0.000000  1
  Dy  Dy2  1  0.000000  0.500000  0.000000  1
  Dy  Dy3  1  0.500000  0.500000  0.500000  1
  Ga  Ga4  1  0.750003  0.250075  0.500072  1
  Ga  Ga5  1  0.750000  0.500000  0.250000  1
  Ga  Ga6  1  0.500072  0.250075  0.750003  1
  Ga  Ga7  1  0.250000  0.500000  0.750000  1
  Ga  Ga8  1  0.249997  0.749925  0.499928  1
  Ga  Ga9  1  0.499928  0.749925  0.249997  1
  Ga  Ga10  1  0.695470  0.695419  0.999949  1
  Ga  Ga11  1  0.304529  0.000000  0.304529  1
  Ga  Ga12  1  0.000051  0.304581  0.304530  1
  Ga  Ga13  1  0.304530  0.304581  0.000051  1
  Ga  Ga14  1  0.695471  0.000000  0.695471  1
  Ga  Ga15  1  0.999949  0.695419  0.695470  1
  Au  Au16  1  0.000000  0.000000  0.000000  1
