# generated using pymatgen
data_Ta13Be4Tc3Te16
_symmetry_space_group_name_H-M   'P 1'
_cell_length_a   4.72019100
_cell_length_b   10.92658604
_cell_length_c   19.08491309
_cell_angle_alpha   89.98938208
_cell_angle_beta   90.00000000
_cell_angle_gamma   90.00000000
_symmetry_Int_Tables_number   1
_chemical_formula_structural   Ta13Be4Tc3Te16
_chemical_formula_sum   'Ta13 Be4 Tc3 Te16'
_cell_volume   984.31531325
_cell_formula_units_Z   1
loop_
 _symmetry_equiv_pos_site_id
 _symmetry_equiv_pos_as_xyz
  1  'x, y, z'
loop_
 _atom_site_type_symbol
 _atom_site_label
 _atom_site_symmetry_multiplicity
 _atom_site_fract_x
 _atom_site_fract_y
 _atom_site_fract_z
 _atom_site_occupancy
  Ta  Ta0  1  0.500000  0.937324  0.884230  1
  Ta  Ta1  1  0.500000  0.695738  0.534799  1
  Ta  Ta2  1  0.500000  0.304187  0.465311  1
  Ta  Ta3  1  0.500000  0.197762  0.964483  1
  Ta  Ta4  1  0.500000  0.801586  0.034634  1
  Ta  Ta5  1  0.000000  0.678932  0.446206  1
  Ta  Ta6  1  0.000000  0.321322  0.553912  1
  Ta  Ta7  1  0.000000  0.178451  0.055803  1
  Ta  Ta8  1  0.000000  0.822007  0.946020  1
  Ta  Ta9  1  0.000000  0.405898  0.397851  1
  Ta  Ta10  1  0.000000  0.594258  0.602218  1
  Ta  Ta11  1  0.000000  0.907951  0.103747  1
  Ta  Ta12  1  0.000000  0.093459  0.898272  1
  Be  Be13  1  0.253494  0.500065  0.500003  1
  Be  Be14  1  0.741346  0.999485  0.999357  1
  Be  Be15  1  0.746506  0.500065  0.500003  1
  Be  Be16  1  0.258654  0.999485  0.999357  1
  Tc  Tc17  1  0.500000  0.557896  0.393018  1
  Tc  Tc18  1  0.500000  0.441961  0.606829  1
  Tc  Tc19  1  0.500000  0.058445  0.107435  1
  Te  Te20  1  0.000000  0.847902  0.561133  1
  Te  Te21  1  0.000000  0.152332  0.438976  1
  Te  Te22  1  0.000000  0.346692  0.941663  1
  Te  Te23  1  0.000000  0.655982  0.063186  1
  Te  Te24  1  0.500000  0.343623  0.316902  1
  Te  Te25  1  0.500000  0.655697  0.683163  1
  Te  Te26  1  0.500000  0.843963  0.182501  1
  Te  Te27  1  0.500000  0.170529  0.816160  1
  Te  Te28  1  0.500000  0.809723  0.399502  1
  Te  Te29  1  0.500000  0.190129  0.600729  1
  Te  Te30  1  0.500000  0.309589  0.100062  1
  Te  Te31  1  0.500000  0.677465  0.903375  1
  Te  Te32  1  0.000000  0.606586  0.303760  1
  Te  Te33  1  0.000000  0.393415  0.696242  1
  Te  Te34  1  0.000000  0.107848  0.197951  1
  Te  Te35  1  0.000000  0.892248  0.801209  1
