# generated using pymatgen
data_Cs12K6Ga2Bi3Sb5
_symmetry_space_group_name_H-M   'P 1'
_cell_length_a   11.26593646
_cell_length_b   11.24508154
_cell_length_c   11.82518200
_cell_angle_alpha   90.00000000
_cell_angle_beta   90.00000000
_cell_angle_gamma   119.93850562
_symmetry_Int_Tables_number   1
_chemical_formula_structural   Cs12K6Ga2Bi3Sb5
_chemical_formula_sum   'Cs12 K6 Ga2 Bi3 Sb5'
_cell_volume   1298.18669059
_cell_formula_units_Z   1
loop_
 _symmetry_equiv_pos_site_id
 _symmetry_equiv_pos_as_xyz
  1  'x, y, z'
loop_
 _atom_site_type_symbol
 _atom_site_label
 _atom_site_symmetry_multiplicity
 _atom_site_fract_x
 _atom_site_fract_y
 _atom_site_fract_z
 _atom_site_occupancy
  Cs  Cs0  1  0.419493  0.209746  0.041630  1
  Cs  Cs1  1  0.789627  0.208787  0.041005  1
  Cs  Cs2  1  0.789624  0.580837  0.041006  1
  Cs  Cs3  1  0.789624  0.580837  0.458994  1
  Cs  Cs4  1  0.419493  0.209746  0.458370  1
  Cs  Cs5  1  0.789627  0.208787  0.458995  1
  Cs  Cs6  1  0.209765  0.790659  0.542302  1
  Cs  Cs7  1  0.580718  0.790359  0.541860  1
  Cs  Cs8  1  0.209763  0.419106  0.542300  1
  Cs  Cs9  1  0.209763  0.419106  0.957700  1
  Cs  Cs10  1  0.209765  0.790659  0.957698  1
  Cs  Cs11  1  0.580718  0.790359  0.958140  1
  K  K12  1  0.120876  0.239760  0.250000  1
  K  K13  1  0.120866  0.881106  0.250000  1
  K  K14  1  0.759092  0.879547  0.250000  1
  K  K15  1  0.241129  0.120558  0.750000  1
  K  K16  1  0.879412  0.120589  0.750000  1
  K  K17  1  0.879389  0.758817  0.750000  1
  Ga  Ga18  1  0.338288  0.669136  0.250000  1
  Ga  Ga19  1  0.666912  0.333469  0.750000  1
  Bi  Bi20  1  0.000042  0.000020  0.999933  1
  Bi  Bi21  1  0.051004  0.525500  0.250000  1
  Bi  Bi22  1  0.000042  0.000020  0.500067  1
  Sb  Sb23  1  0.472652  0.527893  0.250000  1
  Sb  Sb24  1  0.472652  0.944739  0.250000  1
  Sb  Sb25  1  0.528284  0.056634  0.750000  1
  Sb  Sb26  1  0.528266  0.471669  0.750000  1
  Sb  Sb27  1  0.943114  0.471559  0.750000  1
