# generated using pymatgen
data_Ho11(In3Sb2)2
_symmetry_space_group_name_H-M   'P 1'
_cell_length_a   11.70256937
_cell_length_b   11.70256884
_cell_length_c   11.70256900
_cell_angle_alpha   119.88184934
_cell_angle_beta   119.88184784
_cell_angle_gamma   90.20476408
_symmetry_Int_Tables_number   1
_chemical_formula_structural   Ho11(In3Sb2)2
_chemical_formula_sum   'Ho22 In12 Sb8'
_cell_volume   1135.27360966
_cell_formula_units_Z   2
loop_
 _symmetry_equiv_pos_site_id
 _symmetry_equiv_pos_as_xyz
  1  'x, y, z'
loop_
 _atom_site_type_symbol
 _atom_site_label
 _atom_site_symmetry_multiplicity
 _atom_site_fract_x
 _atom_site_fract_y
 _atom_site_fract_z
 _atom_site_occupancy
  Ho  Ho0  1  0.689951  0.942154  0.252203  1
  Ho  Ho1  1  0.689951  0.437747  0.747797  1
  Ho  Ho2  1  0.942154  0.689951  0.252203  1
  Ho  Ho3  1  0.437747  0.689951  0.747797  1
  Ho  Ho4  1  0.310049  0.057846  0.747797  1
  Ho  Ho5  1  0.310049  0.562253  0.252203  1
  Ho  Ho6  1  0.057846  0.310049  0.747797  1
  Ho  Ho7  1  0.562253  0.310049  0.252203  1
  Ho  Ho8  1  0.897514  0.229769  0.332254  1
  Ho  Ho9  1  0.897514  0.565260  0.667746  1
  Ho  Ho10  1  0.229769  0.897514  0.332254  1
  Ho  Ho11  1  0.565260  0.897514  0.667746  1
  Ho  Ho12  1  0.102486  0.770231  0.667746  1
  Ho  Ho13  1  0.102486  0.434740  0.332254  1
  Ho  Ho14  1  0.770231  0.102486  0.667746  1
  Ho  Ho15  1  0.434740  0.102486  0.332254  1
  Ho  Ho16  1  0.324648  0.324648  0.649296  1
  Ho  Ho17  1  0.675352  0.675352  0.350704  1
  Ho  Ho18  1  0.324648  0.675352  0.000000  1
  Ho  Ho19  1  0.675352  0.324648  0.000000  1
  Ho  Ho20  1  0.833207  0.833207  0.000000  1
  Ho  Ho21  1  0.166793  0.166793  0.000000  1
  In  In22  1  0.034250  0.034250  0.412429  1
  In  In23  1  0.621821  0.621821  0.587571  1
  In  In24  1  0.034250  0.621821  0.000000  1
  In  In25  1  0.621821  0.034250  0.000000  1
  In  In26  1  0.965750  0.965750  0.587571  1
  In  In27  1  0.378179  0.378179  0.412429  1
  In  In28  1  0.965750  0.378179  0.000000  1
  In  In29  1  0.378179  0.965750  0.000000  1
  In  In30  1  0.127700  0.127700  0.255400  1
  In  In31  1  0.872300  0.872300  0.744600  1
  In  In32  1  0.127700  0.872300  0.000000  1
  In  In33  1  0.872300  0.127700  0.000000  1
  Sb  Sb34  1  0.146694  0.500000  0.646694  1
  Sb  Sb35  1  0.853306  0.500000  0.353306  1
  Sb  Sb36  1  0.500000  0.853306  0.353306  1
  Sb  Sb37  1  0.500000  0.146694  0.646694  1
  Sb  Sb38  1  0.617439  0.617439  0.000000  1
  Sb  Sb39  1  0.382561  0.382561  0.000000  1
  Sb  Sb40  1  0.750000  0.250000  0.500000  1
  Sb  Sb41  1  0.250000  0.750000  0.500000  1
