# generated using pymatgen
data_TaNb(GaRu2)2
_symmetry_space_group_name_H-M   'P 1'
_cell_length_a   4.39367000
_cell_length_b   6.20052300
_cell_length_c   13.16589800
_cell_angle_alpha   90.00000000
_cell_angle_beta   89.99903880
_cell_angle_gamma   90.00000000
_symmetry_Int_Tables_number   1
_chemical_formula_structural   TaNb(GaRu2)2
_chemical_formula_sum   'Ta3 Nb3 Ga6 Ru12'
_cell_volume   358.67924236
_cell_formula_units_Z   3
loop_
 _symmetry_equiv_pos_site_id
 _symmetry_equiv_pos_as_xyz
  1  'x, y, z'
loop_
 _atom_site_type_symbol
 _atom_site_label
 _atom_site_symmetry_multiplicity
 _atom_site_fract_x
 _atom_site_fract_y
 _atom_site_fract_z
 _atom_site_occupancy
  Ta  Ta0  1  0.500001  0.000000  0.499900  1
  Ta  Ta1  1  0.000160  0.500000  0.666667  1
  Ta  Ta2  1  0.500160  0.000000  0.833437  1
  Nb  Nb3  1  0.000000  0.500000  0.000115  1
  Nb  Nb4  1  0.499836  0.000000  0.166667  1
  Nb  Nb5  1  0.999836  0.500000  0.333221  1
  Ga  Ga6  1  0.999999  0.000000  0.000135  1
  Ga  Ga7  1  0.499812  0.500000  0.166669  1
  Ga  Ga8  1  0.999812  0.000000  0.333197  1
  Ga  Ga9  1  0.500000  0.500000  0.499862  1
  Ga  Ga10  1  0.000187  0.000000  0.666670  1
  Ga  Ga11  1  0.500188  0.500000  0.833469  1
  Ru  Ru12  1  0.500001  0.249705  0.999612  1
  Ru  Ru13  1  0.500001  0.750294  0.999612  1
  Ru  Ru14  1  0.999830  0.249892  0.166651  1
  Ru  Ru15  1  0.999830  0.750107  0.166651  1
  Ru  Ru16  1  0.499852  0.249717  0.333737  1
  Ru  Ru17  1  0.499852  0.750282  0.333737  1
  Ru  Ru18  1  0.000001  0.249379  0.500386  1
  Ru  Ru19  1  0.000001  0.750620  0.500386  1
  Ru  Ru20  1  0.500164  0.250220  0.666647  1
  Ru  Ru21  1  0.500164  0.749779  0.666647  1
  Ru  Ru22  1  0.000160  0.249392  0.832963  1
  Ru  Ru23  1  0.000160  0.750607  0.832963  1
