# generated using pymatgen
data_Tb3Tm5(CdPt)2
_symmetry_space_group_name_H-M   'P 1'
_cell_length_a   9.63425252
_cell_length_b   9.63425265
_cell_length_c   9.63425300
_cell_angle_alpha   59.99999537
_cell_angle_beta   59.99999491
_cell_angle_gamma   59.99999706
_symmetry_Int_Tables_number   1
_chemical_formula_structural   Tb3Tm5(CdPt)2
_chemical_formula_sum   'Tb6 Tm10 Cd4 Pt4'
_cell_volume   632.32312355
_cell_formula_units_Z   2
loop_
 _symmetry_equiv_pos_site_id
 _symmetry_equiv_pos_as_xyz
  1  'x, y, z'
loop_
 _atom_site_type_symbol
 _atom_site_label
 _atom_site_symmetry_multiplicity
 _atom_site_fract_x
 _atom_site_fract_y
 _atom_site_fract_z
 _atom_site_occupancy
  Tb  Tb0  1  0.935801  0.564199  0.564199  1
  Tb  Tb1  1  0.564199  0.935801  0.935801  1
  Tb  Tb2  1  0.564199  0.935801  0.564199  1
  Tb  Tb3  1  0.935801  0.564199  0.935801  1
  Tb  Tb4  1  0.564199  0.564199  0.935801  1
  Tb  Tb5  1  0.935801  0.935801  0.564199  1
  Tm  Tm6  1  0.351469  0.351469  0.351469  1
  Tm  Tm7  1  0.351469  0.351469  0.945594  1
  Tm  Tm8  1  0.351469  0.945594  0.351469  1
  Tm  Tm9  1  0.945594  0.351469  0.351469  1
  Tm  Tm10  1  0.810515  0.189485  0.189485  1
  Tm  Tm11  1  0.189485  0.810515  0.810515  1
  Tm  Tm12  1  0.189485  0.810515  0.189485  1
  Tm  Tm13  1  0.810515  0.189485  0.810515  1
  Tm  Tm14  1  0.189485  0.189485  0.810515  1
  Tm  Tm15  1  0.810515  0.810515  0.189485  1
  Cd  Cd16  1  0.581485  0.581485  0.581485  1
  Cd  Cd17  1  0.581485  0.581485  0.255545  1
  Cd  Cd18  1  0.581485  0.255545  0.581485  1
  Cd  Cd19  1  0.255545  0.581485  0.581485  1
  Pt  Pt20  1  0.142867  0.142867  0.142867  1
  Pt  Pt21  1  0.142867  0.142867  0.571401  1
  Pt  Pt22  1  0.142867  0.571401  0.142867  1
  Pt  Pt23  1  0.571401  0.142867  0.142867  1
