# generated using pymatgen
data_K12Li8Ti4As7P5
_symmetry_space_group_name_H-M   'P 1'
_cell_length_a   10.11248706
_cell_length_b   10.10624596
_cell_length_c   14.85870753
_cell_angle_alpha   89.92485150
_cell_angle_beta   90.04538029
_cell_angle_gamma   143.20703924
_symmetry_Int_Tables_number   1
_chemical_formula_structural   K12Li8Ti4As7P5
_chemical_formula_sum   'K12 Li8 Ti4 As7 P5'
_cell_volume   909.49656307
_cell_formula_units_Z   1
loop_
 _symmetry_equiv_pos_site_id
 _symmetry_equiv_pos_as_xyz
  1  'x, y, z'
loop_
 _atom_site_type_symbol
 _atom_site_label
 _atom_site_symmetry_multiplicity
 _atom_site_fract_x
 _atom_site_fract_y
 _atom_site_fract_z
 _atom_site_occupancy
  K  K0  1  0.104237  0.444613  0.671357  1
  K  K1  1  0.715743  0.716386  0.680184  1
  K  K2  1  0.215783  0.215827  0.818694  1
  K  K3  1  0.784648  0.783950  0.181217  1
  K  K4  1  0.944536  0.604095  0.828197  1
  K  K5  1  0.554249  0.894490  0.329773  1
  K  K6  1  0.395611  0.055517  0.171736  1
  K  K7  1  0.055218  0.395425  0.173229  1
  K  K8  1  0.897043  0.554556  0.329090  1
  K  K9  1  0.444714  0.103845  0.670902  1
  K  K10  1  0.604090  0.944617  0.828080  1
  K  K11  1  0.283106  0.285734  0.319709  1
  Li  Li12  1  0.920420  0.079712  0.000119  1
  Li  Li13  1  0.579596  0.420703  0.499780  1
  Li  Li14  1  0.079603  0.920320  0.000011  1
  Li  Li15  1  0.416647  0.578163  0.498968  1
  Li  Li16  1  0.750090  0.249938  0.000103  1
  Li  Li17  1  0.754903  0.251972  0.498936  1
  Li  Li18  1  0.249963  0.749988  0.000121  1
  Li  Li19  1  0.248071  0.746038  0.499235  1
  Ti  Ti20  1  0.084186  0.916245  0.499304  1
  Ti  Ti21  1  0.415637  0.584302  0.000180  1
  Ti  Ti22  1  0.917776  0.088589  0.498771  1
  Ti  Ti23  1  0.584361  0.415661  0.000092  1
  As  As24  1  0.888437  0.569046  0.092743  1
  As  As25  1  0.430546  0.111554  0.907435  1
  As  As26  1  0.611189  0.930795  0.591868  1
  As  As27  1  0.930653  0.611795  0.592182  1
  As  As28  1  0.111605  0.430646  0.907453  1
  As  As29  1  0.569222  0.888216  0.093206  1
  As  As30  1  0.388689  0.069393  0.407058  1
  P  P31  1  0.216479  0.216871  0.581454  1
  P  P32  1  0.715982  0.716144  0.917955  1
  P  P33  1  0.283856  0.283846  0.082243  1
  P  P34  1  0.068442  0.385353  0.411632  1
  P  P35  1  0.784674  0.785656  0.416982  1
