# generated using pymatgen
data_Cs3K(GaI4)4
_symmetry_space_group_name_H-M   'P 1'
_cell_length_a   8.39181600
_cell_length_b   9.04358077
_cell_length_c   17.07486147
_cell_angle_alpha   85.41848604
_cell_angle_beta   90.31806016
_cell_angle_gamma   89.99229259
_symmetry_Int_Tables_number   1
_chemical_formula_structural   Cs3K(GaI4)4
_chemical_formula_sum   'Cs3 K1 Ga4 I16'
_cell_volume   1291.68577614
_cell_formula_units_Z   1
loop_
 _symmetry_equiv_pos_site_id
 _symmetry_equiv_pos_as_xyz
  1  'x, y, z'
loop_
 _atom_site_type_symbol
 _atom_site_label
 _atom_site_symmetry_multiplicity
 _atom_site_fract_x
 _atom_site_fract_y
 _atom_site_fract_z
 _atom_site_occupancy
  Cs  Cs0  1  0.504671  0.258305  0.641128  1
  Cs  Cs1  1  0.004569  0.741283  0.859345  1
  Cs  Cs2  1  0.495338  0.741670  0.358213  1
  K  K3  1  0.998270  0.256979  0.139347  1
  Ga  Ga4  1  0.354646  0.246174  0.359902  1
  Ga  Ga5  1  0.858283  0.754930  0.139535  1
  Ga  Ga6  1  0.643927  0.753689  0.639448  1
  Ga  Ga7  1  0.142895  0.245691  0.861445  1
  I  I8  1  0.866331  0.149963  0.908659  1
  I  I9  1  0.366589  0.849297  0.591646  1
  I  I10  1  0.131932  0.859806  0.092607  1
  I  I11  1  0.632059  0.151396  0.407868  1
  I  I12  1  0.386898  0.400480  0.225885  1
  I  I13  1  0.896417  0.590309  0.270130  1
  I  I14  1  0.604309  0.596560  0.772269  1
  I  I15  1  0.105143  0.403428  0.728464  1
  I  I16  1  0.667345  0.974823  0.157271  1
  I  I17  1  0.153574  0.034556  0.340109  1
  I  I18  1  0.343646  0.033984  0.842508  1
  I  I19  1  0.843811  0.967247  0.657607  1
  I  I20  1  0.236153  0.412273  0.462742  1
  I  I21  1  0.740996  0.581077  0.039275  1
  I  I22  1  0.764222  0.587826  0.537159  1
  I  I23  1  0.257978  0.408254  0.967439  1
