# generated using pymatgen
data_Hf8TaNb11Si15Ge
_symmetry_space_group_name_H-M   'P 1'
_cell_length_a   6.67791800
_cell_length_b   6.87172208
_cell_length_c   13.10756400
_cell_angle_alpha   90.00000000
_cell_angle_beta   90.00000000
_cell_angle_gamma   89.99161473
_symmetry_Int_Tables_number   1
_chemical_formula_structural   Hf8TaNb11Si15Ge
_chemical_formula_sum   'Hf8 Ta1 Nb11 Si15 Ge1'
_cell_volume   601.49033106
_cell_formula_units_Z   1
loop_
 _symmetry_equiv_pos_site_id
 _symmetry_equiv_pos_as_xyz
  1  'x, y, z'
loop_
 _atom_site_type_symbol
 _atom_site_label
 _atom_site_symmetry_multiplicity
 _atom_site_fract_x
 _atom_site_fract_y
 _atom_site_fract_z
 _atom_site_occupancy
  Hf  Hf0  1  0.496710  0.673592  0.594131  1
  Hf  Hf1  1  0.996196  0.825972  0.906313  1
  Hf  Hf2  1  0.501528  0.326671  0.092580  1
  Hf  Hf3  1  0.006279  0.170734  0.408994  1
  Hf  Hf4  1  0.501528  0.326671  0.407420  1
  Hf  Hf5  1  0.006279  0.170734  0.091006  1
  Hf  Hf6  1  0.496710  0.673592  0.905869  1
  Hf  Hf7  1  0.996196  0.825972  0.593687  1
  Ta  Ta8  1  0.836953  0.498441  0.750000  1
  Nb  Nb9  1  0.662929  0.170854  0.623701  1
  Nb  Nb10  1  0.162357  0.329838  0.876299  1
  Nb  Nb11  1  0.336552  0.830498  0.123230  1
  Nb  Nb12  1  0.837623  0.672730  0.377206  1
  Nb  Nb13  1  0.336552  0.830498  0.376770  1
  Nb  Nb14  1  0.837623  0.672730  0.122794  1
  Nb  Nb15  1  0.662929  0.170854  0.876299  1
  Nb  Nb16  1  0.162357  0.329838  0.623701  1
  Nb  Nb17  1  0.337248  0.001728  0.750000  1
  Nb  Nb18  1  0.165634  0.502434  0.250000  1
  Nb  Nb19  1  0.660989  0.994870  0.250000  1
  Si  Si20  1  0.671856  0.963650  0.461709  1
  Si  Si21  1  0.172083  0.537049  0.038565  1
  Si  Si22  1  0.327587  0.036689  0.960741  1
  Si  Si23  1  0.827187  0.463442  0.538752  1
  Si  Si24  1  0.327587  0.036689  0.539259  1
  Si  Si25  1  0.827187  0.463442  0.961248  1
  Si  Si26  1  0.671856  0.963650  0.038291  1
  Si  Si27  1  0.172083  0.537049  0.461435  1
  Si  Si28  1  0.461451  0.387886  0.750000  1
  Si  Si29  1  0.961415  0.113146  0.750000  1
  Si  Si30  1  0.537464  0.614481  0.250000  1
  Si  Si31  1  0.038461  0.887599  0.250000  1
  Si  Si32  1  0.703503  0.860768  0.750000  1
  Si  Si33  1  0.202856  0.639509  0.750000  1
  Si  Si34  1  0.296645  0.140078  0.250000  1
  Ge  Ge35  1  0.799608  0.355618  0.250000  1
