# generated using pymatgen
data_Dy2HoCo4P6Ru5
_symmetry_space_group_name_H-M   'P 1'
_cell_length_a   3.85803000
_cell_length_b   10.66056200
_cell_length_c   12.56427600
_cell_angle_alpha   90.00000000
_cell_angle_beta   90.00000000
_cell_angle_gamma   90.00000000
_symmetry_Int_Tables_number   1
_chemical_formula_structural   Dy2HoCo4P6Ru5
_chemical_formula_sum   'Dy4 Ho2 Co8 P12 Ru10'
_cell_volume   516.75319285
_cell_formula_units_Z   2
loop_
 _symmetry_equiv_pos_site_id
 _symmetry_equiv_pos_as_xyz
  1  'x, y, z'
loop_
 _atom_site_type_symbol
 _atom_site_label
 _atom_site_symmetry_multiplicity
 _atom_site_fract_x
 _atom_site_fract_y
 _atom_site_fract_z
 _atom_site_occupancy
  Dy  Dy0  1  0.000000  0.500000  0.527472  1
  Dy  Dy1  1  0.500000  0.000000  0.472982  1
  Dy  Dy2  1  0.500000  0.820509  0.200490  1
  Dy  Dy3  1  0.500000  0.179491  0.200490  1
  Ho  Ho4  1  0.000000  0.679263  0.799458  1
  Ho  Ho5  1  0.000000  0.320737  0.799458  1
  Co  Co6  1  0.000000  0.500000  0.983604  1
  Co  Co7  1  0.500000  0.000000  0.015837  1
  Co  Co8  1  0.500000  0.332633  0.989313  1
  Co  Co9  1  0.500000  0.667367  0.989313  1
  Co  Co10  1  0.000000  0.167763  0.010125  1
  Co  Co11  1  0.000000  0.832237  0.010125  1
  Co  Co12  1  0.500000  0.500000  0.701928  1
  Co  Co13  1  0.000000  0.000000  0.298292  1
  P  P14  1  0.500000  0.314289  0.618503  1
  P  P15  1  0.500000  0.685711  0.618503  1
  P  P16  1  0.000000  0.185828  0.381993  1
  P  P17  1  0.000000  0.814172  0.381993  1
  P  P18  1  0.500000  0.500000  0.880228  1
  P  P19  1  0.000000  0.000000  0.119138  1
  P  P20  1  0.500000  0.845666  0.901133  1
  P  P21  1  0.500000  0.154334  0.901133  1
  P  P22  1  0.000000  0.653846  0.098630  1
  P  P23  1  0.000000  0.346154  0.098630  1
  P  P24  1  0.500000  0.500000  0.336723  1
  P  P25  1  0.000000  0.000000  0.663387  1
  Ru  Ru26  1  0.500000  0.298281  0.427792  1
  Ru  Ru27  1  0.500000  0.701719  0.427792  1
  Ru  Ru28  1  0.000000  0.201830  0.572616  1
  Ru  Ru29  1  0.000000  0.798170  0.572616  1
  Ru  Ru30  1  0.500000  0.874851  0.719331  1
  Ru  Ru31  1  0.500000  0.125149  0.719331  1
  Ru  Ru32  1  0.000000  0.624922  0.280874  1
  Ru  Ru33  1  0.000000  0.375078  0.280874  1
  Ru  Ru34  1  0.500000  0.500000  0.145982  1
  Ru  Ru35  1  0.000000  0.000000  0.853910  1
