# generated using pymatgen
data_Yb2LuPu(Al3Ir)6
_symmetry_space_group_name_H-M   'P 1'
_cell_length_a   7.53784338
_cell_length_b   7.53355808
_cell_length_c   9.51958200
_cell_angle_alpha   90.00000000
_cell_angle_beta   90.00000000
_cell_angle_gamma   119.41371356
_symmetry_Int_Tables_number   1
_chemical_formula_structural   Yb2LuPu(Al3Ir)6
_chemical_formula_sum   'Yb2 Lu1 Pu1 Al18 Ir6'
_cell_volume   470.90282234
_cell_formula_units_Z   1
loop_
 _symmetry_equiv_pos_site_id
 _symmetry_equiv_pos_as_xyz
  1  'x, y, z'
loop_
 _atom_site_type_symbol
 _atom_site_label
 _atom_site_symmetry_multiplicity
 _atom_site_fract_x
 _atom_site_fract_y
 _atom_site_fract_z
 _atom_site_occupancy
  Yb  Yb0  1  0.005084  0.328426  0.750000  1
  Yb  Yb1  1  0.673465  0.994936  0.250000  1
  Lu  Lu2  1  0.327938  0.003645  0.750000  1
  Pu  Pu3  1  0.995068  0.672393  0.250000  1
  Al  Al4  1  0.133518  0.131016  0.250000  1
  Al  Al5  1  0.872596  0.870749  0.750000  1
  Al  Al6  1  0.000994  0.335245  0.072581  1
  Al  Al7  1  0.998801  0.664475  0.925408  1
  Al  Al8  1  0.998801  0.664475  0.574592  1
  Al  Al9  1  0.336790  0.001755  0.426841  1
  Al  Al10  1  0.000994  0.335245  0.427419  1
  Al  Al11  1  0.664722  0.999158  0.574442  1
  Al  Al12  1  0.664722  0.999158  0.925558  1
  Al  Al13  1  0.336790  0.001755  0.073159  1
  Al  Al14  1  0.332887  0.332893  0.553053  1
  Al  Al15  1  0.665079  0.665538  0.450866  1
  Al  Al16  1  0.665079  0.665538  0.049134  1
  Al  Al17  1  0.332887  0.332893  0.946947  1
  Al  Al18  1  0.334966  0.546617  0.250000  1
  Al  Al19  1  0.657326  0.447829  0.750000  1
  Al  Al20  1  0.549841  0.342894  0.250000  1
  Al  Al21  1  0.452781  0.665085  0.750000  1
  Ir  Ir22  1  0.670125  0.326737  0.999098  1
  Ir  Ir23  1  0.328491  0.672223  0.999317  1
  Ir  Ir24  1  0.328491  0.672223  0.500683  1
  Ir  Ir25  1  0.670125  0.326737  0.500902  1
  Ir  Ir26  1  0.000819  0.000179  0.999942  1
  Ir  Ir27  1  0.000819  0.000179  0.500058  1
