# generated using pymatgen
data_Zr5Mn6Co10(P4W)3
_symmetry_space_group_name_H-M   'P 1'
_cell_length_a   11.97934593
_cell_length_b   11.98455941
_cell_length_c   3.64347300
_cell_angle_alpha   90.00000000
_cell_angle_beta   90.00000000
_cell_angle_gamma   119.71308828
_symmetry_Int_Tables_number   1
_chemical_formula_structural   Zr5Mn6Co10(P4W)3
_chemical_formula_sum   'Zr5 Mn6 Co10 P12 W3'
_cell_volume   454.30729870
_cell_formula_units_Z   1
loop_
 _symmetry_equiv_pos_site_id
 _symmetry_equiv_pos_as_xyz
  1  'x, y, z'
loop_
 _atom_site_type_symbol
 _atom_site_label
 _atom_site_symmetry_multiplicity
 _atom_site_fract_x
 _atom_site_fract_y
 _atom_site_fract_z
 _atom_site_occupancy
  Zr  Zr0  1  0.668886  0.335115  0.000000  1
  Zr  Zr1  1  0.336262  0.668286  0.000000  1
  Zr  Zr2  1  0.818328  0.815909  0.500000  1
  Zr  Zr3  1  0.179982  0.002314  0.500000  1
  Zr  Zr4  1  0.996593  0.180667  0.500000  1
  Mn  Mn5  1  0.198676  0.377297  0.000000  1
  Mn  Mn6  1  0.180859  0.804010  0.000000  1
  Mn  Mn7  1  0.823564  0.624646  0.000000  1
  Mn  Mn8  1  0.797624  0.173161  0.000000  1
  Mn  Mn9  1  0.123846  0.473673  0.500000  1
  Mn  Mn10  1  0.352674  0.878225  0.500000  1
  Co  Co11  1  0.373997  0.198464  0.000000  1
  Co  Co12  1  0.518211  0.646242  0.500000  1
  Co  Co13  1  0.642683  0.515505  0.500000  1
  Co  Co14  1  0.870637  0.357673  0.500000  1
  Co  Co15  1  0.487310  0.132518  0.500000  1
  Co  Co16  1  0.000458  0.999363  0.000000  1
  Co  Co17  1  0.716965  0.994248  0.500000  1
  Co  Co18  1  0.002602  0.721271  0.500000  1
  Co  Co19  1  0.627220  0.820220  0.000000  1
  Co  Co20  1  0.281772  0.280275  0.500000  1
  P  P21  1  0.647025  0.643724  0.000000  1
  P  P22  1  0.355236  0.005952  0.000000  1
  P  P23  1  0.992057  0.348398  0.000000  1
  P  P24  1  0.482822  0.315453  0.500000  1
  P  P25  1  0.688578  0.168591  0.500000  1
  P  P26  1  0.831680  0.521036  0.500000  1
  P  P27  1  0.518245  0.831682  0.500000  1
  P  P28  1  0.167001  0.682929  0.500000  1
  P  P29  1  0.823775  0.999581  0.000000  1
  P  P30  1  0.999107  0.821949  0.000000  1
  P  P31  1  0.319608  0.484336  0.500000  1
  P  P32  1  0.174003  0.176867  0.000000  1
  W  W33  1  0.447749  0.447388  0.000000  1
  W  W34  1  0.551522  0.997161  0.000000  1
  W  W35  1  0.002443  0.555870  0.000000  1
