# generated using pymatgen
data_La12Y4Cd4Co3Pd
_symmetry_space_group_name_H-M   'P 1'
_cell_length_a   9.93619348
_cell_length_b   9.93214645
_cell_length_c   9.90496600
_cell_angle_alpha   60.09048524
_cell_angle_beta   60.10390868
_cell_angle_gamma   60.25954958
_symmetry_Int_Tables_number   1
_chemical_formula_structural   La12Y4Cd4Co3Pd
_chemical_formula_sum   'La12 Y4 Cd4 Co3 Pd1'
_cell_volume   693.56116720
_cell_formula_units_Z   1
loop_
 _symmetry_equiv_pos_site_id
 _symmetry_equiv_pos_as_xyz
  1  'x, y, z'
loop_
 _atom_site_type_symbol
 _atom_site_label
 _atom_site_symmetry_multiplicity
 _atom_site_fract_x
 _atom_site_fract_y
 _atom_site_fract_z
 _atom_site_occupancy
  La  La0  1  0.163241  0.146368  0.541476  1
  La  La1  1  0.313607  0.697024  0.681043  1
  La  La2  1  0.163241  0.146368  0.148915  1
  La  La3  1  0.538211  0.144218  0.158785  1
  La  La4  1  0.313607  0.697024  0.308325  1
  La  La5  1  0.311936  0.308317  0.689873  1
  La  La6  1  0.675284  0.311337  0.702915  1
  La  La7  1  0.937431  0.565286  0.560206  1
  La  La8  1  0.564224  0.563541  0.936117  1
  La  La9  1  0.160099  0.541953  0.148974  1
  La  La10  1  0.675284  0.311337  0.310464  1
  La  La11  1  0.937431  0.565286  0.937079  1
  Y  Y12  1  0.931783  0.943183  0.562518  1
  Y  Y13  1  0.567226  0.937327  0.563215  1
  Y  Y14  1  0.567226  0.937327  0.932231  1
  Y  Y15  1  0.684153  0.705031  0.305408  1
  Cd  Cd16  1  0.245435  0.920247  0.917159  1
  Cd  Cd17  1  0.916300  0.920528  0.920708  1
  Cd  Cd18  1  0.916300  0.920528  0.242463  1
  Cd  Cd19  1  0.920515  0.235404  0.922040  1
  Co  Co20  1  0.364029  0.350479  0.922010  1
  Co  Co21  1  0.351571  0.921712  0.363359  1
  Co  Co22  1  0.364029  0.350479  0.363482  1
  Pd  Pd23  1  0.917832  0.359693  0.361237  1
