# generated using pymatgen
data_Cs4LuSbCl12
_symmetry_space_group_name_H-M   'P 1'
_cell_length_a   7.62830600
_cell_length_b   7.62830600
_cell_length_c   10.95571400
_cell_angle_alpha   90.00000000
_cell_angle_beta   90.00000000
_cell_angle_gamma   90.00000000
_symmetry_Int_Tables_number   1
_chemical_formula_structural   Cs4LuSbCl12
_chemical_formula_sum   'Cs4 Lu1 Sb1 Cl12'
_cell_volume   637.52452778
_cell_formula_units_Z   1
loop_
 _symmetry_equiv_pos_site_id
 _symmetry_equiv_pos_as_xyz
  1  'x, y, z'
loop_
 _atom_site_type_symbol
 _atom_site_label
 _atom_site_symmetry_multiplicity
 _atom_site_fract_x
 _atom_site_fract_y
 _atom_site_fract_z
 _atom_site_occupancy
  Cs  Cs0  1  0.500000  0.000000  0.783323  1
  Cs  Cs1  1  0.000000  0.500000  0.216677  1
  Cs  Cs2  1  0.500000  0.000000  0.216677  1
  Cs  Cs3  1  0.000000  0.500000  0.783323  1
  Lu  Lu4  1  0.000000  0.000000  0.000000  1
  Sb  Sb5  1  0.500000  0.500000  0.500000  1
  Cl  Cl6  1  0.000000  0.000000  0.763248  1
  Cl  Cl7  1  0.500000  0.500000  0.278698  1
  Cl  Cl8  1  0.723997  0.723997  0.500000  1
  Cl  Cl9  1  0.240405  0.240405  0.000000  1
  Cl  Cl10  1  0.723997  0.276003  0.500000  1
  Cl  Cl11  1  0.240405  0.759595  0.000000  1
  Cl  Cl12  1  0.000000  0.000000  0.236752  1
  Cl  Cl13  1  0.500000  0.500000  0.721302  1
  Cl  Cl14  1  0.276003  0.276003  0.500000  1
  Cl  Cl15  1  0.759595  0.759595  0.000000  1
  Cl  Cl16  1  0.276003  0.723997  0.500000  1
  Cl  Cl17  1  0.759595  0.240405  0.000000  1
