# generated using pymatgen
data_Ti9Co13
_symmetry_space_group_name_H-M   'P 1'
_cell_length_a   6.38354358
_cell_length_b   6.38385471
_cell_length_c   8.58184366
_cell_angle_alpha   117.15723633
_cell_angle_beta   117.16203774
_cell_angle_gamma   77.46640767
_symmetry_Int_Tables_number   1
_chemical_formula_structural   Ti9Co13
_chemical_formula_sum   'Ti9 Co13'
_cell_volume   276.83688462
_cell_formula_units_Z   1
loop_
 _symmetry_equiv_pos_site_id
 _symmetry_equiv_pos_as_xyz
  1  'x, y, z'
loop_
 _atom_site_type_symbol
 _atom_site_label
 _atom_site_symmetry_multiplicity
 _atom_site_fract_x
 _atom_site_fract_y
 _atom_site_fract_z
 _atom_site_occupancy
  Ti  Ti0  1  0.172285  0.172395  0.109476  1
  Ti  Ti1  1  0.709002  0.708880  0.169198  1
  Ti  Ti2  1  0.843436  0.262240  0.309927  1
  Ti  Ti3  1  0.262176  0.843337  0.309864  1
  Ti  Ti4  1  0.500000  0.500000  0.500000  1
  Ti  Ti5  1  0.737824  0.156664  0.690137  1
  Ti  Ti6  1  0.156565  0.737760  0.690074  1
  Ti  Ti7  1  0.290999  0.291121  0.830801  1
  Ti  Ti8  1  0.827715  0.827605  0.890523  1
  Co  Co9  1  0.499999  0.000000  0.000000  1
  Co  Co10  1  0.738128  0.261908  0.000003  1
  Co  Co11  1  0.000000  0.499999  0.000000  1
  Co  Co12  1  0.261872  0.738092  0.999997  1
  Co  Co13  1  0.440887  0.440903  0.176466  1
  Co  Co14  1  0.560031  0.079544  0.339261  1
  Co  Co15  1  0.079530  0.560024  0.339248  1
  Co  Co16  1  0.741713  0.741694  0.486970  1
  Co  Co17  1  0.000000  0.000000  0.500000  1
  Co  Co18  1  0.258287  0.258306  0.513030  1
  Co  Co19  1  0.920469  0.439976  0.660751  1
  Co  Co20  1  0.439969  0.920455  0.660738  1
  Co  Co21  1  0.559113  0.559097  0.823534  1
