# generated using pymatgen
data_Dy8VOs3C8
_symmetry_space_group_name_H-M   'P 1'
_cell_length_a   5.10449700
_cell_length_b   6.51392368
_cell_length_c   9.82366965
_cell_angle_alpha   89.82374665
_cell_angle_beta   90.00000000
_cell_angle_gamma   90.00000000
_symmetry_Int_Tables_number   1
_chemical_formula_structural   Dy8VOs3C8
_chemical_formula_sum   'Dy8 V1 Os3 C8'
_cell_volume   326.63845588
_cell_formula_units_Z   1
loop_
 _symmetry_equiv_pos_site_id
 _symmetry_equiv_pos_as_xyz
  1  'x, y, z'
loop_
 _atom_site_type_symbol
 _atom_site_label
 _atom_site_symmetry_multiplicity
 _atom_site_fract_x
 _atom_site_fract_y
 _atom_site_fract_z
 _atom_site_occupancy
  Dy  Dy0  1  0.250000  0.685372  0.556911  1
  Dy  Dy1  1  0.750000  0.318754  0.445081  1
  Dy  Dy2  1  0.750000  0.817228  0.054131  1
  Dy  Dy3  1  0.250000  0.178573  0.943378  1
  Dy  Dy4  1  0.250000  0.531111  0.213700  1
  Dy  Dy5  1  0.750000  0.469929  0.779138  1
  Dy  Dy6  1  0.750000  0.973931  0.716943  1
  Dy  Dy7  1  0.250000  0.027835  0.283088  1
  V  V8  1  0.250000  0.724541  0.865533  1
  Os  Os9  1  0.750000  0.275925  0.135354  1
  Os  Os10  1  0.750000  0.775328  0.363680  1
  Os  Os11  1  0.250000  0.227215  0.635786  1
  C  C12  1  0.250000  0.461184  0.761829  1
  C  C13  1  0.750000  0.539898  0.242724  1
  C  C14  1  0.750000  0.040629  0.258725  1
  C  C15  1  0.250000  0.959191  0.741810  1
  C  C16  1  0.250000  0.817886  0.050020  1
  C  C17  1  0.750000  0.176211  0.952338  1
  C  C18  1  0.750000  0.677801  0.549706  1
  C  C19  1  0.250000  0.321459  0.450125  1
