# generated using pymatgen
data_Mn2ZnCo4As
_symmetry_space_group_name_H-M   'P 1'
_cell_length_a   7.02367558
_cell_length_b   7.02367607
_cell_length_c   7.02367600
_cell_angle_alpha   33.57834172
_cell_angle_beta   33.57833627
_cell_angle_gamma   33.57834800
_symmetry_Int_Tables_number   1
_chemical_formula_structural   Mn2ZnCo4As
_chemical_formula_sum   'Mn2 Zn1 Co4 As1'
_cell_volume   94.41087241
_cell_formula_units_Z   1
loop_
 _symmetry_equiv_pos_site_id
 _symmetry_equiv_pos_as_xyz
  1  'x, y, z'
loop_
 _atom_site_type_symbol
 _atom_site_label
 _atom_site_symmetry_multiplicity
 _atom_site_fract_x
 _atom_site_fract_y
 _atom_site_fract_z
 _atom_site_occupancy
  Mn  Mn0  1  0.254584  0.254584  0.254584  1
  Mn  Mn1  1  0.745416  0.745416  0.745416  1
  Zn  Zn2  1  0.000000  0.000000  0.000000  1
  Co  Co3  1  0.378708  0.378708  0.378708  1
  Co  Co4  1  0.871738  0.871738  0.871738  1
  Co  Co5  1  0.621292  0.621292  0.621292  1
  Co  Co6  1  0.128262  0.128262  0.128262  1
  As  As7  1  0.500000  0.500000  0.500000  1
