# generated using pymatgen
data_Li3CaTh2AgSn4
_symmetry_space_group_name_H-M   'P 1'
_cell_length_a   8.78464149
_cell_length_b   8.82280221
_cell_length_c   8.82280246
_cell_angle_alpha   148.88082378
_cell_angle_beta   131.68132716
_cell_angle_gamma   58.63715025
_symmetry_Int_Tables_number   1
_chemical_formula_structural   Li3CaTh2AgSn4
_chemical_formula_sum   'Li3 Ca1 Th2 Ag1 Sn4'
_cell_volume   261.82345481
_cell_formula_units_Z   1
loop_
 _symmetry_equiv_pos_site_id
 _symmetry_equiv_pos_as_xyz
  1  'x, y, z'
loop_
 _atom_site_type_symbol
 _atom_site_label
 _atom_site_symmetry_multiplicity
 _atom_site_fract_x
 _atom_site_fract_y
 _atom_site_fract_z
 _atom_site_occupancy
  Li  Li0  1  0.486457  0.672564  0.813894  1
  Li  Li1  1  0.854967  0.672271  0.182695  1
  Li  Li2  1  0.145988  0.330364  0.815625  1
  Ca  Ca3  1  0.497538  0.997883  0.499655  1
  Th  Th4  1  0.870703  0.871713  0.998990  1
  Th  Th5  1  0.129160  0.127303  0.001858  1
  Ag  Ag6  1  0.516559  0.326999  0.189558  1
  Sn  Sn7  1  0.271431  0.782207  0.489224  1
  Sn  Sn8  1  0.723140  0.214931  0.508209  1
  Sn  Sn9  1  0.805411  0.503275  0.302135  1
  Sn  Sn10  1  0.198645  0.500489  0.698156  1
