# generated using pymatgen
data_Ce2HoTm(NiP)4
_symmetry_space_group_name_H-M   'P 1'
_cell_length_a   3.93127900
_cell_length_b   3.93127883
_cell_length_c   15.39589600
_cell_angle_alpha   90.00000000
_cell_angle_beta   90.00000000
_cell_angle_gamma   120.00000983
_symmetry_Int_Tables_number   1
_chemical_formula_structural   Ce2HoTm(NiP)4
_chemical_formula_sum   'Ce2 Ho1 Tm1 Ni4 P4'
_cell_volume   206.06454370
_cell_formula_units_Z   1
loop_
 _symmetry_equiv_pos_site_id
 _symmetry_equiv_pos_as_xyz
  1  'x, y, z'
loop_
 _atom_site_type_symbol
 _atom_site_label
 _atom_site_symmetry_multiplicity
 _atom_site_fract_x
 _atom_site_fract_y
 _atom_site_fract_z
 _atom_site_occupancy
  Ce  Ce0  1  0.000000  0.000000  0.499626  1
  Ce  Ce1  1  0.000000  0.000000  0.000374  1
  Ho  Ho2  1  0.000000  0.000000  0.750000  1
  Tm  Tm3  1  0.000000  0.000000  0.250000  1
  Ni  Ni4  1  0.333333  0.666667  0.366602  1
  Ni  Ni5  1  0.666667  0.333333  0.632755  1
  Ni  Ni6  1  0.666667  0.333333  0.867245  1
  Ni  Ni7  1  0.333333  0.666667  0.133398  1
  P  P8  1  0.333333  0.666667  0.875494  1
  P  P9  1  0.666667  0.333333  0.125152  1
  P  P10  1  0.666667  0.333333  0.374848  1
  P  P11  1  0.333333  0.666667  0.624506  1
