# generated using pymatgen
data_Ta12Al8CuNi3C4
_symmetry_space_group_name_H-M   'P 1'
_cell_length_a   8.23931360
_cell_length_b   8.24665800
_cell_length_c   8.24665800
_cell_angle_alpha   60.00000804
_cell_angle_beta   59.97051686
_cell_angle_gamma   59.97051122
_symmetry_Int_Tables_number   1
_chemical_formula_structural   Ta12Al8CuNi3C4
_chemical_formula_sum   'Ta12 Al8 Cu1 Ni3 C4'
_cell_volume   396.03934152
_cell_formula_units_Z   1
loop_
 _symmetry_equiv_pos_site_id
 _symmetry_equiv_pos_as_xyz
  1  'x, y, z'
loop_
 _atom_site_type_symbol
 _atom_site_label
 _atom_site_symmetry_multiplicity
 _atom_site_fract_x
 _atom_site_fract_y
 _atom_site_fract_z
 _atom_site_occupancy
  Ta  Ta0  1  0.813253  0.814430  0.186158  1
  Ta  Ta1  1  0.185234  0.183258  0.815754  1
  Ta  Ta2  1  0.813253  0.186158  0.814430  1
  Ta  Ta3  1  0.185234  0.815754  0.183258  1
  Ta  Ta4  1  0.185234  0.815754  0.815754  1
  Ta  Ta5  1  0.813253  0.186158  0.186158  1
  Ta  Ta6  1  0.436747  0.435570  0.063842  1
  Ta  Ta7  1  0.064766  0.066742  0.434246  1
  Ta  Ta8  1  0.436747  0.063842  0.435570  1
  Ta  Ta9  1  0.064766  0.434246  0.066742  1
  Ta  Ta10  1  0.064766  0.434246  0.434246  1
  Ta  Ta11  1  0.436747  0.063842  0.063842  1
  Al  Al12  1  0.746660  0.417780  0.417780  1
  Al  Al13  1  0.420036  0.748711  0.415626  1
  Al  Al14  1  0.420036  0.415626  0.748711  1
  Al  Al15  1  0.420036  0.415626  0.415626  1
  Al  Al16  1  0.503340  0.832220  0.832220  1
  Al  Al17  1  0.829964  0.501289  0.834374  1
  Al  Al18  1  0.829964  0.834374  0.501289  1
  Al  Al19  1  0.829964  0.834374  0.834374  1
  Cu  Cu20  1  0.125000  0.625000  0.625000  1
  Ni  Ni21  1  0.625000  0.125000  0.625000  1
  Ni  Ni22  1  0.625000  0.625000  0.125000  1
  Ni  Ni23  1  0.625000  0.625000  0.625000  1
  C  C24  1  0.625000  0.125000  0.125000  1
  C  C25  1  0.125000  0.625000  0.125000  1
  C  C26  1  0.125000  0.125000  0.625000  1
  C  C27  1  0.125000  0.125000  0.125000  1
