# generated using pymatgen
data_Tb7Dy5(Si2Ni)4
_symmetry_space_group_name_H-M   'P 1'
_cell_length_a   4.14015000
_cell_length_b   11.26985685
_cell_length_c   11.29918855
_cell_angle_alpha   89.99561172
_cell_angle_beta   90.00000000
_cell_angle_gamma   90.00000000
_symmetry_Int_Tables_number   1
_chemical_formula_structural   Tb7Dy5(Si2Ni)4
_chemical_formula_sum   'Tb7 Dy5 Si8 Ni4'
_cell_volume   527.20768278
_cell_formula_units_Z   1
loop_
 _symmetry_equiv_pos_site_id
 _symmetry_equiv_pos_as_xyz
  1  'x, y, z'
loop_
 _atom_site_type_symbol
 _atom_site_label
 _atom_site_symmetry_multiplicity
 _atom_site_fract_x
 _atom_site_fract_y
 _atom_site_fract_z
 _atom_site_occupancy
  Tb  Tb0  1  0.250000  0.059222  0.883202  1
  Tb  Tb1  1  0.250000  0.440505  0.383026  1
  Tb  Tb2  1  0.750000  0.940420  0.116454  1
  Tb  Tb3  1  0.750000  0.560104  0.616516  1
  Tb  Tb4  1  0.250000  0.123504  0.560350  1
  Tb  Tb5  1  0.250000  0.377058  0.059225  1
  Tb  Tb6  1  0.750000  0.876965  0.440513  1
  Dy  Dy7  1  0.750000  0.623249  0.940679  1
  Dy  Dy8  1  0.250000  0.802798  0.712811  1
  Dy  Dy9  1  0.250000  0.695914  0.212665  1
  Dy  Dy10  1  0.750000  0.195942  0.287254  1
  Dy  Dy11  1  0.750000  0.305675  0.787780  1
  Si  Si12  1  0.250000  0.811336  0.973193  1
  Si  Si13  1  0.250000  0.688109  0.472745  1
  Si  Si14  1  0.750000  0.188091  0.026638  1
  Si  Si15  1  0.750000  0.312496  0.527094  1
  Si  Si16  1  0.250000  0.495678  0.802097  1
  Si  Si17  1  0.250000  0.006537  0.302299  1
  Si  Si18  1  0.750000  0.506531  0.197397  1
  Si  Si19  1  0.750000  0.992453  0.697836  1
  Ni  Ni20  1  0.250000  0.364846  0.631009  1
  Ni  Ni21  1  0.250000  0.135309  0.130267  1
  Ni  Ni22  1  0.750000  0.635097  0.369952  1
  Ni  Ni23  1  0.750000  0.862162  0.868996  1
