# generated using pymatgen
data_ZnBiPtRhO7
_symmetry_space_group_name_H-M   'P 1'
_cell_length_a   7.15344485
_cell_length_b   7.15344530
_cell_length_c   7.02460800
_cell_angle_alpha   60.59401619
_cell_angle_beta   60.59401416
_cell_angle_gamma   61.50548723
_symmetry_Int_Tables_number   1
_chemical_formula_structural   ZnBiPtRhO7
_chemical_formula_sum   'Zn2 Bi2 Pt2 Rh2 O14'
_cell_volume   259.27889783
_cell_formula_units_Z   2
loop_
 _symmetry_equiv_pos_site_id
 _symmetry_equiv_pos_as_xyz
  1  'x, y, z'
loop_
 _atom_site_type_symbol
 _atom_site_label
 _atom_site_symmetry_multiplicity
 _atom_site_fract_x
 _atom_site_fract_y
 _atom_site_fract_z
 _atom_site_occupancy
  Zn  Zn0  1  0.125000  0.125000  0.625000  1
  Zn  Zn1  1  0.125000  0.125000  0.125000  1
  Bi  Bi2  1  0.125000  0.625000  0.125000  1
  Bi  Bi3  1  0.625000  0.125000  0.125000  1
  Pt  Pt4  1  0.625000  0.125000  0.625000  1
  Pt  Pt5  1  0.125000  0.625000  0.625000  1
  Rh  Rh6  1  0.625000  0.625000  0.125000  1
  Rh  Rh7  1  0.625000  0.625000  0.625000  1
  O  O8  1  0.239334  0.239334  0.260666  1
  O  O9  1  0.010666  0.010666  0.989334  1
  O  O10  1  0.534267  0.961041  0.539314  1
  O  O11  1  0.288959  0.715733  0.284622  1
  O  O12  1  0.537036  0.537036  0.962964  1
  O  O13  1  0.961041  0.534267  0.539314  1
  O  O14  1  0.534267  0.961041  0.965378  1
  O  O15  1  0.964261  0.964261  0.535739  1
  O  O16  1  0.961041  0.534267  0.965378  1
  O  O17  1  0.715733  0.288959  0.284622  1
  O  O18  1  0.288959  0.715733  0.710686  1
  O  O19  1  0.715733  0.288959  0.710686  1
  O  O20  1  0.285739  0.285739  0.714261  1
  O  O21  1  0.712964  0.712964  0.287036  1
