# generated using pymatgen
data_Tb16Sc4Ir7Rh5
_symmetry_space_group_name_H-M   'P 1'
_cell_length_a   10.82718601
_cell_length_b   10.82708801
_cell_length_c   6.31743101
_cell_angle_alpha   90.00385423
_cell_angle_beta   90.00267199
_cell_angle_gamma   90.00356667
_symmetry_Int_Tables_number   1
_chemical_formula_structural   Tb16Sc4Ir7Rh5
_chemical_formula_sum   'Tb16 Sc4 Ir7 Rh5'
_cell_volume   740.57282243
_cell_formula_units_Z   1
loop_
 _symmetry_equiv_pos_site_id
 _symmetry_equiv_pos_as_xyz
  1  'x, y, z'
loop_
 _atom_site_type_symbol
 _atom_site_label
 _atom_site_symmetry_multiplicity
 _atom_site_fract_x
 _atom_site_fract_y
 _atom_site_fract_z
 _atom_site_occupancy
  Tb  Tb0  1  0.286272  0.086586  0.379082  1
  Tb  Tb1  1  0.286463  0.913303  0.878769  1
  Tb  Tb2  1  0.712991  0.086322  0.878609  1
  Tb  Tb3  1  0.713174  0.912261  0.379251  1
  Tb  Tb4  1  0.586537  0.786468  0.879078  1
  Tb  Tb5  1  0.585458  0.213753  0.379158  1
  Tb  Tb6  1  0.413231  0.786352  0.378995  1
  Tb  Tb7  1  0.413386  0.213618  0.879069  1
  Tb  Tb8  1  0.213531  0.413465  0.620922  1
  Tb  Tb9  1  0.213649  0.586769  0.121004  1
  Tb  Tb10  1  0.786246  0.414541  0.120842  1
  Tb  Tb11  1  0.786380  0.586616  0.620935  1
  Tb  Tb12  1  0.913414  0.713727  0.120921  1
  Tb  Tb13  1  0.913682  0.287007  0.621394  1
  Tb  Tb14  1  0.086699  0.713538  0.621237  1
  Tb  Tb15  1  0.087742  0.286826  0.120747  1
  Sc  Sc16  1  0.000463  0.999450  0.500656  1
  Sc  Sc17  1  0.000549  0.999537  0.999346  1
  Sc  Sc18  1  0.499986  0.499967  0.000046  1
  Sc  Sc19  1  0.500033  0.500013  0.499954  1
  Ir  Ir20  1  0.852702  0.853407  0.750068  1
  Ir  Ir21  1  0.146593  0.147302  0.749919  1
  Ir  Ir22  1  0.147043  0.852956  0.249998  1
  Ir  Ir23  1  0.647723  0.352272  0.749995  1
  Ir  Ir24  1  0.647428  0.647264  0.249868  1
  Ir  Ir25  1  0.352739  0.352570  0.250122  1
  Ir  Ir26  1  0.352761  0.647240  0.750005  1
  Rh  Rh27  1  0.852626  0.147374  0.250002  1
  Rh  Rh28  1  0.500506  0.000173  0.122621  1
  Rh  Rh29  1  0.500311  0.000137  0.622150  1
  Rh  Rh30  1  0.999861  0.499688  0.877855  1
  Rh  Rh31  1  0.999825  0.499498  0.377380  1
