# generated using pymatgen
data_NiS23
_symmetry_space_group_name_H-M   'P 1'
_cell_length_a   5.45556065
_cell_length_b   9.35382023
_cell_length_c   15.89152000
_cell_angle_alpha   82.42591985
_cell_angle_beta   85.98404661
_cell_angle_gamma   91.36398717
_symmetry_Int_Tables_number   1
_chemical_formula_structural   NiS23
_chemical_formula_sum   'Ni1 S23'
_cell_volume   801.45279356
_cell_formula_units_Z   1
loop_
 _symmetry_equiv_pos_site_id
 _symmetry_equiv_pos_as_xyz
  1  'x, y, z'
loop_
 _atom_site_type_symbol
 _atom_site_label
 _atom_site_symmetry_multiplicity
 _atom_site_fract_x
 _atom_site_fract_y
 _atom_site_fract_z
 _atom_site_occupancy
  Ni  Ni0  1  0.734791  0.203193  0.403005  1
  S  S1  1  0.732020  0.968830  0.421762  1
  S  S2  1  0.013371  0.303500  0.095597  1
  S  S3  1  0.741588  0.228180  0.537645  1
  S  S4  1  0.440377  0.897589  0.502341  1
  S  S5  1  0.178721  0.286869  0.976578  1
  S  S6  1  0.817555  0.729904  0.019843  1
  S  S7  1  0.120947  0.194553  0.355932  1
  S  S8  1  0.603996  0.420817  0.354765  1
  S  S9  1  0.844385  0.107032  0.143992  1
  S  S10  1  0.275480  0.866211  0.116391  1
  S  S11  1  0.701954  0.643012  0.637143  1
  S  S12  1  0.249025  0.419710  0.597496  1
  S  S13  1  0.158953  0.902145  0.852408  1
  S  S14  1  0.729296  0.144514  0.877431  1
  S  S15  1  0.070066  0.680392  0.109248  1
  S  S16  1  0.565703  0.846817  0.623848  1
  S  S17  1  0.405572  0.214696  0.594976  1
  S  S18  1  0.978236  0.709248  0.900677  1
  S  S19  1  0.926189  0.332536  0.886636  1
  S  S20  1  0.280963  0.383430  0.305906  1
  S  S21  1  0.098374  0.978224  0.204967  1
  S  S22  1  0.418185  0.503880  0.692085  1
  S  S23  1  0.914251  0.034715  0.789331  1
