# generated using pymatgen
data_Nb5Co6SiW
_symmetry_space_group_name_H-M   'P 1'
_cell_length_a   9.01263650
_cell_length_b   9.01263669
_cell_length_c   9.01263648
_cell_angle_alpha   31.50172119
_cell_angle_beta   31.50172077
_cell_angle_gamma   31.50172751
_symmetry_Int_Tables_number   1
_chemical_formula_structural   Nb5Co6SiW
_chemical_formula_sum   'Nb5 Co6 Si1 W1'
_cell_volume   177.45352376
_cell_formula_units_Z   1
loop_
 _symmetry_equiv_pos_site_id
 _symmetry_equiv_pos_as_xyz
  1  'x, y, z'
loop_
 _atom_site_type_symbol
 _atom_site_label
 _atom_site_symmetry_multiplicity
 _atom_site_fract_x
 _atom_site_fract_y
 _atom_site_fract_z
 _atom_site_occupancy
  Nb  Nb0  1  0.169358  0.169358  0.169358  1
  Nb  Nb1  1  0.652092  0.652092  0.652092  1
  Nb  Nb2  1  0.347642  0.347642  0.347642  1
  Nb  Nb3  1  0.549818  0.549818  0.549818  1
  Nb  Nb4  1  0.450296  0.450296  0.450296  1
  Co  Co5  1  0.908704  0.411064  0.908704  1
  Co  Co6  1  0.908704  0.908704  0.411064  1
  Co  Co7  1  0.411064  0.908704  0.908704  1
  Co  Co8  1  0.089954  0.592100  0.089954  1
  Co  Co9  1  0.089954  0.089954  0.592100  1
  Co  Co10  1  0.592100  0.089954  0.089954  1
  Si  Si11  1  0.000184  0.000184  0.000184  1
  W  W12  1  0.830131  0.830131  0.830131  1
