# generated using pymatgen
data_BaLiInPt2
_symmetry_space_group_name_H-M   'P 1'
_cell_length_a   6.74465535
_cell_length_b   6.74465572
_cell_length_c   6.74465666
_cell_angle_alpha   141.81326779
_cell_angle_beta   141.81327018
_cell_angle_gamma   55.11016992
_symmetry_Int_Tables_number   1
_chemical_formula_structural   BaLiInPt2
_chemical_formula_sum   'Ba1 Li1 In1 Pt2'
_cell_volume   116.42179710
_cell_formula_units_Z   1
loop_
 _symmetry_equiv_pos_site_id
 _symmetry_equiv_pos_as_xyz
  1  'x, y, z'
loop_
 _atom_site_type_symbol
 _atom_site_label
 _atom_site_symmetry_multiplicity
 _atom_site_fract_x
 _atom_site_fract_y
 _atom_site_fract_z
 _atom_site_occupancy
  Ba  Ba0  1  0.000000  0.000000  0.000000  1
  Li  Li1  1  0.750000  0.250000  0.500000  1
  In  In2  1  0.250000  0.750000  0.500000  1
  Pt  Pt3  1  0.386833  0.386833  0.000000  1
  Pt  Pt4  1  0.613167  0.613167  0.000000  1
