# generated using pymatgen
data_MgV6Co19(AsO20)2
_symmetry_space_group_name_H-M   'P 1'
_cell_length_a   10.24521176
_cell_length_b   10.23180149
_cell_length_c   14.70158046
_cell_angle_alpha   62.13086598
_cell_angle_beta   62.10736593
_cell_angle_gamma   34.86918591
_symmetry_Int_Tables_number   1
_chemical_formula_structural   MgV6Co19(AsO20)2
_chemical_formula_sum   'Mg1 V6 Co19 As2 O40'
_cell_volume   767.96985492
_cell_formula_units_Z   1
loop_
 _symmetry_equiv_pos_site_id
 _symmetry_equiv_pos_as_xyz
  1  'x, y, z'
loop_
 _atom_site_type_symbol
 _atom_site_label
 _atom_site_symmetry_multiplicity
 _atom_site_fract_x
 _atom_site_fract_y
 _atom_site_fract_z
 _atom_site_occupancy
  Mg  Mg0  1  0.000000  0.500000  0.500000  1
  V  V1  1  0.995477  0.991459  0.373539  1
  V  V2  1  0.004523  0.008541  0.626461  1
  V  V3  1  0.603894  0.603552  0.224672  1
  V  V4  1  0.396106  0.396448  0.775328  1
  V  V5  1  0.899595  0.900474  0.025641  1
  V  V6  1  0.100405  0.099526  0.974359  1
  Co  Co7  1  0.805662  0.804909  0.799983  1
  Co  Co8  1  0.194338  0.195091  0.200017  1
  Co  Co9  1  0.393168  0.893877  0.403729  1
  Co  Co10  1  0.606832  0.106123  0.596271  1
  Co  Co11  1  0.106173  0.612436  0.598344  1
  Co  Co12  1  0.893827  0.387564  0.401656  1
  Co  Co13  1  0.408045  0.402933  0.395028  1
  Co  Co14  1  0.591955  0.597067  0.604972  1
  Co  Co15  1  0.793425  0.795866  0.292424  1
  Co  Co16  1  0.206575  0.204134  0.707576  1
  Co  Co17  1  0.389313  0.387777  0.035435  1
  Co  Co18  1  0.610687  0.612223  0.964565  1
  Co  Co19  1  0.702817  0.207647  0.193676  1
  Co  Co20  1  0.297183  0.792353  0.806324  1
  Co  Co21  1  0.796623  0.294609  0.806581  1
  Co  Co22  1  0.203377  0.705391  0.193419  1
  Co  Co23  1  0.500000  0.000000  0.500000  1
  Co  Co24  1  0.500000  0.000000  0.000000  1
  Co  Co25  1  0.000000  0.500000  0.000000  1
  As  As26  1  0.702951  0.701260  0.701556  1
  As  As27  1  0.297049  0.298740  0.298444  1
  O  O28  1  0.697539  0.697587  0.452222  1
  O  O29  1  0.302461  0.302413  0.547778  1
  O  O30  1  0.991032  0.990395  0.257015  1
  O  O31  1  0.008968  0.009605  0.742985  1
  O  O32  1  0.421596  0.880531  0.155164  1
  O  O33  1  0.578404  0.119469  0.844836  1
  O  O34  1  0.118937  0.578684  0.844920  1
  O  O35  1  0.881063  0.421316  0.155080  1
  O  O36  1  0.897127  0.899979  0.150795  1
  O  O37  1  0.102873  0.100021  0.849205  1
  O  O38  1  0.502079  0.502176  0.245949  1
  O  O39  1  0.497921  0.497824  0.754051  1
  O  O40  1  0.560310  0.128312  0.341540  1
  O  O41  1  0.439690  0.871688  0.658460  1
  O  O42  1  0.875927  0.435523  0.658984  1
  O  O43  1  0.124073  0.564477  0.341016  1
  O  O44  1  0.394107  0.390421  0.168449  1
  O  O45  1  0.605893  0.609579  0.831551  1
  O  O46  1  0.715939  0.177949  0.443494  1
  O  O47  1  0.284061  0.822051  0.556506  1
  O  O48  1  0.821940  0.289403  0.555388  1
  O  O49  1  0.178060  0.710597  0.444612  1
  O  O50  1  0.903539  0.909381  0.648528  1
  O  O51  1  0.096461  0.090619  0.351472  1
  O  O52  1  0.787974  0.791245  0.562847  1
  O  O53  1  0.212026  0.208755  0.437153  1
  O  O54  1  0.604200  0.604946  0.343412  1
  O  O55  1  0.395800  0.395054  0.656588  1
  O  O56  1  0.461786  0.035975  0.262827  1
  O  O57  1  0.538214  0.964025  0.737173  1
  O  O58  1  0.968300  0.535467  0.734644  1
  O  O59  1  0.031700  0.464533  0.265356  1
  O  O60  1  0.284665  0.285440  0.054189  1
  O  O61  1  0.715335  0.714560  0.945811  1
  O  O62  1  0.287799  0.815935  0.044962  1
  O  O63  1  0.712201  0.184065  0.955039  1
  O  O64  1  0.182727  0.712352  0.956089  1
  O  O65  1  0.817273  0.287648  0.043912  1
  O  O66  1  0.807371  0.807258  0.042776  1
  O  O67  1  0.192629  0.192742  0.957224  1
