# generated using pymatgen
data_Li2Tb4SmThAu10
_symmetry_space_group_name_H-M   'P 1'
_cell_length_a   8.42909078
_cell_length_b   8.42909116
_cell_length_c   13.68254800
_cell_angle_alpha   90.00000000
_cell_angle_beta   90.00000000
_cell_angle_gamma   127.30700464
_symmetry_Int_Tables_number   1
_chemical_formula_structural   Li2Tb4SmThAu10
_chemical_formula_sum   'Li4 Tb8 Sm2 Th2 Au20'
_cell_volume   773.23893881
_cell_formula_units_Z   2
loop_
 _symmetry_equiv_pos_site_id
 _symmetry_equiv_pos_as_xyz
  1  'x, y, z'
loop_
 _atom_site_type_symbol
 _atom_site_label
 _atom_site_symmetry_multiplicity
 _atom_site_fract_x
 _atom_site_fract_y
 _atom_site_fract_z
 _atom_site_occupancy
  Li  Li0  1  0.723069  0.276931  0.250000  1
  Li  Li1  1  0.276931  0.723069  0.750000  1
  Li  Li2  1  0.534197  0.465803  0.250000  1
  Li  Li3  1  0.465803  0.534197  0.750000  1
  Tb  Tb4  1  0.629516  0.370484  0.463405  1
  Tb  Tb5  1  0.370484  0.629516  0.536595  1
  Tb  Tb6  1  0.629516  0.370484  0.036595  1
  Tb  Tb7  1  0.370484  0.629516  0.963405  1
  Tb  Tb8  1  0.881171  0.118829  0.948187  1
  Tb  Tb9  1  0.118829  0.881171  0.051813  1
  Tb  Tb10  1  0.881171  0.118829  0.551813  1
  Tb  Tb11  1  0.118829  0.881171  0.448187  1
  Sm  Sm12  1  0.932550  0.067450  0.250000  1
  Sm  Sm13  1  0.067450  0.932550  0.750000  1
  Th  Th14  1  0.317420  0.682580  0.250000  1
  Th  Th15  1  0.682580  0.317420  0.750000  1
  Au  Au16  1  0.322390  0.067901  0.250000  1
  Au  Au17  1  0.067901  0.322390  0.750000  1
  Au  Au18  1  0.677610  0.932099  0.750000  1
  Au  Au19  1  0.932099  0.677610  0.250000  1
  Au  Au20  1  0.570867  0.006602  0.397421  1
  Au  Au21  1  0.006602  0.570867  0.602579  1
  Au  Au22  1  0.570867  0.006602  0.102579  1
  Au  Au23  1  0.006602  0.570867  0.897421  1
  Au  Au24  1  0.429133  0.993398  0.602579  1
  Au  Au25  1  0.993398  0.429133  0.397421  1
  Au  Au26  1  0.429133  0.993398  0.897421  1
  Au  Au27  1  0.993398  0.429133  0.102579  1
  Au  Au28  1  0.684753  0.737168  0.394156  1
  Au  Au29  1  0.737168  0.684753  0.605844  1
  Au  Au30  1  0.684753  0.737168  0.105844  1
  Au  Au31  1  0.737168  0.684753  0.894156  1
  Au  Au32  1  0.315247  0.262832  0.605844  1
  Au  Au33  1  0.262832  0.315247  0.394156  1
  Au  Au34  1  0.315247  0.262832  0.894156  1
  Au  Au35  1  0.262832  0.315247  0.105844  1
