# generated using pymatgen
data_La7PaAl7InRh8
_symmetry_space_group_name_H-M   'P 1'
_cell_length_a   4.27332000
_cell_length_b   7.35450755
_cell_length_c   16.33569042
_cell_angle_alpha   88.75271080
_cell_angle_beta   90.00000000
_cell_angle_gamma   90.00000000
_symmetry_Int_Tables_number   1
_chemical_formula_structural   La7PaAl7InRh8
_chemical_formula_sum   'La7 Pa1 Al7 In1 Rh8'
_cell_volume   513.27911462
_cell_formula_units_Z   1
loop_
 _symmetry_equiv_pos_site_id
 _symmetry_equiv_pos_as_xyz
  1  'x, y, z'
loop_
 _atom_site_type_symbol
 _atom_site_label
 _atom_site_symmetry_multiplicity
 _atom_site_fract_x
 _atom_site_fract_y
 _atom_site_fract_z
 _atom_site_occupancy
  La  La0  1  0.750000  0.471160  0.214367  1
  La  La1  1  0.750000  0.977605  0.279994  1
  La  La2  1  0.250000  0.028283  0.722843  1
  La  La3  1  0.250000  0.655099  0.562731  1
  La  La4  1  0.750000  0.332338  0.441228  1
  La  La5  1  0.750000  0.847366  0.057033  1
  La  La6  1  0.250000  0.165972  0.937674  1
  Pa  Pa7  1  0.250000  0.528839  0.780713  1
  Al  Al8  1  0.750000  0.349448  0.650013  1
  Al  Al9  1  0.750000  0.840278  0.850368  1
  Al  Al10  1  0.250000  0.146396  0.144814  1
  Al  Al11  1  0.250000  0.507427  0.057573  1
  Al  Al12  1  0.750000  0.499571  0.939822  1
  Al  Al13  1  0.750000  0.994722  0.565821  1
  Al  Al14  1  0.250000  0.003376  0.442444  1
  In  In15  1  0.250000  0.644397  0.349423  1
  Rh  Rh16  1  0.250000  0.770220  0.172177  1
  Rh  Rh17  1  0.750000  0.280985  0.814478  1
  Rh  Rh18  1  0.750000  0.705385  0.695707  1
  Rh  Rh19  1  0.250000  0.252788  0.318542  1
  Rh  Rh20  1  0.250000  0.708475  0.918918  1
  Rh  Rh21  1  0.750000  0.282420  0.070787  1
  Rh  Rh22  1  0.750000  0.795402  0.438163  1
  Rh  Rh23  1  0.250000  0.212046  0.574367  1
