# generated using pymatgen
data_Sm2Tc14(NiC)3
_symmetry_space_group_name_H-M   'P 1'
_cell_length_a   6.89300834
_cell_length_b   6.89301022
_cell_length_c   6.89300931
_cell_angle_alpha   82.70902796
_cell_angle_beta   82.70902720
_cell_angle_gamma   82.70903024
_symmetry_Int_Tables_number   1
_chemical_formula_structural   Sm2Tc14(NiC)3
_chemical_formula_sum   'Sm2 Tc14 Ni3 C3'
_cell_volume   320.18682483
_cell_formula_units_Z   1
loop_
 _symmetry_equiv_pos_site_id
 _symmetry_equiv_pos_as_xyz
  1  'x, y, z'
loop_
 _atom_site_type_symbol
 _atom_site_label
 _atom_site_symmetry_multiplicity
 _atom_site_fract_x
 _atom_site_fract_y
 _atom_site_fract_z
 _atom_site_occupancy
  Sm  Sm0  1  0.655504  0.655504  0.655504  1
  Sm  Sm1  1  0.344496  0.344496  0.344496  1
  Tc  Tc2  1  0.725598  0.274402  0.000000  1
  Tc  Tc3  1  0.000000  0.725598  0.274402  1
  Tc  Tc4  1  0.274402  0.000000  0.725598  1
  Tc  Tc5  1  0.000000  0.274402  0.725598  1
  Tc  Tc6  1  0.725598  0.000000  0.274402  1
  Tc  Tc7  1  0.274402  0.725598  0.000000  1
  Tc  Tc8  1  0.349772  0.349772  0.855016  1
  Tc  Tc9  1  0.855016  0.349772  0.349772  1
  Tc  Tc10  1  0.349772  0.855016  0.349772  1
  Tc  Tc11  1  0.650228  0.650228  0.144984  1
  Tc  Tc12  1  0.144984  0.650228  0.650228  1
  Tc  Tc13  1  0.650228  0.144984  0.650228  1
  Tc  Tc14  1  0.899370  0.899370  0.899370  1
  Tc  Tc15  1  0.100630  0.100630  0.100630  1
  Ni  Ni16  1  0.000000  0.000000  0.500000  1
  Ni  Ni17  1  0.500000  0.000000  0.000000  1
  Ni  Ni18  1  0.000000  0.500000  0.000000  1
  C  C19  1  0.500000  0.500000  0.000000  1
  C  C20  1  0.000000  0.500000  0.500000  1
  C  C21  1  0.500000  0.000000  0.500000  1
