# generated using pymatgen
data_Sm2Fe6Co3Ni3P7
_symmetry_space_group_name_H-M   'P 1'
_cell_length_a   9.05904100
_cell_length_b   9.05904070
_cell_length_c   3.66663000
_cell_angle_alpha   90.00000000
_cell_angle_beta   90.00000000
_cell_angle_gamma   120.00000476
_symmetry_Int_Tables_number   1
_chemical_formula_structural   Sm2Fe6Co3Ni3P7
_chemical_formula_sum   'Sm2 Fe6 Co3 Ni3 P7'
_cell_volume   260.59263313
_cell_formula_units_Z   1
loop_
 _symmetry_equiv_pos_site_id
 _symmetry_equiv_pos_as_xyz
  1  'x, y, z'
loop_
 _atom_site_type_symbol
 _atom_site_label
 _atom_site_symmetry_multiplicity
 _atom_site_fract_x
 _atom_site_fract_y
 _atom_site_fract_z
 _atom_site_occupancy
  Sm  Sm0  1  0.333333  0.666667  0.000000  1
  Sm  Sm1  1  0.666667  0.333333  0.500000  1
  Fe  Fe2  1  0.153862  0.881674  0.000000  1
  Fe  Fe3  1  0.118326  0.272188  0.000000  1
  Fe  Fe4  1  0.727812  0.846138  0.000000  1
  Fe  Fe5  1  0.215454  0.119573  0.500000  1
  Fe  Fe6  1  0.880427  0.095882  0.500000  1
  Fe  Fe7  1  0.904118  0.784546  0.500000  1
  Co  Co8  1  0.386344  0.952096  0.500000  1
  Co  Co9  1  0.047904  0.434247  0.500000  1
  Co  Co10  1  0.565753  0.613656  0.500000  1
  Ni  Ni11  1  0.430371  0.368806  0.000000  1
  Ni  Ni12  1  0.631194  0.061566  0.000000  1
  Ni  Ni13  1  0.938434  0.569629  0.000000  1
  P  P14  1  0.404613  0.105265  0.000000  1
  P  P15  1  0.894735  0.299349  0.000000  1
  P  P16  1  0.700651  0.595387  0.000000  1
  P  P17  1  0.114001  0.716635  0.500000  1
  P  P18  1  0.283365  0.397366  0.500000  1
  P  P19  1  0.602634  0.885999  0.500000  1
  P  P20  1  0.000000  0.000000  0.000000  1
