# generated using pymatgen
data_Er6Al24Ir3Pd2Ru3
_symmetry_space_group_name_H-M   'P 1'
_cell_length_a   8.81970692
_cell_length_b   8.79061559
_cell_length_c   9.51518500
_cell_angle_alpha   90.00000163
_cell_angle_beta   90.07015281
_cell_angle_gamma   119.89095406
_symmetry_Int_Tables_number   1
_chemical_formula_structural   Er6Al24Ir3Pd2Ru3
_chemical_formula_sum   'Er6 Al24 Ir3 Pd2 Ru3'
_cell_volume   639.58319009
_cell_formula_units_Z   1
loop_
 _symmetry_equiv_pos_site_id
 _symmetry_equiv_pos_as_xyz
  1  'x, y, z'
loop_
 _atom_site_type_symbol
 _atom_site_label
 _atom_site_symmetry_multiplicity
 _atom_site_fract_x
 _atom_site_fract_y
 _atom_site_fract_z
 _atom_site_occupancy
  Er  Er0  1  0.190676  0.385468  0.251944  1
  Er  Er1  1  0.809324  0.614532  0.748056  1
  Er  Er2  1  0.615762  0.807881  0.250009  1
  Er  Er3  1  0.384238  0.192119  0.749991  1
  Er  Er4  1  0.190676  0.805208  0.251944  1
  Er  Er5  1  0.809324  0.194792  0.748056  1
  Al  Al6  1  0.327943  0.663972  0.033164  1
  Al  Al7  1  0.672057  0.336028  0.966836  1
  Al  Al8  1  0.666400  0.333200  0.529631  1
  Al  Al9  1  0.333600  0.666800  0.470369  1
  Al  Al10  1  0.163974  0.326740  0.576338  1
  Al  Al11  1  0.836026  0.673260  0.423662  1
  Al  Al12  1  0.674189  0.837094  0.574754  1
  Al  Al13  1  0.841974  0.674017  0.078119  1
  Al  Al14  1  0.325811  0.162906  0.425246  1
  Al  Al15  1  0.158026  0.325983  0.921881  1
  Al  Al16  1  0.163974  0.837235  0.576338  1
  Al  Al17  1  0.323701  0.161851  0.079441  1
  Al  Al18  1  0.836026  0.162765  0.423662  1
  Al  Al19  1  0.676299  0.838149  0.920559  1
  Al  Al20  1  0.841974  0.167958  0.078119  1
  Al  Al21  1  0.158026  0.832042  0.921881  1
  Al  Al22  1  0.562712  0.125305  0.251690  1
  Al  Al23  1  0.437288  0.874695  0.748310  1
  Al  Al24  1  0.875931  0.437965  0.248394  1
  Al  Al25  1  0.124069  0.562035  0.751606  1
  Al  Al26  1  0.562712  0.437407  0.251690  1
  Al  Al27  1  0.437288  0.562593  0.748310  1
  Al  Al28  1  0.997637  0.998818  0.250462  1
  Al  Al29  1  0.002363  0.001182  0.749538  1
  Ir  Ir30  1  0.500000  0.000000  0.500000  1
  Ir  Ir31  1  0.000000  0.500000  0.500000  1
  Ir  Ir32  1  0.500000  0.500000  0.500000  1
  Pd  Pd33  1  0.500000  0.000000  0.000000  1
  Pd  Pd34  1  0.500000  0.500000  0.000000  1
  Ru  Ru35  1  0.000000  0.500000  0.000000  1
  Ru  Ru36  1  0.000000  0.000000  0.000000  1
  Ru  Ru37  1  0.000000  0.000000  0.500000  1
