# generated using pymatgen
data_Sr3LaAl13Au9
_symmetry_space_group_name_H-M   'P 1'
_cell_length_a   11.93910700
_cell_length_b   11.93910542
_cell_length_c   4.29080700
_cell_angle_alpha   90.00000000
_cell_angle_beta   90.00000000
_cell_angle_gamma   119.99999607
_symmetry_Int_Tables_number   1
_chemical_formula_structural   Sr3LaAl13Au9
_chemical_formula_sum   'Sr3 La1 Al13 Au9'
_cell_volume   529.67961677
_cell_formula_units_Z   1
loop_
 _symmetry_equiv_pos_site_id
 _symmetry_equiv_pos_as_xyz
  1  'x, y, z'
loop_
 _atom_site_type_symbol
 _atom_site_label
 _atom_site_symmetry_multiplicity
 _atom_site_fract_x
 _atom_site_fract_y
 _atom_site_fract_z
 _atom_site_occupancy
  Sr  Sr0  1  0.204664  0.795336  0.500000  1
  Sr  Sr1  1  0.590673  0.795336  0.500000  1
  Sr  Sr2  1  0.204664  0.409327  0.500000  1
  La  La3  1  0.666667  0.333333  0.000000  1
  Al  Al4  1  0.945971  0.290182  0.000000  1
  Al  Al5  1  0.709818  0.655789  0.000000  1
  Al  Al6  1  0.945971  0.655789  0.000000  1
  Al  Al7  1  0.344211  0.054029  0.000000  1
  Al  Al8  1  0.164880  0.082439  0.500000  1
  Al  Al9  1  0.917561  0.835120  0.500000  1
  Al  Al10  1  0.709818  0.054029  0.000000  1
  Al  Al11  1  0.532792  0.065583  0.500000  1
  Al  Al12  1  0.917561  0.082439  0.500000  1
  Al  Al13  1  0.344211  0.290182  0.000000  1
  Al  Al14  1  0.532792  0.467208  0.500000  1
  Al  Al15  1  0.934417  0.467208  0.500000  1
  Al  Al16  1  0.333333  0.666667  0.000000  1
  Au  Au17  1  0.458308  0.541692  0.000000  1
  Au  Au18  1  0.829506  0.914754  0.000000  1
  Au  Au19  1  0.458308  0.916614  0.000000  1
  Au  Au20  1  0.085246  0.170494  0.000000  1
  Au  Au21  1  0.085246  0.914754  0.000000  1
  Au  Au22  1  0.790892  0.581783  0.500000  1
  Au  Au23  1  0.083386  0.541692  0.000000  1
  Au  Au24  1  0.790892  0.209108  0.500000  1
  Au  Au25  1  0.418217  0.209108  0.500000  1
