# generated using pymatgen
data_Ba12NiPt
_symmetry_space_group_name_H-M   'P 1'
_cell_length_a   7.86066501
_cell_length_b   7.86031630
_cell_length_c   14.94919400
_cell_angle_alpha   89.99827244
_cell_angle_beta   90.00294281
_cell_angle_gamma   120.00370409
_symmetry_Int_Tables_number   1
_chemical_formula_structural   Ba12NiPt
_chemical_formula_sum   'Ba12 Ni1 Pt1'
_cell_volume   799.89228684
_cell_formula_units_Z   1
loop_
 _symmetry_equiv_pos_site_id
 _symmetry_equiv_pos_as_xyz
  1  'x, y, z'
loop_
 _atom_site_type_symbol
 _atom_site_label
 _atom_site_symmetry_multiplicity
 _atom_site_fract_x
 _atom_site_fract_y
 _atom_site_fract_z
 _atom_site_occupancy
  Ba  Ba0  1  0.667774  0.007099  0.119262  1
  Ba  Ba1  1  0.992858  0.660651  0.119266  1
  Ba  Ba2  1  0.339374  0.332111  0.119260  1
  Ba  Ba3  1  0.013365  0.345341  0.381981  1
  Ba  Ba4  1  0.654644  0.668144  0.381999  1
  Ba  Ba5  1  0.331822  0.986671  0.382038  1
  Ba  Ba6  1  0.013338  0.668096  0.618001  1
  Ba  Ba7  1  0.654691  0.986641  0.617996  1
  Ba  Ba8  1  0.331859  0.345342  0.618000  1
  Ba  Ba9  1  0.339404  0.007143  0.880715  1
  Ba  Ba10  1  0.667884  0.660601  0.880737  1
  Ba  Ba11  1  0.992901  0.332132  0.880778  1
  Ni  Ni12  1  0.333357  0.666720  0.500038  1
  Pt  Pt13  1  0.666709  0.333286  0.999987  1
