# generated using pymatgen
data_Tb3PaCd2CuNi3
_symmetry_space_group_name_H-M   'P 1'
_cell_length_a   7.51861371
_cell_length_b   7.51861359
_cell_length_c   3.58525700
_cell_angle_alpha   90.00000000
_cell_angle_beta   90.00000000
_cell_angle_gamma   91.84745597
_symmetry_Int_Tables_number   1
_chemical_formula_structural   Tb3PaCd2CuNi3
_chemical_formula_sum   'Tb3 Pa1 Cd2 Cu1 Ni3'
_cell_volume   202.56762015
_cell_formula_units_Z   1
loop_
 _symmetry_equiv_pos_site_id
 _symmetry_equiv_pos_as_xyz
  1  'x, y, z'
loop_
 _atom_site_type_symbol
 _atom_site_label
 _atom_site_symmetry_multiplicity
 _atom_site_fract_x
 _atom_site_fract_y
 _atom_site_fract_z
 _atom_site_occupancy
  Tb  Tb0  1  0.334060  0.834060  0.500000  1
  Tb  Tb1  1  0.172907  0.318911  0.500000  1
  Tb  Tb2  1  0.818911  0.672907  0.500000  1
  Pa  Pa3  1  0.672286  0.172286  0.500000  1
  Cd  Cd4  1  0.003215  0.996082  0.000000  1
  Cd  Cd5  1  0.496082  0.503215  0.000000  1
  Cu  Cu6  1  0.112838  0.612838  0.000000  1
  Ni  Ni7  1  0.859584  0.359584  0.000000  1
  Ni  Ni8  1  0.631177  0.898938  0.000000  1
  Ni  Ni9  1  0.398938  0.131177  0.000000  1
