# generated using pymatgen
data_Lu3InSn3RuRh
_symmetry_space_group_name_H-M   'P 1'
_cell_length_a   7.68740500
_cell_length_b   7.68740473
_cell_length_c   3.83988300
_cell_angle_alpha   90.00000000
_cell_angle_beta   90.00000000
_cell_angle_gamma   119.99999684
_symmetry_Int_Tables_number   1
_chemical_formula_structural   Lu3InSn3RuRh
_chemical_formula_sum   'Lu3 In1 Sn3 Ru1 Rh1'
_cell_volume   196.52062919
_cell_formula_units_Z   1
loop_
 _symmetry_equiv_pos_site_id
 _symmetry_equiv_pos_as_xyz
  1  'x, y, z'
loop_
 _atom_site_type_symbol
 _atom_site_label
 _atom_site_symmetry_multiplicity
 _atom_site_fract_x
 _atom_site_fract_y
 _atom_site_fract_z
 _atom_site_occupancy
  Lu  Lu0  1  0.380725  0.408522  0.500000  1
  Lu  Lu1  1  0.591478  0.972203  0.500000  1
  Lu  Lu2  1  0.027797  0.619275  0.500000  1
  In  In3  1  0.666667  0.333333  0.000000  1
  Sn  Sn4  1  0.740054  0.747121  0.000000  1
  Sn  Sn5  1  0.252879  0.992933  0.000000  1
  Sn  Sn6  1  0.007067  0.259946  0.000000  1
  Ru  Ru7  1  0.000000  0.000000  0.500000  1
  Rh  Rh8  1  0.333333  0.666667  0.000000  1
