# generated using pymatgen
data_Pr4Sc4Re3B24Os
_symmetry_space_group_name_H-M   'P 1'
_cell_length_a   3.65127400
_cell_length_b   9.10541359
_cell_length_c   11.58322119
_cell_angle_alpha   90.04046391
_cell_angle_beta   90.00000000
_cell_angle_gamma   90.00000000
_symmetry_Int_Tables_number   1
_chemical_formula_structural   Pr4Sc4Re3B24Os
_chemical_formula_sum   'Pr4 Sc4 Re3 B24 Os1'
_cell_volume   385.09984452
_cell_formula_units_Z   1
loop_
 _symmetry_equiv_pos_site_id
 _symmetry_equiv_pos_as_xyz
  1  'x, y, z'
loop_
 _atom_site_type_symbol
 _atom_site_label
 _atom_site_symmetry_multiplicity
 _atom_site_fract_x
 _atom_site_fract_y
 _atom_site_fract_z
 _atom_site_occupancy
  Pr  Pr0  1  0.000000  0.320504  0.415361  1
  Pr  Pr1  1  0.000000  0.678862  0.586077  1
  Pr  Pr2  1  0.000000  0.821788  0.084271  1
  Pr  Pr3  1  0.000000  0.178963  0.914364  1
  Sc  Sc4  1  0.000000  0.944147  0.369829  1
  Sc  Sc5  1  0.000000  0.055863  0.629995  1
  Sc  Sc6  1  0.000000  0.442753  0.129713  1
  Sc  Sc7  1  0.000000  0.556454  0.870049  1
  Re  Re8  1  0.000000  0.359383  0.682432  1
  Re  Re9  1  0.000000  0.141142  0.183655  1
  Re  Re10  1  0.000000  0.858913  0.816937  1
  B  B11  1  0.500000  0.556792  0.429054  1
  B  B12  1  0.500000  0.443778  0.570659  1
  B  B13  1  0.500000  0.056212  0.070504  1
  B  B14  1  0.500000  0.943944  0.929305  1
  B  B15  1  0.500000  0.753974  0.414724  1
  B  B16  1  0.500000  0.244943  0.584872  1
  B  B17  1  0.500000  0.254826  0.084895  1
  B  B18  1  0.500000  0.745657  0.915262  1
  B  B19  1  0.500000  0.793228  0.265591  1
  B  B20  1  0.500000  0.205954  0.734222  1
  B  B21  1  0.500000  0.294139  0.234580  1
  B  B22  1  0.500000  0.705861  0.765944  1
  B  B23  1  0.500000  0.627830  0.184186  1
  B  B24  1  0.500000  0.372666  0.815957  1
  B  B25  1  0.500000  0.127725  0.316581  1
  B  B26  1  0.500000  0.872313  0.683705  1
  B  B27  1  0.500000  0.982745  0.215396  1
  B  B28  1  0.500000  0.017290  0.784288  1
  B  B29  1  0.500000  0.483769  0.284997  1
  B  B30  1  0.500000  0.517609  0.715390  1
  B  B31  1  0.500000  0.593701  0.025651  1
  B  B32  1  0.500000  0.406316  0.975094  1
  B  B33  1  0.500000  0.093094  0.474679  1
  B  B34  1  0.500000  0.905595  0.525003  1
  Os  Os35  1  0.000000  0.641265  0.316779  1
