# generated using pymatgen
data_Hf3Ta7N12
_symmetry_space_group_name_H-M   'P 1'
_cell_length_a   5.28762800
_cell_length_b   5.28762785
_cell_length_c   10.50777600
_cell_angle_alpha   90.00000000
_cell_angle_beta   90.00000000
_cell_angle_gamma   120.00000094
_symmetry_Int_Tables_number   1
_chemical_formula_structural   Hf3Ta7N12
_chemical_formula_sum   'Hf3 Ta7 N12'
_cell_volume   254.42700678
_cell_formula_units_Z   1
loop_
 _symmetry_equiv_pos_site_id
 _symmetry_equiv_pos_as_xyz
  1  'x, y, z'
loop_
 _atom_site_type_symbol
 _atom_site_label
 _atom_site_symmetry_multiplicity
 _atom_site_fract_x
 _atom_site_fract_y
 _atom_site_fract_z
 _atom_site_occupancy
  Hf  Hf0  1  0.666667  0.333333  0.000000  1
  Hf  Hf1  1  0.333333  0.666667  0.000000  1
  Hf  Hf2  1  0.333333  0.666667  0.500000  1
  Ta  Ta3  1  0.677986  0.679164  0.748036  1
  Ta  Ta4  1  0.320836  0.998822  0.748036  1
  Ta  Ta5  1  0.001178  0.322014  0.748036  1
  Ta  Ta6  1  0.320836  0.322014  0.251964  1
  Ta  Ta7  1  0.677986  0.998822  0.251964  1
  Ta  Ta8  1  0.001178  0.679164  0.251964  1
  Ta  Ta9  1  0.666667  0.333333  0.500000  1
  N  N10  1  0.659574  0.653607  0.377840  1
  N  N11  1  0.346393  0.005968  0.377840  1
  N  N12  1  0.994032  0.340426  0.377840  1
  N  N13  1  0.346393  0.340426  0.622160  1
  N  N14  1  0.659574  0.005968  0.622160  1
  N  N15  1  0.994032  0.653607  0.622160  1
  N  N16  1  0.344322  0.344059  0.872740  1
  N  N17  1  0.655941  0.000264  0.872740  1
  N  N18  1  0.999736  0.655678  0.872740  1
  N  N19  1  0.655941  0.655678  0.127260  1
  N  N20  1  0.344322  0.000264  0.127260  1
  N  N21  1  0.999736  0.344059  0.127260  1
