# generated using pymatgen
data_Dy3U(MoN2)4
_symmetry_space_group_name_H-M   'P 1'
_cell_length_a   3.19914200
_cell_length_b   5.66815467
_cell_length_c   10.72847480
_cell_angle_alpha   89.48245587
_cell_angle_beta   90.00000000
_cell_angle_gamma   90.00000000
_symmetry_Int_Tables_number   1
_chemical_formula_structural   Dy3U(MoN2)4
_chemical_formula_sum   'Dy3 U1 Mo4 N8'
_cell_volume   194.53398254
_cell_formula_units_Z   1
loop_
 _symmetry_equiv_pos_site_id
 _symmetry_equiv_pos_as_xyz
  1  'x, y, z'
loop_
 _atom_site_type_symbol
 _atom_site_label
 _atom_site_symmetry_multiplicity
 _atom_site_fract_x
 _atom_site_fract_y
 _atom_site_fract_z
 _atom_site_occupancy
  Dy  Dy0  1  0.250000  0.574061  0.643610  1
  Dy  Dy1  1  0.750000  0.923048  0.150751  1
  Dy  Dy2  1  0.750000  0.422173  0.352056  1
  U  U3  1  0.250000  0.072915  0.856236  1
  Mo  Mo4  1  0.250000  0.437167  0.096437  1
  Mo  Mo5  1  0.250000  0.932473  0.406097  1
  Mo  Mo6  1  0.750000  0.570729  0.899239  1
  Mo  Mo7  1  0.750000  0.065900  0.590428  1
  N  N8  1  0.250000  0.166804  0.247289  1
  N  N9  1  0.250000  0.666384  0.253618  1
  N  N10  1  0.750000  0.843377  0.754717  1
  N  N11  1  0.750000  0.320392  0.749445  1
  N  N12  1  0.250000  0.762313  0.995051  1
  N  N13  1  0.250000  0.257732  0.505541  1
  N  N14  1  0.750000  0.245705  0.003718  1
  N  N15  1  0.750000  0.738826  0.495766  1
