# generated using pymatgen
data_K12Al2As5P
_symmetry_space_group_name_H-M   'P 1'
_cell_length_a   9.01728798
_cell_length_b   9.00809401
_cell_length_c   10.19933030
_cell_angle_alpha   81.75294801
_cell_angle_beta   107.03799721
_cell_angle_gamma   119.05913767
_symmetry_Int_Tables_number   1
_chemical_formula_structural   K12Al2As5P
_chemical_formula_sum   'K12 Al2 As5 P1'
_cell_volume   692.40270025
_cell_formula_units_Z   1
loop_
 _symmetry_equiv_pos_site_id
 _symmetry_equiv_pos_as_xyz
  1  'x, y, z'
loop_
 _atom_site_type_symbol
 _atom_site_label
 _atom_site_symmetry_multiplicity
 _atom_site_fract_x
 _atom_site_fract_y
 _atom_site_fract_z
 _atom_site_occupancy
  K  K0  1  0.736557  0.124123  0.619008  1
  K  K1  1  0.254656  0.858181  0.392970  1
  K  K2  1  0.964658  0.819481  0.629645  1
  K  K3  1  0.029300  0.197446  0.395103  1
  K  K4  1  0.623522  0.446695  0.399457  1
  K  K5  1  0.399274  0.562220  0.594852  1
  K  K6  1  0.871344  0.485844  0.139131  1
  K  K7  1  0.110879  0.498378  0.841374  1
  K  K8  1  0.743409  0.091518  0.987938  1
  K  K9  1  0.240917  0.875423  0.004236  1
  K  K10  1  0.568416  0.625612  0.945008  1
  K  K11  1  0.248428  0.210781  0.105095  1
  Al  Al12  1  0.586590  0.829248  0.254537  1
  Al  Al13  1  0.413926  0.175930  0.751439  1
  As  As14  1  0.302485  0.565092  0.230172  1
  As  As15  1  0.703786  0.428886  0.765020  1
  As  As16  1  0.599009  0.108229  0.262889  1
  As  As17  1  0.385184  0.886032  0.738222  1
  As  As18  1  0.854486  0.823252  0.243887  1
  P  P19  1  0.172558  0.204370  0.761396  1
