# generated using pymatgen
data_Tb4GaSb3As2Rh7
_symmetry_space_group_name_H-M   'P 1'
_cell_length_a   7.49279591
_cell_length_b   7.45759544
_cell_length_c   7.45759529
_cell_angle_alpha   109.44308037
_cell_angle_beta   109.52590614
_cell_angle_gamma   109.52589997
_symmetry_Int_Tables_number   1
_chemical_formula_structural   Tb4GaSb3As2Rh7
_chemical_formula_sum   'Tb4 Ga1 Sb3 As2 Rh7'
_cell_volume   320.46699401
_cell_formula_units_Z   1
loop_
 _symmetry_equiv_pos_site_id
 _symmetry_equiv_pos_as_xyz
  1  'x, y, z'
loop_
 _atom_site_type_symbol
 _atom_site_label
 _atom_site_symmetry_multiplicity
 _atom_site_fract_x
 _atom_site_fract_y
 _atom_site_fract_z
 _atom_site_occupancy
  Tb  Tb0  1  0.545121  0.001790  0.001790  1
  Tb  Tb1  1  0.988022  0.482955  0.999904  1
  Tb  Tb2  1  0.988022  0.999904  0.482955  1
  Tb  Tb3  1  0.514421  0.525416  0.525416  1
  Ga  Ga4  1  0.013052  0.334081  0.334081  1
  Sb  Sb5  1  0.012011  0.689339  0.689339  1
  Sb  Sb6  1  0.310416  0.003471  0.302319  1
  Sb  Sb7  1  0.310416  0.302319  0.003471  1
  As  As8  1  0.672219  0.002757  0.666704  1
  As  As9  1  0.672219  0.666704  0.002757  1
  Rh  Rh10  1  0.960637  0.992968  0.992968  1
  Rh  Rh11  1  0.500001  0.749186  0.249966  1
  Rh  Rh12  1  0.751567  0.498040  0.249122  1
  Rh  Rh13  1  0.255154  0.753893  0.498088  1
  Rh  Rh14  1  0.255154  0.498088  0.753893  1
  Rh  Rh15  1  0.500001  0.249966  0.749186  1
  Rh  Rh16  1  0.751567  0.249122  0.498040  1
