# generated using pymatgen
data_Nd3U(NiP)4
_symmetry_space_group_name_H-M   'P 1'
_cell_length_a   3.96746200
_cell_length_b   3.96746247
_cell_length_c   15.81460100
_cell_angle_alpha   90.00000000
_cell_angle_beta   90.00000000
_cell_angle_gamma   119.99997941
_symmetry_Int_Tables_number   1
_chemical_formula_structural   Nd3U(NiP)4
_chemical_formula_sum   'Nd3 U1 Ni4 P4'
_cell_volume   215.58302624
_cell_formula_units_Z   1
loop_
 _symmetry_equiv_pos_site_id
 _symmetry_equiv_pos_as_xyz
  1  'x, y, z'
loop_
 _atom_site_type_symbol
 _atom_site_label
 _atom_site_symmetry_multiplicity
 _atom_site_fract_x
 _atom_site_fract_y
 _atom_site_fract_z
 _atom_site_occupancy
  Nd  Nd0  1  0.000000  0.000000  0.496691  1
  Nd  Nd1  1  0.000000  0.000000  0.003309  1
  Nd  Nd2  1  0.000000  0.000000  0.750000  1
  U  U3  1  0.000000  0.000000  0.250000  1
  Ni  Ni4  1  0.333333  0.666667  0.353537  1
  Ni  Ni5  1  0.666667  0.333333  0.619758  1
  Ni  Ni6  1  0.666667  0.333333  0.880242  1
  Ni  Ni7  1  0.333333  0.666667  0.146463  1
  P  P8  1  0.333333  0.666667  0.876545  1
  P  P9  1  0.666667  0.333333  0.130226  1
  P  P10  1  0.666667  0.333333  0.369774  1
  P  P11  1  0.333333  0.666667  0.623455  1
