# generated using pymatgen
data_Tb2Lu(GaCu4)3
_symmetry_space_group_name_H-M   'P 1'
_cell_length_a   8.76681300
_cell_length_b   8.76681258
_cell_length_c   4.15809500
_cell_angle_alpha   90.00000000
_cell_angle_beta   90.00000000
_cell_angle_gamma   120.00000534
_symmetry_Int_Tables_number   1
_chemical_formula_structural   Tb2Lu(GaCu4)3
_chemical_formula_sum   'Tb2 Lu1 Ga3 Cu12'
_cell_volume   276.76328777
_cell_formula_units_Z   1
loop_
 _symmetry_equiv_pos_site_id
 _symmetry_equiv_pos_as_xyz
  1  'x, y, z'
loop_
 _atom_site_type_symbol
 _atom_site_label
 _atom_site_symmetry_multiplicity
 _atom_site_fract_x
 _atom_site_fract_y
 _atom_site_fract_z
 _atom_site_occupancy
  Tb  Tb0  1  0.333333  0.666667  0.000000  1
  Tb  Tb1  1  0.666667  0.333333  0.000000  1
  Lu  Lu2  1  0.000000  0.000000  0.000000  1
  Ga  Ga3  1  0.500000  0.000000  0.500000  1
  Ga  Ga4  1  0.000000  0.500000  0.500000  1
  Ga  Ga5  1  0.500000  0.500000  0.500000  1
  Cu  Cu6  1  0.327435  0.000000  0.000000  1
  Cu  Cu7  1  0.672565  0.000000  0.000000  1
  Cu  Cu8  1  0.000000  0.327435  0.000000  1
  Cu  Cu9  1  0.000000  0.672565  0.000000  1
  Cu  Cu10  1  0.672565  0.672565  0.000000  1
  Cu  Cu11  1  0.327435  0.327435  0.000000  1
  Cu  Cu12  1  0.165727  0.331453  0.500000  1
  Cu  Cu13  1  0.834273  0.668547  0.500000  1
  Cu  Cu14  1  0.668547  0.834273  0.500000  1
  Cu  Cu15  1  0.331453  0.165727  0.500000  1
  Cu  Cu16  1  0.165727  0.834273  0.500000  1
  Cu  Cu17  1  0.834273  0.165727  0.500000  1
