# generated using pymatgen
data_La8Nd11HoSi16
_symmetry_space_group_name_H-M   'P 1'
_cell_length_a   7.92816440
_cell_length_b   7.92816457
_cell_length_c   15.33589400
_cell_angle_alpha   89.98180275
_cell_angle_beta   90.01819725
_cell_angle_gamma   90.01174944
_symmetry_Int_Tables_number   1
_chemical_formula_structural   La8Nd11HoSi16
_chemical_formula_sum   'La8 Nd11 Ho1 Si16'
_cell_volume   963.94964701
_cell_formula_units_Z   1
loop_
 _symmetry_equiv_pos_site_id
 _symmetry_equiv_pos_as_xyz
  1  'x, y, z'
loop_
 _atom_site_type_symbol
 _atom_site_label
 _atom_site_symmetry_multiplicity
 _atom_site_fract_x
 _atom_site_fract_y
 _atom_site_fract_z
 _atom_site_occupancy
  La  La0  1  0.986310  0.623070  0.052139  1
  La  La1  1  0.013668  0.376886  0.552301  1
  La  La2  1  0.623070  0.986310  0.947861  1
  La  La3  1  0.123178  0.513300  0.802038  1
  La  La4  1  0.877193  0.487067  0.302400  1
  La  La5  1  0.513300  0.123178  0.197962  1
  La  La6  1  0.487067  0.877193  0.697600  1
  La  La7  1  0.376886  0.013668  0.447699  1
  Nd  Nd8  1  0.373081  0.481457  0.373426  1
  Nd  Nd9  1  0.872996  0.018980  0.376942  1
  Nd  Nd10  1  0.981101  0.126834  0.123233  1
  Nd  Nd11  1  0.018980  0.872996  0.623058  1
  Nd  Nd12  1  0.626570  0.519082  0.872971  1
  Nd  Nd13  1  0.481457  0.373081  0.626574  1
  Nd  Nd14  1  0.519082  0.626570  0.127029  1
  Nd  Nd15  1  0.126834  0.981101  0.876767  1
  Nd  Nd16  1  0.808081  0.191333  0.749915  1
  Nd  Nd17  1  0.191333  0.808081  0.250085  1
  Nd  Nd18  1  0.308007  0.308007  0.000000  1
  Ho  Ho19  1  0.689925  0.689925  0.500000  1
  Si  Si20  1  0.076412  0.713275  0.439968  1
  Si  Si21  1  0.920515  0.286281  0.939303  1
  Si  Si22  1  0.713275  0.076412  0.560032  1
  Si  Si23  1  0.214119  0.420805  0.189530  1
  Si  Si24  1  0.785087  0.581322  0.686730  1
  Si  Si25  1  0.420805  0.214119  0.810470  1
  Si  Si26  1  0.581322  0.785087  0.313270  1
  Si  Si27  1  0.286281  0.920515  0.060697  1
  Si  Si28  1  0.830852  0.805786  0.795629  1
  Si  Si29  1  0.169250  0.194242  0.296294  1
  Si  Si30  1  0.805786  0.830852  0.204371  1
  Si  Si31  1  0.308605  0.670033  0.545556  1
  Si  Si32  1  0.694104  0.331194  0.046358  1
  Si  Si33  1  0.670033  0.308605  0.454444  1
  Si  Si34  1  0.331194  0.694104  0.953642  1
  Si  Si35  1  0.194242  0.169250  0.703706  1
