# generated using pymatgen
data_Mn9Nb12Al3N4
_symmetry_space_group_name_H-M   'P 1'
_cell_length_a   8.09774974
_cell_length_b   8.12308104
_cell_length_c   8.12308100
_cell_angle_alpha   60.00000422
_cell_angle_beta   59.89647050
_cell_angle_gamma   59.89647301
_symmetry_Int_Tables_number   1
_chemical_formula_structural   Mn9Nb12Al3N4
_chemical_formula_sum   'Mn9 Nb12 Al3 N4'
_cell_volume   377.23290204
_cell_formula_units_Z   1
loop_
 _symmetry_equiv_pos_site_id
 _symmetry_equiv_pos_as_xyz
  1  'x, y, z'
loop_
 _atom_site_type_symbol
 _atom_site_label
 _atom_site_symmetry_multiplicity
 _atom_site_fract_x
 _atom_site_fract_y
 _atom_site_fract_z
 _atom_site_occupancy
  Mn  Mn0  1  0.125000  0.625000  0.625000  1
  Mn  Mn1  1  0.736672  0.421110  0.421110  1
  Mn  Mn2  1  0.412004  0.735867  0.426065  1
  Mn  Mn3  1  0.412004  0.426065  0.735867  1
  Mn  Mn4  1  0.412004  0.426065  0.426065  1
  Mn  Mn5  1  0.513328  0.828890  0.828890  1
  Mn  Mn6  1  0.837996  0.514133  0.823935  1
  Mn  Mn7  1  0.837996  0.823935  0.514133  1
  Mn  Mn8  1  0.837996  0.823935  0.823935  1
  Nb  Nb9  1  0.803563  0.803300  0.196568  1
  Nb  Nb10  1  0.197167  0.193668  0.804583  1
  Nb  Nb11  1  0.803563  0.196568  0.803300  1
  Nb  Nb12  1  0.197167  0.804583  0.193668  1
  Nb  Nb13  1  0.197167  0.804583  0.804583  1
  Nb  Nb14  1  0.803563  0.196568  0.196568  1
  Nb  Nb15  1  0.446437  0.446700  0.053432  1
  Nb  Nb16  1  0.052833  0.056332  0.445417  1
  Nb  Nb17  1  0.446437  0.053432  0.446700  1
  Nb  Nb18  1  0.052833  0.445417  0.056332  1
  Nb  Nb19  1  0.052833  0.445417  0.445417  1
  Nb  Nb20  1  0.446437  0.053432  0.053432  1
  Al  Al21  1  0.625000  0.125000  0.625000  1
  Al  Al22  1  0.625000  0.625000  0.125000  1
  Al  Al23  1  0.625000  0.625000  0.625000  1
  N  N24  1  0.625000  0.125000  0.125000  1
  N  N25  1  0.125000  0.625000  0.125000  1
  N  N26  1  0.125000  0.125000  0.625000  1
  N  N27  1  0.125000  0.125000  0.125000  1
