# generated using pymatgen
data_Y8HoLu11Bi12
_symmetry_space_group_name_H-M   'P 1'
_cell_length_a   8.18118292
_cell_length_b   9.41799991
_cell_length_c   11.98825000
_cell_angle_alpha   90.01281824
_cell_angle_beta   89.88007435
_cell_angle_gamma   90.12849501
_symmetry_Int_Tables_number   1
_chemical_formula_structural   Y8HoLu11Bi12
_chemical_formula_sum   'Y8 Ho1 Lu11 Bi12'
_cell_volume   923.69484978
_cell_formula_units_Z   1
loop_
 _symmetry_equiv_pos_site_id
 _symmetry_equiv_pos_as_xyz
  1  'x, y, z'
loop_
 _atom_site_type_symbol
 _atom_site_label
 _atom_site_symmetry_multiplicity
 _atom_site_fract_x
 _atom_site_fract_y
 _atom_site_fract_z
 _atom_site_occupancy
  Y  Y0  1  0.186281  0.750032  0.718239  1
  Y  Y1  1  0.685513  0.749916  0.781057  1
  Y  Y2  1  0.813739  0.249827  0.281575  1
  Y  Y3  1  0.313933  0.249282  0.219401  1
  Y  Y4  1  0.352726  0.749313  0.216553  1
  Y  Y5  1  0.853093  0.749338  0.283856  1
  Y  Y6  1  0.648313  0.249450  0.783282  1
  Y  Y7  1  0.145924  0.249363  0.715747  1
  Ho  Ho8  1  0.309267  0.436250  0.941054  1
  Lu  Lu9  1  0.022421  0.749800  0.989685  1
  Lu  Lu10  1  0.522419  0.749684  0.510117  1
  Lu  Lu11  1  0.976700  0.249664  0.010553  1
  Lu  Lu12  1  0.477279  0.249675  0.489742  1
  Lu  Lu13  1  0.808229  0.066645  0.558513  1
  Lu  Lu14  1  0.692712  0.933727  0.059433  1
  Lu  Lu15  1  0.191218  0.566838  0.441225  1
  Lu  Lu16  1  0.690715  0.567083  0.058755  1
  Lu  Lu17  1  0.191736  0.933086  0.441282  1
  Lu  Lu18  1  0.308203  0.067609  0.940793  1
  Lu  Lu19  1  0.808498  0.432903  0.558510  1
  Bi  Bi20  1  0.434054  0.003790  0.671197  1
  Bi  Bi21  1  0.933450  0.496002  0.828335  1
  Bi  Bi22  1  0.566248  0.503659  0.328843  1
  Bi  Bi23  1  0.065786  0.995719  0.171589  1
  Bi  Bi24  1  0.565956  0.995688  0.328558  1
  Bi  Bi25  1  0.066032  0.503492  0.171778  1
  Bi  Bi26  1  0.434393  0.495740  0.671259  1
  Bi  Bi27  1  0.934074  0.003384  0.828342  1
  Bi  Bi28  1  0.404406  0.754038  0.957789  1
  Bi  Bi29  1  0.903183  0.749917  0.542943  1
  Bi  Bi30  1  0.596808  0.249219  0.043042  1
  Bi  Bi31  1  0.096687  0.249870  0.456955  1
