# generated using pymatgen
data_Cd3Fe4(PO4)6
_symmetry_space_group_name_H-M   'P 1'
_cell_length_a   6.48263363
_cell_length_b   8.81411923
_cell_length_c   9.00513404
_cell_angle_alpha   91.34168510
_cell_angle_beta   107.46768709
_cell_angle_gamma   106.34519785
_symmetry_Int_Tables_number   1
_chemical_formula_structural   Cd3Fe4(PO4)6
_chemical_formula_sum   'Cd3 Fe4 P6 O24'
_cell_volume   467.69428760
_cell_formula_units_Z   1
loop_
 _symmetry_equiv_pos_site_id
 _symmetry_equiv_pos_as_xyz
  1  'x, y, z'
loop_
 _atom_site_type_symbol
 _atom_site_label
 _atom_site_symmetry_multiplicity
 _atom_site_fract_x
 _atom_site_fract_y
 _atom_site_fract_z
 _atom_site_occupancy
  Cd  Cd0  1  0.259626  0.755330  0.247320  1
  Cd  Cd1  1  0.744269  0.242193  0.755745  1
  Cd  Cd2  1  0.010760  0.995054  0.994531  1
  Fe  Fe3  1  0.132512  0.873322  0.573166  1
  Fe  Fe4  1  0.369030  0.430003  0.118595  1
  Fe  Fe5  1  0.866673  0.126552  0.424623  1
  Fe  Fe6  1  0.632211  0.568742  0.880851  1
  P  P7  1  0.246272  0.217553  0.774144  1
  P  P8  1  0.755035  0.782793  0.223497  1
  P  P9  1  0.358132  0.147825  0.357297  1
  P  P10  1  0.133509  0.644758  0.857377  1
  P  P11  1  0.642909  0.850553  0.642439  1
  P  P12  1  0.868173  0.354103  0.140997  1
  O  O13  1  0.266855  0.049012  0.750594  1
  O  O14  1  0.226616  0.240503  0.942215  1
  O  O15  1  0.731583  0.949866  0.248980  1
  O  O16  1  0.775539  0.759841  0.055873  1
  O  O17  1  0.972185  0.762761  0.345747  1
  O  O18  1  0.541962  0.653838  0.237235  1
  O  O19  1  0.029016  0.237683  0.652534  1
  O  O20  1  0.459985  0.344987  0.760179  1
  O  O21  1  0.128109  0.697710  0.695244  1
  O  O22  1  0.369768  0.308810  0.293576  1
  O  O23  1  0.871673  0.302423  0.303494  1
  O  O24  1  0.630093  0.688772  0.704568  1
  O  O25  1  0.407267  0.844557  0.525712  1
  O  O26  1  0.100063  0.482764  0.156370  1
  O  O27  1  0.593858  0.155545  0.475151  1
  O  O28  1  0.902091  0.517118  0.843523  1
  O  O29  1  0.288462  0.016744  0.219409  1
  O  O30  1  0.178381  0.784945  0.978552  1
  O  O31  1  0.715848  0.980675  0.781853  1
  O  O32  1  0.826788  0.214130  0.021411  1
  O  O33  1  0.180395  0.102758  0.447348  1
  O  O34  1  0.324120  0.559244  0.913654  1
  O  O35  1  0.819418  0.895723  0.551570  1
  O  O36  1  0.677113  0.439709  0.084125  1
