# generated using pymatgen
data_Nd16CuHg4Ru3
_symmetry_space_group_name_H-M   'P 1'
_cell_length_a   9.96546133
_cell_length_b   9.96546151
_cell_length_c   9.89516024
_cell_angle_alpha   59.76470121
_cell_angle_beta   59.76469794
_cell_angle_gamma   60.00000078
_symmetry_Int_Tables_number   1
_chemical_formula_structural   Nd16CuHg4Ru3
_chemical_formula_sum   'Nd16 Cu1 Hg4 Ru3'
_cell_volume   692.38694930
_cell_formula_units_Z   1
loop_
 _symmetry_equiv_pos_site_id
 _symmetry_equiv_pos_as_xyz
  1  'x, y, z'
loop_
 _atom_site_type_symbol
 _atom_site_label
 _atom_site_symmetry_multiplicity
 _atom_site_fract_x
 _atom_site_fract_y
 _atom_site_fract_z
 _atom_site_occupancy
  Nd  Nd0  1  0.898085  0.898085  0.903293  1
  Nd  Nd1  1  0.439823  0.439823  0.060527  1
  Nd  Nd2  1  0.058813  0.058813  0.434022  1
  Nd  Nd3  1  0.439823  0.059827  0.060527  1
  Nd  Nd4  1  0.310697  0.687340  0.314622  1
  Nd  Nd5  1  0.687340  0.687340  0.314622  1
  Nd  Nd6  1  0.687340  0.310697  0.314622  1
  Nd  Nd7  1  0.300539  0.898085  0.903293  1
  Nd  Nd8  1  0.898085  0.300539  0.903293  1
  Nd  Nd9  1  0.310763  0.683370  0.695104  1
  Nd  Nd10  1  0.903584  0.903584  0.289248  1
  Nd  Nd11  1  0.059827  0.439823  0.060527  1
  Nd  Nd12  1  0.310763  0.310763  0.695104  1
  Nd  Nd13  1  0.058813  0.448351  0.434022  1
  Nd  Nd14  1  0.448351  0.058813  0.434022  1
  Nd  Nd15  1  0.683370  0.310763  0.695104  1
  Cu  Cu16  1  0.108227  0.108227  0.675320  1
  Hg  Hg17  1  0.666888  0.666888  0.999337  1
  Hg  Hg18  1  0.999672  0.667175  0.665976  1
  Hg  Hg19  1  0.667175  0.999672  0.665976  1
  Hg  Hg20  1  0.667175  0.667175  0.665976  1
  Ru  Ru21  1  0.111618  0.111618  0.105154  1
  Ru  Ru22  1  0.111618  0.671610  0.105154  1
  Ru  Ru23  1  0.671610  0.111618  0.105154  1
