# generated using pymatgen
data_CaBi3Pd4
_symmetry_space_group_name_H-M   'P 1'
_cell_length_a   10.76608400
_cell_length_b   5.76574673
_cell_length_c   5.72859864
_cell_angle_alpha   79.26394211
_cell_angle_beta   90.00000000
_cell_angle_gamma   90.00000000
_symmetry_Int_Tables_number   1
_chemical_formula_structural   CaBi3Pd4
_chemical_formula_sum   'Ca2 Bi6 Pd8'
_cell_volume   349.37546589
_cell_formula_units_Z   2
loop_
 _symmetry_equiv_pos_site_id
 _symmetry_equiv_pos_as_xyz
  1  'x, y, z'
loop_
 _atom_site_type_symbol
 _atom_site_label
 _atom_site_symmetry_multiplicity
 _atom_site_fract_x
 _atom_site_fract_y
 _atom_site_fract_z
 _atom_site_occupancy
  Ca  Ca0  1  0.287704  0.108595  0.845449  1
  Ca  Ca1  1  0.787704  0.891405  0.154551  1
  Bi  Bi2  1  0.291328  0.638607  0.401619  1
  Bi  Bi3  1  0.791328  0.361393  0.598381  1
  Bi  Bi4  1  0.507335  0.104088  0.342412  1
  Bi  Bi5  1  0.007335  0.895912  0.657588  1
  Bi  Bi6  1  0.504648  0.650186  0.905355  1
  Bi  Bi7  1  0.004648  0.349814  0.094645  1
  Pd  Pd8  1  0.564384  0.161720  0.830680  1
  Pd  Pd9  1  0.064384  0.838280  0.169320  1
  Pd  Pd10  1  0.561698  0.583674  0.419175  1
  Pd  Pd11  1  0.061698  0.416326  0.580825  1
  Pd  Pd12  1  0.736530  0.847129  0.663076  1
  Pd  Pd13  1  0.236530  0.152871  0.336924  1
  Pd  Pd14  1  0.731475  0.411731  0.088492  1
  Pd  Pd15  1  0.231475  0.588269  0.911508  1
