# generated using pymatgen
data_Sm4Ga10Ni5Ru
_symmetry_space_group_name_H-M   'P 1'
_cell_length_a   8.44139397
_cell_length_b   8.44139312
_cell_length_c   8.44139356
_cell_angle_alpha   140.71669789
_cell_angle_beta   107.99211441
_cell_angle_gamma   85.24409482
_symmetry_Int_Tables_number   1
_chemical_formula_structural   Sm4Ga10Ni5Ru
_chemical_formula_sum   'Sm4 Ga10 Ni5 Ru1'
_cell_volume   349.83160790
_cell_formula_units_Z   1
loop_
 _symmetry_equiv_pos_site_id
 _symmetry_equiv_pos_as_xyz
  1  'x, y, z'
loop_
 _atom_site_type_symbol
 _atom_site_label
 _atom_site_symmetry_multiplicity
 _atom_site_fract_x
 _atom_site_fract_y
 _atom_site_fract_z
 _atom_site_occupancy
  Sm  Sm0  1  0.864676  0.642807  0.232114  1
  Sm  Sm1  1  0.135324  0.367438  0.778131  1
  Sm  Sm2  1  0.410693  0.132562  0.267886  1
  Sm  Sm3  1  0.589307  0.857193  0.721869  1
  Ga  Ga4  1  0.500000  0.750000  0.250000  1
  Ga  Ga5  1  0.500000  0.250000  0.750000  1
  Ga  Ga6  1  0.213688  0.963688  0.750000  1
  Ga  Ga7  1  0.786312  0.536312  0.750000  1
  Ga  Ga8  1  0.785175  0.035175  0.250000  1
  Ga  Ga9  1  0.214825  0.464825  0.250000  1
  Ga  Ga10  1  0.075911  0.911861  0.175581  1
  Ga  Ga11  1  0.924089  0.099669  0.835949  1
  Ga  Ga12  1  0.736280  0.400331  0.324419  1
  Ga  Ga13  1  0.263720  0.588139  0.664051  1
  Ni  Ni14  1  0.000000  0.250000  0.250000  1
  Ni  Ni15  1  0.263247  0.861229  0.409963  1
  Ni  Ni16  1  0.736753  0.146716  0.597982  1
  Ni  Ni17  1  0.451267  0.353284  0.090037  1
  Ni  Ni18  1  0.548733  0.638771  0.902018  1
  Ru  Ru19  1  0.000000  0.750000  0.750000  1
