# generated using pymatgen
data_Dy3Mg2Ag3C
_symmetry_space_group_name_H-M   'P 1'
_cell_length_a   8.58493100
_cell_length_b   8.58493096
_cell_length_c   5.90039800
_cell_angle_alpha   90.00000000
_cell_angle_beta   90.00000000
_cell_angle_gamma   120.00000401
_symmetry_Int_Tables_number   1
_chemical_formula_structural   Dy3Mg2Ag3C
_chemical_formula_sum   'Dy6 Mg4 Ag6 C2'
_cell_volume   376.60452779
_cell_formula_units_Z   2
loop_
 _symmetry_equiv_pos_site_id
 _symmetry_equiv_pos_as_xyz
  1  'x, y, z'
loop_
 _atom_site_type_symbol
 _atom_site_label
 _atom_site_symmetry_multiplicity
 _atom_site_fract_x
 _atom_site_fract_y
 _atom_site_fract_z
 _atom_site_occupancy
  Dy  Dy0  1  0.773354  0.773354  0.750000  1
  Dy  Dy1  1  0.226646  0.000000  0.750000  1
  Dy  Dy2  1  0.000000  0.226646  0.750000  1
  Dy  Dy3  1  0.226646  0.226646  0.250000  1
  Dy  Dy4  1  0.773354  0.000000  0.250000  1
  Dy  Dy5  1  0.000000  0.773354  0.250000  1
  Mg  Mg6  1  0.666667  0.333333  0.000000  1
  Mg  Mg7  1  0.333333  0.666667  0.000000  1
  Mg  Mg8  1  0.333333  0.666667  0.500000  1
  Mg  Mg9  1  0.666667  0.333333  0.500000  1
  Ag  Ag10  1  0.414816  0.414816  0.750000  1
  Ag  Ag11  1  0.585184  0.000000  0.750000  1
  Ag  Ag12  1  0.000000  0.585184  0.750000  1
  Ag  Ag13  1  0.585184  0.585184  0.250000  1
  Ag  Ag14  1  0.414816  0.000000  0.250000  1
  Ag  Ag15  1  0.000000  0.414816  0.250000  1
  C  C16  1  0.000000  0.000000  0.000000  1
  C  C17  1  0.000000  0.000000  0.500000  1
