# generated using pymatgen
data_YbBeB14
_symmetry_space_group_name_H-M   'P 1'
_cell_length_a   7.20632474
_cell_length_b   7.20632427
_cell_length_c   7.20632409
_cell_angle_alpha   133.04039813
_cell_angle_beta   110.36103627
_cell_angle_gamma   88.25515906
_symmetry_Int_Tables_number   1
_chemical_formula_structural   YbBeB14
_chemical_formula_sum   'Yb2 Be2 B28'
_cell_volume   244.44296505
_cell_formula_units_Z   2
loop_
 _symmetry_equiv_pos_site_id
 _symmetry_equiv_pos_as_xyz
  1  'x, y, z'
loop_
 _atom_site_type_symbol
 _atom_site_label
 _atom_site_symmetry_multiplicity
 _atom_site_fract_x
 _atom_site_fract_y
 _atom_site_fract_z
 _atom_site_occupancy
  Yb  Yb0  1  0.608239  0.250000  0.358239  1
  Yb  Yb1  1  0.391761  0.750000  0.641761  1
  Be  Be2  1  0.000000  0.000000  0.500000  1
  Be  Be3  1  0.000000  0.500000  0.000000  1
  B  B4  1  0.633826  0.665739  0.968087  1
  B  B5  1  0.366174  0.334261  0.031913  1
  B  B6  1  0.197652  0.165739  0.031913  1
  B  B7  1  0.802348  0.834261  0.968087  1
  B  B8  1  0.790358  0.155874  0.634482  1
  B  B9  1  0.209642  0.844126  0.365518  1
  B  B10  1  0.021392  0.655874  0.365518  1
  B  B11  1  0.978608  0.344126  0.634482  1
  B  B12  1  0.921592  0.089950  0.831642  1
  B  B13  1  0.078408  0.910050  0.168358  1
  B  B14  1  0.758310  0.589950  0.168358  1
  B  B15  1  0.241690  0.410050  0.831642  1
  B  B16  1  0.397659  0.396842  0.677889  1
  B  B17  1  0.602341  0.280230  0.999184  1
  B  B18  1  0.218953  0.896842  0.999184  1
  B  B19  1  0.781047  0.780230  0.677889  1
  B  B20  1  0.602341  0.603158  0.322111  1
  B  B21  1  0.397659  0.719770  0.000816  1
  B  B22  1  0.781047  0.103158  0.000816  1
  B  B23  1  0.218953  0.219770  0.322111  1
  B  B24  1  0.033876  0.826747  0.699079  1
  B  B25  1  0.966124  0.665202  0.792870  1
  B  B26  1  0.627668  0.326747  0.792870  1
  B  B27  1  0.372332  0.165202  0.699079  1
  B  B28  1  0.966124  0.173253  0.300921  1
  B  B29  1  0.033876  0.334798  0.207130  1
  B  B30  1  0.372332  0.673253  0.207130  1
  B  B31  1  0.627668  0.834798  0.300921  1
