# generated using pymatgen
data_TbPr19Si15As
_symmetry_space_group_name_H-M   'P 1'
_cell_length_a   7.92660030
_cell_length_b   7.92350091
_cell_length_c   15.31594500
_cell_angle_alpha   89.97172632
_cell_angle_beta   89.61570499
_cell_angle_gamma   90.11475373
_symmetry_Int_Tables_number   1
_chemical_formula_structural   TbPr19Si15As
_chemical_formula_sum   'Tb1 Pr19 Si15 As1'
_cell_volume   961.91605556
_cell_formula_units_Z   1
loop_
 _symmetry_equiv_pos_site_id
 _symmetry_equiv_pos_as_xyz
  1  'x, y, z'
loop_
 _atom_site_type_symbol
 _atom_site_label
 _atom_site_symmetry_multiplicity
 _atom_site_fract_x
 _atom_site_fract_y
 _atom_site_fract_z
 _atom_site_occupancy
  Tb  Tb0  1  0.312258  0.311292  0.999739  1
  Pr  Pr1  1  0.189419  0.808974  0.249551  1
  Pr  Pr2  1  0.804694  0.189515  0.751652  1
  Pr  Pr3  1  0.689737  0.689801  0.497621  1
  Pr  Pr4  1  0.379143  0.009471  0.445670  1
  Pr  Pr5  1  0.490147  0.876266  0.698170  1
  Pr  Pr6  1  0.510118  0.122781  0.196377  1
  Pr  Pr7  1  0.877089  0.487365  0.301157  1
  Pr  Pr8  1  0.123600  0.510305  0.804169  1
  Pr  Pr9  1  0.624687  0.987839  0.948268  1
  Pr  Pr10  1  0.005927  0.378358  0.551622  1
  Pr  Pr11  1  0.988730  0.621495  0.052649  1
  Pr  Pr12  1  0.130325  0.983965  0.876448  1
  Pr  Pr13  1  0.519173  0.628809  0.125539  1
  Pr  Pr14  1  0.480191  0.372370  0.628478  1
  Pr  Pr15  1  0.629120  0.519363  0.874670  1
  Pr  Pr16  1  0.371461  0.479936  0.373190  1
  Pr  Pr17  1  0.873428  0.019566  0.376836  1
  Pr  Pr18  1  0.981083  0.127508  0.123164  1
  Pr  Pr19  1  0.017726  0.872129  0.623232  1
  Si  Si20  1  0.330091  0.693343  0.952975  1
  Si  Si21  1  0.665661  0.304140  0.453003  1
  Si  Si22  1  0.694784  0.331681  0.047528  1
  Si  Si23  1  0.303891  0.667767  0.548384  1
  Si  Si24  1  0.804200  0.832104  0.202710  1
  Si  Si25  1  0.167987  0.195990  0.295988  1
  Si  Si26  1  0.835950  0.803264  0.797653  1
  Si  Si27  1  0.288955  0.925243  0.058706  1
  Si  Si28  1  0.577317  0.788240  0.308966  1
  Si  Si29  1  0.430200  0.211823  0.817825  1
  Si  Si30  1  0.788624  0.578445  0.689742  1
  Si  Si31  1  0.213501  0.420076  0.187031  1
  Si  Si32  1  0.707166  0.076904  0.560579  1
  Si  Si33  1  0.927560  0.290017  0.941088  1
  Si  Si34  1  0.078795  0.711874  0.440361  1
  As  As35  1  0.187263  0.171979  0.699255  1
