# generated using pymatgen
data_Nb12AlSi(Au3N2)2
_symmetry_space_group_name_H-M   'P 1'
_cell_length_a   7.13804021
_cell_length_b   7.13517043
_cell_length_c   7.12385135
_cell_angle_alpha   89.82638165
_cell_angle_beta   90.01498020
_cell_angle_gamma   89.87490418
_symmetry_Int_Tables_number   1
_chemical_formula_structural   Nb12AlSi(Au3N2)2
_chemical_formula_sum   'Nb12 Al1 Si1 Au6 N4'
_cell_volume   362.82328083
_cell_formula_units_Z   1
loop_
 _symmetry_equiv_pos_site_id
 _symmetry_equiv_pos_as_xyz
  1  'x, y, z'
loop_
 _atom_site_type_symbol
 _atom_site_label
 _atom_site_symmetry_multiplicity
 _atom_site_fract_x
 _atom_site_fract_y
 _atom_site_fract_z
 _atom_site_occupancy
  Nb  Nb0  1  0.787001  0.954514  0.374247  1
  Nb  Nb1  1  0.708149  0.042353  0.876651  1
  Nb  Nb2  1  0.213488  0.456649  0.126515  1
  Nb  Nb3  1  0.289581  0.542631  0.622264  1
  Nb  Nb4  1  0.954656  0.380730  0.783527  1
  Nb  Nb5  1  0.044696  0.879705  0.713278  1
  Nb  Nb6  1  0.459674  0.128225  0.208505  1
  Nb  Nb7  1  0.542182  0.627576  0.292544  1
  Nb  Nb8  1  0.374224  0.788142  0.956280  1
  Nb  Nb9  1  0.873946  0.709289  0.042281  1
  Nb  Nb10  1  0.125571  0.212409  0.458880  1
  Nb  Nb11  1  0.626363  0.288735  0.543254  1
  Al  Al12  1  0.068182  0.069207  0.074417  1
  Si  Si13  1  0.932122  0.568002  0.425615  1
  Au  Au14  1  0.167186  0.816023  0.312622  1
  Au  Au15  1  0.302750  0.179651  0.829219  1
  Au  Au16  1  0.832473  0.317197  0.188771  1
  Au  Au17  1  0.697958  0.679440  0.670322  1
  Au  Au18  1  0.569105  0.432921  0.933766  1
  Au  Au19  1  0.430413  0.933341  0.566208  1
  N  N20  1  0.872928  0.122184  0.625251  1
  N  N21  1  0.619817  0.874176  0.123422  1
  N  N22  1  0.127058  0.622648  0.874993  1
  N  N23  1  0.380476  0.374252  0.377167  1
