# generated using pymatgen
data_Dy2Y8Ru3Rh
_symmetry_space_group_name_H-M   'P 1'
_cell_length_a   8.54337445
_cell_length_b   8.55587794
_cell_length_c   7.30881102
_cell_angle_alpha   83.28179185
_cell_angle_beta   83.26085561
_cell_angle_gamma   43.88998976
_symmetry_Int_Tables_number   1
_chemical_formula_structural   Dy2Y8Ru3Rh
_chemical_formula_sum   'Dy2 Y8 Ru3 Rh1'
_cell_volume   367.41246408
_cell_formula_units_Z   1
loop_
 _symmetry_equiv_pos_site_id
 _symmetry_equiv_pos_as_xyz
  1  'x, y, z'
loop_
 _atom_site_type_symbol
 _atom_site_label
 _atom_site_symmetry_multiplicity
 _atom_site_fract_x
 _atom_site_fract_y
 _atom_site_fract_z
 _atom_site_occupancy
  Dy  Dy0  1  0.577673  0.422548  0.750596  1
  Dy  Dy1  1  0.424451  0.577149  0.247815  1
  Y  Y2  1  0.207992  0.980520  0.584821  1
  Y  Y3  1  0.021659  0.793745  0.917355  1
  Y  Y4  1  0.208102  0.355226  0.313591  1
  Y  Y5  1  0.644228  0.791300  0.184996  1
  Y  Y6  1  0.789104  0.643798  0.685166  1
  Y  Y7  1  0.357932  0.205393  0.817055  1
  Y  Y8  1  0.978676  0.207180  0.084918  1
  Y  Y9  1  0.791088  0.023879  0.414021  1
  Ru  Ru10  1  0.396193  0.822136  0.924512  1
  Ru  Ru11  1  0.822336  0.397300  0.426095  1
  Ru  Ru12  1  0.601280  0.179746  0.074522  1
  Rh  Rh13  1  0.179287  0.600080  0.574540  1
