# generated using pymatgen
data_PrAl8SiAu4
_symmetry_space_group_name_H-M   'P 1'
_cell_length_a   6.09713111
_cell_length_b   6.09713139
_cell_length_c   14.93130281
_cell_angle_alpha   101.78108254
_cell_angle_beta   101.78108472
_cell_angle_gamma   89.99999662
_symmetry_Int_Tables_number   1
_chemical_formula_structural   PrAl8SiAu4
_chemical_formula_sum   'Pr2 Al16 Si2 Au8'
_cell_volume   531.42880094
_cell_formula_units_Z   2
loop_
 _symmetry_equiv_pos_site_id
 _symmetry_equiv_pos_as_xyz
  1  'x, y, z'
loop_
 _atom_site_type_symbol
 _atom_site_label
 _atom_site_symmetry_multiplicity
 _atom_site_fract_x
 _atom_site_fract_y
 _atom_site_fract_z
 _atom_site_occupancy
  Pr  Pr0  1  0.750001  0.250000  0.500000  1
  Pr  Pr1  1  0.250000  0.750001  0.500000  1
  Al  Al2  1  0.302203  0.302203  0.105726  1
  Al  Al3  1  0.803523  0.302203  0.105726  1
  Al  Al4  1  0.302203  0.803523  0.105726  1
  Al  Al5  1  0.803523  0.803523  0.105726  1
  Al  Al6  1  0.404616  0.404616  0.313665  1
  Al  Al7  1  0.909048  0.404616  0.313665  1
  Al  Al8  1  0.404616  0.909048  0.313665  1
  Al  Al9  1  0.909048  0.909048  0.313665  1
  Al  Al10  1  0.090951  0.090951  0.686335  1
  Al  Al11  1  0.595384  0.090951  0.686335  1
  Al  Al12  1  0.090951  0.595384  0.686335  1
  Al  Al13  1  0.595384  0.595384  0.686335  1
  Al  Al14  1  0.196478  0.196478  0.894274  1
  Al  Al15  1  0.697796  0.196478  0.894274  1
  Al  Al16  1  0.196478  0.697796  0.894274  1
  Al  Al17  1  0.697796  0.697796  0.894274  1
  Si  Si18  1  0.207540  0.207540  0.415080  1
  Si  Si19  1  0.792460  0.792460  0.584921  1
  Au  Au20  1  0.000000  0.000000  0.000000  1
  Au  Au21  1  0.500001  0.500001  0.000000  1
  Au  Au22  1  0.605366  0.105366  0.210730  1
  Au  Au23  1  0.105366  0.605366  0.210730  1
  Au  Au24  1  0.706094  0.706094  0.412186  1
  Au  Au25  1  0.293907  0.293907  0.587814  1
  Au  Au26  1  0.894635  0.394634  0.789269  1
  Au  Au27  1  0.394634  0.894635  0.789269  1
