# generated using pymatgen
data_TbSmTh2(CBr)2
_symmetry_space_group_name_H-M   'P 1'
_cell_length_a   3.70703400
_cell_length_b   3.70703383
_cell_length_c   15.06359300
_cell_angle_alpha   90.00000000
_cell_angle_beta   90.00000000
_cell_angle_gamma   119.99998365
_symmetry_Int_Tables_number   1
_chemical_formula_structural   TbSmTh2(CBr)2
_chemical_formula_sum   'Tb1 Sm1 Th2 C2 Br2'
_cell_volume   179.27197176
_cell_formula_units_Z   1
loop_
 _symmetry_equiv_pos_site_id
 _symmetry_equiv_pos_as_xyz
  1  'x, y, z'
loop_
 _atom_site_type_symbol
 _atom_site_label
 _atom_site_symmetry_multiplicity
 _atom_site_fract_x
 _atom_site_fract_y
 _atom_site_fract_z
 _atom_site_occupancy
  Tb  Tb0  1  0.333333  0.666667  0.905258  1
  Sm  Sm1  1  0.333333  0.666667  0.597133  1
  Th  Th2  1  0.666667  0.333333  0.412966  1
  Th  Th3  1  0.666667  0.333333  0.085796  1
  C  C4  1  0.000000  0.000000  0.989302  1
  C  C5  1  0.000000  0.000000  0.506679  1
  Br  Br6  1  0.333333  0.666667  0.248859  1
  Br  Br7  1  0.666667  0.333333  0.754008  1
