# generated using pymatgen
data_SrCa3(PPt3)8
_symmetry_space_group_name_H-M   'P 1'
_cell_length_a   8.55071250
_cell_length_b   8.55071298
_cell_length_c   8.55071300
_cell_angle_alpha   89.93503668
_cell_angle_beta   89.93503668
_cell_angle_gamma   89.93503677
_symmetry_Int_Tables_number   1
_chemical_formula_structural   SrCa3(PPt3)8
_chemical_formula_sum   'Sr1 Ca3 P8 Pt24'
_cell_volume   625.18151134
_cell_formula_units_Z   1
loop_
 _symmetry_equiv_pos_site_id
 _symmetry_equiv_pos_as_xyz
  1  'x, y, z'
loop_
 _atom_site_type_symbol
 _atom_site_label
 _atom_site_symmetry_multiplicity
 _atom_site_fract_x
 _atom_site_fract_y
 _atom_site_fract_z
 _atom_site_occupancy
  Sr  Sr0  1  0.000000  0.000000  0.000000  1
  Ca  Ca1  1  0.500000  0.500000  0.000000  1
  Ca  Ca2  1  0.500000  0.000000  0.500000  1
  Ca  Ca3  1  0.000000  0.500000  0.500000  1
  P  P4  1  0.804371  0.305035  0.194040  1
  P  P5  1  0.194040  0.804371  0.305035  1
  P  P6  1  0.694411  0.694411  0.694411  1
  P  P7  1  0.305035  0.194040  0.804371  1
  P  P8  1  0.195629  0.694965  0.805960  1
  P  P9  1  0.805960  0.195629  0.694965  1
  P  P10  1  0.305589  0.305589  0.305589  1
  P  P11  1  0.694965  0.805960  0.195629  1
  Pt  Pt12  1  0.422674  0.841251  0.157806  1
  Pt  Pt13  1  0.576633  0.342210  0.342464  1
  Pt  Pt14  1  0.075735  0.160982  0.654606  1
  Pt  Pt15  1  0.923293  0.655366  0.839818  1
  Pt  Pt16  1  0.157806  0.422674  0.841251  1
  Pt  Pt17  1  0.342464  0.576633  0.342210  1
  Pt  Pt18  1  0.654606  0.075735  0.160982  1
  Pt  Pt19  1  0.839818  0.923293  0.655366  1
  Pt  Pt20  1  0.841251  0.157806  0.422674  1
  Pt  Pt21  1  0.342210  0.342464  0.576633  1
  Pt  Pt22  1  0.160982  0.654606  0.075735  1
  Pt  Pt23  1  0.655366  0.839818  0.923293  1
  Pt  Pt24  1  0.577326  0.158749  0.842194  1
  Pt  Pt25  1  0.423367  0.657790  0.657536  1
  Pt  Pt26  1  0.924265  0.839018  0.345394  1
  Pt  Pt27  1  0.076707  0.344634  0.160182  1
  Pt  Pt28  1  0.842194  0.577326  0.158749  1
  Pt  Pt29  1  0.657536  0.423367  0.657790  1
  Pt  Pt30  1  0.345394  0.924265  0.839018  1
  Pt  Pt31  1  0.160182  0.076707  0.344634  1
  Pt  Pt32  1  0.158749  0.842194  0.577326  1
  Pt  Pt33  1  0.657790  0.657536  0.423367  1
  Pt  Pt34  1  0.839018  0.345394  0.924265  1
  Pt  Pt35  1  0.344634  0.160182  0.076707  1
