# generated using pymatgen
data_DyHoMnCoOs2
_symmetry_space_group_name_H-M   'P 1'
_cell_length_a   5.23265292
_cell_length_b   5.23851805
_cell_length_c   5.23851780
_cell_angle_alpha   59.15628832
_cell_angle_beta   61.15860554
_cell_angle_gamma   61.15859798
_symmetry_Int_Tables_number   1
_chemical_formula_structural   DyHoMnCoOs2
_chemical_formula_sum   'Dy1 Ho1 Mn1 Co1 Os2'
_cell_volume   102.58274007
_cell_formula_units_Z   1
loop_
 _symmetry_equiv_pos_site_id
 _symmetry_equiv_pos_as_xyz
  1  'x, y, z'
loop_
 _atom_site_type_symbol
 _atom_site_label
 _atom_site_symmetry_multiplicity
 _atom_site_fract_x
 _atom_site_fract_y
 _atom_site_fract_z
 _atom_site_occupancy
  Dy  Dy0  1  0.249136  0.248610  0.248610  1
  Ho  Ho1  1  0.000639  0.001526  0.001526  1
  Mn  Mn2  1  0.625168  0.624977  0.624977  1
  Co  Co3  1  0.124921  0.624949  0.624949  1
  Os  Os4  1  0.625068  0.625026  0.124911  1
  Os  Os5  1  0.625068  0.124911  0.625026  1
