# generated using pymatgen
data_Nd7Sm3Si16Ge
_symmetry_space_group_name_H-M   'P 1'
_cell_length_a   11.26681351
_cell_length_b   11.26688057
_cell_length_c   11.26810300
_cell_angle_alpha   144.72119886
_cell_angle_beta   135.53301584
_cell_angle_gamma   57.99225945
_symmetry_Int_Tables_number   1
_chemical_formula_structural   Nd7Sm3Si16Ge
_chemical_formula_sum   'Nd7 Sm3 Si16 Ge1'
_cell_volume   573.79980889
_cell_formula_units_Z   1
loop_
 _symmetry_equiv_pos_site_id
 _symmetry_equiv_pos_as_xyz
  1  'x, y, z'
loop_
 _atom_site_type_symbol
 _atom_site_label
 _atom_site_symmetry_multiplicity
 _atom_site_fract_x
 _atom_site_fract_y
 _atom_site_fract_z
 _atom_site_occupancy
  Nd  Nd0  1  0.754251  0.761852  0.516141  1
  Nd  Nd1  1  0.448383  0.964476  0.013923  1
  Nd  Nd2  1  0.848559  0.366025  0.014129  1
  Nd  Nd3  1  0.951110  0.965183  0.516208  1
  Nd  Nd4  1  0.152018  0.166974  0.519780  1
  Nd  Nd5  1  0.351060  0.365529  0.517381  1
  Nd  Nd6  1  0.245174  0.761072  0.007204  1
  Sm  Sm7  1  0.548267  0.562485  0.509472  1
  Sm  Sm8  1  0.053849  0.563198  0.014723  1
  Sm  Sm9  1  0.647263  0.167142  0.015225  1
  Si  Si10  1  0.200186  0.589494  0.389658  1
  Si  Si11  1  0.997450  0.084281  0.085011  1
  Si  Si12  1  0.700656  0.294686  0.593709  1
  Si  Si13  1  0.799956  0.193331  0.390198  1
  Si  Si14  1  0.895213  0.505203  0.608032  1
  Si  Si15  1  0.413429  0.860936  0.450104  1
  Si  Si16  1  0.103082  0.706706  0.602966  1
  Si  Si17  1  0.301647  0.896950  0.598025  1
  Si  Si18  1  0.588401  0.035662  0.447045  1
  Si  Si19  1  0.998349  0.430733  0.430270  1
  Si  Si20  1  0.881437  0.839525  0.955340  1
  Si  Si21  1  0.401078  0.500611  0.102715  1
  Si  Si22  1  0.112206  0.063441  0.950626  1
  Si  Si23  1  0.290052  0.241145  0.952316  1
  Si  Si24  1  0.501048  0.402040  0.903833  1
  Si  Si25  1  0.599821  0.700396  0.100821  1
  Ge  Ge26  1  0.716056  0.672416  0.956646  1
