# generated using pymatgen
data_Zr2Sc2VCo6Si
_symmetry_space_group_name_H-M   'P 1'
_cell_length_a   5.08095000
_cell_length_b   5.08094883
_cell_length_c   7.55222800
_cell_angle_alpha   90.00000000
_cell_angle_beta   90.00000000
_cell_angle_gamma   119.99999461
_symmetry_Int_Tables_number   1
_chemical_formula_structural   Zr2Sc2VCo6Si
_chemical_formula_sum   'Zr2 Sc2 V1 Co6 Si1'
_cell_volume   168.84783261
_cell_formula_units_Z   1
loop_
 _symmetry_equiv_pos_site_id
 _symmetry_equiv_pos_as_xyz
  1  'x, y, z'
loop_
 _atom_site_type_symbol
 _atom_site_label
 _atom_site_symmetry_multiplicity
 _atom_site_fract_x
 _atom_site_fract_y
 _atom_site_fract_z
 _atom_site_occupancy
  Zr  Zr0  1  0.333333  0.666667  0.569388  1
  Zr  Zr1  1  0.666667  0.333333  0.430612  1
  Sc  Sc2  1  0.666667  0.333333  0.047923  1
  Sc  Sc3  1  0.333333  0.666667  0.952077  1
  V  V4  1  0.000000  0.000000  0.500000  1
  Co  Co5  1  0.831775  0.168225  0.747202  1
  Co  Co6  1  0.663552  0.831775  0.252798  1
  Co  Co7  1  0.168225  0.831775  0.252798  1
  Co  Co8  1  0.831775  0.663552  0.747202  1
  Co  Co9  1  0.168225  0.336448  0.252798  1
  Co  Co10  1  0.336448  0.168225  0.747202  1
  Si  Si11  1  0.000000  0.000000  0.000000  1
