# generated using pymatgen
data_Li2HfMgPt4
_symmetry_space_group_name_H-M   'P 1'
_cell_length_a   4.20584400
_cell_length_b   6.97268000
_cell_length_c   12.64012300
_cell_angle_alpha   90.00000000
_cell_angle_beta   89.99998640
_cell_angle_gamma   90.00000000
_symmetry_Int_Tables_number   1
_chemical_formula_structural   Li2HfMgPt4
_chemical_formula_sum   'Li6 Hf3 Mg3 Pt12'
_cell_volume   370.68430198
_cell_formula_units_Z   3
loop_
 _symmetry_equiv_pos_site_id
 _symmetry_equiv_pos_as_xyz
  1  'x, y, z'
loop_
 _atom_site_type_symbol
 _atom_site_label
 _atom_site_symmetry_multiplicity
 _atom_site_fract_x
 _atom_site_fract_y
 _atom_site_fract_z
 _atom_site_occupancy
  Li  Li0  1  0.999999  0.000000  0.011204  1
  Li  Li1  1  0.500002  0.499999  0.166666  1
  Li  Li2  1  0.000000  0.000000  0.322130  1
  Li  Li3  1  0.500000  0.499999  0.489028  1
  Li  Li4  1  0.000000  0.000000  0.666665  1
  Li  Li5  1  0.500003  0.499999  0.844305  1
  Hf  Hf6  1  0.500000  0.000000  0.492444  1
  Hf  Hf7  1  0.999998  0.499999  0.666665  1
  Hf  Hf8  1  0.499999  0.000000  0.840889  1
  Mg  Mg9  1  0.999999  0.499999  0.004974  1
  Mg  Mg10  1  0.500000  0.000000  0.166666  1
  Mg  Mg11  1  0.000001  0.499999  0.328357  1
  Pt  Pt12  1  0.499999  0.249626  0.003213  1
  Pt  Pt13  1  0.499999  0.750374  0.003213  1
  Pt  Pt14  1  0.000001  0.250551  0.166669  1
  Pt  Pt15  1  0.000001  0.749449  0.166669  1
  Pt  Pt16  1  0.500002  0.249625  0.330117  1
  Pt  Pt17  1  0.500002  0.750375  0.330117  1
  Pt  Pt18  1  0.000000  0.251983  0.496349  1
  Pt  Pt19  1  0.000000  0.748017  0.496349  1
  Pt  Pt20  1  0.499998  0.248161  0.666671  1
  Pt  Pt21  1  0.499998  0.751839  0.666671  1
  Pt  Pt22  1  0.999999  0.251978  0.836984  1
  Pt  Pt23  1  0.999999  0.748022  0.836984  1
