# generated using pymatgen
data_HoTmCSe
_symmetry_space_group_name_H-M   'P 1'
_cell_length_a   6.86660629
_cell_length_b   6.86660559
_cell_length_c   6.86660605
_cell_angle_alpha   31.54412419
_cell_angle_beta   31.54413031
_cell_angle_gamma   31.54413582
_symmetry_Int_Tables_number   1
_chemical_formula_structural   HoTmCSe
_chemical_formula_sum   'Ho1 Tm1 C1 Se1'
_cell_volume   78.67416957
_cell_formula_units_Z   1
loop_
 _symmetry_equiv_pos_site_id
 _symmetry_equiv_pos_as_xyz
  1  'x, y, z'
loop_
 _atom_site_type_symbol
 _atom_site_label
 _atom_site_symmetry_multiplicity
 _atom_site_fract_x
 _atom_site_fract_y
 _atom_site_fract_z
 _atom_site_occupancy
  Ho  Ho0  1  0.983430  0.983430  0.983430  1
  Tm  Tm1  1  0.516124  0.516124  0.516124  1
  C  C2  1  0.249408  0.249408  0.249408  1
  Se  Se3  1  0.751039  0.751039  0.751039  1
