# generated using pymatgen
data_La8Si11AgPt4
_symmetry_space_group_name_H-M   'P 1'
_cell_length_a   8.35649204
_cell_length_b   8.35649223
_cell_length_c   8.79731900
_cell_angle_alpha   90.00547829
_cell_angle_beta   89.99451485
_cell_angle_gamma   119.86122991
_symmetry_Int_Tables_number   1
_chemical_formula_structural   La8Si11AgPt4
_chemical_formula_sum   'La8 Si11 Ag1 Pt4'
_cell_volume   532.76364418
_cell_formula_units_Z   1
loop_
 _symmetry_equiv_pos_site_id
 _symmetry_equiv_pos_as_xyz
  1  'x, y, z'
loop_
 _atom_site_type_symbol
 _atom_site_label
 _atom_site_symmetry_multiplicity
 _atom_site_fract_x
 _atom_site_fract_y
 _atom_site_fract_z
 _atom_site_occupancy
  La  La0  1  0.996120  0.003880  0.246947  1
  La  La1  1  0.995929  0.004071  0.753038  1
  La  La2  1  0.500788  0.499212  0.250640  1
  La  La3  1  0.502790  0.001018  0.252235  1
  La  La4  1  0.998982  0.497210  0.252235  1
  La  La5  1  0.499973  0.500027  0.749129  1
  La  La6  1  0.502540  0.999969  0.747791  1
  La  La7  1  0.000031  0.497460  0.747791  1
  Si  Si8  1  0.163853  0.328714  0.500521  1
  Si  Si9  1  0.671286  0.836147  0.500521  1
  Si  Si10  1  0.833951  0.166049  0.499641  1
  Si  Si11  1  0.824674  0.663188  0.499912  1
  Si  Si12  1  0.336812  0.175326  0.499912  1
  Si  Si13  1  0.834940  0.165060  0.001184  1
  Si  Si14  1  0.835299  0.668981  0.001025  1
  Si  Si15  1  0.331019  0.164701  0.001025  1
  Si  Si16  1  0.165744  0.834256  0.998661  1
  Si  Si17  1  0.167009  0.332364  0.998816  1
  Si  Si18  1  0.667636  0.832991  0.998816  1
  Ag  Ag19  1  0.158781  0.841219  0.500452  1
  Pt  Pt20  1  0.344267  0.655733  0.498295  1
  Pt  Pt21  1  0.667153  0.332847  0.500942  1
  Pt  Pt22  1  0.667414  0.332586  0.998148  1
  Pt  Pt23  1  0.333008  0.666992  0.002325  1
