# generated using pymatgen
data_Ho3ZrSn2Ir3
_symmetry_space_group_name_H-M   'P 1'
_cell_length_a   7.36623684
_cell_length_b   7.36623585
_cell_length_c   4.18736900
_cell_angle_alpha   90.00000000
_cell_angle_beta   90.00000000
_cell_angle_gamma   121.03737169
_symmetry_Int_Tables_number   1
_chemical_formula_structural   Ho3ZrSn2Ir3
_chemical_formula_sum   'Ho3 Zr1 Sn2 Ir3'
_cell_volume   194.68289409
_cell_formula_units_Z   1
loop_
 _symmetry_equiv_pos_site_id
 _symmetry_equiv_pos_as_xyz
  1  'x, y, z'
loop_
 _atom_site_type_symbol
 _atom_site_label
 _atom_site_symmetry_multiplicity
 _atom_site_fract_x
 _atom_site_fract_y
 _atom_site_fract_z
 _atom_site_occupancy
  Ho  Ho0  1  0.394001  0.394001  0.500000  1
  Ho  Ho1  1  0.590296  0.006017  0.500000  1
  Ho  Ho2  1  0.006017  0.590296  0.500000  1
  Zr  Zr3  1  0.749640  0.749640  0.000000  1
  Sn  Sn4  1  0.254271  0.998468  0.000000  1
  Sn  Sn5  1  0.998468  0.254271  0.000000  1
  Ir  Ir6  1  0.672543  0.348825  0.000000  1
  Ir  Ir7  1  0.348825  0.672543  0.000000  1
  Ir  Ir8  1  0.985939  0.985939  0.500000  1
