# generated using pymatgen
data_AcLuP7Ru12
_symmetry_space_group_name_H-M   'P 1'
_cell_length_a   9.50511300
_cell_length_b   9.50511334
_cell_length_c   3.96522600
_cell_angle_alpha   90.00000000
_cell_angle_beta   90.00000000
_cell_angle_gamma   119.99999535
_symmetry_Int_Tables_number   1
_chemical_formula_structural   AcLuP7Ru12
_chemical_formula_sum   'Ac1 Lu1 P7 Ru12'
_cell_volume   310.25099365
_cell_formula_units_Z   1
loop_
 _symmetry_equiv_pos_site_id
 _symmetry_equiv_pos_as_xyz
  1  'x, y, z'
loop_
 _atom_site_type_symbol
 _atom_site_label
 _atom_site_symmetry_multiplicity
 _atom_site_fract_x
 _atom_site_fract_y
 _atom_site_fract_z
 _atom_site_occupancy
  Ac  Ac0  1  0.333333  0.666667  0.000000  1
  Lu  Lu1  1  0.666667  0.333333  0.500000  1
  P  P2  1  0.611536  0.718232  0.500000  1
  P  P3  1  0.000000  0.000000  0.000000  1
  P  P4  1  0.281768  0.893303  0.500000  1
  P  P5  1  0.106697  0.388464  0.500000  1
  P  P6  1  0.887587  0.569535  0.000000  1
  P  P7  1  0.430465  0.318052  0.000000  1
  P  P8  1  0.681948  0.112413  0.000000  1
  Ru  Ru9  1  0.562499  0.962383  0.500000  1
  Ru  Ru10  1  0.399886  0.437501  0.500000  1
  Ru  Ru11  1  0.914400  0.117267  0.500000  1
  Ru  Ru12  1  0.202867  0.085600  0.500000  1
  Ru  Ru13  1  0.882733  0.797133  0.500000  1
  Ru  Ru14  1  0.729298  0.892620  0.000000  1
  Ru  Ru15  1  0.107380  0.836678  0.000000  1
  Ru  Ru16  1  0.163322  0.270702  0.000000  1
  Ru  Ru17  1  0.421563  0.073601  0.000000  1
  Ru  Ru18  1  0.926399  0.347963  0.000000  1
  Ru  Ru19  1  0.652037  0.578437  0.000000  1
  Ru  Ru20  1  0.037617  0.600114  0.500000  1
