# generated using pymatgen
data_Hf10Sn5B2Sb
_symmetry_space_group_name_H-M   'P 1'
_cell_length_a   8.49196443
_cell_length_b   8.49196384
_cell_length_c   5.74755100
_cell_angle_alpha   90.00000000
_cell_angle_beta   90.00000000
_cell_angle_gamma   120.07253352
_symmetry_Int_Tables_number   1
_chemical_formula_structural   Hf10Sn5B2Sb
_chemical_formula_sum   'Hf10 Sn5 B2 Sb1'
_cell_volume   358.68389709
_cell_formula_units_Z   1
loop_
 _symmetry_equiv_pos_site_id
 _symmetry_equiv_pos_as_xyz
  1  'x, y, z'
loop_
 _atom_site_type_symbol
 _atom_site_label
 _atom_site_symmetry_multiplicity
 _atom_site_fract_x
 _atom_site_fract_y
 _atom_site_fract_z
 _atom_site_occupancy
  Hf  Hf0  1  0.665678  0.333090  0.999837  1
  Hf  Hf1  1  0.333090  0.665678  0.999837  1
  Hf  Hf2  1  0.333090  0.665678  0.500163  1
  Hf  Hf3  1  0.665678  0.333090  0.500163  1
  Hf  Hf4  1  0.772108  0.772108  0.750000  1
  Hf  Hf5  1  0.228002  0.999719  0.750000  1
  Hf  Hf6  1  0.999719  0.228002  0.750000  1
  Hf  Hf7  1  0.229326  0.229326  0.250000  1
  Hf  Hf8  1  0.772346  0.000255  0.250000  1
  Hf  Hf9  1  0.000255  0.772346  0.250000  1
  Sn  Sn10  1  0.600346  0.999547  0.750000  1
  Sn  Sn11  1  0.999547  0.600346  0.750000  1
  Sn  Sn12  1  0.601240  0.601240  0.250000  1
  Sn  Sn13  1  0.399463  0.999704  0.250000  1
  Sn  Sn14  1  0.999704  0.399463  0.250000  1
  B  B15  1  0.000185  0.000185  0.000454  1
  B  B16  1  0.000185  0.000185  0.499546  1
  Sb  Sb17  1  0.400038  0.400038  0.750000  1
