# generated using pymatgen
data_Ta12AlGa6Ge(RhC)4
_symmetry_space_group_name_H-M   'P 1'
_cell_length_a   8.31217720
_cell_length_b   8.31217857
_cell_length_c   8.31217700
_cell_angle_alpha   60.00315411
_cell_angle_beta   60.00314866
_cell_angle_gamma   60.00315220
_symmetry_Int_Tables_number   1
_chemical_formula_structural   Ta12AlGa6Ge(RhC)4
_chemical_formula_sum   'Ta12 Al1 Ga6 Ge1 Rh4 C4'
_cell_volume   406.12570031
_cell_formula_units_Z   1
loop_
 _symmetry_equiv_pos_site_id
 _symmetry_equiv_pos_as_xyz
  1  'x, y, z'
loop_
 _atom_site_type_symbol
 _atom_site_label
 _atom_site_symmetry_multiplicity
 _atom_site_fract_x
 _atom_site_fract_y
 _atom_site_fract_z
 _atom_site_occupancy
  Ta  Ta0  1  0.565384  0.934762  0.565384  1
  Ta  Ta1  1  0.315488  0.685061  0.685061  1
  Ta  Ta2  1  0.683702  0.315303  0.315303  1
  Ta  Ta3  1  0.315303  0.683702  0.315303  1
  Ta  Ta4  1  0.685061  0.685061  0.315488  1
  Ta  Ta5  1  0.315303  0.315303  0.683702  1
  Ta  Ta6  1  0.565384  0.565384  0.934762  1
  Ta  Ta7  1  0.934762  0.565384  0.565384  1
  Ta  Ta8  1  0.563995  0.935798  0.935798  1
  Ta  Ta9  1  0.935798  0.935798  0.563995  1
  Ta  Ta10  1  0.685061  0.315488  0.685061  1
  Ta  Ta11  1  0.935798  0.563995  0.935798  1
  Al  Al12  1  0.331909  0.331909  0.331909  1
  Ga  Ga13  1  0.994332  0.335256  0.335256  1
  Ga  Ga14  1  0.335256  0.994332  0.335256  1
  Ga  Ga15  1  0.335256  0.335256  0.994332  1
  Ga  Ga16  1  0.915271  0.257647  0.915271  1
  Ga  Ga17  1  0.915271  0.915271  0.257647  1
  Ga  Ga18  1  0.257647  0.915271  0.915271  1
  Ge  Ge19  1  0.913415  0.913415  0.913415  1
  Rh  Rh20  1  0.124994  0.124994  0.124994  1
  Rh  Rh21  1  0.627468  0.123880  0.123880  1
  Rh  Rh22  1  0.123880  0.627468  0.123880  1
  Rh  Rh23  1  0.123880  0.123880  0.627468  1
  C  C24  1  0.624883  0.624883  0.624883  1
  C  C25  1  0.124914  0.625294  0.625294  1
  C  C26  1  0.625294  0.124914  0.625294  1
  C  C27  1  0.625294  0.625294  0.124914  1
