# generated using pymatgen
data_Dy4Ho2ZrCo17P12
_symmetry_space_group_name_H-M   'P 1'
_cell_length_a   3.71591000
_cell_length_b   10.60884400
_cell_length_c   12.32276600
_cell_angle_alpha   90.00000000
_cell_angle_beta   90.00000000
_cell_angle_gamma   90.00000000
_symmetry_Int_Tables_number   1
_chemical_formula_structural   Dy4Ho2ZrCo17P12
_chemical_formula_sum   'Dy4 Ho2 Zr1 Co17 P12'
_cell_volume   485.78203703
_cell_formula_units_Z   1
loop_
 _symmetry_equiv_pos_site_id
 _symmetry_equiv_pos_as_xyz
  1  'x, y, z'
loop_
 _atom_site_type_symbol
 _atom_site_label
 _atom_site_symmetry_multiplicity
 _atom_site_fract_x
 _atom_site_fract_y
 _atom_site_fract_z
 _atom_site_occupancy
  Dy  Dy0  1  0.000000  0.500000  0.529442  1
  Dy  Dy1  1  0.500000  0.000000  0.477726  1
  Dy  Dy2  1  0.500000  0.821367  0.207460  1
  Dy  Dy3  1  0.500000  0.178633  0.207460  1
  Ho  Ho4  1  0.000000  0.683092  0.795887  1
  Ho  Ho5  1  0.000000  0.316908  0.795887  1
  Zr  Zr6  1  0.500000  0.500000  0.154331  1
  Co  Co7  1  0.000000  0.500000  0.982781  1
  Co  Co8  1  0.500000  0.000000  0.013259  1
  Co  Co9  1  0.500000  0.294202  0.435014  1
  Co  Co10  1  0.500000  0.705798  0.435014  1
  Co  Co11  1  0.000000  0.201946  0.570719  1
  Co  Co12  1  0.000000  0.798054  0.570719  1
  Co  Co13  1  0.500000  0.880260  0.707791  1
  Co  Co14  1  0.500000  0.119740  0.707791  1
  Co  Co15  1  0.000000  0.622685  0.298250  1
  Co  Co16  1  0.000000  0.377315  0.298250  1
  Co  Co17  1  0.500000  0.326925  0.987598  1
  Co  Co18  1  0.500000  0.673075  0.987598  1
  Co  Co19  1  0.000000  0.161261  0.001091  1
  Co  Co20  1  0.000000  0.838739  0.001091  1
  Co  Co21  1  0.000000  0.000000  0.836509  1
  Co  Co22  1  0.500000  0.500000  0.703041  1
  Co  Co23  1  0.000000  0.000000  0.296270  1
  P  P24  1  0.500000  0.308854  0.618330  1
  P  P25  1  0.500000  0.691146  0.618330  1
  P  P26  1  0.000000  0.188544  0.386838  1
  P  P27  1  0.000000  0.811456  0.386838  1
  P  P28  1  0.500000  0.500000  0.881098  1
  P  P29  1  0.000000  0.000000  0.116034  1
  P  P30  1  0.500000  0.852497  0.888370  1
  P  P31  1  0.500000  0.147503  0.888370  1
  P  P32  1  0.000000  0.665118  0.098920  1
  P  P33  1  0.000000  0.334882  0.098920  1
  P  P34  1  0.500000  0.500000  0.361875  1
  P  P35  1  0.000000  0.000000  0.655100  1
