# generated using pymatgen
data_Pr9Ho(Ga2Pb)2
_symmetry_space_group_name_H-M   'P 1'
_cell_length_a   8.56220100
_cell_length_b   8.56220100
_cell_length_c   13.15009700
_cell_angle_alpha   90.00000000
_cell_angle_beta   90.00000000
_cell_angle_gamma   90.00000000
_symmetry_Int_Tables_number   1
_chemical_formula_structural   Pr9Ho(Ga2Pb)2
_chemical_formula_sum   'Pr18 Ho2 Ga8 Pb4'
_cell_volume   964.05052163
_cell_formula_units_Z   2
loop_
 _symmetry_equiv_pos_site_id
 _symmetry_equiv_pos_as_xyz
  1  'x, y, z'
loop_
 _atom_site_type_symbol
 _atom_site_label
 _atom_site_symmetry_multiplicity
 _atom_site_fract_x
 _atom_site_fract_y
 _atom_site_fract_z
 _atom_site_occupancy
  Pr  Pr0  1  0.847326  0.838219  0.893434  1
  Pr  Pr1  1  0.159327  0.155610  0.604465  1
  Pr  Pr2  1  0.844390  0.159327  0.395535  1
  Pr  Pr3  1  0.155610  0.840673  0.395535  1
  Pr  Pr4  1  0.340673  0.344390  0.395535  1
  Pr  Pr5  1  0.838219  0.152674  0.106566  1
  Pr  Pr6  1  0.338219  0.652674  0.893434  1
  Pr  Pr7  1  0.161781  0.847326  0.106566  1
  Pr  Pr8  1  0.500000  0.000000  0.767889  1
  Pr  Pr9  1  0.000000  0.500000  0.232111  1
  Pr  Pr10  1  0.344390  0.659327  0.604465  1
  Pr  Pr11  1  0.652674  0.661781  0.106566  1
  Pr  Pr12  1  0.655610  0.340673  0.604465  1
  Pr  Pr13  1  0.840673  0.844390  0.604465  1
  Pr  Pr14  1  0.661781  0.347326  0.893434  1
  Pr  Pr15  1  0.152674  0.161781  0.893434  1
  Pr  Pr16  1  0.659327  0.655610  0.395535  1
  Pr  Pr17  1  0.347326  0.338219  0.106566  1
  Ho  Ho18  1  0.000000  0.500000  0.737007  1
  Ho  Ho19  1  0.500000  0.000000  0.262993  1
  Ga  Ga20  1  0.643161  0.353338  0.251931  1
  Ga  Ga21  1  0.356839  0.646662  0.251931  1
  Ga  Ga22  1  0.146662  0.143161  0.251931  1
  Ga  Ga23  1  0.353338  0.356839  0.748069  1
  Ga  Ga24  1  0.143161  0.853338  0.748069  1
  Ga  Ga25  1  0.853338  0.856839  0.251931  1
  Ga  Ga26  1  0.646662  0.643161  0.748069  1
  Ga  Ga27  1  0.856839  0.146662  0.748069  1
  Pb  Pb28  1  0.000000  0.500000  0.986523  1
  Pb  Pb29  1  0.500000  0.000000  0.013477  1
  Pb  Pb30  1  0.500000  0.000000  0.504415  1
  Pb  Pb31  1  0.000000  0.500000  0.495585  1
