# generated using pymatgen
data_HoTm5(Lu2Sn3)2
_symmetry_space_group_name_H-M   'P 1'
_cell_length_a   8.83614037
_cell_length_b   8.83614126
_cell_length_c   6.40630100
_cell_angle_alpha   90.00000000
_cell_angle_beta   90.00000000
_cell_angle_gamma   120.03295283
_symmetry_Int_Tables_number   1
_chemical_formula_structural   HoTm5(Lu2Sn3)2
_chemical_formula_sum   'Ho1 Tm5 Lu4 Sn6'
_cell_volume   433.03093531
_cell_formula_units_Z   1
loop_
 _symmetry_equiv_pos_site_id
 _symmetry_equiv_pos_as_xyz
  1  'x, y, z'
loop_
 _atom_site_type_symbol
 _atom_site_label
 _atom_site_symmetry_multiplicity
 _atom_site_fract_x
 _atom_site_fract_y
 _atom_site_fract_z
 _atom_site_occupancy
  Ho  Ho0  1  0.761310  0.761310  0.750000  1
  Tm  Tm1  1  0.238889  0.000106  0.750000  1
  Tm  Tm2  1  0.000106  0.238889  0.750000  1
  Tm  Tm3  1  0.238638  0.238638  0.250000  1
  Tm  Tm4  1  0.761232  0.000093  0.250000  1
  Tm  Tm5  1  0.000093  0.761232  0.250000  1
  Lu  Lu6  1  0.666657  0.333275  0.000037  1
  Lu  Lu7  1  0.333275  0.666657  0.000037  1
  Lu  Lu8  1  0.333275  0.666657  0.499963  1
  Lu  Lu9  1  0.666657  0.333275  0.499963  1
  Sn  Sn10  1  0.394956  0.394956  0.750000  1
  Sn  Sn11  1  0.604633  0.000244  0.750000  1
  Sn  Sn12  1  0.000244  0.604633  0.750000  1
  Sn  Sn13  1  0.604833  0.604833  0.250000  1
  Sn  Sn14  1  0.395195  0.000005  0.250000  1
  Sn  Sn15  1  0.000005  0.395195  0.250000  1
