# generated using pymatgen
data_La3Mg3CuSiSn
_symmetry_space_group_name_H-M   'P 1'
_cell_length_a   7.63716300
_cell_length_b   7.63716433
_cell_length_c   4.54152500
_cell_angle_alpha   90.00000000
_cell_angle_beta   90.00000000
_cell_angle_gamma   119.99998989
_symmetry_Int_Tables_number   1
_chemical_formula_structural   La3Mg3CuSiSn
_chemical_formula_sum   'La3 Mg3 Cu1 Si1 Sn1'
_cell_volume   229.40167294
_cell_formula_units_Z   1
loop_
 _symmetry_equiv_pos_site_id
 _symmetry_equiv_pos_as_xyz
  1  'x, y, z'
loop_
 _atom_site_type_symbol
 _atom_site_label
 _atom_site_symmetry_multiplicity
 _atom_site_fract_x
 _atom_site_fract_y
 _atom_site_fract_z
 _atom_site_occupancy
  La  La0  1  0.587147  0.988562  0.000000  1
  La  La1  1  0.011438  0.598585  0.000000  1
  La  La2  1  0.401415  0.412853  0.000000  1
  Mg  Mg3  1  0.234202  0.995965  0.500000  1
  Mg  Mg4  1  0.004035  0.238237  0.500000  1
  Mg  Mg5  1  0.761763  0.765798  0.500000  1
  Cu  Cu6  1  0.000000  0.000000  0.000000  1
  Si  Si7  1  0.333333  0.666667  0.500000  1
  Sn  Sn8  1  0.666667  0.333333  0.500000  1
