# generated using pymatgen
data_NaHf2Mg(SbPt)4
_symmetry_space_group_name_H-M   'P 1'
_cell_length_a   6.40452837
_cell_length_b   6.40452827
_cell_length_c   7.86464100
_cell_angle_alpha   65.97266699
_cell_angle_beta   65.97266876
_cell_angle_gamma   89.99999727
_symmetry_Int_Tables_number   1
_chemical_formula_structural   NaHf2Mg(SbPt)4
_chemical_formula_sum   'Na1 Hf2 Mg1 Sb4 Pt4'
_cell_volume   263.74142315
_cell_formula_units_Z   1
loop_
 _symmetry_equiv_pos_site_id
 _symmetry_equiv_pos_as_xyz
  1  'x, y, z'
loop_
 _atom_site_type_symbol
 _atom_site_label
 _atom_site_symmetry_multiplicity
 _atom_site_fract_x
 _atom_site_fract_y
 _atom_site_fract_z
 _atom_site_occupancy
  Na  Na0  1  0.000000  0.000000  0.000000  1
  Hf  Hf1  1  0.499999  0.499999  0.000000  1
  Hf  Hf2  1  0.750000  0.250000  0.500001  1
  Mg  Mg3  1  0.250000  0.750000  0.500001  1
  Sb  Sb4  1  0.495649  0.995650  0.008701  1
  Sb  Sb5  1  0.757677  0.757677  0.484645  1
  Sb  Sb6  1  0.242323  0.242323  0.515355  1
  Sb  Sb7  1  0.004352  0.504352  0.991297  1
  Pt  Pt8  1  0.613704  0.601524  0.256969  1
  Pt  Pt9  1  0.129328  0.141505  0.256970  1
  Pt  Pt10  1  0.398475  0.870673  0.743030  1
  Pt  Pt11  1  0.858493  0.386297  0.743031  1
