# generated using pymatgen
data_Ca4ScTc4(P4Ir5)3
_symmetry_space_group_name_H-M   'P 1'
_cell_length_a   12.67560600
_cell_length_b   12.56956654
_cell_length_c   3.96481000
_cell_angle_alpha   90.00000000
_cell_angle_beta   90.00000000
_cell_angle_gamma   119.83708574
_symmetry_Int_Tables_number   1
_chemical_formula_structural   Ca4ScTc4(P4Ir5)3
_chemical_formula_sum   'Ca4 Sc1 Tc4 P12 Ir15'
_cell_volume   547.96479582
_cell_formula_units_Z   1
loop_
 _symmetry_equiv_pos_site_id
 _symmetry_equiv_pos_as_xyz
  1  'x, y, z'
loop_
 _atom_site_type_symbol
 _atom_site_label
 _atom_site_symmetry_multiplicity
 _atom_site_fract_x
 _atom_site_fract_y
 _atom_site_fract_z
 _atom_site_occupancy
  Ca  Ca0  1  0.332655  0.664909  0.000000  1
  Ca  Ca1  1  0.665957  0.332802  0.000000  1
  Ca  Ca2  1  0.818096  0.001776  0.500000  1
  Ca  Ca3  1  0.001234  0.818177  0.500000  1
  Sc  Sc4  1  0.185661  0.186944  0.500000  1
  Tc  Tc5  1  0.453461  0.001691  0.000000  1
  Tc  Tc6  1  0.996894  0.451905  0.000000  1
  Tc  Tc7  1  0.549571  0.544204  0.000000  1
  Tc  Tc8  1  0.178694  0.376400  0.000000  1
  P  P9  1  0.179808  0.002190  0.000000  1
  P  P10  1  0.004298  0.184481  0.000000  1
  P  P11  1  0.822680  0.824039  0.000000  1
  P  P12  1  0.170907  0.479854  0.500000  1
  P  P13  1  0.516287  0.682917  0.500000  1
  P  P14  1  0.312971  0.829279  0.500000  1
  P  P15  1  0.684577  0.516185  0.500000  1
  P  P16  1  0.830528  0.314476  0.500000  1
  P  P17  1  0.484388  0.166952  0.500000  1
  P  P18  1  0.634985  0.998802  0.000000  1
  P  P19  1  0.000611  0.637002  0.000000  1
  P  P20  1  0.359510  0.364723  0.000000  1
  Ir  Ir21  1  0.361569  0.485113  0.500000  1
  Ir  Ir22  1  0.508050  0.866426  0.500000  1
  Ir  Ir23  1  0.129409  0.638887  0.500000  1
  Ir  Ir24  1  0.867591  0.510485  0.500000  1
  Ir  Ir25  1  0.641466  0.129067  0.500000  1
  Ir  Ir26  1  0.491141  0.355900  0.500000  1
  Ir  Ir27  1  0.624046  0.803831  0.000000  1
  Ir  Ir28  1  0.197018  0.820468  0.000000  1
  Ir  Ir29  1  0.806678  0.626785  0.000000  1
  Ir  Ir30  1  0.816912  0.194877  0.000000  1
  Ir  Ir31  1  0.369735  0.181946  0.000000  1
  Ir  Ir32  1  0.287365  0.002421  0.500000  1
  Ir  Ir33  1  0.997062  0.285208  0.500000  1
  Ir  Ir34  1  0.713253  0.713499  0.500000  1
  Ir  Ir35  1  0.004936  0.005380  0.000000  1
