# generated using pymatgen
data_Hf5Zr5BeSn6Sb
_symmetry_space_group_name_H-M   'P 1'
_cell_length_a   8.69500222
_cell_length_b   8.69500326
_cell_length_c   5.89252101
_cell_angle_alpha   90.01336975
_cell_angle_beta   90.01337093
_cell_angle_gamma   120.02581240
_symmetry_Int_Tables_number   1
_chemical_formula_structural   Hf5Zr5BeSn6Sb
_chemical_formula_sum   'Hf5 Zr5 Be1 Sn6 Sb1'
_cell_volume   385.70755938
_cell_formula_units_Z   1
loop_
 _symmetry_equiv_pos_site_id
 _symmetry_equiv_pos_as_xyz
  1  'x, y, z'
loop_
 _atom_site_type_symbol
 _atom_site_label
 _atom_site_symmetry_multiplicity
 _atom_site_fract_x
 _atom_site_fract_y
 _atom_site_fract_z
 _atom_site_occupancy
  Hf  Hf0  1  0.666843  0.333609  0.499697  1
  Hf  Hf1  1  0.333609  0.666843  0.499697  1
  Hf  Hf2  1  0.333898  0.667021  0.000306  1
  Hf  Hf3  1  0.667021  0.333898  0.000306  1
  Hf  Hf4  1  0.732201  0.732201  0.223311  1
  Zr  Zr5  1  0.267794  0.000935  0.226150  1
  Zr  Zr6  1  0.000935  0.267794  0.226150  1
  Zr  Zr7  1  0.265250  0.265250  0.773400  1
  Zr  Zr8  1  0.734182  0.999170  0.775238  1
  Zr  Zr9  1  0.999170  0.734182  0.775238  1
  Be  Be10  1  0.999195  0.999195  0.003099  1
  Sn  Sn11  1  0.391859  0.391859  0.255641  1
  Sn  Sn12  1  0.609927  0.999792  0.256484  1
  Sn  Sn13  1  0.999792  0.609927  0.256484  1
  Sn  Sn14  1  0.607824  0.607824  0.743500  1
  Sn  Sn15  1  0.391556  0.000125  0.743961  1
  Sn  Sn16  1  0.000125  0.391556  0.743961  1
  Sb  Sb17  1  0.998817  0.998817  0.497379  1
