# generated using pymatgen
data_Ta2Mn3Ga
_symmetry_space_group_name_H-M   'P 1'
_cell_length_a   4.85052900
_cell_length_b   4.85053002
_cell_length_c   8.08321000
_cell_angle_alpha   90.00000000
_cell_angle_beta   90.00000000
_cell_angle_gamma   118.91842295
_symmetry_Int_Tables_number   1
_chemical_formula_structural   Ta2Mn3Ga
_chemical_formula_sum   'Ta4 Mn6 Ga2'
_cell_volume   166.46525517
_cell_formula_units_Z   2
loop_
 _symmetry_equiv_pos_site_id
 _symmetry_equiv_pos_as_xyz
  1  'x, y, z'
loop_
 _atom_site_type_symbol
 _atom_site_label
 _atom_site_symmetry_multiplicity
 _atom_site_fract_x
 _atom_site_fract_y
 _atom_site_fract_z
 _atom_site_occupancy
  Ta  Ta0  1  0.333991  0.666009  0.433913  1
  Ta  Ta1  1  0.666229  0.333771  0.934128  1
  Ta  Ta2  1  0.666229  0.333771  0.565872  1
  Ta  Ta3  1  0.333991  0.666009  0.066087  1
  Mn  Mn4  1  0.171976  0.346128  0.750000  1
  Mn  Mn5  1  0.174966  0.825034  0.750000  1
  Mn  Mn6  1  0.346165  0.172502  0.250000  1
  Mn  Mn7  1  0.827498  0.653835  0.250000  1
  Mn  Mn8  1  0.653872  0.828024  0.750000  1
  Mn  Mn9  1  0.824919  0.175081  0.250000  1
  Ga  Ga10  1  0.000081  0.999919  0.999944  1
  Ga  Ga11  1  0.000081  0.999919  0.500056  1
