# generated using pymatgen
data_Ca14Ta2Si(GeN6)3
_symmetry_space_group_name_H-M   'P 1'
_cell_length_a   10.10300300
_cell_length_b   6.09591553
_cell_length_c   9.10888693
_cell_angle_alpha   87.49879503
_cell_angle_beta   90.00000000
_cell_angle_gamma   90.00000000
_symmetry_Int_Tables_number   1
_chemical_formula_structural   Ca14Ta2Si(GeN6)3
_chemical_formula_sum   'Ca14 Ta2 Si1 Ge3 N18'
_cell_volume   560.45504917
_cell_formula_units_Z   1
loop_
 _symmetry_equiv_pos_site_id
 _symmetry_equiv_pos_as_xyz
  1  'x, y, z'
loop_
 _atom_site_type_symbol
 _atom_site_label
 _atom_site_symmetry_multiplicity
 _atom_site_fract_x
 _atom_site_fract_y
 _atom_site_fract_z
 _atom_site_occupancy
  Ca  Ca0  1  0.941964  0.428422  0.165960  1
  Ca  Ca1  1  0.078610  0.247179  0.492242  1
  Ca  Ca2  1  0.250000  0.088921  0.798625  1
  Ca  Ca3  1  0.441007  0.569378  0.831438  1
  Ca  Ca4  1  0.574750  0.751380  0.503135  1
  Ca  Ca5  1  0.576421  0.067328  0.829359  1
  Ca  Ca6  1  0.923579  0.067328  0.829359  1
  Ca  Ca7  1  0.422221  0.929923  0.170305  1
  Ca  Ca8  1  0.421390  0.247179  0.492242  1
  Ca  Ca9  1  0.077779  0.929923  0.170305  1
  Ca  Ca10  1  0.925250  0.751380  0.503135  1
  Ca  Ca11  1  0.058993  0.569378  0.831438  1
  Ca  Ca12  1  0.750000  0.912340  0.201106  1
  Ca  Ca13  1  0.558036  0.428422  0.165960  1
  Ta  Ta14  1  0.750000  0.278068  0.436115  1
  Ta  Ta15  1  0.250000  0.718959  0.561368  1
  Si  Si16  1  0.250000  0.545092  0.280983  1
  Ge  Ge17  1  0.250000  0.325437  0.058716  1
  Ge  Ge18  1  0.750000  0.456837  0.719675  1
  Ge  Ge19  1  0.750000  0.678770  0.945729  1
  N  N20  1  0.407573  0.229504  0.977067  1
  N  N21  1  0.250000  0.249590  0.269132  1
  N  N22  1  0.899746  0.115971  0.341777  1
  N  N23  1  0.604852  0.357939  0.621707  1
  N  N24  1  0.750000  0.556552  0.330767  1
  N  N25  1  0.250000  0.638459  0.090580  1
  N  N26  1  0.895148  0.357939  0.621707  1
  N  N27  1  0.387494  0.636939  0.373866  1
  N  N28  1  0.750000  0.360980  0.925418  1
  N  N29  1  0.100536  0.881828  0.656518  1
  N  N30  1  0.750000  0.771769  0.735852  1
  N  N31  1  0.112506  0.636939  0.373866  1
  N  N32  1  0.590951  0.772105  0.024745  1
  N  N33  1  0.250000  0.442434  0.669693  1
  N  N34  1  0.399464  0.881828  0.656518  1
  N  N35  1  0.600254  0.115971  0.341777  1
  N  N36  1  0.092427  0.229504  0.977067  1
  N  N37  1  0.909049  0.772105  0.024745  1
