# generated using pymatgen
data_Pr4VRe2PN12
_symmetry_space_group_name_H-M   'P 1'
_cell_length_a   7.41282129
_cell_length_b   7.31034501
_cell_length_c   6.09567313
_cell_angle_alpha   77.68742630
_cell_angle_beta   76.36867844
_cell_angle_gamma   86.24606557
_symmetry_Int_Tables_number   1
_chemical_formula_structural   Pr4VRe2PN12
_chemical_formula_sum   'Pr4 V1 Re2 P1 N12'
_cell_volume   313.59755469
_cell_formula_units_Z   1
loop_
 _symmetry_equiv_pos_site_id
 _symmetry_equiv_pos_as_xyz
  1  'x, y, z'
loop_
 _atom_site_type_symbol
 _atom_site_label
 _atom_site_symmetry_multiplicity
 _atom_site_fract_x
 _atom_site_fract_y
 _atom_site_fract_z
 _atom_site_occupancy
  Pr  Pr0  1  0.909498  0.093190  0.754099  1
  Pr  Pr1  1  0.106424  0.899676  0.243905  1
  Pr  Pr2  1  0.698430  0.321029  0.256282  1
  Pr  Pr3  1  0.310240  0.662384  0.730752  1
  V  V4  1  0.199776  0.376783  0.248937  1
  Re  Re5  1  0.382366  0.196209  0.747506  1
  Re  Re6  1  0.781806  0.634196  0.758527  1
  P  P7  1  0.615497  0.820479  0.260952  1
  N  N8  1  0.652907  0.680840  0.046250  1
  N  N9  1  0.398140  0.859428  0.336526  1
  N  N10  1  0.332958  0.370672  0.497495  1
  N  N11  1  0.127091  0.596141  0.143338  1
  N  N12  1  0.008098  0.223903  0.340897  1
  N  N13  1  0.762882  0.987403  0.164605  1
  N  N14  1  0.228430  0.997720  0.831247  1
  N  N15  1  0.614283  0.120449  0.649782  1
  N  N16  1  0.370667  0.328094  0.981770  1
  N  N17  1  0.849073  0.396814  0.838301  1
  N  N18  1  0.661412  0.665303  0.507165  1
  N  N19  1  0.990022  0.769288  0.661661  1
