# generated using pymatgen
data_Pr2Tm4Ga17Pd5
_symmetry_space_group_name_H-M   'P 1'
_cell_length_a   8.17660572
_cell_length_b   8.17660570
_cell_length_c   15.77883042
_cell_angle_alpha   76.33511830
_cell_angle_beta   76.33511816
_cell_angle_gamma   30.36173705
_symmetry_Int_Tables_number   1
_chemical_formula_structural   Pr2Tm4Ga17Pd5
_chemical_formula_sum   'Pr2 Tm4 Ga17 Pd5'
_cell_volume   516.99723037
_cell_formula_units_Z   1
loop_
 _symmetry_equiv_pos_site_id
 _symmetry_equiv_pos_as_xyz
  1  'x, y, z'
loop_
 _atom_site_type_symbol
 _atom_site_label
 _atom_site_symmetry_multiplicity
 _atom_site_fract_x
 _atom_site_fract_y
 _atom_site_fract_z
 _atom_site_occupancy
  Pr  Pr0  1  0.754828  0.754828  0.750438  1
  Pr  Pr1  1  0.245172  0.245172  0.249562  1
  Tm  Tm2  1  0.600701  0.600701  0.597055  1
  Tm  Tm3  1  0.089717  0.089717  0.092307  1
  Tm  Tm4  1  0.910283  0.910283  0.907693  1
  Tm  Tm5  1  0.399299  0.399299  0.402945  1
  Ga  Ga6  1  0.822183  0.822183  0.538534  1
  Ga  Ga7  1  0.327092  0.327092  0.042290  1
  Ga  Ga8  1  0.672908  0.672908  0.957710  1
  Ga  Ga9  1  0.177817  0.177817  0.461466  1
  Ga  Ga10  1  0.545432  0.545432  0.826702  1
  Ga  Ga11  1  0.036034  0.036034  0.323340  1
  Ga  Ga12  1  0.963966  0.963966  0.676660  1
  Ga  Ga13  1  0.454568  0.454568  0.173298  1
  Ga  Ga14  1  0.270557  0.270557  0.898843  1
  Ga  Ga15  1  0.760673  0.760673  0.396902  1
  Ga  Ga16  1  0.239327  0.239327  0.603098  1
  Ga  Ga17  1  0.729443  0.729443  0.101157  1
  Ga  Ga18  1  0.403214  0.403214  0.765018  1
  Ga  Ga19  1  0.892685  0.892685  0.267171  1
  Ga  Ga20  1  0.107315  0.107315  0.732829  1
  Ga  Ga21  1  0.596786  0.596786  0.234982  1
  Ga  Ga22  1  0.000000  0.000000  0.500000  1
  Pd  Pd23  1  0.105259  0.105259  0.896843  1
  Pd  Pd24  1  0.591498  0.591498  0.406043  1
  Pd  Pd25  1  0.408502  0.408502  0.593957  1
  Pd  Pd26  1  0.894741  0.894741  0.103157  1
  Pd  Pd27  1  0.500000  0.500000  0.000000  1
