# generated using pymatgen
data_Tb14Er2ZnIn3Rh4
_symmetry_space_group_name_H-M   'P 1'
_cell_length_a   9.66365348
_cell_length_b   9.65002161
_cell_length_c   9.65002219
_cell_angle_alpha   59.92750641
_cell_angle_beta   59.90098910
_cell_angle_gamma   59.90099109
_symmetry_Int_Tables_number   1
_chemical_formula_structural   Tb14Er2ZnIn3Rh4
_chemical_formula_sum   'Tb14 Er2 Zn1 In3 Rh4'
_cell_volume   635.02906086
_cell_formula_units_Z   1
loop_
 _symmetry_equiv_pos_site_id
 _symmetry_equiv_pos_as_xyz
  1  'x, y, z'
loop_
 _atom_site_type_symbol
 _atom_site_label
 _atom_site_symmetry_multiplicity
 _atom_site_fract_x
 _atom_site_fract_y
 _atom_site_fract_z
 _atom_site_occupancy
  Tb  Tb0  1  0.188780  0.189187  0.812491  1
  Tb  Tb1  1  0.647965  0.053413  0.647414  1
  Tb  Tb2  1  0.061842  0.062662  0.438453  1
  Tb  Tb3  1  0.436789  0.435901  0.067905  1
  Tb  Tb4  1  0.651653  0.650583  0.650583  1
  Tb  Tb5  1  0.812568  0.188451  0.188451  1
  Tb  Tb6  1  0.189464  0.810715  0.810715  1
  Tb  Tb7  1  0.052589  0.647791  0.647791  1
  Tb  Tb8  1  0.439600  0.061816  0.061816  1
  Tb  Tb9  1  0.436789  0.067905  0.435901  1
  Tb  Tb10  1  0.061842  0.438453  0.062662  1
  Tb  Tb11  1  0.647965  0.647414  0.053413  1
  Tb  Tb12  1  0.188780  0.812491  0.189187  1
  Tb  Tb13  1  0.067781  0.436150  0.436150  1
  Er  Er14  1  0.809727  0.810523  0.190477  1
  Er  Er15  1  0.809727  0.190477  0.810523  1
  Zn  Zn16  1  0.416833  0.416953  0.416953  1
  In  In17  1  0.417955  0.417922  0.743662  1
  In  In18  1  0.417955  0.743662  0.417922  1
  In  In19  1  0.743779  0.417918  0.417918  1
  Rh  Rh20  1  0.858114  0.426385  0.857648  1
  Rh  Rh21  1  0.855919  0.857617  0.857617  1
  Rh  Rh22  1  0.858114  0.857648  0.426385  1
  Rh  Rh23  1  0.427471  0.857963  0.857963  1
