# generated using pymatgen
data_Mn5Al3Pt16
_symmetry_space_group_name_H-M   'P 1'
_cell_length_a   3.97918900
_cell_length_b   5.53407435
_cell_length_c   16.46360883
_cell_angle_alpha   89.84087280
_cell_angle_beta   90.00000000
_cell_angle_gamma   90.00000000
_symmetry_Int_Tables_number   1
_chemical_formula_structural   Mn5Al3Pt16
_chemical_formula_sum   'Mn5 Al3 Pt16'
_cell_volume   362.54583555
_cell_formula_units_Z   1
loop_
 _symmetry_equiv_pos_site_id
 _symmetry_equiv_pos_as_xyz
  1  'x, y, z'
loop_
 _atom_site_type_symbol
 _atom_site_label
 _atom_site_symmetry_multiplicity
 _atom_site_fract_x
 _atom_site_fract_y
 _atom_site_fract_z
 _atom_site_occupancy
  Mn  Mn0  1  0.000000  0.203285  0.750528  1
  Mn  Mn1  1  0.000000  0.798450  0.250698  1
  Mn  Mn2  1  0.000000  0.700377  0.588249  1
  Mn  Mn3  1  0.000000  0.299887  0.411138  1
  Mn  Mn4  1  0.000000  0.697664  0.911294  1
  Al  Al5  1  0.000000  0.311287  0.090807  1
  Al  Al6  1  0.500000  0.000152  0.499781  1
  Al  Al7  1  0.500000  0.988918  0.997562  1
  Pt  Pt8  1  0.500000  0.048415  0.338558  1
  Pt  Pt9  1  0.500000  0.951028  0.660784  1
  Pt  Pt10  1  0.500000  0.556056  0.167022  1
  Pt  Pt11  1  0.500000  0.448889  0.834369  1
  Pt  Pt12  1  0.500000  0.550125  0.333472  1
  Pt  Pt13  1  0.500000  0.448896  0.666748  1
  Pt  Pt14  1  0.000000  0.289240  0.248951  1
  Pt  Pt15  1  0.000000  0.709525  0.750168  1
  Pt  Pt16  1  0.500000  0.951740  0.839158  1
  Pt  Pt17  1  0.500000  0.054270  0.156906  1
  Pt  Pt18  1  0.500000  0.499851  0.500015  1
  Pt  Pt19  1  0.500000  0.492256  0.001638  1
  Pt  Pt20  1  0.000000  0.202042  0.573017  1
  Pt  Pt21  1  0.000000  0.797834  0.426713  1
  Pt  Pt22  1  0.000000  0.199356  0.930276  1
  Pt  Pt23  1  0.000000  0.800455  0.072148  1
