# generated using pymatgen
data_Dy2TiCr2O8
_symmetry_space_group_name_H-M   'P 1'
_cell_length_a   6.30089338
_cell_length_b   6.30089362
_cell_length_c   5.13897441
_cell_angle_alpha   71.58062904
_cell_angle_beta   71.58062493
_cell_angle_gamma   57.81621912
_symmetry_Int_Tables_number   1
_chemical_formula_structural   Dy2TiCr2O8
_chemical_formula_sum   'Dy2 Ti1 Cr2 O8'
_cell_volume   161.03380180
_cell_formula_units_Z   1
loop_
 _symmetry_equiv_pos_site_id
 _symmetry_equiv_pos_as_xyz
  1  'x, y, z'
loop_
 _atom_site_type_symbol
 _atom_site_label
 _atom_site_symmetry_multiplicity
 _atom_site_fract_x
 _atom_site_fract_y
 _atom_site_fract_z
 _atom_site_occupancy
  Dy  Dy0  1  0.726023  0.723588  0.336605  1
  Dy  Dy1  1  0.276412  0.273977  0.663395  1
  Ti  Ti2  1  0.726489  0.273511  0.000000  1
  Cr  Cr3  1  0.002778  0.997222  0.500000  1
  Cr  Cr4  1  0.250141  0.749859  0.000000  1
  O  O5  1  0.402887  0.385913  0.936927  1
  O  O6  1  0.614087  0.597113  0.063073  1
  O  O7  1  0.896385  0.898259  0.915935  1
  O  O8  1  0.101741  0.103615  0.084065  1
  O  O9  1  0.338477  0.891998  0.595604  1
  O  O10  1  0.891054  0.334478  0.603428  1
  O  O11  1  0.108002  0.661523  0.404396  1
  O  O12  1  0.665522  0.108946  0.396572  1
