# generated using pymatgen
data_Er3Tm5Tl3Co
_symmetry_space_group_name_H-M   'P 1'
_cell_length_a   10.22552600
_cell_length_b   10.22552575
_cell_length_c   7.03713200
_cell_angle_alpha   90.00000000
_cell_angle_beta   90.00000000
_cell_angle_gamma   120.00000079
_symmetry_Int_Tables_number   1
_chemical_formula_structural   Er3Tm5Tl3Co
_chemical_formula_sum   'Er6 Tm10 Tl6 Co2'
_cell_volume   637.23207801
_cell_formula_units_Z   2
loop_
 _symmetry_equiv_pos_site_id
 _symmetry_equiv_pos_as_xyz
  1  'x, y, z'
loop_
 _atom_site_type_symbol
 _atom_site_label
 _atom_site_symmetry_multiplicity
 _atom_site_fract_x
 _atom_site_fract_y
 _atom_site_fract_z
 _atom_site_occupancy
  Er  Er0  1  0.537612  0.075224  0.514766  1
  Er  Er1  1  0.924776  0.462388  0.514766  1
  Er  Er2  1  0.537612  0.462388  0.514766  1
  Er  Er3  1  0.462210  0.924421  0.014966  1
  Er  Er4  1  0.075579  0.537790  0.014966  1
  Er  Er5  1  0.462210  0.537790  0.014966  1
  Tm  Tm6  1  0.178767  0.357534  0.716015  1
  Tm  Tm7  1  0.642466  0.821233  0.716015  1
  Tm  Tm8  1  0.178767  0.821233  0.716015  1
  Tm  Tm9  1  0.821357  0.642716  0.215279  1
  Tm  Tm10  1  0.357284  0.178643  0.215279  1
  Tm  Tm11  1  0.821357  0.178643  0.215279  1
  Tm  Tm12  1  0.666667  0.333333  0.905441  1
  Tm  Tm13  1  0.333333  0.666667  0.406978  1
  Tm  Tm14  1  0.000000  0.000000  0.499088  1
  Tm  Tm15  1  0.000000  0.000000  0.997833  1
  Tl  Tl16  1  0.837380  0.674759  0.765535  1
  Tl  Tl17  1  0.325241  0.162620  0.765535  1
  Tl  Tl18  1  0.837380  0.162620  0.765535  1
  Tl  Tl19  1  0.163108  0.326217  0.266768  1
  Tl  Tl20  1  0.673783  0.836892  0.266768  1
  Tl  Tl21  1  0.163108  0.836892  0.266768  1
  Co  Co22  1  0.666667  0.333333  0.283905  1
  Co  Co23  1  0.333333  0.666667  0.784765  1
