# generated using pymatgen
data_Y5Sc5(TlSb)4
_symmetry_space_group_name_H-M   'P 1'
_cell_length_a   8.26124751
_cell_length_b   8.86125043
_cell_length_c   7.88954900
_cell_angle_alpha   90.14857962
_cell_angle_beta   90.24496910
_cell_angle_gamma   125.32169325
_symmetry_Int_Tables_number   1
_chemical_formula_structural   Y5Sc5(TlSb)4
_chemical_formula_sum   'Y5 Sc5 Tl4 Sb4'
_cell_volume   471.22399196
_cell_formula_units_Z   1
loop_
 _symmetry_equiv_pos_site_id
 _symmetry_equiv_pos_as_xyz
  1  'x, y, z'
loop_
 _atom_site_type_symbol
 _atom_site_label
 _atom_site_symmetry_multiplicity
 _atom_site_fract_x
 _atom_site_fract_y
 _atom_site_fract_z
 _atom_site_occupancy
  Y  Y0  1  0.852103  0.550506  0.181912  1
  Y  Y1  1  0.515002  0.778986  0.160365  1
  Y  Y2  1  0.149877  0.451868  0.817698  1
  Y  Y3  1  0.652829  0.950637  0.677485  1
  Y  Y4  1  0.346268  0.049057  0.324046  1
  Sc  Sc5  1  0.017001  0.275136  0.339730  1
  Sc  Sc6  1  0.978717  0.721018  0.659546  1
  Sc  Sc7  1  0.485586  0.222727  0.840376  1
  Sc  Sc8  1  0.002276  0.002117  0.998077  1
  Sc  Sc9  1  0.499161  0.496802  0.500705  1
  Tl  Tl10  1  0.366464  0.361231  0.134276  1
  Tl  Tl11  1  0.633735  0.631555  0.861749  1
  Tl  Tl12  1  0.135825  0.136022  0.636683  1
  Tl  Tl13  1  0.871477  0.866671  0.367696  1
  Sb  Sb14  1  0.774328  0.186006  0.032193  1
  Sb  Sb15  1  0.226652  0.824658  0.960768  1
  Sb  Sb16  1  0.733897  0.320811  0.536126  1
  Sb  Sb17  1  0.258804  0.674192  0.470568  1
