# generated using pymatgen
data_Tb8Ti3Si16Mo2W7
_symmetry_space_group_name_H-M   'P 1'
_cell_length_a   6.91926767
_cell_length_b   6.92466727
_cell_length_c   12.85797574
_cell_angle_alpha   89.92255167
_cell_angle_beta   89.95492570
_cell_angle_gamma   89.89954951
_symmetry_Int_Tables_number   1
_chemical_formula_structural   Tb8Ti3Si16Mo2W7
_chemical_formula_sum   'Tb8 Ti3 Si16 Mo2 W7'
_cell_volume   616.07054643
_cell_formula_units_Z   1
loop_
 _symmetry_equiv_pos_site_id
 _symmetry_equiv_pos_as_xyz
  1  'x, y, z'
loop_
 _atom_site_type_symbol
 _atom_site_label
 _atom_site_symmetry_multiplicity
 _atom_site_fract_x
 _atom_site_fract_y
 _atom_site_fract_z
 _atom_site_occupancy
  Tb  Tb0  1  0.338565  0.002125  0.468581  1
  Tb  Tb1  1  0.496897  0.837564  0.719136  1
  Tb  Tb2  1  0.499892  0.162671  0.217375  1
  Tb  Tb3  1  0.837525  0.497131  0.280942  1
  Tb  Tb4  1  0.162419  0.498774  0.782554  1
  Tb  Tb5  1  0.660623  0.999053  0.968679  1
  Tb  Tb6  1  0.001683  0.338695  0.531594  1
  Tb  Tb7  1  0.999404  0.660768  0.031189  1
  Ti  Ti8  1  0.169824  0.832377  0.248677  1
  Ti  Ti9  1  0.831075  0.170667  0.751255  1
  Ti  Ti10  1  0.668544  0.668629  0.500034  1
  Si  Si11  1  0.200320  0.127743  0.683527  1
  Si  Si12  1  0.374599  0.697357  0.934548  1
  Si  Si13  1  0.627422  0.299165  0.434039  1
  Si  Si14  1  0.698116  0.375288  0.065879  1
  Si  Si15  1  0.298990  0.627595  0.566148  1
  Si  Si16  1  0.797546  0.873633  0.184446  1
  Si  Si17  1  0.127488  0.200728  0.316312  1
  Si  Si18  1  0.873481  0.796871  0.815248  1
  Si  Si19  1  0.288941  0.963850  0.061831  1
  Si  Si20  1  0.539436  0.790802  0.313866  1
  Si  Si21  1  0.459458  0.209615  0.814310  1
  Si  Si22  1  0.790924  0.539527  0.686365  1
  Si  Si23  1  0.210711  0.459817  0.185657  1
  Si  Si24  1  0.709927  0.040412  0.563882  1
  Si  Si25  1  0.963802  0.287742  0.937511  1
  Si  Si26  1  0.040219  0.709737  0.436200  1
  Mo  Mo27  1  0.158436  0.002474  0.873238  1
  Mo  Mo28  1  0.494763  0.666526  0.125627  1
  W  W29  1  0.332089  0.331922  0.999976  1
  W  W30  1  0.506313  0.339437  0.624928  1
  W  W31  1  0.664878  0.493146  0.875033  1
  W  W32  1  0.339185  0.505909  0.375195  1
  W  W33  1  0.839077  0.993444  0.374646  1
  W  W34  1  0.004132  0.159299  0.126156  1
  W  W35  1  0.993298  0.839509  0.625416  1
