# generated using pymatgen
data_Er2Ti2Ge4Mo
_symmetry_space_group_name_H-M   'P 1'
_cell_length_a   7.07442400
_cell_length_b   6.91581084
_cell_length_c   7.08472292
_cell_angle_alpha   70.74120300
_cell_angle_beta   90.00000000
_cell_angle_gamma   90.00000000
_symmetry_Int_Tables_number   1
_chemical_formula_structural   Er2Ti2Ge4Mo
_chemical_formula_sum   'Er4 Ti4 Ge8 Mo2'
_cell_volume   327.22518086
_cell_formula_units_Z   2
loop_
 _symmetry_equiv_pos_site_id
 _symmetry_equiv_pos_as_xyz
  1  'x, y, z'
loop_
 _atom_site_type_symbol
 _atom_site_label
 _atom_site_symmetry_multiplicity
 _atom_site_fract_x
 _atom_site_fract_y
 _atom_site_fract_z
 _atom_site_occupancy
  Er  Er0  1  0.170643  0.938061  0.190879  1
  Er  Er1  1  0.329357  0.438061  0.190879  1
  Er  Er2  1  0.829357  0.061939  0.809121  1
  Er  Er3  1  0.670643  0.561939  0.809121  1
  Ti  Ti4  1  0.824207  0.249556  0.255286  1
  Ti  Ti5  1  0.324207  0.250444  0.744714  1
  Ti  Ti6  1  0.175793  0.750444  0.744714  1
  Ti  Ti7  1  0.675793  0.749556  0.255286  1
  Ge  Ge8  1  0.540366  0.138426  0.086206  1
  Ge  Ge9  1  0.369259  0.636049  0.494808  1
  Ge  Ge10  1  0.869259  0.863951  0.505192  1
  Ge  Ge11  1  0.040366  0.361574  0.913794  1
  Ge  Ge12  1  0.130741  0.136049  0.494808  1
  Ge  Ge13  1  0.630741  0.363951  0.505192  1
  Ge  Ge14  1  0.959634  0.638426  0.086206  1
  Ge  Ge15  1  0.459634  0.861574  0.913794  1
  Mo  Mo16  1  0.500000  0.000000  0.500000  1
  Mo  Mo17  1  0.000000  0.500000  0.500000  1
