# generated using pymatgen
data_Tm3Mg(Co4P3)2
_symmetry_space_group_name_H-M   'P 1'
_cell_length_a   3.70674200
_cell_length_b   10.57843600
_cell_length_c   12.19579100
_cell_angle_alpha   90.00000000
_cell_angle_beta   90.00000000
_cell_angle_gamma   90.00000000
_symmetry_Int_Tables_number   1
_chemical_formula_structural   Tm3Mg(Co4P3)2
_chemical_formula_sum   'Tm6 Mg2 Co16 P12'
_cell_volume   478.21566145
_cell_formula_units_Z   2
loop_
 _symmetry_equiv_pos_site_id
 _symmetry_equiv_pos_as_xyz
  1  'x, y, z'
loop_
 _atom_site_type_symbol
 _atom_site_label
 _atom_site_symmetry_multiplicity
 _atom_site_fract_x
 _atom_site_fract_y
 _atom_site_fract_z
 _atom_site_occupancy
  Tm  Tm0  1  0.000000  0.500000  0.525947  1
  Tm  Tm1  1  0.500000  0.000000  0.474053  1
  Tm  Tm2  1  0.500000  0.822453  0.206494  1
  Tm  Tm3  1  0.500000  0.177547  0.206494  1
  Tm  Tm4  1  0.000000  0.677547  0.793506  1
  Tm  Tm5  1  0.000000  0.322453  0.793506  1
  Mg  Mg6  1  0.500000  0.500000  0.156715  1
  Mg  Mg7  1  0.000000  0.000000  0.843285  1
  Co  Co8  1  0.500000  0.500000  0.704235  1
  Co  Co9  1  0.000000  0.000000  0.295765  1
  Co  Co10  1  0.000000  0.500000  0.987835  1
  Co  Co11  1  0.500000  0.000000  0.012165  1
  Co  Co12  1  0.500000  0.332639  0.996238  1
  Co  Co13  1  0.500000  0.667361  0.996238  1
  Co  Co14  1  0.000000  0.167361  0.003762  1
  Co  Co15  1  0.000000  0.832639  0.003762  1
  Co  Co16  1  0.500000  0.296545  0.432089  1
  Co  Co17  1  0.500000  0.703455  0.432089  1
  Co  Co18  1  0.000000  0.203455  0.567911  1
  Co  Co19  1  0.000000  0.796545  0.567911  1
  Co  Co20  1  0.500000  0.877121  0.705797  1
  Co  Co21  1  0.500000  0.122879  0.705797  1
  Co  Co22  1  0.000000  0.622879  0.294203  1
  Co  Co23  1  0.000000  0.377121  0.294203  1
  P  P24  1  0.500000  0.500000  0.883646  1
  P  P25  1  0.000000  0.000000  0.116354  1
  P  P26  1  0.500000  0.500000  0.356389  1
  P  P27  1  0.000000  0.000000  0.643611  1
  P  P28  1  0.500000  0.310946  0.615926  1
  P  P29  1  0.500000  0.689054  0.615926  1
  P  P30  1  0.000000  0.189054  0.384074  1
  P  P31  1  0.000000  0.810946  0.384074  1
  P  P32  1  0.500000  0.838343  0.892239  1
  P  P33  1  0.500000  0.161657  0.892239  1
  P  P34  1  0.000000  0.661657  0.107761  1
  P  P35  1  0.000000  0.338343  0.107761  1
