# generated using pymatgen
data_Zr4UTc6W
_symmetry_space_group_name_H-M   'P 1'
_cell_length_a   5.22803207
_cell_length_b   5.22803161
_cell_length_c   8.89524400
_cell_angle_alpha   90.00000000
_cell_angle_beta   90.00000000
_cell_angle_gamma   116.94400818
_symmetry_Int_Tables_number   1
_chemical_formula_structural   Zr4UTc6W
_chemical_formula_sum   'Zr4 U1 Tc6 W1'
_cell_volume   216.73606475
_cell_formula_units_Z   1
loop_
 _symmetry_equiv_pos_site_id
 _symmetry_equiv_pos_as_xyz
  1  'x, y, z'
loop_
 _atom_site_type_symbol
 _atom_site_label
 _atom_site_symmetry_multiplicity
 _atom_site_fract_x
 _atom_site_fract_y
 _atom_site_fract_z
 _atom_site_occupancy
  Zr  Zr0  1  0.329430  0.670570  0.447540  1
  Zr  Zr1  1  0.663807  0.336193  0.569660  1
  Zr  Zr2  1  0.663807  0.336193  0.930340  1
  Zr  Zr3  1  0.329430  0.670570  0.052460  1
  U  U4  1  0.847710  0.152290  0.250000  1
  Tc  Tc5  1  0.994222  0.005778  0.497845  1
  Tc  Tc6  1  0.994222  0.005778  0.002155  1
  Tc  Tc7  1  0.837494  0.631737  0.250000  1
  Tc  Tc8  1  0.368263  0.162506  0.250000  1
  Tc  Tc9  1  0.166301  0.352901  0.750000  1
  Tc  Tc10  1  0.647099  0.833699  0.750000  1
  W  W11  1  0.158215  0.841785  0.750000  1
