# generated using pymatgen
data_Nd6In8HgGe
_symmetry_space_group_name_H-M   'P 1'
_cell_length_a   8.57962438
_cell_length_b   8.57962376
_cell_length_c   8.57962340
_cell_angle_alpha   120.04014034
_cell_angle_beta   120.04013986
_cell_angle_gamma   89.93049287
_symmetry_Int_Tables_number   1
_chemical_formula_structural   Nd6In8HgGe
_chemical_formula_sum   'Nd6 In8 Hg1 Ge1'
_cell_volume   446.29889539
_cell_formula_units_Z   1
loop_
 _symmetry_equiv_pos_site_id
 _symmetry_equiv_pos_as_xyz
  1  'x, y, z'
loop_
 _atom_site_type_symbol
 _atom_site_label
 _atom_site_symmetry_multiplicity
 _atom_site_fract_x
 _atom_site_fract_y
 _atom_site_fract_z
 _atom_site_occupancy
  Nd  Nd0  1  0.762093  0.762093  0.000000  1
  Nd  Nd1  1  0.237907  0.237907  0.000000  1
  Nd  Nd2  1  0.675550  0.146350  0.821901  1
  Nd  Nd3  1  0.324450  0.853650  0.178099  1
  Nd  Nd4  1  0.146350  0.324450  0.470800  1
  Nd  Nd5  1  0.853650  0.675550  0.529200  1
  In  In6  1  0.332355  0.818390  0.788361  1
  In  In7  1  0.667645  0.181610  0.211639  1
  In  In8  1  0.030030  0.543994  0.211639  1
  In  In9  1  0.818390  0.030030  0.486035  1
  In  In10  1  0.456006  0.667645  0.486035  1
  In  In11  1  0.969970  0.456006  0.788361  1
  In  In12  1  0.181610  0.969970  0.513965  1
  In  In13  1  0.543994  0.332355  0.513965  1
  Hg  Hg14  1  0.500000  0.500000  0.000000  1
  Ge  Ge15  1  0.000000  0.000000  0.000000  1
