# generated using pymatgen
data_Hf10GaCuSn5Sb
_symmetry_space_group_name_H-M   'P 1'
_cell_length_a   8.62429481
_cell_length_b   8.62013822
_cell_length_c   5.81467209
_cell_angle_alpha   90.05626489
_cell_angle_beta   89.97189201
_cell_angle_gamma   119.98405605
_symmetry_Int_Tables_number   1
_chemical_formula_structural   Hf10GaCuSn5Sb
_chemical_formula_sum   'Hf10 Ga1 Cu1 Sn5 Sb1'
_cell_volume   374.42360997
_cell_formula_units_Z   1
loop_
 _symmetry_equiv_pos_site_id
 _symmetry_equiv_pos_as_xyz
  1  'x, y, z'
loop_
 _atom_site_type_symbol
 _atom_site_label
 _atom_site_symmetry_multiplicity
 _atom_site_fract_x
 _atom_site_fract_y
 _atom_site_fract_z
 _atom_site_occupancy
  Hf  Hf0  1  0.667346  0.333385  0.999834  1
  Hf  Hf1  1  0.332654  0.666040  0.999834  1
  Hf  Hf2  1  0.332701  0.666094  0.500424  1
  Hf  Hf3  1  0.667299  0.333392  0.500424  1
  Hf  Hf4  1  0.735104  0.734946  0.750656  1
  Hf  Hf5  1  0.264896  0.999842  0.750656  1
  Hf  Hf6  1  0.000000  0.265465  0.750814  1
  Hf  Hf7  1  0.263563  0.264556  0.249195  1
  Hf  Hf8  1  0.736437  0.000994  0.249195  1
  Hf  Hf9  1  0.000000  0.734770  0.249263  1
  Ga  Ga10  1  0.000000  0.999530  0.500908  1
  Cu  Cu11  1  0.000000  0.998990  0.997917  1
  Sn  Sn12  1  0.387922  0.387405  0.750086  1
  Sn  Sn13  1  0.612078  0.999484  0.750086  1
  Sn  Sn14  1  0.000000  0.613732  0.749772  1
  Sn  Sn15  1  0.612272  0.612499  0.250334  1
  Sn  Sn16  1  0.387728  0.000226  0.250334  1
  Sb  Sb17  1  0.000000  0.388648  0.250267  1
