# generated using pymatgen
data_TbHoZr3(In2Pt)2
_symmetry_space_group_name_H-M   'P 1'
_cell_length_a   3.57017300
_cell_length_b   7.80407521
_cell_length_c   17.73994528
_cell_angle_alpha   90.10204382
_cell_angle_beta   90.00000000
_cell_angle_gamma   90.00000000
_symmetry_Int_Tables_number   1
_chemical_formula_structural   TbHoZr3(In2Pt)2
_chemical_formula_sum   'Tb2 Ho2 Zr6 In8 Pt4'
_cell_volume   494.26777296
_cell_formula_units_Z   2
loop_
 _symmetry_equiv_pos_site_id
 _symmetry_equiv_pos_as_xyz
  1  'x, y, z'
loop_
 _atom_site_type_symbol
 _atom_site_label
 _atom_site_symmetry_multiplicity
 _atom_site_fract_x
 _atom_site_fract_y
 _atom_site_fract_z
 _atom_site_occupancy
  Tb  Tb0  1  0.000000  0.243487  0.217359  1
  Tb  Tb1  1  0.000000  0.756513  0.782641  1
  Ho  Ho2  1  0.000000  0.256061  0.717460  1
  Ho  Ho3  1  0.000000  0.743939  0.282540  1
  Zr  Zr4  1  0.000000  0.125173  0.421326  1
  Zr  Zr5  1  0.000000  0.874827  0.578674  1
  Zr  Zr6  1  0.000000  0.374168  0.921326  1
  Zr  Zr7  1  0.000000  0.625832  0.078674  1
  Zr  Zr8  1  0.000000  0.000000  0.000000  1
  Zr  Zr9  1  0.000000  0.500000  0.500000  1
  In  In10  1  0.500000  0.422475  0.354079  1
  In  In11  1  0.500000  0.577525  0.645921  1
  In  In12  1  0.500000  0.079263  0.853706  1
  In  In13  1  0.500000  0.920737  0.146294  1
  In  In14  1  0.500000  0.295880  0.061055  1
  In  In15  1  0.500000  0.704120  0.938945  1
  In  In16  1  0.500000  0.204955  0.561486  1
  In  In17  1  0.500000  0.795045  0.438514  1
  Pt  Pt18  1  0.500000  0.034949  0.309810  1
  Pt  Pt19  1  0.500000  0.965051  0.690190  1
  Pt  Pt20  1  0.500000  0.461832  0.809236  1
  Pt  Pt21  1  0.500000  0.538168  0.190764  1
