# generated using pymatgen
data_Th3ZnPt5
_symmetry_space_group_name_H-M   'P 1'
_cell_length_a   8.37074854
_cell_length_b   8.37074814
_cell_length_c   13.61546300
_cell_angle_alpha   90.00000000
_cell_angle_beta   90.00000000
_cell_angle_gamma   127.45118353
_symmetry_Int_Tables_number   1
_chemical_formula_structural   Th3ZnPt5
_chemical_formula_sum   'Th12 Zn4 Pt20'
_cell_volume   757.37561431
_cell_formula_units_Z   4
loop_
 _symmetry_equiv_pos_site_id
 _symmetry_equiv_pos_as_xyz
  1  'x, y, z'
loop_
 _atom_site_type_symbol
 _atom_site_label
 _atom_site_symmetry_multiplicity
 _atom_site_fract_x
 _atom_site_fract_y
 _atom_site_fract_z
 _atom_site_occupancy
  Th  Th0  1  0.931829  0.068171  0.250000  1
  Th  Th1  1  0.068171  0.931829  0.750000  1
  Th  Th2  1  0.315502  0.684498  0.250000  1
  Th  Th3  1  0.684498  0.315502  0.750000  1
  Th  Th4  1  0.627981  0.372019  0.462477  1
  Th  Th5  1  0.372019  0.627981  0.537523  1
  Th  Th6  1  0.627981  0.372019  0.037523  1
  Th  Th7  1  0.372019  0.627981  0.962477  1
  Th  Th8  1  0.878579  0.121421  0.946543  1
  Th  Th9  1  0.121421  0.878579  0.053457  1
  Th  Th10  1  0.878579  0.121421  0.553457  1
  Th  Th11  1  0.121421  0.878579  0.446543  1
  Zn  Zn12  1  0.721199  0.278801  0.250000  1
  Zn  Zn13  1  0.278801  0.721199  0.750000  1
  Zn  Zn14  1  0.531463  0.468537  0.250000  1
  Zn  Zn15  1  0.468537  0.531463  0.750000  1
  Pt  Pt16  1  0.320204  0.065765  0.250000  1
  Pt  Pt17  1  0.065765  0.320204  0.750000  1
  Pt  Pt18  1  0.679796  0.934235  0.750000  1
  Pt  Pt19  1  0.934235  0.679796  0.250000  1
  Pt  Pt20  1  0.565486  0.000550  0.396677  1
  Pt  Pt21  1  0.000550  0.565486  0.603323  1
  Pt  Pt22  1  0.565486  0.000550  0.103323  1
  Pt  Pt23  1  0.000550  0.565486  0.896677  1
  Pt  Pt24  1  0.434514  0.999450  0.603323  1
  Pt  Pt25  1  0.999450  0.434514  0.396677  1
  Pt  Pt26  1  0.434514  0.999450  0.896677  1
  Pt  Pt27  1  0.999450  0.434514  0.103323  1
  Pt  Pt28  1  0.693348  0.747071  0.393548  1
  Pt  Pt29  1  0.747071  0.693348  0.606452  1
  Pt  Pt30  1  0.693348  0.747071  0.106452  1
  Pt  Pt31  1  0.747071  0.693348  0.893548  1
  Pt  Pt32  1  0.306652  0.252929  0.606452  1
  Pt  Pt33  1  0.252929  0.306652  0.393548  1
  Pt  Pt34  1  0.306652  0.252929  0.893548  1
  Pt  Pt35  1  0.252929  0.306652  0.106452  1
