# generated using pymatgen
data_TiMnPd5Au
_symmetry_space_group_name_H-M   'P 1'
_cell_length_a   3.98242400
_cell_length_b   3.98242400
_cell_length_c   7.84150600
_cell_angle_alpha   90.00000000
_cell_angle_beta   90.00000000
_cell_angle_gamma   90.00000000
_symmetry_Int_Tables_number   1
_chemical_formula_structural   TiMnPd5Au
_chemical_formula_sum   'Ti1 Mn1 Pd5 Au1'
_cell_volume   124.36393989
_cell_formula_units_Z   1
loop_
 _symmetry_equiv_pos_site_id
 _symmetry_equiv_pos_as_xyz
  1  'x, y, z'
loop_
 _atom_site_type_symbol
 _atom_site_label
 _atom_site_symmetry_multiplicity
 _atom_site_fract_x
 _atom_site_fract_y
 _atom_site_fract_z
 _atom_site_occupancy
  Ti  Ti0  1  0.000000  0.000000  0.000000  1
  Mn  Mn1  1  0.000000  0.000000  0.500000  1
  Pd  Pd2  1  0.500000  0.500000  0.000000  1
  Pd  Pd3  1  0.500000  0.000000  0.242871  1
  Pd  Pd4  1  0.500000  0.000000  0.757129  1
  Pd  Pd5  1  0.000000  0.500000  0.242871  1
  Pd  Pd6  1  0.000000  0.500000  0.757129  1
  Au  Au7  1  0.500000  0.500000  0.500000  1
