# generated using pymatgen
data_Yb3DyTc2(B8Os)2
_symmetry_space_group_name_H-M   'P 1'
_cell_length_a   3.55725800
_cell_length_b   5.96461091
_cell_length_c   11.53366682
_cell_angle_alpha   89.99831763
_cell_angle_beta   90.00000000
_cell_angle_gamma   90.00000000
_symmetry_Int_Tables_number   1
_chemical_formula_structural   Yb3DyTc2(B8Os)2
_chemical_formula_sum   'Yb3 Dy1 Tc2 B16 Os2'
_cell_volume   244.71741950
_cell_formula_units_Z   1
loop_
 _symmetry_equiv_pos_site_id
 _symmetry_equiv_pos_as_xyz
  1  'x, y, z'
loop_
 _atom_site_type_symbol
 _atom_site_label
 _atom_site_symmetry_multiplicity
 _atom_site_fract_x
 _atom_site_fract_y
 _atom_site_fract_z
 _atom_site_occupancy
  Yb  Yb0  1  0.000000  0.630100  0.350945  1
  Yb  Yb1  1  0.000000  0.370339  0.648160  1
  Yb  Yb2  1  0.000000  0.128215  0.152078  1
  Dy  Dy3  1  0.000000  0.872243  0.848268  1
  Tc  Tc4  1  0.000000  0.630849  0.083649  1
  Tc  Tc5  1  0.000000  0.370466  0.915306  1
  B  B6  1  0.500000  0.785457  0.185445  1
  B  B7  1  0.500000  0.214122  0.814796  1
  B  B8  1  0.500000  0.285788  0.315190  1
  B  B9  1  0.500000  0.713071  0.684453  1
  B  B10  1  0.500000  0.865114  0.032574  1
  B  B11  1  0.500000  0.134878  0.968160  1
  B  B12  1  0.500000  0.363851  0.469753  1
  B  B13  1  0.500000  0.636198  0.530293  1
  B  B14  1  0.500000  0.886872  0.452925  1
  B  B15  1  0.500000  0.113694  0.547175  1
  B  B16  1  0.500000  0.385271  0.047963  1
  B  B17  1  0.500000  0.612414  0.952655  1
  B  B18  1  0.500000  0.974706  0.308688  1
  B  B19  1  0.500000  0.025501  0.691089  1
  B  B20  1  0.500000  0.478388  0.192940  1
  B  B21  1  0.500000  0.521752  0.806777  1
  Os  Os22  1  0.000000  0.138833  0.411306  1
  Os  Os23  1  0.000000  0.861880  0.589410  1
