# generated using pymatgen
data_Tm10(AlTe)3
_symmetry_space_group_name_H-M   'P 1'
_cell_length_a   8.76946606
_cell_length_b   8.74269542
_cell_length_c   6.28653700
_cell_angle_alpha   90.00000000
_cell_angle_beta   90.00000000
_cell_angle_gamma   119.74117236
_symmetry_Int_Tables_number   1
_chemical_formula_structural   Tm10(AlTe)3
_chemical_formula_sum   'Tm10 Al3 Te3'
_cell_volume   418.49223247
_cell_formula_units_Z   1
loop_
 _symmetry_equiv_pos_site_id
 _symmetry_equiv_pos_as_xyz
  1  'x, y, z'
loop_
 _atom_site_type_symbol
 _atom_site_label
 _atom_site_symmetry_multiplicity
 _atom_site_fract_x
 _atom_site_fract_y
 _atom_site_fract_z
 _atom_site_occupancy
  Tm  Tm0  1  0.331217  0.679699  0.002645  1
  Tm  Tm1  1  0.666775  0.323173  0.497247  1
  Tm  Tm2  1  0.666775  0.323173  0.002753  1
  Tm  Tm3  1  0.331217  0.679699  0.497355  1
  Tm  Tm4  1  0.236019  0.987231  0.250000  1
  Tm  Tm5  1  0.757565  0.003451  0.750000  1
  Tm  Tm6  1  0.984294  0.234618  0.250000  1
  Tm  Tm7  1  0.765320  0.767474  0.250000  1
  Tm  Tm8  1  0.246068  0.233712  0.750000  1
  Tm  Tm9  1  0.015963  0.771369  0.750000  1
  Al  Al10  1  0.599560  0.997374  0.250000  1
  Al  Al11  1  0.403896  0.004195  0.750000  1
  Al  Al12  1  0.992841  0.600656  0.250000  1
  Te  Te13  1  0.385635  0.389275  0.250000  1
  Te  Te14  1  0.612280  0.609490  0.750000  1
  Te  Te15  1  0.004574  0.395409  0.750000  1
