# generated using pymatgen
data_Sc4SnPd11
_symmetry_space_group_name_H-M   'P 1'
_cell_length_a   4.06948300
_cell_length_b   5.74390526
_cell_length_c   11.36852200
_cell_angle_alpha   87.74165102
_cell_angle_beta   90.00000000
_cell_angle_gamma   90.00000000
_symmetry_Int_Tables_number   1
_chemical_formula_structural   Sc4SnPd11
_chemical_formula_sum   'Sc4 Sn1 Pd11'
_cell_volume   265.52967747
_cell_formula_units_Z   1
loop_
 _symmetry_equiv_pos_site_id
 _symmetry_equiv_pos_as_xyz
  1  'x, y, z'
loop_
 _atom_site_type_symbol
 _atom_site_label
 _atom_site_symmetry_multiplicity
 _atom_site_fract_x
 _atom_site_fract_y
 _atom_site_fract_z
 _atom_site_occupancy
  Sc  Sc0  1  0.500000  0.754393  0.378999  1
  Sc  Sc1  1  0.500000  0.713170  0.856548  1
  Sc  Sc2  1  0.500000  0.286830  0.143452  1
  Sc  Sc3  1  0.500000  0.245607  0.621001  1
  Sn  Sn4  1  0.000000  0.000000  0.000000  1
  Pd  Pd5  1  0.000000  0.016105  0.249347  1
  Pd  Pd6  1  0.000000  0.983895  0.750653  1
  Pd  Pd7  1  0.000000  0.500000  0.000000  1
  Pd  Pd8  1  0.000000  0.500000  0.500000  1
  Pd  Pd9  1  0.000000  0.517321  0.250483  1
  Pd  Pd10  1  0.000000  0.482679  0.749517  1
  Pd  Pd11  1  0.500000  0.255299  0.377032  1
  Pd  Pd12  1  0.500000  0.228762  0.882444  1
  Pd  Pd13  1  0.500000  0.771238  0.117556  1
  Pd  Pd14  1  0.500000  0.744701  0.622968  1
  Pd  Pd15  1  0.000000  0.000000  0.500000  1
