# generated using pymatgen
data_BaMn2Nb2(PO4)6
_symmetry_space_group_name_H-M   'P 1'
_cell_length_a   8.56129500
_cell_length_b   9.41173457
_cell_length_c   12.65289853
_cell_angle_alpha   85.19225536
_cell_angle_beta   90.00000000
_cell_angle_gamma   90.00000000
_symmetry_Int_Tables_number   1
_chemical_formula_structural   BaMn2Nb2(PO4)6
_chemical_formula_sum   'Ba2 Mn4 Nb4 P12 O48'
_cell_volume   1015.94083184
_cell_formula_units_Z   2
loop_
 _symmetry_equiv_pos_site_id
 _symmetry_equiv_pos_as_xyz
  1  'x, y, z'
loop_
 _atom_site_type_symbol
 _atom_site_label
 _atom_site_symmetry_multiplicity
 _atom_site_fract_x
 _atom_site_fract_y
 _atom_site_fract_z
 _atom_site_occupancy
  Ba  Ba0  1  0.000000  0.000000  0.500000  1
  Ba  Ba1  1  0.500000  0.500000  0.500000  1
  Mn  Mn2  1  0.502198  0.809528  0.646348  1
  Mn  Mn3  1  0.002198  0.690472  0.353652  1
  Mn  Mn4  1  0.497802  0.190472  0.353652  1
  Mn  Mn5  1  0.997802  0.309528  0.646348  1
  Nb  Nb6  1  0.499503  0.210212  0.853040  1
  Nb  Nb7  1  0.999503  0.289788  0.146960  1
  Nb  Nb8  1  0.500497  0.789788  0.146960  1
  Nb  Nb9  1  0.000497  0.710212  0.853040  1
  P  P10  1  0.348515  0.853326  0.393931  1
  P  P11  1  0.278353  0.497081  0.744251  1
  P  P12  1  0.151485  0.353326  0.393931  1
  P  P13  1  0.861592  0.365199  0.888460  1
  P  P14  1  0.361592  0.134801  0.111540  1
  P  P15  1  0.778353  0.002919  0.255749  1
  P  P16  1  0.221647  0.997081  0.744251  1
  P  P17  1  0.638408  0.865199  0.888460  1
  P  P18  1  0.138408  0.634801  0.111540  1
  P  P19  1  0.848515  0.646674  0.606069  1
  P  P20  1  0.721647  0.502919  0.255749  1
  P  P21  1  0.651485  0.146674  0.606069  1
  O  O22  1  0.316893  0.919971  0.662025  1
  O  O23  1  0.173160  0.812284  0.390774  1
  O  O24  1  0.428338  0.780610  0.493321  1
  O  O25  1  0.431877  0.789541  0.297355  1
  O  O26  1  0.391127  0.596242  0.682623  1
  O  O27  1  0.147675  0.515416  0.388310  1
  O  O28  1  0.183107  0.419971  0.662025  1
  O  O29  1  0.370209  0.380668  0.816517  1
  O  O30  1  0.129714  0.470073  0.115806  1
  O  O31  1  0.825596  0.422649  0.180163  1
  O  O32  1  0.326840  0.312284  0.390774  1
  O  O33  1  0.071662  0.280610  0.493321  1
  O  O34  1  0.068123  0.289541  0.297355  1
  O  O35  1  0.684688  0.324753  0.886643  1
  O  O36  1  0.926007  0.303785  0.998256  1
  O  O37  1  0.952163  0.299904  0.802101  1
  O  O38  1  0.452163  0.200096  0.197899  1
  O  O39  1  0.426007  0.196215  0.001744  1
  O  O40  1  0.184688  0.175247  0.113357  1
  O  O41  1  0.870209  0.119332  0.183483  1
  O  O42  1  0.352325  0.015416  0.388310  1
  O  O43  1  0.108873  0.096242  0.682623  1
  O  O44  1  0.325596  0.077351  0.819837  1
  O  O45  1  0.629714  0.029927  0.884194  1
  O  O46  1  0.370286  0.970073  0.115806  1
  O  O47  1  0.674404  0.922649  0.180163  1
  O  O48  1  0.891127  0.903758  0.317377  1
  O  O49  1  0.647675  0.984584  0.611690  1
  O  O50  1  0.129791  0.880668  0.816517  1
  O  O51  1  0.815312  0.824753  0.886643  1
  O  O52  1  0.573993  0.803785  0.998256  1
  O  O53  1  0.547837  0.799904  0.802101  1
  O  O54  1  0.047837  0.700096  0.197899  1
  O  O55  1  0.073993  0.696215  0.001744  1
  O  O56  1  0.315312  0.675247  0.113357  1
  O  O57  1  0.931877  0.710459  0.702645  1
  O  O58  1  0.928338  0.719390  0.506679  1
  O  O59  1  0.673160  0.687716  0.609226  1
  O  O60  1  0.174404  0.577351  0.819837  1
  O  O61  1  0.870286  0.529927  0.884194  1
  O  O62  1  0.629791  0.619332  0.183483  1
  O  O63  1  0.816893  0.580029  0.337975  1
  O  O64  1  0.852325  0.484584  0.611690  1
  O  O65  1  0.608873  0.403758  0.317377  1
  O  O66  1  0.568123  0.210459  0.702645  1
  O  O67  1  0.571662  0.219390  0.506679  1
  O  O68  1  0.826840  0.187716  0.609226  1
  O  O69  1  0.683107  0.080029  0.337975  1
