# generated using pymatgen
data_Sc3Pa(CdNi2)2
_symmetry_space_group_name_H-M   'P 1'
_cell_length_a   7.26505475
_cell_length_b   7.26505590
_cell_length_c   3.35279900
_cell_angle_alpha   90.00000000
_cell_angle_beta   90.00000000
_cell_angle_gamma   92.39307622
_symmetry_Int_Tables_number   1
_chemical_formula_structural   Sc3Pa(CdNi2)2
_chemical_formula_sum   'Sc3 Pa1 Cd2 Ni4'
_cell_volume   176.80984737
_cell_formula_units_Z   1
loop_
 _symmetry_equiv_pos_site_id
 _symmetry_equiv_pos_as_xyz
  1  'x, y, z'
loop_
 _atom_site_type_symbol
 _atom_site_label
 _atom_site_symmetry_multiplicity
 _atom_site_fract_x
 _atom_site_fract_y
 _atom_site_fract_z
 _atom_site_occupancy
  Sc  Sc0  1  0.171575  0.334835  0.500000  1
  Sc  Sc1  1  0.834835  0.671575  0.500000  1
  Sc  Sc2  1  0.325533  0.825533  0.500000  1
  Pa  Pa3  1  0.668188  0.168188  0.500000  1
  Cd  Cd4  1  0.013114  0.994453  0.000000  1
  Cd  Cd5  1  0.494453  0.513114  0.000000  1
  Ni  Ni6  1  0.866157  0.366157  0.000000  1
  Ni  Ni7  1  0.384050  0.126748  0.000000  1
  Ni  Ni8  1  0.626748  0.884050  0.000000  1
  Ni  Ni9  1  0.115347  0.615347  0.000000  1
