# generated using pymatgen
data_CoOs2F12
_symmetry_space_group_name_H-M   'P 1'
_cell_length_a   5.56248687
_cell_length_b   11.15481539
_cell_length_c   5.57954400
_cell_angle_alpha   56.94619165
_cell_angle_beta   57.32842600
_cell_angle_gamma   57.30554086
_symmetry_Int_Tables_number   1
_chemical_formula_structural   CoOs2F12
_chemical_formula_sum   'Co1 Os2 F12'
_cell_volume   228.96823947
_cell_formula_units_Z   1
loop_
 _symmetry_equiv_pos_site_id
 _symmetry_equiv_pos_as_xyz
  1  'x, y, z'
loop_
 _atom_site_type_symbol
 _atom_site_label
 _atom_site_symmetry_multiplicity
 _atom_site_fract_x
 _atom_site_fract_y
 _atom_site_fract_z
 _atom_site_occupancy
  Co  Co0  1  0.000000  0.500000  0.000000  1
  Os  Os1  1  0.494370  0.249772  0.505717  1
  Os  Os2  1  0.505630  0.750228  0.494283  1
  F  F3  1  0.145311  0.196842  0.728299  1
  F  F4  1  0.152490  0.680871  0.741818  1
  F  F5  1  0.365433  0.376093  0.145262  1
  F  F6  1  0.385661  0.859717  0.154687  1
  F  F7  1  0.723459  0.083702  0.377521  1
  F  F8  1  0.743542  0.569265  0.371335  1
  F  F9  1  0.256458  0.430735  0.628665  1
  F  F10  1  0.276541  0.916298  0.622479  1
  F  F11  1  0.614339  0.140283  0.845313  1
  F  F12  1  0.634567  0.623907  0.854738  1
  F  F13  1  0.847510  0.319129  0.258182  1
  F  F14  1  0.854689  0.803158  0.271701  1
