# generated using pymatgen
data_Sr6Sn8BiSe
_symmetry_space_group_name_H-M   'P 1'
_cell_length_a   8.98206781
_cell_length_b   8.98206765
_cell_length_c   8.98206859
_cell_angle_alpha   119.89911833
_cell_angle_beta   119.89911957
_cell_angle_gamma   90.17482094
_symmetry_Int_Tables_number   1
_chemical_formula_structural   Sr6Sn8BiSe
_chemical_formula_sum   'Sr6 Sn8 Bi1 Se1'
_cell_volume   513.18451398
_cell_formula_units_Z   1
loop_
 _symmetry_equiv_pos_site_id
 _symmetry_equiv_pos_as_xyz
  1  'x, y, z'
loop_
 _atom_site_type_symbol
 _atom_site_label
 _atom_site_symmetry_multiplicity
 _atom_site_fract_x
 _atom_site_fract_y
 _atom_site_fract_z
 _atom_site_occupancy
  Sr  Sr0  1  0.261900  0.261900  0.000000  1
  Sr  Sr1  1  0.738100  0.738100  0.000000  1
  Sr  Sr2  1  0.173590  0.657890  0.831481  1
  Sr  Sr3  1  0.826410  0.342110  0.168519  1
  Sr  Sr4  1  0.657890  0.826410  0.484299  1
  Sr  Sr5  1  0.342110  0.173590  0.515701  1
  Sn  Sn6  1  0.835135  0.329964  0.785625  1
  Sn  Sn7  1  0.164865  0.670036  0.214375  1
  Sn  Sn8  1  0.544339  0.049510  0.214375  1
  Sn  Sn9  1  0.329964  0.544339  0.494829  1
  Sn  Sn10  1  0.950490  0.164865  0.494829  1
  Sn  Sn11  1  0.455661  0.950490  0.785625  1
  Sn  Sn12  1  0.670036  0.455661  0.505171  1
  Sn  Sn13  1  0.049510  0.835135  0.505171  1
  Bi  Bi14  1  0.000000  0.000000  0.000000  1
  Se  Se15  1  0.500000  0.500000  0.000000  1
