# generated using pymatgen
data_Cs4ZnCrS5
_symmetry_space_group_name_H-M   'P 1'
_cell_length_a   7.90061921
_cell_length_b   8.90444967
_cell_length_c   10.92882600
_cell_angle_alpha   75.37870759
_cell_angle_beta   86.39975283
_cell_angle_gamma   80.43904834
_symmetry_Int_Tables_number   1
_chemical_formula_structural   Cs4ZnCrS5
_chemical_formula_sum   'Cs8 Zn2 Cr2 S10'
_cell_volume   733.44196862
_cell_formula_units_Z   2
loop_
 _symmetry_equiv_pos_site_id
 _symmetry_equiv_pos_as_xyz
  1  'x, y, z'
loop_
 _atom_site_type_symbol
 _atom_site_label
 _atom_site_symmetry_multiplicity
 _atom_site_fract_x
 _atom_site_fract_y
 _atom_site_fract_z
 _atom_site_occupancy
  Cs  Cs0  1  0.433769  0.308407  0.103387  1
  Cs  Cs1  1  0.566231  0.691593  0.896613  1
  Cs  Cs2  1  0.195925  0.079917  0.863585  1
  Cs  Cs3  1  0.060645  0.614671  0.742759  1
  Cs  Cs4  1  0.804075  0.920083  0.136415  1
  Cs  Cs5  1  0.939355  0.385329  0.257241  1
  Cs  Cs6  1  0.566043  0.726097  0.499496  1
  Cs  Cs7  1  0.433957  0.273903  0.500504  1
  Zn  Zn8  1  0.907992  0.086736  0.595547  1
  Zn  Zn9  1  0.092008  0.913264  0.404453  1
  Cr  Cr10  1  0.276830  0.721838  0.212856  1
  Cr  Cr11  1  0.723170  0.278162  0.787144  1
  S  S12  1  0.871924  0.357090  0.611211  1
  S  S13  1  0.196112  0.961732  0.586165  1
  S  S14  1  0.458632  0.398056  0.772465  1
  S  S15  1  0.163813  0.681078  0.049181  1
  S  S16  1  0.836187  0.318922  0.950819  1
  S  S17  1  0.541368  0.601944  0.227535  1
  S  S18  1  0.128076  0.642910  0.388789  1
  S  S19  1  0.257509  0.975616  0.207264  1
  S  S20  1  0.742491  0.024384  0.792736  1
  S  S21  1  0.803888  0.038268  0.413835  1
