# generated using pymatgen
data_Ca4Sb3Rh4
_symmetry_space_group_name_H-M   'P 1'
_cell_length_a   11.34176478
_cell_length_b   11.34176503
_cell_length_c   8.27549667
_cell_angle_alpha   70.02561048
_cell_angle_beta   70.02561149
_cell_angle_gamma   30.18351839
_symmetry_Int_Tables_number   1
_chemical_formula_structural   Ca4Sb3Rh4
_chemical_formula_sum   'Ca8 Sb6 Rh8'
_cell_volume   500.59452559
_cell_formula_units_Z   2
loop_
 _symmetry_equiv_pos_site_id
 _symmetry_equiv_pos_as_xyz
  1  'x, y, z'
loop_
 _atom_site_type_symbol
 _atom_site_label
 _atom_site_symmetry_multiplicity
 _atom_site_fract_x
 _atom_site_fract_y
 _atom_site_fract_z
 _atom_site_occupancy
  Ca  Ca0  1  0.212657  0.441186  0.404396  1
  Ca  Ca1  1  0.558814  0.787343  0.095604  1
  Ca  Ca2  1  0.441186  0.212657  0.904396  1
  Ca  Ca3  1  0.912106  0.218553  0.334343  1
  Ca  Ca4  1  0.781447  0.087894  0.165657  1
  Ca  Ca5  1  0.087894  0.781447  0.665657  1
  Ca  Ca6  1  0.218553  0.912106  0.834343  1
  Ca  Ca7  1  0.787343  0.558814  0.595604  1
  Sb  Sb8  1  0.634896  0.365104  0.750000  1
  Sb  Sb9  1  0.365104  0.634896  0.250000  1
  Sb  Sb10  1  0.290970  0.045229  0.440348  1
  Sb  Sb11  1  0.954771  0.709030  0.059652  1
  Sb  Sb12  1  0.709030  0.954771  0.559652  1
  Sb  Sb13  1  0.045229  0.290970  0.940348  1
  Rh  Rh14  1  0.304396  0.575396  0.021324  1
  Rh  Rh15  1  0.575396  0.304396  0.521324  1
  Rh  Rh16  1  0.695604  0.424604  0.978676  1
  Rh  Rh17  1  0.076118  0.367691  0.177273  1
  Rh  Rh18  1  0.632309  0.923882  0.322727  1
  Rh  Rh19  1  0.424604  0.695604  0.478676  1
  Rh  Rh20  1  0.923882  0.632309  0.822727  1
  Rh  Rh21  1  0.367691  0.076118  0.677273  1
