# generated using pymatgen
data_Gd4NpUTc6
_symmetry_space_group_name_H-M   'P 1'
_cell_length_a   5.76170300
_cell_length_b   5.76170174
_cell_length_c   8.20317400
_cell_angle_alpha   90.00000000
_cell_angle_beta   90.00000000
_cell_angle_gamma   120.00000150
_symmetry_Int_Tables_number   1
_chemical_formula_structural   Gd4NpUTc6
_chemical_formula_sum   'Gd4 Np1 U1 Tc6'
_cell_volume   235.83822057
_cell_formula_units_Z   1
loop_
 _symmetry_equiv_pos_site_id
 _symmetry_equiv_pos_as_xyz
  1  'x, y, z'
loop_
 _atom_site_type_symbol
 _atom_site_label
 _atom_site_symmetry_multiplicity
 _atom_site_fract_x
 _atom_site_fract_y
 _atom_site_fract_z
 _atom_site_occupancy
  Gd  Gd0  1  0.333333  0.666667  0.439017  1
  Gd  Gd1  1  0.666667  0.333333  0.560983  1
  Gd  Gd2  1  0.666667  0.333333  0.940205  1
  Gd  Gd3  1  0.333333  0.666667  0.059795  1
  Np  Np4  1  0.000000  0.000000  0.500000  1
  U  U5  1  0.000000  0.000000  0.000000  1
  Tc  Tc6  1  0.836560  0.163440  0.252656  1
  Tc  Tc7  1  0.836560  0.673120  0.252656  1
  Tc  Tc8  1  0.326880  0.163440  0.252656  1
  Tc  Tc9  1  0.163440  0.836560  0.747344  1
  Tc  Tc10  1  0.163440  0.326880  0.747344  1
  Tc  Tc11  1  0.673120  0.836560  0.747344  1
