# generated using pymatgen
data_TbDy3MnFe3Os4
_symmetry_space_group_name_H-M   'P 1'
_cell_length_a   5.27622295
_cell_length_b   5.25764710
_cell_length_c   9.14446000
_cell_angle_alpha   73.29300845
_cell_angle_beta   90.65607975
_cell_angle_gamma   119.88359374
_symmetry_Int_Tables_number   1
_chemical_formula_structural   TbDy3MnFe3Os4
_chemical_formula_sum   'Tb1 Dy3 Mn1 Fe3 Os4'
_cell_volume   207.98992997
_cell_formula_units_Z   1
loop_
 _symmetry_equiv_pos_site_id
 _symmetry_equiv_pos_as_xyz
  1  'x, y, z'
loop_
 _atom_site_type_symbol
 _atom_site_label
 _atom_site_symmetry_multiplicity
 _atom_site_fract_x
 _atom_site_fract_y
 _atom_site_fract_z
 _atom_site_occupancy
  Tb  Tb0  1  0.877525  0.752196  0.373133  1
  Dy  Dy1  1  0.377341  0.751845  0.873651  1
  Dy  Dy2  1  0.997697  0.998254  0.001190  1
  Dy  Dy3  1  0.497245  0.997524  0.502196  1
  Mn  Mn4  1  0.187592  0.374969  0.437653  1
  Fe  Fe5  1  0.687562  0.375133  0.937299  1
  Fe  Fe6  1  0.936376  0.374900  0.186576  1
  Fe  Fe7  1  0.438522  0.375084  0.688353  1
  Os  Os8  1  0.437667  0.376017  0.186140  1
  Os  Os9  1  0.937402  0.373980  0.688834  1
  Os  Os10  1  0.437667  0.875511  0.186140  1
  Os  Os11  1  0.937402  0.874586  0.688834  1
