# generated using pymatgen
data_TbHo5(Sc2Pb3)2
_symmetry_space_group_name_H-M   'P 1'
_cell_length_a   8.87529900
_cell_length_b   8.88285641
_cell_length_c   6.36205900
_cell_angle_alpha   90.00000000
_cell_angle_beta   90.00000000
_cell_angle_gamma   119.97185648
_symmetry_Int_Tables_number   1
_chemical_formula_structural   TbHo5(Sc2Pb3)2
_chemical_formula_sum   'Tb1 Ho5 Sc4 Pb6'
_cell_volume   434.49726979
_cell_formula_units_Z   1
loop_
 _symmetry_equiv_pos_site_id
 _symmetry_equiv_pos_as_xyz
  1  'x, y, z'
loop_
 _atom_site_type_symbol
 _atom_site_label
 _atom_site_symmetry_multiplicity
 _atom_site_fract_x
 _atom_site_fract_y
 _atom_site_fract_z
 _atom_site_occupancy
  Tb  Tb0  1  0.238489  0.000000  0.250000  1
  Ho  Ho1  1  0.238641  0.238808  0.750000  1
  Ho  Ho2  1  0.999833  0.761192  0.750000  1
  Ho  Ho3  1  0.999828  0.238638  0.250000  1
  Ho  Ho4  1  0.761190  0.761362  0.250000  1
  Ho  Ho5  1  0.761641  0.000000  0.750000  1
  Sc  Sc6  1  0.333373  0.666658  0.999951  1
  Sc  Sc7  1  0.666716  0.333342  0.500049  1
  Sc  Sc8  1  0.666716  0.333342  0.999951  1
  Sc  Sc9  1  0.333373  0.666658  0.500049  1
  Pb  Pb10  1  0.601786  0.000000  0.250000  1
  Pb  Pb11  1  0.601347  0.601347  0.750000  1
  Pb  Pb12  1  0.000000  0.398653  0.750000  1
  Pb  Pb13  1  0.999506  0.600592  0.250000  1
  Pb  Pb14  1  0.398914  0.399408  0.250000  1
  Pb  Pb15  1  0.398647  0.000000  0.750000  1
