# generated using pymatgen
data_Ac3S3N
_symmetry_space_group_name_H-M   'P 1'
_cell_length_a   4.29258200
_cell_length_b   12.77990900
_cell_length_c   13.79748300
_cell_angle_alpha   90.00000000
_cell_angle_beta   90.00000000
_cell_angle_gamma   90.00000000
_symmetry_Int_Tables_number   1
_chemical_formula_structural   Ac3S3N
_chemical_formula_sum   'Ac12 S12 N4'
_cell_volume   756.91346161
_cell_formula_units_Z   4
loop_
 _symmetry_equiv_pos_site_id
 _symmetry_equiv_pos_as_xyz
  1  'x, y, z'
loop_
 _atom_site_type_symbol
 _atom_site_label
 _atom_site_symmetry_multiplicity
 _atom_site_fract_x
 _atom_site_fract_y
 _atom_site_fract_z
 _atom_site_occupancy
  Ac  Ac0  1  0.250000  0.089160  0.373904  1
  Ac  Ac1  1  0.250000  0.038730  0.849821  1
  Ac  Ac2  1  0.750000  0.961270  0.150179  1
  Ac  Ac3  1  0.250000  0.726425  0.368250  1
  Ac  Ac4  1  0.250000  0.589160  0.126096  1
  Ac  Ac5  1  0.750000  0.773575  0.868250  1
  Ac  Ac6  1  0.250000  0.538730  0.650179  1
  Ac  Ac7  1  0.750000  0.461270  0.349821  1
  Ac  Ac8  1  0.750000  0.410840  0.873904  1
  Ac  Ac9  1  0.250000  0.226425  0.131750  1
  Ac  Ac10  1  0.750000  0.273575  0.631750  1
  Ac  Ac11  1  0.750000  0.910840  0.626096  1
  S  S12  1  0.250000  0.858242  0.998496  1
  S  S13  1  0.750000  0.641758  0.498496  1
  S  S14  1  0.250000  0.358242  0.501504  1
  S  S15  1  0.750000  0.731253  0.201761  1
  S  S16  1  0.750000  0.423004  0.107515  1
  S  S17  1  0.750000  0.141758  0.001504  1
  S  S18  1  0.750000  0.923004  0.392485  1
  S  S19  1  0.250000  0.268747  0.798239  1
  S  S20  1  0.750000  0.231253  0.298239  1
  S  S21  1  0.250000  0.768747  0.701761  1
  S  S22  1  0.250000  0.576996  0.892485  1
  S  S23  1  0.250000  0.076996  0.607515  1
  N  N24  1  0.250000  0.050965  0.202083  1
  N  N25  1  0.250000  0.550965  0.297917  1
  N  N26  1  0.750000  0.949035  0.797917  1
  N  N27  1  0.750000  0.449035  0.702083  1
