# generated using pymatgen
data_Nd3In3CuNiHg
_symmetry_space_group_name_H-M   'P 1'
_cell_length_a   7.86681300
_cell_length_b   7.86681420
_cell_length_c   3.98845800
_cell_angle_alpha   90.00000000
_cell_angle_beta   90.00000000
_cell_angle_gamma   119.99999917
_symmetry_Int_Tables_number   1
_chemical_formula_structural   Nd3In3CuNiHg
_chemical_formula_sum   'Nd3 In3 Cu1 Ni1 Hg1'
_cell_volume   213.76341463
_cell_formula_units_Z   1
loop_
 _symmetry_equiv_pos_site_id
 _symmetry_equiv_pos_as_xyz
  1  'x, y, z'
loop_
 _atom_site_type_symbol
 _atom_site_label
 _atom_site_symmetry_multiplicity
 _atom_site_fract_x
 _atom_site_fract_y
 _atom_site_fract_z
 _atom_site_occupancy
  Nd  Nd0  1  0.399007  0.423134  0.500000  1
  Nd  Nd1  1  0.576866  0.975873  0.500000  1
  Nd  Nd2  1  0.024127  0.600993  0.500000  1
  In  In3  1  0.753035  0.758918  0.000000  1
  In  In4  1  0.241082  0.994117  0.000000  1
  In  In5  1  0.005883  0.246965  0.000000  1
  Cu  Cu6  1  0.000000  0.000000  0.500000  1
  Ni  Ni7  1  0.333333  0.666667  0.000000  1
  Hg  Hg8  1  0.666667  0.333333  0.000000  1
