# generated using pymatgen
data_TbCe2(SnRh)3
_symmetry_space_group_name_H-M   'P 1'
_cell_length_a   7.51906827
_cell_length_b   7.46999214
_cell_length_c   4.03206300
_cell_angle_alpha   90.00000000
_cell_angle_beta   90.00000000
_cell_angle_gamma   119.78432821
_symmetry_Int_Tables_number   1
_chemical_formula_structural   TbCe2(SnRh)3
_chemical_formula_sum   'Tb1 Ce2 Sn3 Rh3'
_cell_volume   196.55398293
_cell_formula_units_Z   1
loop_
 _symmetry_equiv_pos_site_id
 _symmetry_equiv_pos_as_xyz
  1  'x, y, z'
loop_
 _atom_site_type_symbol
 _atom_site_label
 _atom_site_symmetry_multiplicity
 _atom_site_fract_x
 _atom_site_fract_y
 _atom_site_fract_z
 _atom_site_occupancy
  Tb  Tb0  1  0.000000  0.408507  0.000000  1
  Ce  Ce1  1  0.586475  0.586429  0.000000  1
  Ce  Ce2  1  0.413525  0.999954  0.000000  1
  Sn  Sn3  1  0.248489  0.254806  0.500000  1
  Sn  Sn4  1  0.000000  0.739953  0.500000  1
  Sn  Sn5  1  0.751511  0.006317  0.500000  1
  Rh  Rh6  1  0.655675  0.331700  0.500000  1
  Rh  Rh7  1  0.344325  0.676026  0.500000  1
  Rh  Rh8  1  0.000000  0.996308  0.000000  1
