# generated using pymatgen
data_Er3Hg2Ir
_symmetry_space_group_name_H-M   'P 1'
_cell_length_a   12.89745000
_cell_length_b   12.89744911
_cell_length_c   3.67095400
_cell_angle_alpha   90.00000000
_cell_angle_beta   90.00000000
_cell_angle_gamma   112.47094044
_symmetry_Int_Tables_number   1
_chemical_formula_structural   Er3Hg2Ir
_chemical_formula_sum   'Er12 Hg8 Ir4'
_cell_volume   564.27802354
_cell_formula_units_Z   4
loop_
 _symmetry_equiv_pos_site_id
 _symmetry_equiv_pos_as_xyz
  1  'x, y, z'
loop_
 _atom_site_type_symbol
 _atom_site_label
 _atom_site_symmetry_multiplicity
 _atom_site_fract_x
 _atom_site_fract_y
 _atom_site_fract_z
 _atom_site_occupancy
  Er  Er0  1  0.500000  0.500000  0.500000  1
  Er  Er1  1  0.784908  0.784908  0.500000  1
  Er  Er2  1  0.215092  0.215092  0.500000  1
  Er  Er3  1  0.589998  0.920449  0.500000  1
  Er  Er4  1  0.410002  0.079551  0.500000  1
  Er  Er5  1  0.920449  0.589998  0.500000  1
  Er  Er6  1  0.079551  0.410002  0.500000  1
  Er  Er7  1  0.142346  0.857654  0.500000  1
  Er  Er8  1  0.857654  0.142346  0.500000  1
  Er  Er9  1  0.334601  0.665399  0.500000  1
  Er  Er10  1  0.665399  0.334601  0.500000  1
  Er  Er11  1  0.000000  0.000000  0.000000  1
  Hg  Hg12  1  0.359773  0.866635  0.000000  1
  Hg  Hg13  1  0.640227  0.133365  0.000000  1
  Hg  Hg14  1  0.866635  0.359773  0.000000  1
  Hg  Hg15  1  0.133365  0.640227  0.000000  1
  Hg  Hg16  1  0.552092  0.709800  0.000000  1
  Hg  Hg17  1  0.447908  0.290200  0.000000  1
  Hg  Hg18  1  0.709800  0.552092  0.000000  1
  Hg  Hg19  1  0.290200  0.447908  0.000000  1
  Ir  Ir20  1  0.763568  0.952972  0.000000  1
  Ir  Ir21  1  0.236432  0.047028  0.000000  1
  Ir  Ir22  1  0.952972  0.763568  0.000000  1
  Ir  Ir23  1  0.047028  0.236432  0.000000  1
