# generated using pymatgen
data_TbTm4Rh5
_symmetry_space_group_name_H-M   'P 1'
_cell_length_a   3.39700600
_cell_length_b   3.39700600
_cell_length_c   16.97596900
_cell_angle_alpha   90.00000000
_cell_angle_beta   90.00000000
_cell_angle_gamma   90.00000000
_symmetry_Int_Tables_number   1
_chemical_formula_structural   TbTm4Rh5
_chemical_formula_sum   'Tb1 Tm4 Rh5'
_cell_volume   195.89673667
_cell_formula_units_Z   1
loop_
 _symmetry_equiv_pos_site_id
 _symmetry_equiv_pos_as_xyz
  1  'x, y, z'
loop_
 _atom_site_type_symbol
 _atom_site_label
 _atom_site_symmetry_multiplicity
 _atom_site_fract_x
 _atom_site_fract_y
 _atom_site_fract_z
 _atom_site_occupancy
  Tb  Tb0  1  0.000000  0.000000  0.000000  1
  Tm  Tm1  1  0.000000  0.000000  0.202017  1
  Tm  Tm2  1  0.000000  0.000000  0.400701  1
  Tm  Tm3  1  0.000000  0.000000  0.599299  1
  Tm  Tm4  1  0.000000  0.000000  0.797983  1
  Rh  Rh5  1  0.500000  0.500000  0.103774  1
  Rh  Rh6  1  0.500000  0.500000  0.302153  1
  Rh  Rh7  1  0.500000  0.500000  0.500000  1
  Rh  Rh8  1  0.500000  0.500000  0.697847  1
  Rh  Rh9  1  0.500000  0.500000  0.896226  1
