# generated using pymatgen
data_Zr3MnFe6(CoP3)2
_symmetry_space_group_name_H-M   'P 1'
_cell_length_a   11.97403404
_cell_length_b   11.94599877
_cell_length_c   3.64008600
_cell_angle_alpha   90.00000000
_cell_angle_beta   90.00000000
_cell_angle_gamma   120.01492555
_symmetry_Int_Tables_number   1
_chemical_formula_structural   Zr3MnFe6(CoP3)2
_chemical_formula_sum   'Zr6 Mn2 Fe12 Co4 P12'
_cell_volume   450.85811661
_cell_formula_units_Z   2
loop_
 _symmetry_equiv_pos_site_id
 _symmetry_equiv_pos_as_xyz
  1  'x, y, z'
loop_
 _atom_site_type_symbol
 _atom_site_label
 _atom_site_symmetry_multiplicity
 _atom_site_fract_x
 _atom_site_fract_y
 _atom_site_fract_z
 _atom_site_occupancy
  Zr  Zr0  1  0.999785  0.560145  0.000000  1
  Zr  Zr1  1  0.666531  0.334910  0.000000  1
  Zr  Zr2  1  0.332865  0.667402  0.000000  1
  Zr  Zr3  1  0.811726  0.812092  0.500000  1
  Zr  Zr4  1  0.188476  0.001048  0.500000  1
  Zr  Zr5  1  0.000812  0.177366  0.500000  1
  Mn  Mn6  1  0.440090  0.441846  0.000000  1
  Mn  Mn7  1  0.559039  0.001711  0.000000  1
  Fe  Fe8  1  0.199510  0.373151  0.000000  1
  Fe  Fe9  1  0.186344  0.812252  0.000000  1
  Fe  Fe10  1  0.813567  0.625931  0.000000  1
  Fe  Fe11  1  0.124791  0.476450  0.500000  1
  Fe  Fe12  1  0.365307  0.882542  0.500000  1
  Fe  Fe13  1  0.514491  0.642431  0.500000  1
  Fe  Fe14  1  0.634730  0.517297  0.500000  1
  Fe  Fe15  1  0.872418  0.350069  0.500000  1
  Fe  Fe16  1  0.485217  0.127545  0.500000  1
  Fe  Fe17  1  0.716866  0.998182  0.500000  1
  Fe  Fe18  1  0.000015  0.726329  0.500000  1
  Fe  Fe19  1  0.284580  0.280956  0.500000  1
  Co  Co20  1  0.801853  0.173615  0.000000  1
  Co  Co21  1  0.377425  0.197232  0.000000  1
  Co  Co22  1  0.000407  0.000510  0.000000  1
  Co  Co23  1  0.623078  0.820747  0.000000  1
  P  P24  1  0.634708  0.638292  0.000000  1
  P  P25  1  0.364767  0.003343  0.000000  1
  P  P26  1  0.001175  0.347191  0.000000  1
  P  P27  1  0.482080  0.314153  0.500000  1
  P  P28  1  0.684097  0.165271  0.500000  1
  P  P29  1  0.822161  0.521759  0.500000  1
  P  P30  1  0.518140  0.832464  0.500000  1
  P  P31  1  0.177703  0.699176  0.500000  1
  P  P32  1  0.819657  0.996235  0.000000  1
  P  P33  1  0.000214  0.821822  0.000000  1
  P  P34  1  0.314265  0.480301  0.500000  1
  P  P35  1  0.181113  0.178239  0.000000  1
