# generated using pymatgen
data_Th4Fe(Si2Rh)5
_symmetry_space_group_name_H-M   'P 1'
_cell_length_a   8.23029869
_cell_length_b   8.23029764
_cell_length_c   8.23029778
_cell_angle_alpha   137.95408831
_cell_angle_beta   105.84755183
_cell_angle_gamma   89.10116114
_symmetry_Int_Tables_number   1
_chemical_formula_structural   Th4Fe(Si2Rh)5
_chemical_formula_sum   'Th4 Fe1 Si10 Rh5'
_cell_volume   343.70235703
_cell_formula_units_Z   1
loop_
 _symmetry_equiv_pos_site_id
 _symmetry_equiv_pos_as_xyz
  1  'x, y, z'
loop_
 _atom_site_type_symbol
 _atom_site_label
 _atom_site_symmetry_multiplicity
 _atom_site_fract_x
 _atom_site_fract_y
 _atom_site_fract_z
 _atom_site_occupancy
  Th  Th0  1  0.864343  0.630297  0.234807  1
  Th  Th1  1  0.135657  0.370463  0.765953  1
  Th  Th2  1  0.395490  0.129537  0.265193  1
  Th  Th3  1  0.604510  0.869703  0.734047  1
  Fe  Fe4  1  0.000000  0.750000  0.750000  1
  Si  Si5  1  0.500000  0.750000  0.250000  1
  Si  Si6  1  0.500000  0.250000  0.750000  1
  Si  Si7  1  0.223105  0.973105  0.750000  1
  Si  Si8  1  0.776895  0.526895  0.750000  1
  Si  Si9  1  0.774910  0.024910  0.250000  1
  Si  Si10  1  0.225090  0.475090  0.250000  1
  Si  Si11  1  0.042455  0.886693  0.138515  1
  Si  Si12  1  0.957545  0.096059  0.844237  1
  Si  Si13  1  0.748178  0.403941  0.361485  1
  Si  Si14  1  0.251822  0.613307  0.655763  1
  Rh  Rh15  1  0.000000  0.250000  0.250000  1
  Rh  Rh16  1  0.248429  0.861420  0.388417  1
  Rh  Rh17  1  0.751571  0.139988  0.612991  1
  Rh  Rh18  1  0.473004  0.360012  0.111583  1
  Rh  Rh19  1  0.526996  0.638580  0.887009  1
