# generated using pymatgen
data_K8Ba2V3AsSe16
_symmetry_space_group_name_H-M   'P 1'
_cell_length_a   11.96811587
_cell_length_b   12.09592319
_cell_length_c   11.96811678
_cell_angle_alpha   133.47101746
_cell_angle_beta   128.02878070
_cell_angle_gamma   72.05514027
_symmetry_Int_Tables_number   1
_chemical_formula_structural   K8Ba2V3AsSe16
_chemical_formula_sum   'K8 Ba2 V3 As1 Se16'
_cell_volume   969.91606399
_cell_formula_units_Z   1
loop_
 _symmetry_equiv_pos_site_id
 _symmetry_equiv_pos_as_xyz
  1  'x, y, z'
loop_
 _atom_site_type_symbol
 _atom_site_label
 _atom_site_symmetry_multiplicity
 _atom_site_fract_x
 _atom_site_fract_y
 _atom_site_fract_z
 _atom_site_occupancy
  K  K0  1  0.494212  0.245573  0.242362  1
  K  K1  1  0.997786  0.749488  0.240955  1
  K  K2  1  0.581697  0.708900  0.127203  1
  K  K3  1  0.427583  0.308159  0.880576  1
  K  K4  1  0.508534  0.749488  0.751702  1
  K  K5  1  0.075270  0.455278  0.380007  1
  K  K6  1  0.920429  0.545686  0.625258  1
  K  K7  1  0.003211  0.245573  0.751360  1
  Ba  Ba8  1  0.249885  0.004425  0.254073  1
  Ba  Ba9  1  0.750351  0.004425  0.754540  1
  V  V10  1  0.866679  0.075569  0.208890  1
  V  V11  1  0.369673  0.666370  0.296697  1
  V  V12  1  0.631683  0.340061  0.708377  1
  As  As13  1  0.133064  0.918458  0.785395  1
  Se  Se14  1  0.593939  0.608860  0.369779  1
  Se  Se15  1  0.749895  0.983602  0.233707  1
  Se  Se16  1  0.893899  0.866161  0.972261  1
  Se  Se17  1  0.762758  0.395527  0.989070  1
  Se  Se18  1  0.733615  0.222705  0.132105  1
  Se  Se19  1  0.748417  0.480161  0.731745  1
  Se  Se20  1  0.251816  0.985282  0.733466  1
  Se  Se21  1  0.239081  0.608860  0.014920  1
  Se  Se22  1  0.253616  0.529140  0.275523  1
  Se  Se23  1  0.251399  0.764605  0.865840  1
  Se  Se24  1  0.114706  0.146625  0.031919  1
  Se  Se25  1  0.898765  0.764605  0.513205  1
  Se  Se26  1  0.090599  0.222705  0.489091  1
  Se  Se27  1  0.607564  0.080180  0.472615  1
  Se  Se28  1  0.406459  0.395527  0.632769  1
  Se  Se29  1  0.393415  0.928005  0.534591  1
