# generated using pymatgen
data_NaPaNb3Ni9As7
_symmetry_space_group_name_H-M   'P 1'
_cell_length_a   9.66671400
_cell_length_b   9.66671322
_cell_length_c   3.83085700
_cell_angle_alpha   90.00000000
_cell_angle_beta   90.00000000
_cell_angle_gamma   120.00000265
_symmetry_Int_Tables_number   1
_chemical_formula_structural   NaPaNb3Ni9As7
_chemical_formula_sum   'Na1 Pa1 Nb3 Ni9 As7'
_cell_volume   310.01611206
_cell_formula_units_Z   1
loop_
 _symmetry_equiv_pos_site_id
 _symmetry_equiv_pos_as_xyz
  1  'x, y, z'
loop_
 _atom_site_type_symbol
 _atom_site_label
 _atom_site_symmetry_multiplicity
 _atom_site_fract_x
 _atom_site_fract_y
 _atom_site_fract_z
 _atom_site_occupancy
  Na  Na0  1  0.333333  0.666667  0.000000  1
  Pa  Pa1  1  0.666667  0.333333  0.500000  1
  Nb  Nb2  1  0.223224  0.119189  0.500000  1
  Nb  Nb3  1  0.880811  0.104033  0.500000  1
  Nb  Nb4  1  0.895967  0.776776  0.500000  1
  Ni  Ni5  1  0.131215  0.282717  0.000000  1
  Ni  Ni6  1  0.717283  0.848499  0.000000  1
  Ni  Ni7  1  0.151501  0.868785  0.000000  1
  Ni  Ni8  1  0.427888  0.356217  0.000000  1
  Ni  Ni9  1  0.643783  0.071670  0.000000  1
  Ni  Ni10  1  0.928330  0.572112  0.000000  1
  Ni  Ni11  1  0.058637  0.433123  0.500000  1
  Ni  Ni12  1  0.566877  0.625514  0.500000  1
  Ni  Ni13  1  0.374486  0.941363  0.500000  1
  As  As14  1  0.299602  0.417707  0.500000  1
  As  As15  1  0.582293  0.881895  0.500000  1
  As  As16  1  0.118105  0.700398  0.500000  1
  As  As17  1  0.416711  0.105216  0.000000  1
  As  As18  1  0.894784  0.311494  0.000000  1
  As  As19  1  0.688506  0.583289  0.000000  1
  As  As20  1  0.000000  0.000000  0.000000  1
