# generated using pymatgen
data_Ho6VFe(Co4P3)4
_symmetry_space_group_name_H-M   'P 1'
_cell_length_a   3.68372300
_cell_length_b   10.52183000
_cell_length_c   12.17784900
_cell_angle_alpha   90.00000000
_cell_angle_beta   90.00000000
_cell_angle_gamma   90.00000000
_symmetry_Int_Tables_number   1
_chemical_formula_structural   Ho6VFe(Co4P3)4
_chemical_formula_sum   'Ho6 V1 Fe1 Co16 P12'
_cell_volume   472.00742567
_cell_formula_units_Z   1
loop_
 _symmetry_equiv_pos_site_id
 _symmetry_equiv_pos_as_xyz
  1  'x, y, z'
loop_
 _atom_site_type_symbol
 _atom_site_label
 _atom_site_symmetry_multiplicity
 _atom_site_fract_x
 _atom_site_fract_y
 _atom_site_fract_z
 _atom_site_occupancy
  Ho  Ho0  1  0.000000  0.500000  0.522138  1
  Ho  Ho1  1  0.500000  0.000000  0.476664  1
  Ho  Ho2  1  0.500000  0.818238  0.204310  1
  Ho  Ho3  1  0.500000  0.181762  0.204310  1
  Ho  Ho4  1  0.000000  0.681797  0.794406  1
  Ho  Ho5  1  0.000000  0.318203  0.794406  1
  V  V6  1  0.000000  0.000000  0.846010  1
  Fe  Fe7  1  0.500000  0.500000  0.157028  1
  Co  Co8  1  0.000000  0.500000  0.986467  1
  Co  Co9  1  0.500000  0.000000  0.013684  1
  Co  Co10  1  0.500000  0.296874  0.431051  1
  Co  Co11  1  0.500000  0.703126  0.431051  1
  Co  Co12  1  0.000000  0.203588  0.569080  1
  Co  Co13  1  0.000000  0.796412  0.569080  1
  Co  Co14  1  0.500000  0.878700  0.708328  1
  Co  Co15  1  0.500000  0.121300  0.708328  1
  Co  Co16  1  0.000000  0.621371  0.291356  1
  Co  Co17  1  0.000000  0.378629  0.291356  1
  Co  Co18  1  0.500000  0.333186  0.993999  1
  Co  Co19  1  0.500000  0.666814  0.993999  1
  Co  Co20  1  0.000000  0.167697  0.007045  1
  Co  Co21  1  0.000000  0.832303  0.007045  1
  Co  Co22  1  0.500000  0.500000  0.702506  1
  Co  Co23  1  0.000000  0.000000  0.298584  1
  P  P24  1  0.500000  0.311272  0.615646  1
  P  P25  1  0.500000  0.688728  0.615646  1
  P  P26  1  0.000000  0.189491  0.383671  1
  P  P27  1  0.000000  0.810509  0.383671  1
  P  P28  1  0.500000  0.500000  0.882261  1
  P  P29  1  0.000000  0.000000  0.118597  1
  P  P30  1  0.500000  0.845236  0.892979  1
  P  P31  1  0.500000  0.154764  0.892979  1
  P  P32  1  0.000000  0.651895  0.108510  1
  P  P33  1  0.000000  0.348105  0.108510  1
  P  P34  1  0.500000  0.500000  0.342988  1
  P  P35  1  0.000000  0.000000  0.652311  1
