# generated using pymatgen
data_Tb4Ga18PdRh5
_symmetry_space_group_name_H-M   'P 1'
_cell_length_a   7.60422247
_cell_length_b   7.60422098
_cell_length_c   9.54267767
_cell_angle_alpha   90.03384704
_cell_angle_beta   90.03384966
_cell_angle_gamma   119.87646024
_symmetry_Int_Tables_number   1
_chemical_formula_structural   Tb4Ga18PdRh5
_chemical_formula_sum   'Tb4 Ga18 Pd1 Rh5'
_cell_volume   478.46417108
_cell_formula_units_Z   1
loop_
 _symmetry_equiv_pos_site_id
 _symmetry_equiv_pos_as_xyz
  1  'x, y, z'
loop_
 _atom_site_type_symbol
 _atom_site_label
 _atom_site_symmetry_multiplicity
 _atom_site_fract_x
 _atom_site_fract_y
 _atom_site_fract_z
 _atom_site_occupancy
  Tb  Tb0  1  0.996566  0.667885  0.250669  1
  Tb  Tb1  1  0.003434  0.332115  0.749331  1
  Tb  Tb2  1  0.667885  0.996566  0.250669  1
  Tb  Tb3  1  0.332115  0.003434  0.749331  1
  Ga  Ga4  1  0.126712  0.126712  0.252167  1
  Ga  Ga5  1  0.873288  0.873288  0.747833  1
  Ga  Ga6  1  0.000134  0.336651  0.079341  1
  Ga  Ga7  1  0.999866  0.663349  0.920659  1
  Ga  Ga8  1  0.000000  0.665953  0.578010  1
  Ga  Ga9  1  0.334047  0.000000  0.421990  1
  Ga  Ga10  1  0.000000  0.334047  0.421990  1
  Ga  Ga11  1  0.665953  0.000000  0.578010  1
  Ga  Ga12  1  0.663349  0.999866  0.920659  1
  Ga  Ga13  1  0.336651  0.000134  0.079341  1
  Ga  Ga14  1  0.333231  0.333231  0.562908  1
  Ga  Ga15  1  0.666769  0.666769  0.437092  1
  Ga  Ga16  1  0.663308  0.663308  0.064088  1
  Ga  Ga17  1  0.336692  0.336692  0.935912  1
  Ga  Ga18  1  0.337744  0.546510  0.250255  1
  Ga  Ga19  1  0.662256  0.453490  0.749745  1
  Ga  Ga20  1  0.546510  0.337744  0.250255  1
  Ga  Ga21  1  0.453490  0.662256  0.749745  1
  Pd  Pd22  1  0.000000  0.000000  0.000000  1
  Rh  Rh23  1  0.671546  0.328454  0.000000  1
  Rh  Rh24  1  0.328454  0.671546  0.000000  1
  Rh  Rh25  1  0.328451  0.671549  0.500000  1
  Rh  Rh26  1  0.671549  0.328451  0.500000  1
  Rh  Rh27  1  0.000000  0.000000  0.500000  1
