# generated using pymatgen
data_Tb5Sc5(Si5Pt2)4
_symmetry_space_group_name_H-M   'P 1'
_cell_length_a   12.54398500
_cell_length_b   12.54398500
_cell_length_c   4.21876100
_cell_angle_alpha   90.00000000
_cell_angle_beta   90.00000000
_cell_angle_gamma   90.00000000
_symmetry_Int_Tables_number   1
_chemical_formula_structural   Tb5Sc5(Si5Pt2)4
_chemical_formula_sum   'Tb5 Sc5 Si20 Pt8'
_cell_volume   663.82862327
_cell_formula_units_Z   1
loop_
 _symmetry_equiv_pos_site_id
 _symmetry_equiv_pos_as_xyz
  1  'x, y, z'
loop_
 _atom_site_type_symbol
 _atom_site_label
 _atom_site_symmetry_multiplicity
 _atom_site_fract_x
 _atom_site_fract_y
 _atom_site_fract_z
 _atom_site_occupancy
  Tb  Tb0  1  0.000000  0.000000  0.000000  1
  Tb  Tb1  1  0.886214  0.387362  0.500000  1
  Tb  Tb2  1  0.113786  0.612638  0.500000  1
  Tb  Tb3  1  0.387362  0.113786  0.500000  1
  Tb  Tb4  1  0.612638  0.886214  0.500000  1
  Sc  Sc5  1  0.500000  0.500000  0.000000  1
  Sc  Sc6  1  0.673934  0.175892  0.500000  1
  Sc  Sc7  1  0.326066  0.824108  0.500000  1
  Sc  Sc8  1  0.175892  0.326066  0.500000  1
  Sc  Sc9  1  0.824108  0.673934  0.500000  1
  Si  Si10  1  0.565338  0.067468  0.000000  1
  Si  Si11  1  0.434662  0.932532  0.000000  1
  Si  Si12  1  0.067468  0.434662  0.000000  1
  Si  Si13  1  0.932532  0.565338  0.000000  1
  Si  Si14  1  0.666300  0.702244  0.000000  1
  Si  Si15  1  0.333700  0.297756  0.000000  1
  Si  Si16  1  0.166396  0.797675  0.000000  1
  Si  Si17  1  0.833604  0.202325  0.000000  1
  Si  Si18  1  0.297756  0.666300  0.000000  1
  Si  Si19  1  0.702244  0.333700  0.000000  1
  Si  Si20  1  0.202325  0.166396  0.000000  1
  Si  Si21  1  0.797675  0.833604  0.000000  1
  Si  Si22  1  0.647495  0.507381  0.500000  1
  Si  Si23  1  0.352505  0.492619  0.500000  1
  Si  Si24  1  0.154430  0.994171  0.500000  1
  Si  Si25  1  0.845570  0.005829  0.500000  1
  Si  Si26  1  0.492619  0.647495  0.500000  1
  Si  Si27  1  0.507381  0.352505  0.500000  1
  Si  Si28  1  0.005829  0.154430  0.500000  1
  Si  Si29  1  0.994171  0.845570  0.500000  1
  Pt  Pt30  1  0.740309  0.521658  0.000000  1
  Pt  Pt31  1  0.259691  0.478342  0.000000  1
  Pt  Pt32  1  0.244690  0.977891  0.000000  1
  Pt  Pt33  1  0.755310  0.022109  0.000000  1
  Pt  Pt34  1  0.478342  0.740309  0.000000  1
  Pt  Pt35  1  0.521658  0.259691  0.000000  1
  Pt  Pt36  1  0.022109  0.244690  0.000000  1
  Pt  Pt37  1  0.977891  0.755310  0.000000  1
