# generated using pymatgen
data_Hf8Cd4Cu3Ni5
_symmetry_space_group_name_H-M   'P 1'
_cell_length_a   7.21984002
_cell_length_b   7.23015605
_cell_length_c   6.56007248
_cell_angle_alpha   90.05351091
_cell_angle_beta   90.05398794
_cell_angle_gamma   90.20227938
_symmetry_Int_Tables_number   1
_chemical_formula_structural   Hf8Cd4Cu3Ni5
_chemical_formula_sum   'Hf8 Cd4 Cu3 Ni5'
_cell_volume   342.43708625
_cell_formula_units_Z   1
loop_
 _symmetry_equiv_pos_site_id
 _symmetry_equiv_pos_as_xyz
  1  'x, y, z'
loop_
 _atom_site_type_symbol
 _atom_site_label
 _atom_site_symmetry_multiplicity
 _atom_site_fract_x
 _atom_site_fract_y
 _atom_site_fract_z
 _atom_site_occupancy
  Hf  Hf0  1  0.144746  0.159867  0.003664  1
  Hf  Hf1  1  0.832610  0.846429  0.999038  1
  Hf  Hf2  1  0.664473  0.340479  0.496535  1
  Hf  Hf3  1  0.357124  0.648215  0.495784  1
  Hf  Hf4  1  0.686739  0.320860  0.003020  1
  Hf  Hf5  1  0.331475  0.677235  0.002759  1
  Hf  Hf6  1  0.807452  0.821887  0.500507  1
  Hf  Hf7  1  0.173184  0.189038  0.496239  1
  Cd  Cd8  1  0.494960  0.003860  0.250362  1
  Cd  Cd9  1  0.495013  0.002395  0.748902  1
  Cd  Cd10  1  0.002565  0.505853  0.249825  1
  Cd  Cd11  1  0.000941  0.505392  0.749399  1
  Cu  Cu12  1  0.376046  0.370549  0.786084  1
  Cu  Cu13  1  0.125071  0.872344  0.285353  1
  Cu  Cu14  1  0.126544  0.872886  0.714326  1
  Ni  Ni15  1  0.376712  0.373942  0.220996  1
  Ni  Ni16  1  0.623754  0.620620  0.774855  1
  Ni  Ni17  1  0.627506  0.624028  0.223077  1
  Ni  Ni18  1  0.876586  0.122677  0.724545  1
  Ni  Ni19  1  0.876499  0.121444  0.274731  1
