# generated using pymatgen
data_La4Pr7Ho5(CdPt)4
_symmetry_space_group_name_H-M   'P 1'
_cell_length_a   9.98451071
_cell_length_b   9.98451076
_cell_length_c   9.95375900
_cell_angle_alpha   60.10182832
_cell_angle_beta   60.10182814
_cell_angle_gamma   60.29143865
_symmetry_Int_Tables_number   1
_chemical_formula_structural   La4Pr7Ho5(CdPt)4
_chemical_formula_sum   'La4 Pr7 Ho5 Cd4 Pt4'
_cell_volume   704.27586779
_cell_formula_units_Z   1
loop_
 _symmetry_equiv_pos_site_id
 _symmetry_equiv_pos_as_xyz
  1  'x, y, z'
loop_
 _atom_site_type_symbol
 _atom_site_label
 _atom_site_symmetry_multiplicity
 _atom_site_fract_x
 _atom_site_fract_y
 _atom_site_fract_z
 _atom_site_occupancy
  La  La0  1  0.351590  0.351590  0.352763  1
  La  La1  1  0.351590  0.351590  0.944055  1
  La  La2  1  0.349495  0.943444  0.353530  1
  La  La3  1  0.943444  0.349495  0.353530  1
  Pr  Pr4  1  0.814563  0.814563  0.185437  1
  Pr  Pr5  1  0.940040  0.560622  0.566091  1
  Pr  Pr6  1  0.560622  0.940040  0.933247  1
  Pr  Pr7  1  0.560622  0.940040  0.566091  1
  Pr  Pr8  1  0.940040  0.560622  0.933247  1
  Pr  Pr9  1  0.562950  0.562950  0.937050  1
  Pr  Pr10  1  0.935572  0.935572  0.564428  1
  Ho  Ho11  1  0.815016  0.187330  0.183867  1
  Ho  Ho12  1  0.187330  0.815016  0.813787  1
  Ho  Ho13  1  0.187330  0.815016  0.183867  1
  Ho  Ho14  1  0.815016  0.187330  0.813787  1
  Ho  Ho15  1  0.183835  0.183835  0.816165  1
  Cd  Cd16  1  0.580150  0.580150  0.581576  1
  Cd  Cd17  1  0.580150  0.580150  0.258125  1
  Cd  Cd18  1  0.581251  0.258616  0.580066  1
  Cd  Cd19  1  0.258616  0.581251  0.580066  1
  Pt  Pt20  1  0.139022  0.139022  0.140907  1
  Pt  Pt21  1  0.139022  0.139022  0.581048  1
  Pt  Pt22  1  0.147456  0.575278  0.138633  1
  Pt  Pt23  1  0.575278  0.147456  0.138633  1
