# generated using pymatgen
data_Nd4Ga18TcPd5
_symmetry_space_group_name_H-M   'P 1'
_cell_length_a   7.76330896
_cell_length_b   7.76328875
_cell_length_c   9.79366557
_cell_angle_alpha   90.13968206
_cell_angle_beta   90.13988335
_cell_angle_gamma   119.73866120
_symmetry_Int_Tables_number   1
_chemical_formula_structural   Nd4Ga18TcPd5
_chemical_formula_sum   'Nd4 Ga18 Tc1 Pd5'
_cell_volume   512.50847347
_cell_formula_units_Z   1
loop_
 _symmetry_equiv_pos_site_id
 _symmetry_equiv_pos_as_xyz
  1  'x, y, z'
loop_
 _atom_site_type_symbol
 _atom_site_label
 _atom_site_symmetry_multiplicity
 _atom_site_fract_x
 _atom_site_fract_y
 _atom_site_fract_z
 _atom_site_occupancy
  Nd  Nd0  1  0.997366  0.668612  0.248778  1
  Nd  Nd1  1  0.002634  0.331388  0.751222  1
  Nd  Nd2  1  0.668613  0.997370  0.248776  1
  Nd  Nd3  1  0.331387  0.002630  0.751224  1
  Ga  Ga4  1  0.129424  0.129424  0.254044  1
  Ga  Ga5  1  0.870576  0.870576  0.745956  1
  Ga  Ga6  1  0.003386  0.334889  0.079103  1
  Ga  Ga7  1  0.996614  0.665111  0.920897  1
  Ga  Ga8  1  0.998880  0.670457  0.574666  1
  Ga  Ga9  1  0.329541  0.001120  0.425334  1
  Ga  Ga10  1  0.001120  0.329543  0.425334  1
  Ga  Ga11  1  0.670459  0.998880  0.574666  1
  Ga  Ga12  1  0.665111  0.996615  0.920897  1
  Ga  Ga13  1  0.334889  0.003385  0.079103  1
  Ga  Ga14  1  0.328901  0.328901  0.559459  1
  Ga  Ga15  1  0.671099  0.671099  0.440541  1
  Ga  Ga16  1  0.664191  0.664192  0.064567  1
  Ga  Ga17  1  0.335809  0.335808  0.935433  1
  Ga  Ga18  1  0.340076  0.543342  0.250747  1
  Ga  Ga19  1  0.659924  0.456658  0.749253  1
  Ga  Ga20  1  0.543341  0.340075  0.250746  1
  Ga  Ga21  1  0.456659  0.659925  0.749254  1
  Tc  Tc22  1  0.000000  0.000000  0.500000  1
  Pd  Pd23  1  0.670750  0.329248  0.000000  1
  Pd  Pd24  1  0.329250  0.670752  0.000000  1
  Pd  Pd25  1  0.329319  0.670682  0.500000  1
  Pd  Pd26  1  0.670681  0.329318  0.500000  1
  Pd  Pd27  1  0.000000  0.000000  0.000000  1
