# generated using pymatgen
data_Ho16Al4OsPd3
_symmetry_space_group_name_H-M   'P 1'
_cell_length_a   9.56671821
_cell_length_b   9.56671871
_cell_length_c   9.56672040
_cell_angle_alpha   59.63286876
_cell_angle_beta   59.63286799
_cell_angle_gamma   59.63286371
_symmetry_Int_Tables_number   1
_chemical_formula_structural   Ho16Al4OsPd3
_chemical_formula_sum   'Ho16 Al4 Os1 Pd3'
_cell_volume   613.95370573
_cell_formula_units_Z   1
loop_
 _symmetry_equiv_pos_site_id
 _symmetry_equiv_pos_as_xyz
  1  'x, y, z'
loop_
 _atom_site_type_symbol
 _atom_site_label
 _atom_site_symmetry_multiplicity
 _atom_site_fract_x
 _atom_site_fract_y
 _atom_site_fract_z
 _atom_site_occupancy
  Ho  Ho0  1  0.355778  0.355778  0.355778  1
  Ho  Ho1  1  0.354060  0.354060  0.936103  1
  Ho  Ho2  1  0.354060  0.936103  0.354060  1
  Ho  Ho3  1  0.936103  0.354060  0.354060  1
  Ho  Ho4  1  0.813578  0.190797  0.190797  1
  Ho  Ho5  1  0.191805  0.806586  0.806586  1
  Ho  Ho6  1  0.190797  0.813578  0.190797  1
  Ho  Ho7  1  0.806586  0.191805  0.806586  1
  Ho  Ho8  1  0.190797  0.190797  0.813578  1
  Ho  Ho9  1  0.806586  0.806586  0.191805  1
  Ho  Ho10  1  0.934001  0.564945  0.564945  1
  Ho  Ho11  1  0.556258  0.937960  0.937960  1
  Ho  Ho12  1  0.564945  0.934001  0.564945  1
  Ho  Ho13  1  0.937960  0.556258  0.937960  1
  Ho  Ho14  1  0.564945  0.564945  0.934001  1
  Ho  Ho15  1  0.937960  0.937960  0.556258  1
  Al  Al16  1  0.578278  0.578278  0.578278  1
  Al  Al17  1  0.578204  0.578204  0.266548  1
  Al  Al18  1  0.578204  0.266548  0.578204  1
  Al  Al19  1  0.266548  0.578204  0.578204  1
  Os  Os20  1  0.144545  0.144545  0.144545  1
  Pd  Pd21  1  0.145515  0.145515  0.566973  1
  Pd  Pd22  1  0.145515  0.566973  0.145515  1
  Pd  Pd23  1  0.566973  0.145515  0.145515  1
