# generated using pymatgen
data_Er6InFePd
_symmetry_space_group_name_H-M   'P 1'
_cell_length_a   8.40535180
_cell_length_b   8.40535341
_cell_length_c   8.40535248
_cell_angle_alpha   111.87448259
_cell_angle_beta   109.91885460
_cell_angle_gamma   106.66267875
_symmetry_Int_Tables_number   1
_chemical_formula_structural   Er6InFePd
_chemical_formula_sum   'Er12 In2 Fe2 Pd2'
_cell_volume   456.17768401
_cell_formula_units_Z   2
loop_
 _symmetry_equiv_pos_site_id
 _symmetry_equiv_pos_as_xyz
  1  'x, y, z'
loop_
 _atom_site_type_symbol
 _atom_site_label
 _atom_site_symmetry_multiplicity
 _atom_site_fract_x
 _atom_site_fract_y
 _atom_site_fract_z
 _atom_site_occupancy
  Er  Er0  1  0.445921  0.244106  0.201816  1
  Er  Er1  1  0.554079  0.755894  0.798184  1
  Er  Er2  1  0.042290  0.244106  0.798184  1
  Er  Er3  1  0.957710  0.755894  0.201816  1
  Er  Er4  1  0.182695  0.288617  0.471312  1
  Er  Er5  1  0.817305  0.711383  0.528688  1
  Er  Er6  1  0.182695  0.711383  0.894078  1
  Er  Er7  1  0.817305  0.288617  0.105922  1
  Er  Er8  1  0.309875  0.616869  0.306994  1
  Er  Er9  1  0.690125  0.383131  0.693006  1
  Er  Er10  1  0.309875  0.002881  0.693006  1
  Er  Er11  1  0.690125  0.997119  0.306994  1
  In  In12  1  0.500000  0.500000  0.000000  1
  In  In13  1  0.000000  0.000000  0.000000  1
  Fe  Fe14  1  0.107567  0.607567  0.500000  1
  Fe  Fe15  1  0.892433  0.392433  0.500000  1
  Pd  Pd16  1  0.347628  0.000000  0.347628  1
  Pd  Pd17  1  0.652372  0.000000  0.652372  1
