# generated using pymatgen
data_Sr3Sm(Sn2Pt)4
_symmetry_space_group_name_H-M   'P 1'
_cell_length_a   9.13173620
_cell_length_b   9.13173478
_cell_length_c   9.69061200
_cell_angle_alpha   90.00000000
_cell_angle_beta   90.00000000
_cell_angle_gamma   149.60904330
_symmetry_Int_Tables_number   1
_chemical_formula_structural   Sr3Sm(Sn2Pt)4
_chemical_formula_sum   'Sr3 Sm1 Sn8 Pt4'
_cell_volume   408.80903922
_cell_formula_units_Z   1
loop_
 _symmetry_equiv_pos_site_id
 _symmetry_equiv_pos_as_xyz
  1  'x, y, z'
loop_
 _atom_site_type_symbol
 _atom_site_label
 _atom_site_symmetry_multiplicity
 _atom_site_fract_x
 _atom_site_fract_y
 _atom_site_fract_z
 _atom_site_occupancy
  Sr  Sr0  1  0.500343  0.499657  0.500385  1
  Sr  Sr1  1  0.500343  0.499657  0.999615  1
  Sr  Sr2  1  0.700348  0.299652  0.750000  1
  Sm  Sm3  1  0.297644  0.702356  0.250000  1
  Sn  Sn4  1  0.911484  0.088516  0.750000  1
  Sn  Sn5  1  0.923641  0.076359  0.250000  1
  Sn  Sn6  1  0.088455  0.911545  0.250000  1
  Sn  Sn7  1  0.073658  0.926342  0.750000  1
  Sn  Sn8  1  0.698266  0.301734  0.405165  1
  Sn  Sn9  1  0.303085  0.696915  0.592528  1
  Sn  Sn10  1  0.303085  0.696915  0.907472  1
  Sn  Sn11  1  0.698266  0.301734  0.094835  1
  Pt  Pt12  1  0.151359  0.848641  0.504515  1
  Pt  Pt13  1  0.849332  0.150668  0.007786  1
  Pt  Pt14  1  0.151359  0.848641  0.995485  1
  Pt  Pt15  1  0.849332  0.150668  0.492214  1
