# generated using pymatgen
data_MnAg3Te8
_symmetry_space_group_name_H-M   'P 1'
_cell_length_a   6.92695045
_cell_length_b   6.92695165
_cell_length_c   6.92695166
_cell_angle_alpha   90.34381544
_cell_angle_beta   89.65617946
_cell_angle_gamma   90.34381371
_symmetry_Int_Tables_number   1
_chemical_formula_structural   MnAg3Te8
_chemical_formula_sum   'Mn1 Ag3 Te8'
_cell_volume   332.35562216
_cell_formula_units_Z   1
loop_
 _symmetry_equiv_pos_site_id
 _symmetry_equiv_pos_as_xyz
  1  'x, y, z'
loop_
 _atom_site_type_symbol
 _atom_site_label
 _atom_site_symmetry_multiplicity
 _atom_site_fract_x
 _atom_site_fract_y
 _atom_site_fract_z
 _atom_site_occupancy
  Mn  Mn0  1  0.000000  0.500000  0.500000  1
  Ag  Ag1  1  0.000000  0.000000  0.000000  1
  Ag  Ag2  1  0.500000  0.000000  0.500000  1
  Ag  Ag3  1  0.500000  0.500000  0.000000  1
  Te  Te4  1  0.356028  0.397508  0.389085  1
  Te  Te5  1  0.102492  0.610915  0.856028  1
  Te  Te6  1  0.889085  0.143972  0.602492  1
  Te  Te7  1  0.614616  0.885384  0.114616  1
  Te  Te8  1  0.643972  0.602492  0.610915  1
  Te  Te9  1  0.897508  0.389085  0.143972  1
  Te  Te10  1  0.110915  0.856028  0.397508  1
  Te  Te11  1  0.385384  0.114616  0.885384  1
