# generated using pymatgen
data_HoTh3(BRu)16
_symmetry_space_group_name_H-M   'P 1'
_cell_length_a   9.29461257
_cell_length_b   7.55183455
_cell_length_c   7.55183474
_cell_angle_alpha   89.65241034
_cell_angle_beta   114.12397617
_cell_angle_gamma   114.12397594
_symmetry_Int_Tables_number   1
_chemical_formula_structural   HoTh3(BRu)16
_chemical_formula_sum   'Ho1 Th3 B16 Ru16'
_cell_volume   433.20295341
_cell_formula_units_Z   1
loop_
 _symmetry_equiv_pos_site_id
 _symmetry_equiv_pos_as_xyz
  1  'x, y, z'
loop_
 _atom_site_type_symbol
 _atom_site_label
 _atom_site_symmetry_multiplicity
 _atom_site_fract_x
 _atom_site_fract_y
 _atom_site_fract_z
 _atom_site_occupancy
  Ho  Ho0  1  0.249999  0.125000  0.875000  1
  Th  Th1  1  0.750000  0.875000  0.125000  1
  Th  Th2  1  0.249999  0.625000  0.374999  1
  Th  Th3  1  0.750000  0.375000  0.624999  1
  B  B4  1  0.913997  0.289644  0.063699  1
  B  B5  1  0.414931  0.564606  0.124623  1
  B  B6  1  0.085069  0.209692  0.149674  1
  B  B7  1  0.582758  0.147392  0.207258  1
  B  B8  1  0.412713  0.063491  0.287184  1
  B  B9  1  0.913997  0.624355  0.350298  1
  B  B10  1  0.586002  0.649701  0.375646  1
  B  B11  1  0.085069  0.875377  0.435394  1
  B  B12  1  0.917241  0.124500  0.564634  1
  B  B13  1  0.412713  0.349222  0.625529  1
  B  B14  1  0.087287  0.374471  0.650778  1
  B  B15  1  0.586002  0.936300  0.710356  1
  B  B16  1  0.414931  0.850326  0.790308  1
  B  B17  1  0.917241  0.792741  0.852607  1
  B  B18  1  0.582758  0.435366  0.875499  1
  B  B19  1  0.087287  0.712816  0.936509  1
  Ru  Ru20  1  0.872406  0.551039  0.039003  1
  Ru  Ru21  1  0.371716  0.833577  0.049053  1
  Ru  Ru22  1  0.128284  0.950947  0.166423  1
  Ru  Ru23  1  0.625884  0.458748  0.177323  1
  Ru  Ru24  1  0.373067  0.334088  0.321774  1
  Ru  Ru25  1  0.872406  0.321367  0.333405  1
  Ru  Ru26  1  0.627595  0.960998  0.448961  1
  Ru  Ru27  1  0.128284  0.177337  0.461861  1
  Ru  Ru28  1  0.874117  0.822679  0.541252  1
  Ru  Ru29  1  0.373067  0.038979  0.551292  1
  Ru  Ru30  1  0.126933  0.678227  0.665912  1
  Ru  Ru31  1  0.627595  0.666596  0.678633  1
  Ru  Ru32  1  0.371716  0.538139  0.822663  1
  Ru  Ru33  1  0.874117  0.051438  0.832864  1
  Ru  Ru34  1  0.625884  0.167136  0.948561  1
  Ru  Ru35  1  0.126933  0.448708  0.961021  1
