# generated using pymatgen
data_LiTbEr3Al17Pd6
_symmetry_space_group_name_H-M   'P 1'
_cell_length_a   7.61188706
_cell_length_b   7.61415711
_cell_length_c   9.45185200
_cell_angle_alpha   90.00000000
_cell_angle_beta   90.00000000
_cell_angle_gamma   119.31695777
_symmetry_Int_Tables_number   1
_chemical_formula_structural   LiTbEr3Al17Pd6
_chemical_formula_sum   'Li1 Tb1 Er3 Al17 Pd6'
_cell_volume   477.65014016
_cell_formula_units_Z   1
loop_
 _symmetry_equiv_pos_site_id
 _symmetry_equiv_pos_as_xyz
  1  'x, y, z'
loop_
 _atom_site_type_symbol
 _atom_site_label
 _atom_site_symmetry_multiplicity
 _atom_site_fract_x
 _atom_site_fract_y
 _atom_site_fract_z
 _atom_site_occupancy
  Li  Li0  1  0.128201  0.128473  0.250000  1
  Tb  Tb1  1  0.007910  0.329907  0.750000  1
  Er  Er2  1  0.995227  0.665123  0.250000  1
  Er  Er3  1  0.664574  0.994728  0.250000  1
  Er  Er4  1  0.329247  0.007699  0.750000  1
  Al  Al5  1  0.866108  0.866153  0.750000  1
  Al  Al6  1  0.000726  0.328610  0.081888  1
  Al  Al7  1  0.000863  0.665486  0.924282  1
  Al  Al8  1  0.000863  0.665486  0.575718  1
  Al  Al9  1  0.328696  0.000722  0.418913  1
  Al  Al10  1  0.000726  0.328610  0.418112  1
  Al  Al11  1  0.663970  0.000239  0.575642  1
  Al  Al12  1  0.663970  0.000239  0.924358  1
  Al  Al13  1  0.328696  0.000722  0.081087  1
  Al  Al14  1  0.335176  0.334729  0.545680  1
  Al  Al15  1  0.672280  0.672250  0.438276  1
  Al  Al16  1  0.672280  0.672250  0.061724  1
  Al  Al17  1  0.335176  0.334729  0.954320  1
  Al  Al18  1  0.340677  0.543467  0.250000  1
  Al  Al19  1  0.658656  0.450927  0.750000  1
  Al  Al20  1  0.542994  0.340037  0.250000  1
  Al  Al21  1  0.451647  0.658605  0.750000  1
  Pd  Pd22  1  0.675291  0.329874  0.000626  1
  Pd  Pd23  1  0.330044  0.675370  0.000550  1
  Pd  Pd24  1  0.330044  0.675370  0.499450  1
  Pd  Pd25  1  0.675291  0.329874  0.499374  1
  Pd  Pd26  1  0.000334  0.000161  0.994206  1
  Pd  Pd27  1  0.000334  0.000161  0.505794  1
