# generated using pymatgen
data_K2ZrWO6
_symmetry_space_group_name_H-M   'P 1'
_cell_length_a   5.78454928
_cell_length_b   5.78454904
_cell_length_c   5.78454900
_cell_angle_alpha   60.00000595
_cell_angle_beta   60.00000734
_cell_angle_gamma   90.00000276
_symmetry_Int_Tables_number   1
_chemical_formula_structural   K2ZrWO6
_chemical_formula_sum   'K2 Zr1 W1 O6'
_cell_volume   136.86538272
_cell_formula_units_Z   1
loop_
 _symmetry_equiv_pos_site_id
 _symmetry_equiv_pos_as_xyz
  1  'x, y, z'
loop_
 _atom_site_type_symbol
 _atom_site_label
 _atom_site_symmetry_multiplicity
 _atom_site_fract_x
 _atom_site_fract_y
 _atom_site_fract_z
 _atom_site_occupancy
  K  K0  1  0.250002  0.750001  0.499998  1
  K  K1  1  0.750000  0.250000  0.500000  1
  Zr  Zr2  1  0.500000  0.500000  0.000000  1
  W  W3  1  0.000000  0.000000  0.000000  1
  O  O4  1  0.239715  0.239715  0.000000  1
  O  O5  1  0.760283  0.239717  0.000000  1
  O  O6  1  0.239715  0.760284  0.000000  1
  O  O7  1  0.760284  0.760284  0.000000  1
  O  O8  1  0.239717  0.239717  0.520567  1
  O  O9  1  0.760283  0.760283  0.479433  1
