# generated using pymatgen
data_Li2MnSn3S8
_symmetry_space_group_name_H-M   'P 1'
_cell_length_a   7.39144064
_cell_length_b   7.39144104
_cell_length_c   7.39144027
_cell_angle_alpha   61.17004536
_cell_angle_beta   61.17003663
_cell_angle_gamma   61.17004830
_symmetry_Int_Tables_number   1
_chemical_formula_structural   Li2MnSn3S8
_chemical_formula_sum   'Li2 Mn1 Sn3 S8'
_cell_volume   293.06031827
_cell_formula_units_Z   1
loop_
 _symmetry_equiv_pos_site_id
 _symmetry_equiv_pos_as_xyz
  1  'x, y, z'
loop_
 _atom_site_type_symbol
 _atom_site_label
 _atom_site_symmetry_multiplicity
 _atom_site_fract_x
 _atom_site_fract_y
 _atom_site_fract_z
 _atom_site_occupancy
  Li  Li0  1  0.381036  0.381036  0.381036  1
  Li  Li1  1  0.618964  0.618964  0.618964  1
  Mn  Mn2  1  0.000000  0.000000  0.000000  1
  Sn  Sn3  1  0.000000  0.500000  0.000000  1
  Sn  Sn4  1  0.000000  0.000000  0.500000  1
  Sn  Sn5  1  0.500000  0.000000  0.000000  1
  S  S6  1  0.776848  0.216082  0.776848  1
  S  S7  1  0.750837  0.750837  0.750837  1
  S  S8  1  0.783918  0.223152  0.223152  1
  S  S9  1  0.223152  0.223152  0.783918  1
  S  S10  1  0.223152  0.783918  0.223152  1
  S  S11  1  0.249163  0.249163  0.249163  1
  S  S12  1  0.216082  0.776848  0.776848  1
  S  S13  1  0.776848  0.776848  0.216082  1
