# generated using pymatgen
data_Tb2Ho3Tm15Pt16
_symmetry_space_group_name_H-M   'P 1'
_cell_length_a   7.41238103
_cell_length_b   7.49437794
_cell_length_c   14.61179501
_cell_angle_alpha   90.02063973
_cell_angle_beta   90.00377418
_cell_angle_gamma   89.96953585
_symmetry_Int_Tables_number   1
_chemical_formula_structural   Tb2Ho3Tm15Pt16
_chemical_formula_sum   'Tb2 Ho3 Tm15 Pt16'
_cell_volume   811.70235656
_cell_formula_units_Z   1
loop_
 _symmetry_equiv_pos_site_id
 _symmetry_equiv_pos_as_xyz
  1  'x, y, z'
loop_
 _atom_site_type_symbol
 _atom_site_label
 _atom_site_symmetry_multiplicity
 _atom_site_fract_x
 _atom_site_fract_y
 _atom_site_fract_z
 _atom_site_occupancy
  Tb  Tb0  1  0.998990  0.179226  0.407055  1
  Tb  Tb1  1  0.499194  0.321543  0.407510  1
  Ho  Ho2  1  0.998831  0.178801  0.092455  1
  Ho  Ho3  1  0.500946  0.678992  0.907560  1
  Ho  Ho4  1  0.001252  0.820390  0.592732  1
  Tm  Tm5  1  0.656030  0.167430  0.622708  1
  Tm  Tm6  1  0.156075  0.332716  0.877470  1
  Tm  Tm7  1  0.343855  0.832712  0.122457  1
  Tm  Tm8  1  0.843876  0.667336  0.377357  1
  Tm  Tm9  1  0.344700  0.831959  0.377645  1
  Tm  Tm10  1  0.843989  0.667537  0.122029  1
  Tm  Tm11  1  0.655948  0.167536  0.877790  1
  Tm  Tm12  1  0.156432  0.332763  0.622487  1
  Tm  Tm13  1  0.501610  0.680133  0.593102  1
  Tm  Tm14  1  0.001680  0.819933  0.906942  1
  Tm  Tm15  1  0.498252  0.319949  0.092937  1
  Tm  Tm16  1  0.819102  0.510334  0.750034  1
  Tm  Tm17  1  0.319064  0.989604  0.750133  1
  Tm  Tm18  1  0.180846  0.489834  0.249614  1
  Tm  Tm19  1  0.680762  0.010270  0.249713  1
  Pt  Pt20  1  0.683160  0.965770  0.458694  1
  Pt  Pt21  1  0.184711  0.533183  0.041579  1
  Pt  Pt22  1  0.315325  0.033131  0.958419  1
  Pt  Pt23  1  0.815336  0.467583  0.541896  1
  Pt  Pt24  1  0.316834  0.032387  0.542101  1
  Pt  Pt25  1  0.816678  0.467039  0.958338  1
  Pt  Pt26  1  0.683317  0.967144  0.041655  1
  Pt  Pt27  1  0.183455  0.534321  0.458844  1
  Pt  Pt28  1  0.453852  0.386818  0.749880  1
  Pt  Pt29  1  0.953741  0.113269  0.750263  1
  Pt  Pt30  1  0.546065  0.613516  0.249590  1
  Pt  Pt31  1  0.046441  0.886287  0.249942  1
  Pt  Pt32  1  0.681829  0.856106  0.749849  1
  Pt  Pt33  1  0.181884  0.644010  0.750367  1
  Pt  Pt34  1  0.318475  0.143867  0.249336  1
  Pt  Pt35  1  0.817463  0.356575  0.249518  1
