# generated using pymatgen
data_TbHo5ZrCo17P12
_symmetry_space_group_name_H-M   'P 1'
_cell_length_a   3.69739000
_cell_length_b   10.56313600
_cell_length_c   12.27369200
_cell_angle_alpha   90.00000000
_cell_angle_beta   90.00000000
_cell_angle_gamma   90.00000000
_symmetry_Int_Tables_number   1
_chemical_formula_structural   TbHo5ZrCo17P12
_chemical_formula_sum   'Tb1 Ho5 Zr1 Co17 P12'
_cell_volume   479.36172488
_cell_formula_units_Z   1
loop_
 _symmetry_equiv_pos_site_id
 _symmetry_equiv_pos_as_xyz
  1  'x, y, z'
loop_
 _atom_site_type_symbol
 _atom_site_label
 _atom_site_symmetry_multiplicity
 _atom_site_fract_x
 _atom_site_fract_y
 _atom_site_fract_z
 _atom_site_occupancy
  Tb  Tb0  1  0.500000  0.000000  0.477737  1
  Ho  Ho1  1  0.000000  0.500000  0.529203  1
  Ho  Ho2  1  0.500000  0.821489  0.207411  1
  Ho  Ho3  1  0.500000  0.178511  0.207411  1
  Ho  Ho4  1  0.000000  0.683005  0.795829  1
  Ho  Ho5  1  0.000000  0.316995  0.795829  1
  Zr  Zr6  1  0.500000  0.500000  0.154410  1
  Co  Co7  1  0.000000  0.500000  0.982974  1
  Co  Co8  1  0.500000  0.000000  0.013803  1
  Co  Co9  1  0.500000  0.294289  0.434687  1
  Co  Co10  1  0.500000  0.705711  0.434687  1
  Co  Co11  1  0.000000  0.202028  0.570623  1
  Co  Co12  1  0.000000  0.797972  0.570623  1
  Co  Co13  1  0.500000  0.880157  0.707746  1
  Co  Co14  1  0.500000  0.119843  0.707746  1
  Co  Co15  1  0.000000  0.623073  0.297811  1
  Co  Co16  1  0.000000  0.376927  0.297811  1
  Co  Co17  1  0.500000  0.326834  0.987816  1
  Co  Co18  1  0.500000  0.673166  0.987816  1
  Co  Co19  1  0.000000  0.161244  0.001428  1
  Co  Co20  1  0.000000  0.838756  0.001428  1
  Co  Co21  1  0.000000  0.000000  0.836619  1
  Co  Co22  1  0.500000  0.500000  0.702570  1
  Co  Co23  1  0.000000  0.000000  0.296063  1
  P  P24  1  0.500000  0.309168  0.618025  1
  P  P25  1  0.500000  0.690832  0.618025  1
  P  P26  1  0.000000  0.188373  0.386364  1
  P  P27  1  0.000000  0.811627  0.386364  1
  P  P28  1  0.500000  0.500000  0.881099  1
  P  P29  1  0.000000  0.000000  0.116641  1
  P  P30  1  0.500000  0.852562  0.888308  1
  P  P31  1  0.500000  0.147438  0.888308  1
  P  P32  1  0.000000  0.665450  0.099707  1
  P  P33  1  0.000000  0.334550  0.099707  1
  P  P34  1  0.500000  0.500000  0.362159  1
  P  P35  1  0.000000  0.000000  0.655216  1
