# generated using pymatgen
data_Ta5Mn2MoS12
_symmetry_space_group_name_H-M   'P 1'
_cell_length_a   5.77628700
_cell_length_b   5.77628614
_cell_length_c   12.58533600
_cell_angle_alpha   90.00000000
_cell_angle_beta   90.00000000
_cell_angle_gamma   120.00001065
_symmetry_Int_Tables_number   1
_chemical_formula_structural   Ta5Mn2MoS12
_chemical_formula_sum   'Ta5 Mn2 Mo1 S12'
_cell_volume   363.65776223
_cell_formula_units_Z   1
loop_
 _symmetry_equiv_pos_site_id
 _symmetry_equiv_pos_as_xyz
  1  'x, y, z'
loop_
 _atom_site_type_symbol
 _atom_site_label
 _atom_site_symmetry_multiplicity
 _atom_site_fract_x
 _atom_site_fract_y
 _atom_site_fract_z
 _atom_site_occupancy
  Ta  Ta0  1  0.000000  0.000000  0.500000  1
  Ta  Ta1  1  0.333333  0.666667  0.500308  1
  Ta  Ta2  1  0.666667  0.333333  0.999985  1
  Ta  Ta3  1  0.666667  0.333333  0.499692  1
  Ta  Ta4  1  0.333333  0.666667  0.000015  1
  Mn  Mn5  1  0.333333  0.666667  0.252196  1
  Mn  Mn6  1  0.666667  0.333333  0.747804  1
  Mo  Mo7  1  0.000000  0.000000  0.000000  1
  S  S8  1  0.330321  0.003225  0.123878  1
  S  S9  1  0.996775  0.327094  0.123878  1
  S  S10  1  0.666664  0.995970  0.625143  1
  S  S11  1  0.003225  0.330321  0.876122  1
  S  S12  1  0.672906  0.669679  0.123878  1
  S  S13  1  0.004030  0.670694  0.625143  1
  S  S14  1  0.327094  0.996775  0.876122  1
  S  S15  1  0.995970  0.666664  0.374857  1
  S  S16  1  0.329306  0.333336  0.625143  1
  S  S17  1  0.670694  0.004030  0.374857  1
  S  S18  1  0.669679  0.672906  0.876122  1
  S  S19  1  0.333336  0.329306  0.374857  1
