# generated using pymatgen
data_TmIn2(Ni10P3)2
_symmetry_space_group_name_H-M   'P 1'
_cell_length_a   7.92730800
_cell_length_b   7.92730783
_cell_length_c   7.92730800
_cell_angle_alpha   120.00000072
_cell_angle_beta   90.00000000
_cell_angle_gamma   120.00000072
_symmetry_Int_Tables_number   1
_chemical_formula_structural   TmIn2(Ni10P3)2
_chemical_formula_sum   'Tm1 In2 Ni20 P6'
_cell_volume   352.25906649
_cell_formula_units_Z   1
loop_
 _symmetry_equiv_pos_site_id
 _symmetry_equiv_pos_as_xyz
  1  'x, y, z'
loop_
 _atom_site_type_symbol
 _atom_site_label
 _atom_site_symmetry_multiplicity
 _atom_site_fract_x
 _atom_site_fract_y
 _atom_site_fract_z
 _atom_site_occupancy
  Tm  Tm0  1  0.000000  0.000000  0.000000  1
  In  In1  1  0.750001  0.500000  0.250000  1
  In  In2  1  0.250000  0.500000  0.750001  1
  Ni  Ni3  1  0.350162  0.000000  0.000000  1
  Ni  Ni4  1  0.649839  0.000000  0.000000  1
  Ni  Ni5  1  0.000000  0.350162  0.000000  1
  Ni  Ni6  1  0.350162  0.350162  0.000000  1
  Ni  Ni7  1  0.000000  0.649839  0.000000  1
  Ni  Ni8  1  0.649839  0.649839  0.000000  1
  Ni  Ni9  1  0.384306  0.768612  0.152920  1
  Ni  Ni10  1  0.000000  0.000000  0.350162  1
  Ni  Ni11  1  0.000000  0.350162  0.350162  1
  Ni  Ni12  1  0.350162  0.350162  0.350162  1
  Ni  Ni13  1  0.152920  0.768612  0.384306  1
  Ni  Ni14  1  0.615693  0.768612  0.384306  1
  Ni  Ni15  1  0.615693  0.231387  0.384306  1
  Ni  Ni16  1  0.384306  0.231387  0.615693  1
  Ni  Ni17  1  0.384306  0.768612  0.615693  1
  Ni  Ni18  1  0.847080  0.231387  0.615694  1
  Ni  Ni19  1  0.000000  0.000000  0.649839  1
  Ni  Ni20  1  0.000000  0.649839  0.649839  1
  Ni  Ni21  1  0.649839  0.649839  0.649839  1
  Ni  Ni22  1  0.615694  0.231387  0.847080  1
  P  P23  1  0.264829  0.000000  0.264829  1
  P  P24  1  0.735170  0.000000  0.264829  1
  P  P25  1  0.264829  0.529658  0.264829  1
  P  P26  1  0.264829  0.000000  0.735170  1
  P  P27  1  0.735170  0.470341  0.735170  1
  P  P28  1  0.735171  0.000000  0.735171  1
