# generated using pymatgen
data_HoTaCrB6
_symmetry_space_group_name_H-M   'P 1'
_cell_length_a   3.39882100
_cell_length_b   8.89990800
_cell_length_c   11.26060300
_cell_angle_alpha   90.00000000
_cell_angle_beta   90.00000000
_cell_angle_gamma   90.00000000
_symmetry_Int_Tables_number   1
_chemical_formula_structural   HoTaCrB6
_chemical_formula_sum   'Ho4 Ta4 Cr4 B24'
_cell_volume   340.62416705
_cell_formula_units_Z   4
loop_
 _symmetry_equiv_pos_site_id
 _symmetry_equiv_pos_as_xyz
  1  'x, y, z'
loop_
 _atom_site_type_symbol
 _atom_site_label
 _atom_site_symmetry_multiplicity
 _atom_site_fract_x
 _atom_site_fract_y
 _atom_site_fract_z
 _atom_site_occupancy
  Ho  Ho0  1  0.000000  0.822546  0.085962  1
  Ho  Ho1  1  0.000000  0.177454  0.914038  1
  Ho  Ho2  1  0.000000  0.322546  0.414038  1
  Ho  Ho3  1  0.000000  0.677454  0.585962  1
  Ta  Ta4  1  0.000000  0.445060  0.127663  1
  Ta  Ta5  1  0.000000  0.554940  0.872337  1
  Ta  Ta6  1  0.000000  0.945060  0.372337  1
  Ta  Ta7  1  0.000000  0.054940  0.627663  1
  Cr  Cr8  1  0.000000  0.143500  0.183426  1
  Cr  Cr9  1  0.000000  0.856500  0.816574  1
  Cr  Cr10  1  0.000000  0.643500  0.316574  1
  Cr  Cr11  1  0.000000  0.356500  0.683426  1
  B  B12  1  0.500000  0.054419  0.067503  1
  B  B13  1  0.500000  0.945581  0.932497  1
  B  B14  1  0.500000  0.554419  0.432497  1
  B  B15  1  0.500000  0.445581  0.567503  1
  B  B16  1  0.500000  0.253562  0.082644  1
  B  B17  1  0.500000  0.746438  0.917356  1
  B  B18  1  0.500000  0.753562  0.417356  1
  B  B19  1  0.500000  0.246438  0.582644  1
  B  B20  1  0.500000  0.296689  0.236258  1
  B  B21  1  0.500000  0.703311  0.763742  1
  B  B22  1  0.500000  0.796689  0.263742  1
  B  B23  1  0.500000  0.203311  0.736258  1
  B  B24  1  0.500000  0.130001  0.317600  1
  B  B25  1  0.500000  0.869999  0.682400  1
  B  B26  1  0.500000  0.630001  0.182400  1
  B  B27  1  0.500000  0.369999  0.817600  1
  B  B28  1  0.500000  0.482103  0.286510  1
  B  B29  1  0.500000  0.517897  0.713490  1
  B  B30  1  0.500000  0.982103  0.213490  1
  B  B31  1  0.500000  0.017897  0.786510  1
  B  B32  1  0.500000  0.099382  0.473802  1
  B  B33  1  0.500000  0.900618  0.526198  1
  B  B34  1  0.500000  0.599382  0.026198  1
  B  B35  1  0.500000  0.400618  0.973802  1
