# generated using pymatgen
data_Y20Cd3Tc2Ag3
_symmetry_space_group_name_H-M   'P 1'
_cell_length_a   9.56988200
_cell_length_b   9.56988070
_cell_length_c   9.85736100
_cell_angle_alpha   90.00000000
_cell_angle_beta   90.00000000
_cell_angle_gamma   119.99999758
_symmetry_Int_Tables_number   1
_chemical_formula_structural   Y20Cd3Tc2Ag3
_chemical_formula_sum   'Y20 Cd3 Tc2 Ag3'
_cell_volume   781.81574180
_cell_formula_units_Z   1
loop_
 _symmetry_equiv_pos_site_id
 _symmetry_equiv_pos_as_xyz
  1  'x, y, z'
loop_
 _atom_site_type_symbol
 _atom_site_label
 _atom_site_symmetry_multiplicity
 _atom_site_fract_x
 _atom_site_fract_y
 _atom_site_fract_z
 _atom_site_occupancy
  Y  Y0  1  0.000000  0.000000  0.477992  1
  Y  Y1  1  0.000000  0.000000  0.022008  1
  Y  Y2  1  0.209693  0.790307  0.441827  1
  Y  Y3  1  0.209693  0.419388  0.441827  1
  Y  Y4  1  0.580612  0.790307  0.441827  1
  Y  Y5  1  0.791323  0.208677  0.559890  1
  Y  Y6  1  0.791323  0.582645  0.559890  1
  Y  Y7  1  0.417355  0.208677  0.559890  1
  Y  Y8  1  0.791323  0.208677  0.940110  1
  Y  Y9  1  0.791323  0.582645  0.940110  1
  Y  Y10  1  0.417355  0.208677  0.940110  1
  Y  Y11  1  0.209693  0.790307  0.058173  1
  Y  Y12  1  0.209693  0.419388  0.058173  1
  Y  Y13  1  0.580612  0.790307  0.058173  1
  Y  Y14  1  0.538888  0.461112  0.250000  1
  Y  Y15  1  0.538888  0.077777  0.250000  1
  Y  Y16  1  0.922223  0.461112  0.250000  1
  Y  Y17  1  0.459923  0.540077  0.750000  1
  Y  Y18  1  0.459923  0.919846  0.750000  1
  Y  Y19  1  0.080154  0.540077  0.750000  1
  Cd  Cd20  1  0.111097  0.888903  0.750000  1
  Cd  Cd21  1  0.111097  0.222192  0.750000  1
  Cd  Cd22  1  0.777808  0.888903  0.750000  1
  Tc  Tc23  1  0.333333  0.666667  0.250000  1
  Tc  Tc24  1  0.666667  0.333333  0.750000  1
  Ag  Ag25  1  0.877310  0.122690  0.250000  1
  Ag  Ag26  1  0.877310  0.754623  0.250000  1
  Ag  Ag27  1  0.245377  0.122690  0.250000  1
