# generated using pymatgen
data_Hf6GaFeTe
_symmetry_space_group_name_H-M   'P 1'
_cell_length_a   3.45502000
_cell_length_b   7.75636290
_cell_length_c   7.75636400
_cell_angle_alpha   120.00000467
_cell_angle_beta   90.00000000
_cell_angle_gamma   90.00000000
_symmetry_Int_Tables_number   1
_chemical_formula_structural   Hf6GaFeTe
_chemical_formula_sum   'Hf6 Ga1 Fe1 Te1'
_cell_volume   180.01035135
_cell_formula_units_Z   1
loop_
 _symmetry_equiv_pos_site_id
 _symmetry_equiv_pos_as_xyz
  1  'x, y, z'
loop_
 _atom_site_type_symbol
 _atom_site_label
 _atom_site_symmetry_multiplicity
 _atom_site_fract_x
 _atom_site_fract_y
 _atom_site_fract_z
 _atom_site_occupancy
  Hf  Hf0  1  0.500000  0.752986  0.759059  1
  Hf  Hf1  1  0.500000  0.006072  0.247014  1
  Hf  Hf2  1  0.500000  0.240941  0.993928  1
  Hf  Hf3  1  0.000000  0.393829  0.401835  1
  Hf  Hf4  1  0.000000  0.008005  0.606171  1
  Hf  Hf5  1  0.000000  0.598165  0.991995  1
  Ga  Ga6  1  0.500000  0.333333  0.666667  1
  Fe  Fe7  1  0.000000  0.000000  0.000000  1
  Te  Te8  1  0.500000  0.666667  0.333333  1
