# generated using pymatgen
data_Tb2ErTh3(Al3Ru)8
_symmetry_space_group_name_H-M   'P 1'
_cell_length_a   8.89303176
_cell_length_b   8.86591918
_cell_length_c   9.58368900
_cell_angle_alpha   90.00000000
_cell_angle_beta   90.00000000
_cell_angle_gamma   119.89920584
_symmetry_Int_Tables_number   1
_chemical_formula_structural   Tb2ErTh3(Al3Ru)8
_chemical_formula_sum   'Tb2 Er1 Th3 Al24 Ru8'
_cell_volume   655.05408462
_cell_formula_units_Z   1
loop_
 _symmetry_equiv_pos_site_id
 _symmetry_equiv_pos_as_xyz
  1  'x, y, z'
loop_
 _atom_site_type_symbol
 _atom_site_label
 _atom_site_symmetry_multiplicity
 _atom_site_fract_x
 _atom_site_fract_y
 _atom_site_fract_z
 _atom_site_occupancy
  Tb  Tb0  1  0.191971  0.807134  0.750000  1
  Tb  Tb1  1  0.191971  0.384837  0.750000  1
  Er  Er2  1  0.612652  0.806326  0.750000  1
  Th  Th3  1  0.390204  0.195102  0.250000  1
  Th  Th4  1  0.806006  0.196525  0.250000  1
  Th  Th5  1  0.806006  0.609481  0.250000  1
  Al  Al6  1  0.435929  0.870727  0.250000  1
  Al  Al7  1  0.130132  0.565066  0.250000  1
  Al  Al8  1  0.435929  0.565203  0.250000  1
  Al  Al9  1  0.558965  0.118136  0.750000  1
  Al  Al10  1  0.881162  0.440582  0.750000  1
  Al  Al11  1  0.558965  0.440831  0.750000  1
  Al  Al12  1  0.163544  0.836424  0.426125  1
  Al  Al13  1  0.163544  0.327121  0.426125  1
  Al  Al14  1  0.673295  0.836648  0.426936  1
  Al  Al15  1  0.837496  0.161182  0.581909  1
  Al  Al16  1  0.837496  0.676313  0.581909  1
  Al  Al17  1  0.324118  0.162059  0.581882  1
  Al  Al18  1  0.837496  0.161182  0.918091  1
  Al  Al19  1  0.837496  0.676313  0.918091  1
  Al  Al20  1  0.324118  0.162059  0.918118  1
  Al  Al21  1  0.163544  0.836424  0.073875  1
  Al  Al22  1  0.163544  0.327121  0.073875  1
  Al  Al23  1  0.673295  0.836648  0.073064  1
  Al  Al24  1  0.333445  0.666723  0.521238  1
  Al  Al25  1  0.666766  0.333382  0.494216  1
  Al  Al26  1  0.666766  0.333382  0.005784  1
  Al  Al27  1  0.333445  0.666723  0.978762  1
  Al  Al28  1  0.000141  0.000070  0.250000  1
  Al  Al29  1  0.997489  0.998745  0.750000  1
  Ru  Ru30  1  0.000576  0.000288  0.501380  1
  Ru  Ru31  1  0.000576  0.000288  0.998620  1
  Ru  Ru32  1  0.500634  0.000120  0.498302  1
  Ru  Ru33  1  0.999688  0.499844  0.497829  1
  Ru  Ru34  1  0.500634  0.500514  0.498302  1
  Ru  Ru35  1  0.500634  0.000120  0.001698  1
  Ru  Ru36  1  0.999688  0.499844  0.002171  1
  Ru  Ru37  1  0.500634  0.500514  0.001698  1
