# generated using pymatgen
data_Ho20Pt7Rh5
_symmetry_space_group_name_H-M   'P 1'
_cell_length_a   10.99406321
_cell_length_b   10.99406323
_cell_length_c   6.32307642
_cell_angle_alpha   90.02048354
_cell_angle_beta   90.02047968
_cell_angle_gamma   90.07097512
_symmetry_Int_Tables_number   1
_chemical_formula_structural   Ho20Pt7Rh5
_chemical_formula_sum   'Ho20 Pt7 Rh5'
_cell_volume   764.26593408
_cell_formula_units_Z   1
loop_
 _symmetry_equiv_pos_site_id
 _symmetry_equiv_pos_as_xyz
  1  'x, y, z'
loop_
 _atom_site_type_symbol
 _atom_site_label
 _atom_site_symmetry_multiplicity
 _atom_site_fract_x
 _atom_site_fract_y
 _atom_site_fract_z
 _atom_site_occupancy
  Ho  Ho0  1  0.293839  0.088144  0.377777  1
  Ho  Ho1  1  0.293159  0.911720  0.876960  1
  Ho  Ho2  1  0.708008  0.089265  0.879005  1
  Ho  Ho3  1  0.707134  0.912364  0.376560  1
  Ho  Ho4  1  0.588277  0.793352  0.876534  1
  Ho  Ho5  1  0.589495  0.206708  0.376280  1
  Ho  Ho6  1  0.411632  0.793479  0.377039  1
  Ho  Ho7  1  0.411802  0.206377  0.876768  1
  Ho  Ho8  1  0.206648  0.411723  0.623466  1
  Ho  Ho9  1  0.206521  0.588368  0.122961  1
  Ho  Ho10  1  0.793292  0.410505  0.123720  1
  Ho  Ho11  1  0.793623  0.588198  0.623232  1
  Ho  Ho12  1  0.911856  0.706161  0.122223  1
  Ho  Ho13  1  0.910735  0.291992  0.620995  1
  Ho  Ho14  1  0.088280  0.706841  0.623040  1
  Ho  Ho15  1  0.087636  0.292866  0.123440  1
  Ho  Ho16  1  0.998914  0.001183  0.499554  1
  Ho  Ho17  1  0.998817  0.001086  0.000446  1
  Ho  Ho18  1  0.500138  0.499897  0.999837  1
  Ho  Ho19  1  0.500103  0.499862  0.500163  1
  Pt  Pt20  1  0.845315  0.845688  0.749931  1
  Pt  Pt21  1  0.154312  0.154685  0.750069  1
  Pt  Pt22  1  0.154224  0.845776  0.250000  1
  Pt  Pt23  1  0.654711  0.345289  0.750000  1
  Pt  Pt24  1  0.654337  0.654317  0.250107  1
  Pt  Pt25  1  0.345683  0.345663  0.249893  1
  Pt  Pt26  1  0.345576  0.654424  0.750000  1
  Rh  Rh27  1  0.845680  0.154320  0.250000  1
  Rh  Rh28  1  0.500281  0.000106  0.122568  1
  Rh  Rh29  1  0.499978  0.999901  0.622691  1
  Rh  Rh30  1  0.000099  0.500022  0.877309  1
  Rh  Rh31  1  0.999894  0.499719  0.377432  1
