# generated using pymatgen
data_Yb2(FeN)3
_symmetry_space_group_name_H-M   'P 1'
_cell_length_a   6.15837748
_cell_length_b   6.15837753
_cell_length_c   6.00132602
_cell_angle_alpha   87.59281056
_cell_angle_beta   87.59279636
_cell_angle_gamma   117.90240955
_symmetry_Int_Tables_number   1
_chemical_formula_structural   Yb2(FeN)3
_chemical_formula_sum   'Yb4 Fe6 N6'
_cell_volume   200.47603191
_cell_formula_units_Z   2
loop_
 _symmetry_equiv_pos_site_id
 _symmetry_equiv_pos_as_xyz
  1  'x, y, z'
loop_
 _atom_site_type_symbol
 _atom_site_label
 _atom_site_symmetry_multiplicity
 _atom_site_fract_x
 _atom_site_fract_y
 _atom_site_fract_z
 _atom_site_occupancy
  Yb  Yb0  1  0.829140  0.677456  0.898175  1
  Yb  Yb1  1  0.322544  0.170860  0.601825  1
  Yb  Yb2  1  0.170860  0.322544  0.101825  1
  Yb  Yb3  1  0.677456  0.829140  0.398175  1
  Fe  Fe4  1  0.811333  0.188667  0.750000  1
  Fe  Fe5  1  0.188667  0.811333  0.250000  1
  Fe  Fe6  1  0.558886  0.164325  0.111485  1
  Fe  Fe7  1  0.441114  0.835675  0.888515  1
  Fe  Fe8  1  0.835675  0.441114  0.388515  1
  Fe  Fe9  1  0.164325  0.558886  0.611485  1
  N  N10  1  0.423880  0.576120  0.750000  1
  N  N11  1  0.576120  0.423880  0.250000  1
  N  N12  1  0.011286  0.746248  0.518067  1
  N  N13  1  0.746248  0.011286  0.018067  1
  N  N14  1  0.988714  0.253752  0.481933  1
  N  N15  1  0.253752  0.988714  0.981933  1
