# generated using pymatgen
data_Pr7Nd(Si3Rh)4
_symmetry_space_group_name_H-M   'P 1'
_cell_length_a   8.29501700
_cell_length_b   8.29744878
_cell_length_c   8.47551700
_cell_angle_alpha   90.00000000
_cell_angle_beta   90.00000000
_cell_angle_gamma   119.99030959
_symmetry_Int_Tables_number   1
_chemical_formula_structural   Pr7Nd(Si3Rh)4
_chemical_formula_sum   'Pr7 Nd1 Si12 Rh4'
_cell_volume   505.24391410
_cell_formula_units_Z   1
loop_
 _symmetry_equiv_pos_site_id
 _symmetry_equiv_pos_as_xyz
  1  'x, y, z'
loop_
 _atom_site_type_symbol
 _atom_site_label
 _atom_site_symmetry_multiplicity
 _atom_site_fract_x
 _atom_site_fract_y
 _atom_site_fract_z
 _atom_site_occupancy
  Pr  Pr0  1  0.000022  0.000044  0.750000  1
  Pr  Pr1  1  0.000016  0.000031  0.250000  1
  Pr  Pr2  1  0.499083  0.500919  0.750000  1
  Pr  Pr3  1  0.499102  0.998206  0.750000  1
  Pr  Pr4  1  0.001835  0.500919  0.750000  1
  Pr  Pr5  1  0.500910  0.499060  0.250000  1
  Pr  Pr6  1  0.998152  0.499060  0.250000  1
  Nd  Nd7  1  0.500877  0.001752  0.250000  1
  Si  Si8  1  0.833103  0.166523  0.000162  1
  Si  Si9  1  0.833361  0.666722  0.999435  1
  Si  Si10  1  0.333420  0.166523  0.000162  1
  Si  Si11  1  0.833103  0.166523  0.499838  1
  Si  Si12  1  0.833361  0.666722  0.500565  1
  Si  Si13  1  0.333420  0.166523  0.499838  1
  Si  Si14  1  0.166880  0.833480  0.498899  1
  Si  Si15  1  0.666601  0.833480  0.498899  1
  Si  Si16  1  0.166645  0.333290  0.499582  1
  Si  Si17  1  0.166880  0.833480  0.001101  1
  Si  Si18  1  0.666601  0.833480  0.001101  1
  Si  Si19  1  0.166645  0.333290  0.000418  1
  Rh  Rh20  1  0.666673  0.333345  0.998242  1
  Rh  Rh21  1  0.666673  0.333345  0.501758  1
  Rh  Rh22  1  0.333320  0.666641  0.496677  1
  Rh  Rh23  1  0.333320  0.666641  0.003323  1
