# generated using pymatgen
data_Dy8In2IrRu
_symmetry_space_group_name_H-M   'P 1'
_cell_length_a   9.66079880
_cell_length_b   9.66079957
_cell_length_c   9.67227900
_cell_angle_alpha   59.96068186
_cell_angle_beta   59.96067918
_cell_angle_gamma   59.95271920
_symmetry_Int_Tables_number   1
_chemical_formula_structural   Dy8In2IrRu
_chemical_formula_sum   'Dy16 In4 Ir2 Ru2'
_cell_volume   637.71454739
_cell_formula_units_Z   2
loop_
 _symmetry_equiv_pos_site_id
 _symmetry_equiv_pos_as_xyz
  1  'x, y, z'
loop_
 _atom_site_type_symbol
 _atom_site_label
 _atom_site_symmetry_multiplicity
 _atom_site_fract_x
 _atom_site_fract_y
 _atom_site_fract_z
 _atom_site_occupancy
  Dy  Dy0  1  0.598308  0.598308  0.597913  1
  Dy  Dy1  1  0.598308  0.598308  0.205471  1
  Dy  Dy2  1  0.598481  0.205343  0.598088  1
  Dy  Dy3  1  0.205343  0.598481  0.598088  1
  Dy  Dy4  1  0.059579  0.440245  0.442803  1
  Dy  Dy5  1  0.440245  0.059579  0.057372  1
  Dy  Dy6  1  0.440245  0.059579  0.442803  1
  Dy  Dy7  1  0.059579  0.440245  0.057372  1
  Dy  Dy8  1  0.440726  0.440726  0.059274  1
  Dy  Dy9  1  0.056980  0.056980  0.443020  1
  Dy  Dy10  1  0.190068  0.808533  0.810449  1
  Dy  Dy11  1  0.808533  0.190068  0.190950  1
  Dy  Dy12  1  0.808533  0.190068  0.810449  1
  Dy  Dy13  1  0.190068  0.808533  0.190950  1
  Dy  Dy14  1  0.810943  0.810943  0.189057  1
  Dy  Dy15  1  0.192225  0.192225  0.807775  1
  In  In16  1  0.832083  0.832083  0.832853  1
  In  In17  1  0.832083  0.832083  0.502982  1
  In  In18  1  0.832563  0.501277  0.833080  1
  In  In19  1  0.501277  0.832563  0.833080  1
  Ir  Ir20  1  0.391777  0.829521  0.389351  1
  Ir  Ir21  1  0.829521  0.391777  0.389351  1
  Ru  Ru22  1  0.391266  0.391266  0.387344  1
  Ru  Ru23  1  0.391266  0.391266  0.830125  1
