# generated using pymatgen
data_Er4ScIrPt2
_symmetry_space_group_name_H-M   'P 1'
_cell_length_a   10.86989100
_cell_length_b   10.86989100
_cell_length_c   6.22804100
_cell_angle_alpha   90.00000000
_cell_angle_beta   90.00000000
_cell_angle_gamma   90.00000000
_symmetry_Int_Tables_number   1
_chemical_formula_structural   Er4ScIrPt2
_chemical_formula_sum   'Er16 Sc4 Ir4 Pt8'
_cell_volume   735.87125937
_cell_formula_units_Z   4
loop_
 _symmetry_equiv_pos_site_id
 _symmetry_equiv_pos_as_xyz
  1  'x, y, z'
loop_
 _atom_site_type_symbol
 _atom_site_label
 _atom_site_symmetry_multiplicity
 _atom_site_fract_x
 _atom_site_fract_y
 _atom_site_fract_z
 _atom_site_occupancy
  Er  Er0  1  0.291643  0.085792  0.375665  1
  Er  Er1  1  0.291643  0.914208  0.875665  1
  Er  Er2  1  0.708357  0.085792  0.875665  1
  Er  Er3  1  0.708357  0.914208  0.375665  1
  Er  Er4  1  0.585792  0.791643  0.875665  1
  Er  Er5  1  0.585792  0.208357  0.375665  1
  Er  Er6  1  0.414208  0.791643  0.375665  1
  Er  Er7  1  0.414208  0.208357  0.875665  1
  Er  Er8  1  0.208357  0.414208  0.624335  1
  Er  Er9  1  0.208357  0.585792  0.124335  1
  Er  Er10  1  0.791643  0.414208  0.124335  1
  Er  Er11  1  0.791643  0.585792  0.624335  1
  Er  Er12  1  0.914208  0.708357  0.124335  1
  Er  Er13  1  0.914208  0.291643  0.624335  1
  Er  Er14  1  0.085792  0.708357  0.624335  1
  Er  Er15  1  0.085792  0.291643  0.124335  1
  Sc  Sc16  1  0.000000  0.000000  0.500000  1
  Sc  Sc17  1  0.000000  0.000000  0.000000  1
  Sc  Sc18  1  0.500000  0.500000  0.000000  1
  Sc  Sc19  1  0.500000  0.500000  0.500000  1
  Ir  Ir20  1  0.500000  0.000000  0.121576  1
  Ir  Ir21  1  0.500000  0.000000  0.621576  1
  Ir  Ir22  1  0.000000  0.500000  0.878424  1
  Ir  Ir23  1  0.000000  0.500000  0.378424  1
  Pt  Pt24  1  0.851597  0.148403  0.250000  1
  Pt  Pt25  1  0.851597  0.851597  0.750000  1
  Pt  Pt26  1  0.148403  0.148403  0.750000  1
  Pt  Pt27  1  0.148403  0.851597  0.250000  1
  Pt  Pt28  1  0.648403  0.351597  0.750000  1
  Pt  Pt29  1  0.648403  0.648403  0.250000  1
  Pt  Pt30  1  0.351597  0.351597  0.250000  1
  Pt  Pt31  1  0.351597  0.648403  0.750000  1
