# generated using pymatgen
data_La2(ZnAu2)3
_symmetry_space_group_name_H-M   'P 1'
_cell_length_a   8.87520408
_cell_length_b   8.87520390
_cell_length_c   8.87520418
_cell_angle_alpha   56.90566419
_cell_angle_beta   56.90566673
_cell_angle_gamma   56.90566363
_symmetry_Int_Tables_number   1
_chemical_formula_structural   La2(ZnAu2)3
_chemical_formula_sum   'La4 Zn6 Au12'
_cell_volume   459.04726313
_cell_formula_units_Z   2
loop_
 _symmetry_equiv_pos_site_id
 _symmetry_equiv_pos_as_xyz
  1  'x, y, z'
loop_
 _atom_site_type_symbol
 _atom_site_label
 _atom_site_symmetry_multiplicity
 _atom_site_fract_x
 _atom_site_fract_y
 _atom_site_fract_z
 _atom_site_occupancy
  La  La0  1  0.907527  0.907527  0.907527  1
  La  La1  1  0.407527  0.407527  0.407527  1
  La  La2  1  0.092473  0.092473  0.092473  1
  La  La3  1  0.592473  0.592473  0.592473  1
  Zn  Zn4  1  0.557192  0.750000  0.942808  1
  Zn  Zn5  1  0.942808  0.557192  0.750000  1
  Zn  Zn6  1  0.750000  0.942808  0.557192  1
  Zn  Zn7  1  0.442808  0.250000  0.057192  1
  Zn  Zn8  1  0.057192  0.442808  0.250000  1
  Zn  Zn9  1  0.250000  0.057192  0.442808  1
  Au  Au10  1  0.481581  0.862306  0.206667  1
  Au  Au11  1  0.206667  0.481581  0.862306  1
  Au  Au12  1  0.862306  0.206667  0.481581  1
  Au  Au13  1  0.706667  0.362306  0.981581  1
  Au  Au14  1  0.981581  0.706667  0.362306  1
  Au  Au15  1  0.362306  0.981581  0.706667  1
  Au  Au16  1  0.518419  0.137694  0.793333  1
  Au  Au17  1  0.793333  0.518419  0.137694  1
  Au  Au18  1  0.137694  0.793333  0.518419  1
  Au  Au19  1  0.293333  0.637694  0.018419  1
  Au  Au20  1  0.018419  0.293333  0.637694  1
  Au  Au21  1  0.637694  0.018419  0.293333  1
