# generated using pymatgen
data_Ti6AlAsP
_symmetry_space_group_name_H-M   'P 1'
_cell_length_a   6.90827100
_cell_length_b   6.90827146
_cell_length_c   3.48813600
_cell_angle_alpha   90.00000000
_cell_angle_beta   90.00000000
_cell_angle_gamma   119.99999302
_symmetry_Int_Tables_number   1
_chemical_formula_structural   Ti6AlAsP
_chemical_formula_sum   'Ti6 Al1 As1 P1'
_cell_volume   144.16599451
_cell_formula_units_Z   1
loop_
 _symmetry_equiv_pos_site_id
 _symmetry_equiv_pos_as_xyz
  1  'x, y, z'
loop_
 _atom_site_type_symbol
 _atom_site_label
 _atom_site_symmetry_multiplicity
 _atom_site_fract_x
 _atom_site_fract_y
 _atom_site_fract_z
 _atom_site_occupancy
  Ti  Ti0  1  0.749003  0.998087  0.000000  1
  Ti  Ti1  1  0.249084  0.250997  0.000000  1
  Ti  Ti2  1  0.001913  0.750916  0.000000  1
  Ti  Ti3  1  0.389774  0.990847  0.500000  1
  Ti  Ti4  1  0.009153  0.398927  0.500000  1
  Ti  Ti5  1  0.601073  0.610226  0.500000  1
  Al  Al6  1  0.666667  0.333333  0.000000  1
  As  As7  1  0.333333  0.666666  0.000000  1
  P  P8  1  0.000000  0.000000  0.500000  1
