# generated using pymatgen
data_Li5Pr8Zn3PdRh7
_symmetry_space_group_name_H-M   'P 1'
_cell_length_a   4.08550700
_cell_length_b   7.37657638
_cell_length_c   16.68580310
_cell_angle_alpha   90.06015818
_cell_angle_beta   90.00000000
_cell_angle_gamma   90.00000000
_symmetry_Int_Tables_number   1
_chemical_formula_structural   Li5Pr8Zn3PdRh7
_chemical_formula_sum   'Li5 Pr8 Zn3 Pd1 Rh7'
_cell_volume   502.86067899
_cell_formula_units_Z   1
loop_
 _symmetry_equiv_pos_site_id
 _symmetry_equiv_pos_as_xyz
  1  'x, y, z'
loop_
 _atom_site_type_symbol
 _atom_site_label
 _atom_site_symmetry_multiplicity
 _atom_site_fract_x
 _atom_site_fract_y
 _atom_site_fract_z
 _atom_site_occupancy
  Li  Li0  1  0.250000  0.991259  0.436072  1
  Li  Li1  1  0.750000  0.508053  0.940079  1
  Li  Li2  1  0.750000  0.008581  0.561696  1
  Li  Li3  1  0.250000  0.634390  0.349985  1
  Li  Li4  1  0.750000  0.370769  0.650839  1
  Pr  Pr5  1  0.750000  0.452619  0.213519  1
  Pr  Pr6  1  0.750000  0.958403  0.280454  1
  Pr  Pr7  1  0.750000  0.830082  0.061263  1
  Pr  Pr8  1  0.250000  0.036669  0.723920  1
  Pr  Pr9  1  0.250000  0.165771  0.940650  1
  Pr  Pr10  1  0.250000  0.548578  0.785266  1
  Pr  Pr11  1  0.750000  0.344680  0.434241  1
  Pr  Pr12  1  0.250000  0.668466  0.560923  1
  Zn  Zn13  1  0.750000  0.870755  0.852710  1
  Zn  Zn14  1  0.250000  0.497081  0.058099  1
  Zn  Zn15  1  0.250000  0.125919  0.148659  1
  Pd  Pd16  1  0.250000  0.246204  0.562519  1
  Rh  Rh17  1  0.750000  0.256606  0.065795  1
  Rh  Rh18  1  0.250000  0.243844  0.310811  1
  Rh  Rh19  1  0.750000  0.244786  0.815149  1
  Rh  Rh20  1  0.250000  0.749172  0.935960  1
  Rh  Rh21  1  0.750000  0.752914  0.688107  1
  Rh  Rh22  1  0.750000  0.742041  0.439322  1
  Rh  Rh23  1  0.250000  0.752358  0.183962  1
