# generated using pymatgen
data_Tm4AlIr
_symmetry_space_group_name_H-M   'P 1'
_cell_length_a   9.42463893
_cell_length_b   9.42463916
_cell_length_c   9.42463900
_cell_angle_alpha   60.00000408
_cell_angle_beta   60.00000325
_cell_angle_gamma   60.00000299
_symmetry_Int_Tables_number   1
_chemical_formula_structural   Tm4AlIr
_chemical_formula_sum   'Tm16 Al4 Ir4'
_cell_volume   591.94207736
_cell_formula_units_Z   4
loop_
 _symmetry_equiv_pos_site_id
 _symmetry_equiv_pos_as_xyz
  1  'x, y, z'
loop_
 _atom_site_type_symbol
 _atom_site_label
 _atom_site_symmetry_multiplicity
 _atom_site_fract_x
 _atom_site_fract_y
 _atom_site_fract_z
 _atom_site_occupancy
  Tm  Tm0  1  0.602304  0.602304  0.602304  1
  Tm  Tm1  1  0.602304  0.602304  0.193089  1
  Tm  Tm2  1  0.602304  0.193089  0.602304  1
  Tm  Tm3  1  0.193089  0.602304  0.602304  1
  Tm  Tm4  1  0.055248  0.444752  0.444752  1
  Tm  Tm5  1  0.444752  0.055248  0.055248  1
  Tm  Tm6  1  0.444752  0.055248  0.444752  1
  Tm  Tm7  1  0.055248  0.444752  0.055248  1
  Tm  Tm8  1  0.444752  0.444752  0.055248  1
  Tm  Tm9  1  0.055248  0.055248  0.444752  1
  Tm  Tm10  1  0.188224  0.811776  0.811776  1
  Tm  Tm11  1  0.811776  0.188224  0.188224  1
  Tm  Tm12  1  0.811776  0.188224  0.811776  1
  Tm  Tm13  1  0.188224  0.811776  0.188224  1
  Tm  Tm14  1  0.811776  0.811776  0.188224  1
  Tm  Tm15  1  0.188224  0.188224  0.811776  1
  Al  Al16  1  0.828522  0.828522  0.828522  1
  Al  Al17  1  0.828522  0.828522  0.514432  1
  Al  Al18  1  0.828522  0.514432  0.828522  1
  Al  Al19  1  0.514432  0.828522  0.828522  1
  Ir  Ir20  1  0.391675  0.391675  0.391675  1
  Ir  Ir21  1  0.391675  0.391675  0.824975  1
  Ir  Ir22  1  0.391675  0.824975  0.391675  1
  Ir  Ir23  1  0.824975  0.391675  0.391675  1
