# generated using pymatgen
data_Y3Tm2Zr3(As3Rh4)4
_symmetry_space_group_name_H-M   'P 1'
_cell_length_a   13.30873006
_cell_length_b   13.30653358
_cell_length_c   3.99915800
_cell_angle_alpha   90.00000000
_cell_angle_beta   90.00000000
_cell_angle_gamma   119.99454213
_symmetry_Int_Tables_number   1
_chemical_formula_structural   Y3Tm2Zr3(As3Rh4)4
_chemical_formula_sum   'Y3 Tm2 Zr3 As12 Rh16'
_cell_volume   613.37296133
_cell_formula_units_Z   1
loop_
 _symmetry_equiv_pos_site_id
 _symmetry_equiv_pos_as_xyz
  1  'x, y, z'
loop_
 _atom_site_type_symbol
 _atom_site_label
 _atom_site_symmetry_multiplicity
 _atom_site_fract_x
 _atom_site_fract_y
 _atom_site_fract_z
 _atom_site_occupancy
  Y  Y0  1  0.000000  0.812706  0.500000  1
  Y  Y1  1  0.333328  0.666681  0.000000  1
  Y  Y2  1  0.666672  0.333352  0.000000  1
  Tm  Tm3  1  0.187749  0.187666  0.500000  1
  Tm  Tm4  1  0.812251  0.999916  0.500000  1
  Zr  Zr5  1  0.555841  0.555931  0.000000  1
  Zr  Zr6  1  0.444159  0.000089  0.000000  1
  Zr  Zr7  1  0.000000  0.443646  0.000000  1
  As  As8  1  0.824784  0.825573  0.000000  1
  As  As9  1  0.175216  0.000788  0.000000  1
  As  As10  1  0.000000  0.175010  0.000000  1
  As  As11  1  0.170465  0.485531  0.500000  1
  As  As12  1  0.514339  0.684835  0.500000  1
  As  As13  1  0.315178  0.829601  0.500000  1
  As  As14  1  0.684822  0.514423  0.500000  1
  As  As15  1  0.829535  0.315067  0.500000  1
  As  As16  1  0.485661  0.170496  0.500000  1
  As  As17  1  0.353158  0.353191  0.000000  1
  As  As18  1  0.646842  0.000032  0.000000  1
  As  As19  1  0.000000  0.645810  0.000000  1
  Rh  Rh20  1  0.719453  0.719813  0.500000  1
  Rh  Rh21  1  0.280547  0.000361  0.500000  1
  Rh  Rh22  1  0.000000  0.279977  0.500000  1
  Rh  Rh23  1  0.176328  0.372642  0.000000  1
  Rh  Rh24  1  0.627262  0.803691  0.000000  1
  Rh  Rh25  1  0.197405  0.823646  0.000000  1
  Rh  Rh26  1  0.802595  0.626241  0.000000  1
  Rh  Rh27  1  0.823672  0.196314  0.000000  1
  Rh  Rh28  1  0.372738  0.176430  0.000000  1
  Rh  Rh29  1  0.354595  0.482237  0.500000  1
  Rh  Rh30  1  0.517778  0.872495  0.500000  1
  Rh  Rh31  1  0.127675  0.645181  0.500000  1
  Rh  Rh32  1  0.872325  0.517505  0.500000  1
  Rh  Rh33  1  0.645405  0.127642  0.500000  1
  Rh  Rh34  1  0.482222  0.354715  0.500000  1
  Rh  Rh35  1  0.000000  0.000764  0.000000  1
