# generated using pymatgen
data_LaNd5Ti2(Co4P3)4
_symmetry_space_group_name_H-M   'P 1'
_cell_length_a   3.76950300
_cell_length_b   10.77520000
_cell_length_c   12.49297200
_cell_angle_alpha   90.00000000
_cell_angle_beta   90.00000000
_cell_angle_gamma   90.00000000
_symmetry_Int_Tables_number   1
_chemical_formula_structural   LaNd5Ti2(Co4P3)4
_chemical_formula_sum   'La1 Nd5 Ti2 Co16 P12'
_cell_volume   507.42890175
_cell_formula_units_Z   1
loop_
 _symmetry_equiv_pos_site_id
 _symmetry_equiv_pos_as_xyz
  1  'x, y, z'
loop_
 _atom_site_type_symbol
 _atom_site_label
 _atom_site_symmetry_multiplicity
 _atom_site_fract_x
 _atom_site_fract_y
 _atom_site_fract_z
 _atom_site_occupancy
  La  La0  1  0.000000  0.500000  0.527281  1
  Nd  Nd1  1  0.500000  0.000000  0.475029  1
  Nd  Nd2  1  0.500000  0.819812  0.204638  1
  Nd  Nd3  1  0.500000  0.180188  0.204638  1
  Nd  Nd4  1  0.000000  0.680516  0.795521  1
  Nd  Nd5  1  0.000000  0.319484  0.795521  1
  Ti  Ti6  1  0.500000  0.500000  0.150663  1
  Ti  Ti7  1  0.000000  0.000000  0.848735  1
  Co  Co8  1  0.500000  0.500000  0.704374  1
  Co  Co9  1  0.000000  0.000000  0.295011  1
  Co  Co10  1  0.000000  0.500000  0.988547  1
  Co  Co11  1  0.500000  0.000000  0.011373  1
  Co  Co12  1  0.500000  0.332190  0.994858  1
  Co  Co13  1  0.500000  0.667810  0.994858  1
  Co  Co14  1  0.000000  0.167612  0.004935  1
  Co  Co15  1  0.000000  0.832388  0.004935  1
  Co  Co16  1  0.500000  0.294947  0.431339  1
  Co  Co17  1  0.500000  0.705053  0.431339  1
  Co  Co18  1  0.000000  0.201897  0.568698  1
  Co  Co19  1  0.000000  0.798103  0.568698  1
  Co  Co20  1  0.500000  0.881208  0.707367  1
  Co  Co21  1  0.500000  0.118792  0.707367  1
  Co  Co22  1  0.000000  0.619553  0.292799  1
  Co  Co23  1  0.000000  0.380447  0.292799  1
  P  P24  1  0.500000  0.500000  0.887497  1
  P  P25  1  0.000000  0.000000  0.112531  1
  P  P26  1  0.500000  0.500000  0.347240  1
  P  P27  1  0.000000  0.000000  0.651296  1
  P  P28  1  0.500000  0.302781  0.614482  1
  P  P29  1  0.500000  0.697219  0.614482  1
  P  P30  1  0.000000  0.193571  0.385676  1
  P  P31  1  0.000000  0.806429  0.385676  1
  P  P32  1  0.500000  0.844753  0.894753  1
  P  P33  1  0.500000  0.155247  0.894753  1
  P  P34  1  0.000000  0.655467  0.105145  1
  P  P35  1  0.000000  0.344533  0.105145  1
