# generated using pymatgen
data_TbEr15Cd4Os2PdPt
_symmetry_space_group_name_H-M   'P 1'
_cell_length_a   9.57615206
_cell_length_b   9.59324612
_cell_length_c   9.68434500
_cell_angle_alpha   59.68536619
_cell_angle_beta   59.62554715
_cell_angle_gamma   59.26301760
_symmetry_Int_Tables_number   1
_chemical_formula_structural   TbEr15Cd4Os2PdPt
_chemical_formula_sum   'Tb1 Er15 Cd4 Os2 Pd1 Pt1'
_cell_volume   622.26866281
_cell_formula_units_Z   1
loop_
 _symmetry_equiv_pos_site_id
 _symmetry_equiv_pos_as_xyz
  1  'x, y, z'
loop_
 _atom_site_type_symbol
 _atom_site_label
 _atom_site_symmetry_multiplicity
 _atom_site_fract_x
 _atom_site_fract_y
 _atom_site_fract_z
 _atom_site_occupancy
  Tb  Tb0  1  0.936172  0.937960  0.562934  1
  Er  Er1  1  0.351397  0.352999  0.350744  1
  Er  Er2  1  0.351397  0.352999  0.944860  1
  Er  Er3  1  0.345376  0.953340  0.350643  1
  Er  Er4  1  0.956472  0.346385  0.348573  1
  Er  Er5  1  0.816417  0.186974  0.189408  1
  Er  Er6  1  0.186566  0.815067  0.807961  1
  Er  Er7  1  0.186566  0.815067  0.190407  1
  Er  Er8  1  0.816417  0.186974  0.807202  1
  Er  Er9  1  0.187840  0.188212  0.811974  1
  Er  Er10  1  0.809808  0.807174  0.191509  1
  Er  Er11  1  0.937712  0.554958  0.567686  1
  Er  Er12  1  0.554183  0.938140  0.939910  1
  Er  Er13  1  0.554183  0.938140  0.567768  1
  Er  Er14  1  0.937712  0.554958  0.939645  1
  Er  Er15  1  0.564508  0.566105  0.934693  1
  Cd  Cd16  1  0.579806  0.579278  0.581874  1
  Cd  Cd17  1  0.579806  0.579278  0.259040  1
  Cd  Cd18  1  0.579626  0.255740  0.582317  1
  Cd  Cd19  1  0.254346  0.580271  0.582691  1
  Os  Os20  1  0.147453  0.146053  0.134754  1
  Os  Os21  1  0.147453  0.146053  0.571741  1
  Pd  Pd22  1  0.572270  0.144282  0.141725  1
  Pt  Pt23  1  0.146519  0.573592  0.139945  1
