# generated using pymatgen
data_Tb3ZnCd2CuPd2
_symmetry_space_group_name_H-M   'P 1'
_cell_length_a   7.65156100
_cell_length_b   7.64683639
_cell_length_c   3.73699700
_cell_angle_alpha   90.00000000
_cell_angle_beta   90.00000000
_cell_angle_gamma   120.02042749
_symmetry_Int_Tables_number   1
_chemical_formula_structural   Tb3ZnCd2CuPd2
_chemical_formula_sum   'Tb3 Zn1 Cd2 Cu1 Pd2'
_cell_volume   189.31969304
_cell_formula_units_Z   1
loop_
 _symmetry_equiv_pos_site_id
 _symmetry_equiv_pos_as_xyz
  1  'x, y, z'
loop_
 _atom_site_type_symbol
 _atom_site_label
 _atom_site_symmetry_multiplicity
 _atom_site_fract_x
 _atom_site_fract_y
 _atom_site_fract_z
 _atom_site_occupancy
  Tb  Tb0  1  0.994177  0.398994  0.000000  1
  Tb  Tb1  1  0.595184  0.601006  0.000000  1
  Tb  Tb2  1  0.424441  0.000000  0.000000  1
  Zn  Zn3  1  0.747259  0.000000  0.500000  1
  Cd  Cd4  1  0.004867  0.755019  0.500000  1
  Cd  Cd5  1  0.249848  0.244981  0.500000  1
  Cu  Cu6  1  0.975467  0.000000  0.000000  1
  Pd  Pd7  1  0.338576  0.668395  0.500000  1
  Pd  Pd8  1  0.670182  0.331605  0.500000  1
