# generated using pymatgen
data_UGaBr6
_symmetry_space_group_name_H-M   'P 1'
_cell_length_a   7.64586449
_cell_length_b   7.70004211
_cell_length_c   7.97601793
_cell_angle_alpha   90.21941271
_cell_angle_beta   117.19480182
_cell_angle_gamma   119.77449613
_symmetry_Int_Tables_number   1
_chemical_formula_structural   UGaBr6
_chemical_formula_sum   'U1 Ga1 Br6'
_cell_volume   345.95449634
_cell_formula_units_Z   1
loop_
 _symmetry_equiv_pos_site_id
 _symmetry_equiv_pos_as_xyz
  1  'x, y, z'
loop_
 _atom_site_type_symbol
 _atom_site_label
 _atom_site_symmetry_multiplicity
 _atom_site_fract_x
 _atom_site_fract_y
 _atom_site_fract_z
 _atom_site_occupancy
  U  U0  1  0.579358  0.289830  0.869335  1
  Ga  Ga1  1  0.240003  0.624320  0.859689  1
  Br  Br2  1  0.455529  0.064029  0.101418  1
  Br  Br3  1  0.142351  0.213229  0.643603  1
  Br  Br4  1  0.719078  0.503079  0.638430  1
  Br  Br5  1  0.436995  0.929362  0.643420  1
  Br  Br6  1  0.697787  0.637210  0.097169  1
  Br  Br7  1  0.027899  0.388441  0.095437  1
