# generated using pymatgen
data_AlCo20(B3Mo)2
_symmetry_space_group_name_H-M   'P 1'
_cell_length_a   7.41418513
_cell_length_b   7.41418422
_cell_length_c   7.41418500
_cell_angle_alpha   60.00000098
_cell_angle_beta   60.00000505
_cell_angle_gamma   59.99999929
_symmetry_Int_Tables_number   1
_chemical_formula_structural   AlCo20(B3Mo)2
_chemical_formula_sum   'Al1 Co20 B6 Mo2'
_cell_volume   288.18756457
_cell_formula_units_Z   1
loop_
 _symmetry_equiv_pos_site_id
 _symmetry_equiv_pos_as_xyz
  1  'x, y, z'
loop_
 _atom_site_type_symbol
 _atom_site_label
 _atom_site_symmetry_multiplicity
 _atom_site_fract_x
 _atom_site_fract_y
 _atom_site_fract_z
 _atom_site_occupancy
  Al  Al0  1  0.000000  0.000000  0.000000  1
  Co  Co1  1  0.618097  0.145710  0.618097  1
  Co  Co2  1  0.381903  0.381903  0.854290  1
  Co  Co3  1  0.854290  0.381903  0.381903  1
  Co  Co4  1  0.381903  0.381903  0.381903  1
  Co  Co5  1  0.145710  0.618097  0.618097  1
  Co  Co6  1  0.618097  0.618097  0.618097  1
  Co  Co7  1  0.618097  0.618097  0.145710  1
  Co  Co8  1  0.381903  0.854290  0.381903  1
  Co  Co9  1  0.658180  0.341820  0.000000  1
  Co  Co10  1  0.000000  0.341820  0.658180  1
  Co  Co11  1  0.658180  0.000000  0.000000  1
  Co  Co12  1  0.000000  0.000000  0.341820  1
  Co  Co13  1  0.000000  0.000000  0.658180  1
  Co  Co14  1  0.000000  0.341820  0.000000  1
  Co  Co15  1  0.658180  0.000000  0.341820  1
  Co  Co16  1  0.341820  0.000000  0.000000  1
  Co  Co17  1  0.000000  0.658180  0.000000  1
  Co  Co18  1  0.341820  0.000000  0.658180  1
  Co  Co19  1  0.000000  0.658180  0.341820  1
  Co  Co20  1  0.341820  0.658180  0.000000  1
  B  B21  1  0.275959  0.275959  0.724041  1
  B  B22  1  0.275959  0.724041  0.724041  1
  B  B23  1  0.724041  0.275959  0.275959  1
  B  B24  1  0.275959  0.724041  0.275959  1
  B  B25  1  0.724041  0.275959  0.724041  1
  B  B26  1  0.724041  0.724041  0.275959  1
  Mo  Mo27  1  0.750000  0.750000  0.750000  1
  Mo  Mo28  1  0.250000  0.250000  0.250000  1
