# generated using pymatgen
data_ZrCoNiB2Ru
_symmetry_space_group_name_H-M   'P 1'
_cell_length_a   5.85423260
_cell_length_b   5.85423244
_cell_length_c   5.85423223
_cell_angle_alpha   95.29512701
_cell_angle_beta   95.29512288
_cell_angle_gamma   95.29513591
_symmetry_Int_Tables_number   1
_chemical_formula_structural   ZrCoNiB2Ru
_chemical_formula_sum   'Zr3 Co3 Ni3 B6 Ru3'
_cell_volume   197.89693547
_cell_formula_units_Z   3
loop_
 _symmetry_equiv_pos_site_id
 _symmetry_equiv_pos_as_xyz
  1  'x, y, z'
loop_
 _atom_site_type_symbol
 _atom_site_label
 _atom_site_symmetry_multiplicity
 _atom_site_fract_x
 _atom_site_fract_y
 _atom_site_fract_z
 _atom_site_occupancy
  Zr  Zr0  1  0.001367  0.001367  0.001367  1
  Zr  Zr1  1  0.671935  0.671935  0.671935  1
  Zr  Zr2  1  0.331326  0.331326  0.331326  1
  Co  Co3  1  0.310649  0.791887  0.310649  1
  Co  Co4  1  0.310649  0.310649  0.791887  1
  Co  Co5  1  0.791887  0.310649  0.310649  1
  Ni  Ni6  1  0.691157  0.208736  0.691157  1
  Ni  Ni7  1  0.691157  0.691157  0.208736  1
  Ni  Ni8  1  0.208736  0.691157  0.691157  1
  B  B9  1  0.616695  0.380194  0.000778  1
  B  B10  1  0.000778  0.616695  0.380194  1
  B  B11  1  0.380194  0.000778  0.616695  1
  B  B12  1  0.000778  0.380194  0.616695  1
  B  B13  1  0.616695  0.000778  0.380194  1
  B  B14  1  0.380194  0.616695  0.000778  1
  Ru  Ru15  1  0.999157  0.999157  0.497488  1
  Ru  Ru16  1  0.497488  0.999157  0.999157  1
  Ru  Ru17  1  0.999157  0.497488  0.999157  1
