# generated using pymatgen
data_Na2(VS2)3
_symmetry_space_group_name_H-M   'P 1'
_cell_length_a   5.61768200
_cell_length_b   5.61768175
_cell_length_c   14.44773400
_cell_angle_alpha   90.00000000
_cell_angle_beta   90.00000000
_cell_angle_gamma   119.99656489
_symmetry_Int_Tables_number   1
_chemical_formula_structural   Na2(VS2)3
_chemical_formula_sum   'Na4 V6 S12'
_cell_volume   394.87504111
_cell_formula_units_Z   2
loop_
 _symmetry_equiv_pos_site_id
 _symmetry_equiv_pos_as_xyz
  1  'x, y, z'
loop_
 _atom_site_type_symbol
 _atom_site_label
 _atom_site_symmetry_multiplicity
 _atom_site_fract_x
 _atom_site_fract_y
 _atom_site_fract_z
 _atom_site_occupancy
  Na  Na0  1  0.000027  0.666724  0.500000  1
  Na  Na1  1  0.666724  0.000027  0.500000  1
  Na  Na2  1  0.666676  0.333283  0.000000  1
  Na  Na3  1  0.333283  0.666676  0.000000  1
  V  V4  1  0.666692  0.333281  0.250307  1
  V  V5  1  0.999951  0.999951  0.249891  1
  V  V6  1  0.333281  0.666692  0.250307  1
  V  V7  1  0.666692  0.333281  0.749693  1
  V  V8  1  0.999951  0.999951  0.750109  1
  V  V9  1  0.333281  0.666692  0.749693  1
  S  S10  1  0.667703  0.667703  0.149036  1
  S  S11  1  0.000070  0.332181  0.149033  1
  S  S12  1  0.332181  0.000070  0.149033  1
  S  S13  1  0.667703  0.667703  0.850964  1
  S  S14  1  0.000070  0.332181  0.850967  1
  S  S15  1  0.332181  0.000070  0.850967  1
  S  S16  1  0.666269  0.666269  0.351183  1
  S  S17  1  0.000769  0.332961  0.351197  1
  S  S18  1  0.332961  0.000769  0.351197  1
  S  S19  1  0.666269  0.666269  0.648817  1
  S  S20  1  0.000769  0.332961  0.648803  1
  S  S21  1  0.332961  0.000769  0.648803  1
