# generated using pymatgen
data_Tb5Dy3(ErPb3)2
_symmetry_space_group_name_H-M   'P 1'
_cell_length_a   9.07108916
_cell_length_b   9.07108852
_cell_length_c   6.65454000
_cell_angle_alpha   89.99959541
_cell_angle_beta   89.99959117
_cell_angle_gamma   119.97831555
_symmetry_Int_Tables_number   1
_chemical_formula_structural   Tb5Dy3(ErPb3)2
_chemical_formula_sum   'Tb5 Dy3 Er2 Pb6'
_cell_volume   474.31009395
_cell_formula_units_Z   1
loop_
 _symmetry_equiv_pos_site_id
 _symmetry_equiv_pos_as_xyz
  1  'x, y, z'
loop_
 _atom_site_type_symbol
 _atom_site_label
 _atom_site_symmetry_multiplicity
 _atom_site_fract_x
 _atom_site_fract_y
 _atom_site_fract_z
 _atom_site_occupancy
  Tb  Tb0  1  0.238768  0.999957  0.750351  1
  Tb  Tb1  1  0.999957  0.238768  0.750351  1
  Tb  Tb2  1  0.238863  0.238863  0.249659  1
  Tb  Tb3  1  0.761186  0.999984  0.249654  1
  Tb  Tb4  1  0.999984  0.761186  0.249654  1
  Dy  Dy5  1  0.333362  0.666674  0.500010  1
  Dy  Dy6  1  0.666674  0.333362  0.500010  1
  Dy  Dy7  1  0.761182  0.761182  0.750340  1
  Er  Er8  1  0.666665  0.333346  0.999979  1
  Er  Er9  1  0.333346  0.666665  0.999979  1
  Pb  Pb10  1  0.394969  0.394969  0.751087  1
  Pb  Pb11  1  0.605153  0.999931  0.751089  1
  Pb  Pb12  1  0.999931  0.605153  0.751089  1
  Pb  Pb13  1  0.605090  0.605090  0.248917  1
  Pb  Pb14  1  0.394897  0.999974  0.248916  1
  Pb  Pb15  1  0.999974  0.394897  0.248916  1
