# generated using pymatgen
data_YbTh(B4Ru)2
_symmetry_space_group_name_H-M   'P 1'
_cell_length_a   3.62523900
_cell_length_b   6.01514814
_cell_length_c   11.64078749
_cell_angle_alpha   90.23964622
_cell_angle_beta   90.00000000
_cell_angle_gamma   90.00000000
_symmetry_Int_Tables_number   1
_chemical_formula_structural   YbTh(B4Ru)2
_chemical_formula_sum   'Yb2 Th2 B16 Ru4'
_cell_volume   253.84086139
_cell_formula_units_Z   2
loop_
 _symmetry_equiv_pos_site_id
 _symmetry_equiv_pos_as_xyz
  1  'x, y, z'
loop_
 _atom_site_type_symbol
 _atom_site_label
 _atom_site_symmetry_multiplicity
 _atom_site_fract_x
 _atom_site_fract_y
 _atom_site_fract_z
 _atom_site_occupancy
  Yb  Yb0  1  0.500000  0.127993  0.353790  1
  Yb  Yb1  1  0.500000  0.872007  0.646210  1
  Th  Th2  1  0.500000  0.628900  0.154613  1
  Th  Th3  1  0.500000  0.371100  0.845387  1
  B  B4  1  0.000000  0.977780  0.192148  1
  B  B5  1  0.000000  0.022220  0.807852  1
  B  B6  1  0.000000  0.474480  0.312837  1
  B  B7  1  0.000000  0.525520  0.687163  1
  B  B8  1  0.000000  0.788427  0.318716  1
  B  B9  1  0.000000  0.211573  0.681284  1
  B  B10  1  0.000000  0.282754  0.187081  1
  B  B11  1  0.000000  0.717246  0.812919  1
  B  B12  1  0.000000  0.863248  0.469985  1
  B  B13  1  0.000000  0.136752  0.530015  1
  B  B14  1  0.000000  0.360650  0.031929  1
  B  B15  1  0.000000  0.639350  0.968071  1
  B  B16  1  0.000000  0.891764  0.046496  1
  B  B17  1  0.000000  0.108236  0.953504  1
  B  B18  1  0.000000  0.386016  0.455011  1
  B  B19  1  0.000000  0.613984  0.544989  1
  Ru  Ru20  1  0.500000  0.638095  0.409636  1
  Ru  Ru21  1  0.500000  0.361905  0.590364  1
  Ru  Ru22  1  0.500000  0.139305  0.093589  1
  Ru  Ru23  1  0.500000  0.860695  0.906411  1
