# generated using pymatgen
data_Sc2Pa(InRh)3
_symmetry_space_group_name_H-M   'P 1'
_cell_length_a   7.43292844
_cell_length_b   7.72176486
_cell_length_c   3.70485600
_cell_angle_alpha   90.00000000
_cell_angle_beta   90.00000000
_cell_angle_gamma   121.29399498
_symmetry_Int_Tables_number   1
_chemical_formula_structural   Sc2Pa(InRh)3
_chemical_formula_sum   'Sc2 Pa1 In3 Rh3'
_cell_volume   181.70491319
_cell_formula_units_Z   1
loop_
 _symmetry_equiv_pos_site_id
 _symmetry_equiv_pos_as_xyz
  1  'x, y, z'
loop_
 _atom_site_type_symbol
 _atom_site_label
 _atom_site_symmetry_multiplicity
 _atom_site_fract_x
 _atom_site_fract_y
 _atom_site_fract_z
 _atom_site_occupancy
  Sc  Sc0  1  0.398554  0.401540  0.500000  1
  Sc  Sc1  1  0.601446  0.002986  0.500000  1
  Pa  Pa2  1  0.000000  0.585272  0.500000  1
  In  In3  1  0.286487  0.022125  0.000000  1
  In  In4  1  0.713513  0.735638  0.000000  1
  In  In5  1  0.000000  0.240174  0.000000  1
  Rh  Rh6  1  0.698810  0.363579  0.000000  1
  Rh  Rh7  1  0.301190  0.664770  0.000000  1
  Rh  Rh8  1  0.000000  0.983917  0.500000  1
