# generated using pymatgen
data_Ta6GaMoS12
_symmetry_space_group_name_H-M   'P 1'
_cell_length_a   5.78072000
_cell_length_b   5.78071968
_cell_length_c   13.70003000
_cell_angle_alpha   90.00000000
_cell_angle_beta   90.00000000
_cell_angle_gamma   120.00000184
_symmetry_Int_Tables_number   1
_chemical_formula_structural   Ta6GaMoS12
_chemical_formula_sum   'Ta6 Ga1 Mo1 S12'
_cell_volume   396.47516234
_cell_formula_units_Z   1
loop_
 _symmetry_equiv_pos_site_id
 _symmetry_equiv_pos_as_xyz
  1  'x, y, z'
loop_
 _atom_site_type_symbol
 _atom_site_label
 _atom_site_symmetry_multiplicity
 _atom_site_fract_x
 _atom_site_fract_y
 _atom_site_fract_z
 _atom_site_occupancy
  Ta  Ta0  1  0.000000  0.000000  0.524625  1
  Ta  Ta1  1  0.000000  0.000000  0.975375  1
  Ta  Ta2  1  0.333333  0.666667  0.974769  1
  Ta  Ta3  1  0.666667  0.333333  0.976632  1
  Ta  Ta4  1  0.666667  0.333333  0.523368  1
  Ta  Ta5  1  0.333333  0.666667  0.525231  1
  Ga  Ga6  1  0.333333  0.666667  0.250000  1
  Mo  Mo7  1  0.666667  0.333333  0.750000  1
  S  S8  1  0.331637  0.333287  0.409628  1
  S  S9  1  0.666713  0.998350  0.409628  1
  S  S10  1  0.001650  0.668363  0.409628  1
  S  S11  1  0.332080  0.332606  0.639479  1
  S  S12  1  0.000527  0.667920  0.639479  1
  S  S13  1  0.667394  0.999473  0.639479  1
  S  S14  1  0.667394  0.667920  0.860521  1
  S  S15  1  0.332080  0.999473  0.860521  1
  S  S16  1  0.000527  0.332606  0.860521  1
  S  S17  1  0.666713  0.668363  0.090372  1
  S  S18  1  0.001650  0.333287  0.090372  1
  S  S19  1  0.331637  0.998350  0.090372  1
