# generated using pymatgen
data_Sr2SmPa7O20
_symmetry_space_group_name_H-M   'P 1'
_cell_length_a   6.73495557
_cell_length_b   7.77343325
_cell_length_c   8.67200060
_cell_angle_alpha   103.27965781
_cell_angle_beta   96.86507661
_cell_angle_gamma   106.97690337
_symmetry_Int_Tables_number   1
_chemical_formula_structural   Sr2SmPa7O20
_chemical_formula_sum   'Sr2 Sm1 Pa7 O20'
_cell_volume   414.03716432
_cell_formula_units_Z   1
loop_
 _symmetry_equiv_pos_site_id
 _symmetry_equiv_pos_as_xyz
  1  'x, y, z'
loop_
 _atom_site_type_symbol
 _atom_site_label
 _atom_site_symmetry_multiplicity
 _atom_site_fract_x
 _atom_site_fract_y
 _atom_site_fract_z
 _atom_site_occupancy
  Sr  Sr0  1  0.395194  0.297158  0.797876  1
  Sr  Sr1  1  0.200846  0.901312  0.400261  1
  Sm  Sm2  1  0.004406  0.000566  0.001650  1
  Pa  Pa3  1  0.800674  0.602204  0.601575  1
  Pa  Pa4  1  0.597295  0.198235  0.197866  1
  Pa  Pa5  1  0.997321  0.499815  0.998394  1
  Pa  Pa6  1  0.798719  0.100418  0.602198  1
  Pa  Pa7  1  0.404503  0.801565  0.801696  1
  Pa  Pa8  1  0.198130  0.399645  0.399584  1
  Pa  Pa9  1  0.603534  0.699902  0.198630  1
  O  O10  1  0.835719  0.328661  0.445635  1
  O  O11  1  0.647994  0.923400  0.050506  1
  O  O12  1  0.933640  0.756905  0.138199  1
  O  O13  1  0.455814  0.540658  0.639461  1
  O  O14  1  0.827157  0.817096  0.454555  1
  O  O15  1  0.657206  0.426103  0.062693  1
  O  O16  1  0.767283  0.385450  0.744537  1
  O  O17  1  0.265879  0.150773  0.251013  1
  O  O18  1  0.942974  0.281057  0.158939  1
  O  O19  1  0.477164  0.011214  0.655946  1
  O  O20  1  0.574461  0.979981  0.343068  1
  O  O21  1  0.052601  0.718132  0.845030  1
  O  O22  1  0.755419  0.868132  0.749593  1
  O  O23  1  0.349141  0.594889  0.957759  1
  O  O24  1  0.257984  0.604651  0.242785  1
  O  O25  1  0.554825  0.477434  0.351061  1
  O  O26  1  0.117849  0.188428  0.541358  1
  O  O27  1  0.023662  0.230703  0.854238  1
  O  O28  1  0.361136  0.058263  0.956974  1
  O  O29  1  0.141469  0.657248  0.556923  1
