# generated using pymatgen
data_PrNdTm6(WO6)4
_symmetry_space_group_name_H-M   'P 1'
_cell_length_a   5.40725100
_cell_length_b   7.72025458
_cell_length_c   11.47874606
_cell_angle_alpha   75.41251897
_cell_angle_beta   90.00000000
_cell_angle_gamma   90.00000000
_symmetry_Int_Tables_number   1
_chemical_formula_structural   PrNdTm6(WO6)4
_chemical_formula_sum   'Pr1 Nd1 Tm6 W4 O24'
_cell_volume   463.73744230
_cell_formula_units_Z   1
loop_
 _symmetry_equiv_pos_site_id
 _symmetry_equiv_pos_as_xyz
  1  'x, y, z'
loop_
 _atom_site_type_symbol
 _atom_site_label
 _atom_site_symmetry_multiplicity
 _atom_site_fract_x
 _atom_site_fract_y
 _atom_site_fract_z
 _atom_site_occupancy
  Pr  Pr0  1  0.313743  0.500000  0.250000  1
  Nd  Nd1  1  0.685888  0.500000  0.750000  1
  Tm  Tm2  1  0.742271  0.000000  0.750000  1
  Tm  Tm3  1  0.257460  0.000000  0.250000  1
  Tm  Tm4  1  0.185963  0.798163  0.577385  1
  Tm  Tm5  1  0.813755  0.798722  0.076951  1
  Tm  Tm6  1  0.185963  0.201837  0.922615  1
  Tm  Tm7  1  0.813755  0.201278  0.423049  1
  W  W8  1  0.253488  0.728645  0.884045  1
  W  W9  1  0.746558  0.728970  0.384630  1
  W  W10  1  0.253488  0.271355  0.615955  1
  W  W11  1  0.746558  0.271030  0.115370  1
  O  O12  1  0.040224  0.943289  0.895621  1
  O  O13  1  0.536332  0.846312  0.930591  1
  O  O14  1  0.960070  0.942899  0.396347  1
  O  O15  1  0.456511  0.797314  0.725681  1
  O  O16  1  0.463113  0.846140  0.430790  1
  O  O17  1  0.985067  0.721631  0.768273  1
  O  O18  1  0.544100  0.798100  0.225819  1
  O  O19  1  0.857385  0.642373  0.546601  1
  O  O20  1  0.347320  0.492081  0.887421  1
  O  O21  1  0.013894  0.723140  0.268072  1
  O  O22  1  0.347320  0.507919  0.612579  1
  O  O23  1  0.857385  0.357627  0.953399  1
  O  O24  1  0.141749  0.642338  0.045630  1
  O  O25  1  0.654791  0.492115  0.388021  1
  O  O26  1  0.985067  0.278369  0.731727  1
  O  O27  1  0.654791  0.507885  0.111979  1
  O  O28  1  0.141749  0.357662  0.454370  1
  O  O29  1  0.456511  0.202686  0.774319  1
  O  O30  1  0.013894  0.276860  0.231928  1
  O  O31  1  0.536332  0.153688  0.569409  1
  O  O32  1  0.544100  0.201900  0.274181  1
  O  O33  1  0.040224  0.056711  0.604379  1
  O  O34  1  0.463113  0.153860  0.069210  1
  O  O35  1  0.960070  0.057101  0.103653  1
