# generated using pymatgen
data_V(Ga4Ir)3
_symmetry_space_group_name_H-M   'P 1'
_cell_length_a   6.55796100
_cell_length_b   6.55796100
_cell_length_c   6.84999900
_cell_angle_alpha   90.00000000
_cell_angle_beta   90.00000000
_cell_angle_gamma   89.99881179
_symmetry_Int_Tables_number   1
_chemical_formula_structural   V(Ga4Ir)3
_chemical_formula_sum   'V1 Ga12 Ir3'
_cell_volume   294.59689643
_cell_formula_units_Z   1
loop_
 _symmetry_equiv_pos_site_id
 _symmetry_equiv_pos_as_xyz
  1  'x, y, z'
loop_
 _atom_site_type_symbol
 _atom_site_label
 _atom_site_symmetry_multiplicity
 _atom_site_fract_x
 _atom_site_fract_y
 _atom_site_fract_z
 _atom_site_occupancy
  V  V0  1  0.154163  0.845837  0.500000  1
  Ga  Ga1  1  0.004593  0.506617  0.500000  1
  Ga  Ga2  1  0.499417  0.997897  0.000000  1
  Ga  Ga3  1  0.493383  0.995407  0.500000  1
  Ga  Ga4  1  0.002103  0.500583  0.000000  1
  Ga  Ga5  1  0.344549  0.655451  0.247324  1
  Ga  Ga6  1  0.650241  0.349759  0.235928  1
  Ga  Ga7  1  0.162423  0.148140  0.730291  1
  Ga  Ga8  1  0.851860  0.837577  0.730291  1
  Ga  Ga9  1  0.650241  0.349759  0.764072  1
  Ga  Ga10  1  0.344549  0.655451  0.752676  1
  Ga  Ga11  1  0.851860  0.837577  0.269709  1
  Ga  Ga12  1  0.162423  0.148140  0.269709  1
  Ir  Ir13  1  0.829579  0.170421  0.500000  1
  Ir  Ir14  1  0.339192  0.340577  0.000000  1
  Ir  Ir15  1  0.659423  0.660808  0.000000  1
