# generated using pymatgen
data_CsMnSeS
_symmetry_space_group_name_H-M   'P 1'
_cell_length_a   7.44929743
_cell_length_b   7.44929753
_cell_length_c   5.39695827
_cell_angle_alpha   79.66269064
_cell_angle_beta   79.66268831
_cell_angle_gamma   116.47275644
_symmetry_Int_Tables_number   1
_chemical_formula_structural   CsMnSeS
_chemical_formula_sum   'Cs2 Mn2 Se2 S2'
_cell_volume   252.02960718
_cell_formula_units_Z   2
loop_
 _symmetry_equiv_pos_site_id
 _symmetry_equiv_pos_as_xyz
  1  'x, y, z'
loop_
 _atom_site_type_symbol
 _atom_site_label
 _atom_site_symmetry_multiplicity
 _atom_site_fract_x
 _atom_site_fract_y
 _atom_site_fract_z
 _atom_site_occupancy
  Cs  Cs0  1  0.352665  0.647335  0.500000  1
  Cs  Cs1  1  0.642624  0.357376  0.000000  1
  Mn  Mn2  1  0.004556  0.995444  0.500000  1
  Mn  Mn3  1  0.005595  0.994405  0.000000  1
  Se  Se4  1  0.078028  0.281842  0.159990  1
  Se  Se5  1  0.718158  0.921972  0.840010  1
  S  S6  1  0.931565  0.733189  0.334388  1
  S  S7  1  0.266811  0.068435  0.665612  1
