# generated using pymatgen
data_SmTh2(ZnPt)3
_symmetry_space_group_name_H-M   'P 1'
_cell_length_a   7.53074058
_cell_length_b   7.53074098
_cell_length_c   3.87994300
_cell_angle_alpha   90.00000000
_cell_angle_beta   90.00000000
_cell_angle_gamma   119.74029701
_symmetry_Int_Tables_number   1
_chemical_formula_structural   SmTh2(ZnPt)3
_chemical_formula_sum   'Sm1 Th2 Zn3 Pt3'
_cell_volume   191.05656214
_cell_formula_units_Z   1
loop_
 _symmetry_equiv_pos_site_id
 _symmetry_equiv_pos_as_xyz
  1  'x, y, z'
loop_
 _atom_site_type_symbol
 _atom_site_label
 _atom_site_symmetry_multiplicity
 _atom_site_fract_x
 _atom_site_fract_y
 _atom_site_fract_z
 _atom_site_occupancy
  Sm  Sm0  1  0.596060  0.596060  0.000000  1
  Th  Th1  1  0.406286  0.998843  0.000000  1
  Th  Th2  1  0.998843  0.406286  0.000000  1
  Zn  Zn3  1  0.751133  0.991485  0.500000  1
  Zn  Zn4  1  0.991485  0.751133  0.500000  1
  Zn  Zn5  1  0.256573  0.256573  0.500000  1
  Pt  Pt6  1  0.007444  0.007444  0.000000  1
  Pt  Pt7  1  0.324240  0.667936  0.500000  1
  Pt  Pt8  1  0.667936  0.324240  0.500000  1
