# generated using pymatgen
data_La4Ga10OsPt5
_symmetry_space_group_name_H-M   'P 1'
_cell_length_a   8.77089971
_cell_length_b   8.77022922
_cell_length_c   8.76932000
_cell_angle_alpha   140.52110626
_cell_angle_beta   107.09652666
_cell_angle_gamma   86.22967159
_symmetry_Int_Tables_number   1
_chemical_formula_structural   La4Ga10OsPt5
_chemical_formula_sum   'La4 Ga10 Os1 Pt5'
_cell_volume   395.25258341
_cell_formula_units_Z   1
loop_
 _symmetry_equiv_pos_site_id
 _symmetry_equiv_pos_as_xyz
  1  'x, y, z'
loop_
 _atom_site_type_symbol
 _atom_site_label
 _atom_site_symmetry_multiplicity
 _atom_site_fract_x
 _atom_site_fract_y
 _atom_site_fract_z
 _atom_site_occupancy
  La  La0  1  0.088802  0.863507  0.224860  1
  La  La1  1  0.638637  0.363887  0.275094  1
  La  La2  1  0.911155  0.136061  0.774761  1
  La  La3  1  0.361344  0.636476  0.725263  1
  Ga  Ga4  1  0.290444  0.040355  0.749950  1
  Ga  Ga5  1  0.287736  0.537803  0.250078  1
  Ga  Ga6  1  0.000065  0.250052  0.250068  1
  Ga  Ga7  1  0.244101  0.397685  0.833879  1
  Ga  Ga8  1  0.755881  0.589829  0.153658  1
  Ga  Ga9  1  0.709614  0.459569  0.749977  1
  Ga  Ga10  1  0.563858  0.910179  0.666107  1
  Ga  Ga11  1  0.712209  0.962264  0.250023  1
  Ga  Ga12  1  0.436171  0.102313  0.346348  1
  Ga  Ga13  1  0.999976  0.749964  0.749950  1
  Os  Os14  1  0.499989  0.249987  0.749992  1
  Pt  Pt15  1  0.041596  0.647388  0.399853  1
  Pt  Pt16  1  0.752552  0.852708  0.894381  1
  Pt  Pt17  1  0.958397  0.358179  0.605709  1
  Pt  Pt18  1  0.247491  0.141753  0.100070  1
  Pt  Pt19  1  0.499986  0.750039  0.249978  1
