# generated using pymatgen
data_Rb4HfNpBr12
_symmetry_space_group_name_H-M   'P 1'
_cell_length_a   7.78881800
_cell_length_b   7.78881800
_cell_length_c   11.12159200
_cell_angle_alpha   90.00000000
_cell_angle_beta   90.00000000
_cell_angle_gamma   90.00000000
_symmetry_Int_Tables_number   1
_chemical_formula_structural   Rb4HfNpBr12
_chemical_formula_sum   'Rb4 Hf1 Np1 Br12'
_cell_volume   674.69900628
_cell_formula_units_Z   1
loop_
 _symmetry_equiv_pos_site_id
 _symmetry_equiv_pos_as_xyz
  1  'x, y, z'
loop_
 _atom_site_type_symbol
 _atom_site_label
 _atom_site_symmetry_multiplicity
 _atom_site_fract_x
 _atom_site_fract_y
 _atom_site_fract_z
 _atom_site_occupancy
  Rb  Rb0  1  0.500000  0.000000  0.751300  1
  Rb  Rb1  1  0.500000  0.000000  0.248700  1
  Rb  Rb2  1  0.000000  0.500000  0.248700  1
  Rb  Rb3  1  0.000000  0.500000  0.751300  1
  Hf  Hf4  1  0.000000  0.000000  0.000000  1
  Np  Np5  1  0.500000  0.500000  0.500000  1
  Br  Br6  1  0.794603  0.267560  0.000000  1
  Br  Br7  1  0.205397  0.732440  0.000000  1
  Br  Br8  1  0.500000  0.500000  0.250230  1
  Br  Br9  1  0.283809  0.217875  0.500000  1
  Br  Br10  1  0.267560  0.205397  0.000000  1
  Br  Br11  1  0.782125  0.283809  0.500000  1
  Br  Br12  1  0.000000  0.000000  0.235848  1
  Br  Br13  1  0.716191  0.782125  0.500000  1
  Br  Br14  1  0.217875  0.716191  0.500000  1
  Br  Br15  1  0.500000  0.500000  0.749770  1
  Br  Br16  1  0.732440  0.794603  0.000000  1
  Br  Br17  1  0.000000  0.000000  0.764152  1
