# generated using pymatgen
data_V7Si4Tc5
_symmetry_space_group_name_H-M   'P 1'
_cell_length_a   4.73669871
_cell_length_b   4.70651279
_cell_length_c   9.49725530
_cell_angle_alpha   89.92417844
_cell_angle_beta   89.82053490
_cell_angle_gamma   89.93963699
_symmetry_Int_Tables_number   1
_chemical_formula_structural   V7Si4Tc5
_chemical_formula_sum   'V7 Si4 Tc5'
_cell_volume   211.72413501
_cell_formula_units_Z   1
loop_
 _symmetry_equiv_pos_site_id
 _symmetry_equiv_pos_as_xyz
  1  'x, y, z'
loop_
 _atom_site_type_symbol
 _atom_site_label
 _atom_site_symmetry_multiplicity
 _atom_site_fract_x
 _atom_site_fract_y
 _atom_site_fract_z
 _atom_site_occupancy
  V  V0  1  0.000399  0.751463  0.999655  1
  V  V1  1  0.497595  0.001150  0.375160  1
  V  V2  1  0.497880  0.001592  0.873474  1
  V  V3  1  0.250917  0.498595  0.250697  1
  V  V4  1  0.251412  0.499540  0.750987  1
  V  V5  1  0.002454  0.247688  0.499429  1
  V  V6  1  0.000350  0.251368  0.999629  1
  Si  Si7  1  0.498976  0.498380  0.499053  1
  Si  Si8  1  0.493668  0.500247  0.998869  1
  Si  Si9  1  0.002795  0.000929  0.249219  1
  Si  Si10  1  0.002364  0.001181  0.754244  1
  Tc  Tc11  1  0.497851  0.002591  0.624336  1
  Tc  Tc12  1  0.498228  0.000013  0.123785  1
  Tc  Tc13  1  0.751327  0.497979  0.250528  1
  Tc  Tc14  1  0.751222  0.499875  0.752149  1
  Tc  Tc15  1  0.002563  0.747410  0.498785  1
