# generated using pymatgen
data_Pr5USe10
_symmetry_space_group_name_H-M   'P 1'
_cell_length_a   7.97262300
_cell_length_b   8.52054700
_cell_length_c   12.61290700
_cell_angle_alpha   90.00000000
_cell_angle_beta   90.00000000
_cell_angle_gamma   90.00000000
_symmetry_Int_Tables_number   1
_chemical_formula_structural   Pr5USe10
_chemical_formula_sum   'Pr10 U2 Se20'
_cell_volume   856.80876003
_cell_formula_units_Z   2
loop_
 _symmetry_equiv_pos_site_id
 _symmetry_equiv_pos_as_xyz
  1  'x, y, z'
loop_
 _atom_site_type_symbol
 _atom_site_label
 _atom_site_symmetry_multiplicity
 _atom_site_fract_x
 _atom_site_fract_y
 _atom_site_fract_z
 _atom_site_occupancy
  Pr  Pr0  1  0.525552  0.499526  0.322217  1
  Pr  Pr1  1  0.974448  0.000474  0.822217  1
  Pr  Pr2  1  0.480522  0.996765  0.678402  1
  Pr  Pr3  1  0.019478  0.503235  0.178402  1
  Pr  Pr4  1  0.480522  0.503235  0.678402  1
  Pr  Pr5  1  0.019478  0.996765  0.178402  1
  Pr  Pr6  1  0.525552  0.000474  0.322217  1
  Pr  Pr7  1  0.974448  0.499526  0.822217  1
  Pr  Pr8  1  0.078469  0.750000  0.491626  1
  Pr  Pr9  1  0.421531  0.750000  0.991626  1
  U  U10  1  0.941173  0.250000  0.505506  1
  U  U11  1  0.558827  0.250000  0.005506  1
  Se  Se12  1  0.835889  0.971097  0.596905  1
  Se  Se13  1  0.664111  0.528903  0.096905  1
  Se  Se14  1  0.164033  0.446720  0.402504  1
  Se  Se15  1  0.335967  0.053280  0.902504  1
  Se  Se16  1  0.164033  0.053280  0.402504  1
  Se  Se17  1  0.335967  0.446720  0.902504  1
  Se  Se18  1  0.835889  0.528903  0.596905  1
  Se  Se19  1  0.664111  0.971097  0.096905  1
  Se  Se20  1  0.823185  0.750000  0.309527  1
  Se  Se21  1  0.676815  0.750000  0.809527  1
  Se  Se22  1  0.167515  0.250000  0.681391  1
  Se  Se23  1  0.332485  0.250000  0.181391  1
  Se  Se24  1  0.463697  0.750000  0.499865  1
  Se  Se25  1  0.036303  0.750000  0.999865  1
  Se  Se26  1  0.549978  0.250000  0.499945  1
  Se  Se27  1  0.950022  0.250000  0.999945  1
  Se  Se28  1  0.200047  0.750000  0.721303  1
  Se  Se29  1  0.299953  0.750000  0.221303  1
  Se  Se30  1  0.808154  0.250000  0.290782  1
  Se  Se31  1  0.691846  0.250000  0.790782  1
