# generated using pymatgen
data_YHf(Si7Ir3)2
_symmetry_space_group_name_H-M   'P 1'
_cell_length_a   8.00781896
_cell_length_b   8.00781819
_cell_length_c   8.00781891
_cell_angle_alpha   56.66963700
_cell_angle_beta   56.66963971
_cell_angle_gamma   56.66963936
_symmetry_Int_Tables_number   1
_chemical_formula_structural   YHf(Si7Ir3)2
_chemical_formula_sum   'Y1 Hf1 Si14 Ir6'
_cell_volume   335.17353685
_cell_formula_units_Z   1
loop_
 _symmetry_equiv_pos_site_id
 _symmetry_equiv_pos_as_xyz
  1  'x, y, z'
loop_
 _atom_site_type_symbol
 _atom_site_label
 _atom_site_symmetry_multiplicity
 _atom_site_fract_x
 _atom_site_fract_y
 _atom_site_fract_z
 _atom_site_occupancy
  Y  Y0  1  0.500000  0.500000  0.500000  1
  Hf  Hf1  1  0.000000  0.000000  0.000000  1
  Si  Si2  1  0.749717  0.749717  0.749717  1
  Si  Si3  1  0.250283  0.250283  0.250283  1
  Si  Si4  1  0.851988  0.062525  0.674616  1
  Si  Si5  1  0.674616  0.851988  0.062525  1
  Si  Si6  1  0.062525  0.674616  0.851988  1
  Si  Si7  1  0.649966  0.829029  0.433218  1
  Si  Si8  1  0.433218  0.649966  0.829029  1
  Si  Si9  1  0.829029  0.433218  0.649966  1
  Si  Si10  1  0.170971  0.566782  0.350034  1
  Si  Si11  1  0.566782  0.350034  0.170971  1
  Si  Si12  1  0.350034  0.170971  0.566782  1
  Si  Si13  1  0.937475  0.325384  0.148012  1
  Si  Si14  1  0.325384  0.148012  0.937475  1
  Si  Si15  1  0.148012  0.937475  0.325384  1
  Ir  Ir16  1  0.069666  0.426122  0.752757  1
  Ir  Ir17  1  0.247243  0.930334  0.573878  1
  Ir  Ir18  1  0.573878  0.247243  0.930334  1
  Ir  Ir19  1  0.930334  0.573878  0.247243  1
  Ir  Ir20  1  0.426122  0.752757  0.069666  1
  Ir  Ir21  1  0.752757  0.069666  0.426122  1
