# generated using pymatgen
data_Li2PrDy5(Co4P3)4
_symmetry_space_group_name_H-M   'P 1'
_cell_length_a   3.71846200
_cell_length_b   10.57949200
_cell_length_c   12.18614500
_cell_angle_alpha   90.00000000
_cell_angle_beta   90.00000000
_cell_angle_gamma   90.00000000
_symmetry_Int_Tables_number   1
_chemical_formula_structural   Li2PrDy5(Co4P3)4
_chemical_formula_sum   'Li2 Pr1 Dy5 Co16 P12'
_cell_volume   479.39610764
_cell_formula_units_Z   1
loop_
 _symmetry_equiv_pos_site_id
 _symmetry_equiv_pos_as_xyz
  1  'x, y, z'
loop_
 _atom_site_type_symbol
 _atom_site_label
 _atom_site_symmetry_multiplicity
 _atom_site_fract_x
 _atom_site_fract_y
 _atom_site_fract_z
 _atom_site_occupancy
  Li  Li0  1  0.500000  0.500000  0.150525  1
  Li  Li1  1  0.000000  0.000000  0.847071  1
  Pr  Pr2  1  0.000000  0.500000  0.523955  1
  Dy  Dy3  1  0.500000  0.000000  0.476863  1
  Dy  Dy4  1  0.500000  0.820011  0.205952  1
  Dy  Dy5  1  0.500000  0.179989  0.205952  1
  Dy  Dy6  1  0.000000  0.680872  0.794781  1
  Dy  Dy7  1  0.000000  0.319128  0.794781  1
  Co  Co8  1  0.500000  0.500000  0.707633  1
  Co  Co9  1  0.000000  0.000000  0.295440  1
  Co  Co10  1  0.000000  0.500000  0.987660  1
  Co  Co11  1  0.500000  0.000000  0.013080  1
  Co  Co12  1  0.500000  0.332522  0.997158  1
  Co  Co13  1  0.500000  0.667478  0.997158  1
  Co  Co14  1  0.000000  0.166846  0.002969  1
  Co  Co15  1  0.000000  0.833154  0.002969  1
  Co  Co16  1  0.500000  0.293326  0.430077  1
  Co  Co17  1  0.500000  0.706674  0.430077  1
  Co  Co18  1  0.000000  0.200641  0.569465  1
  Co  Co19  1  0.000000  0.799359  0.569465  1
  Co  Co20  1  0.500000  0.879919  0.707822  1
  Co  Co21  1  0.500000  0.120081  0.707822  1
  Co  Co22  1  0.000000  0.622024  0.291464  1
  Co  Co23  1  0.000000  0.377976  0.291464  1
  P  P24  1  0.500000  0.500000  0.886319  1
  P  P25  1  0.000000  0.000000  0.114967  1
  P  P26  1  0.500000  0.500000  0.340949  1
  P  P27  1  0.000000  0.000000  0.654226  1
  P  P28  1  0.500000  0.305264  0.617151  1
  P  P29  1  0.500000  0.694736  0.617151  1
  P  P30  1  0.000000  0.189800  0.383887  1
  P  P31  1  0.000000  0.810200  0.383887  1
  P  P32  1  0.500000  0.843738  0.893801  1
  P  P33  1  0.500000  0.156262  0.893801  1
  P  P34  1  0.000000  0.657268  0.106130  1
  P  P35  1  0.000000  0.342732  0.106130  1
