# generated using pymatgen
data_K3Rb(CeI6)2
_symmetry_space_group_name_H-M   'P 1'
_cell_length_a   8.97739001
_cell_length_b   8.27139471
_cell_length_c   14.19810400
_cell_angle_alpha   55.15705258
_cell_angle_beta   90.65298660
_cell_angle_gamma   89.94532808
_symmetry_Int_Tables_number   1
_chemical_formula_structural   K3Rb(CeI6)2
_chemical_formula_sum   'K3 Rb1 Ce2 I12'
_cell_volume   865.18436350
_cell_formula_units_Z   1
loop_
 _symmetry_equiv_pos_site_id
 _symmetry_equiv_pos_as_xyz
  1  'x, y, z'
loop_
 _atom_site_type_symbol
 _atom_site_label
 _atom_site_symmetry_multiplicity
 _atom_site_fract_x
 _atom_site_fract_y
 _atom_site_fract_z
 _atom_site_occupancy
  K  K0  1  0.091270  0.280627  0.249214  1
  K  K1  1  0.405750  0.279843  0.747730  1
  K  K2  1  0.907925  0.722069  0.751297  1
  Rb  Rb3  1  0.589829  0.720553  0.251150  1
  Ce  Ce4  1  0.001580  0.002435  0.997577  1
  Ce  Ce5  1  0.498108  0.998259  0.502509  1
  I  I6  1  0.987848  0.864689  0.246385  1
  I  I7  1  0.471019  0.156004  0.250873  1
  I  I8  1  0.024745  0.141609  0.749653  1
  I  I9  1  0.528328  0.860082  0.750667  1
  I  I10  1  0.676908  0.639251  0.557874  1
  I  I11  1  0.179281  0.359129  0.942042  1
  I  I12  1  0.311642  0.346801  0.452025  1
  I  I13  1  0.826476  0.642884  0.052793  1
  I  I14  1  0.708796  0.227477  0.944774  1
  I  I15  1  0.210099  0.771171  0.554456  1
  I  I16  1  0.288354  0.771458  0.048354  1
  I  I17  1  0.792042  0.215659  0.450628  1
