# generated using pymatgen
data_Ba2UIrS6
_symmetry_space_group_name_H-M   'P 1'
_cell_length_a   12.52313498
_cell_length_b   12.52315126
_cell_length_c   12.52321207
_cell_angle_alpha   32.33016835
_cell_angle_beta   32.33087897
_cell_angle_gamma   32.33020306
_symmetry_Int_Tables_number   1
_chemical_formula_structural   Ba2UIrS6
_chemical_formula_sum   'Ba4 U2 Ir2 S12'
_cell_volume   499.35366171
_cell_formula_units_Z   2
loop_
 _symmetry_equiv_pos_site_id
 _symmetry_equiv_pos_as_xyz
  1  'x, y, z'
loop_
 _atom_site_type_symbol
 _atom_site_label
 _atom_site_symmetry_multiplicity
 _atom_site_fract_x
 _atom_site_fract_y
 _atom_site_fract_z
 _atom_site_occupancy
  Ba  Ba0  1  0.114621  0.114619  0.114619  1
  Ba  Ba1  1  0.292825  0.292829  0.292827  1
  Ba  Ba2  1  0.707175  0.707171  0.707173  1
  Ba  Ba3  1  0.885378  0.885380  0.885380  1
  U  U4  1  0.000000  0.000000  0.000000  1
  U  U5  1  0.500000  0.500000  0.500000  1
  Ir  Ir6  1  0.414336  0.414336  0.414337  1
  Ir  Ir7  1  0.585664  0.585664  0.585663  1
  S  S8  1  0.617753  0.617749  0.121601  1
  S  S9  1  0.215075  0.695184  0.215073  1
  S  S10  1  0.695185  0.215077  0.215072  1
  S  S11  1  0.784928  0.784924  0.304813  1
  S  S12  1  0.878401  0.382250  0.382250  1
  S  S13  1  0.382245  0.878404  0.382246  1
  S  S14  1  0.617755  0.121596  0.617754  1
  S  S15  1  0.121599  0.617750  0.617750  1
  S  S16  1  0.215072  0.215076  0.695187  1
  S  S17  1  0.784925  0.304816  0.784926  1
  S  S18  1  0.304815  0.784923  0.784927  1
  S  S19  1  0.382247  0.382251  0.878399  1
