# generated using pymatgen
data_Rb4Na2LuInSb4
_symmetry_space_group_name_H-M   'P 1'
_cell_length_a   10.02247207
_cell_length_b   10.02247091
_cell_length_c   10.02247085
_cell_angle_alpha   136.16719917
_cell_angle_beta   62.26387335
_cell_angle_gamma   138.07640069
_symmetry_Int_Tables_number   1
_chemical_formula_structural   Rb4Na2LuInSb4
_chemical_formula_sum   'Rb4 Na2 Lu1 In1 Sb4'
_cell_volume   460.28348611
_cell_formula_units_Z   1
loop_
 _symmetry_equiv_pos_site_id
 _symmetry_equiv_pos_as_xyz
  1  'x, y, z'
loop_
 _atom_site_type_symbol
 _atom_site_label
 _atom_site_symmetry_multiplicity
 _atom_site_fract_x
 _atom_site_fract_y
 _atom_site_fract_z
 _atom_site_occupancy
  Rb  Rb0  1  0.831483  0.239282  0.060346  1
  Rb  Rb1  1  0.668516  0.728863  0.407800  1
  Rb  Rb2  1  0.321063  0.260717  0.592201  1
  Rb  Rb3  1  0.178938  0.771138  0.939655  1
  Na  Na4  1  0.250000  0.250000  0.000000  1
  Na  Na5  1  0.750000  0.750000  0.000000  1
  Lu  Lu6  1  0.750001  0.250000  0.500000  1
  In  In7  1  0.250000  0.750001  0.500001  1
  Sb  Sb8  1  0.397833  0.775246  0.178367  1
  Sb  Sb9  1  0.102166  0.280534  0.377413  1
  Sb  Sb10  1  0.903120  0.724754  0.622587  1
  Sb  Sb11  1  0.596880  0.219467  0.821634  1
