# generated using pymatgen
data_Yb2Tm2MnRu7
_symmetry_space_group_name_H-M   'P 1'
_cell_length_a   5.28215800
_cell_length_b   5.28150271
_cell_length_c   8.64636374
_cell_angle_alpha   89.99999900
_cell_angle_beta   90.00820227
_cell_angle_gamma   60.00408790
_symmetry_Int_Tables_number   1
_chemical_formula_structural   Yb2Tm2MnRu7
_chemical_formula_sum   'Yb2 Tm2 Mn1 Ru7'
_cell_volume   208.90599831
_cell_formula_units_Z   1
loop_
 _symmetry_equiv_pos_site_id
 _symmetry_equiv_pos_as_xyz
  1  'x, y, z'
loop_
 _atom_site_type_symbol
 _atom_site_label
 _atom_site_symmetry_multiplicity
 _atom_site_fract_x
 _atom_site_fract_y
 _atom_site_fract_z
 _atom_site_occupancy
  Yb  Yb0  1  0.333371  0.333314  0.559428  1
  Yb  Yb1  1  0.666629  0.666686  0.440572  1
  Tm  Tm2  1  0.666630  0.666685  0.074409  1
  Tm  Tm3  1  0.333370  0.333315  0.925591  1
  Mn  Mn4  1  0.000000  0.000000  0.000000  1
  Ru  Ru5  1  0.000000  0.000000  0.500000  1
  Ru  Ru6  1  0.829030  0.342067  0.756548  1
  Ru  Ru7  1  0.342205  0.828897  0.756523  1
  Ru  Ru8  1  0.829030  0.828902  0.756548  1
  Ru  Ru9  1  0.170970  0.657933  0.243452  1
  Ru  Ru10  1  0.657795  0.171103  0.243477  1
  Ru  Ru11  1  0.170970  0.171098  0.243452  1
