# generated using pymatgen
data_Hf4Ta4Si3As
_symmetry_space_group_name_H-M   'P 1'
_cell_length_a   3.62461800
_cell_length_b   6.98889317
_cell_length_c   8.45740376
_cell_angle_alpha   90.00021837
_cell_angle_beta   90.00000000
_cell_angle_gamma   90.00000000
_symmetry_Int_Tables_number   1
_chemical_formula_structural   Hf4Ta4Si3As
_chemical_formula_sum   'Hf4 Ta4 Si3 As1'
_cell_volume   214.24352697
_cell_formula_units_Z   1
loop_
 _symmetry_equiv_pos_site_id
 _symmetry_equiv_pos_as_xyz
  1  'x, y, z'
loop_
 _atom_site_type_symbol
 _atom_site_label
 _atom_site_symmetry_multiplicity
 _atom_site_fract_x
 _atom_site_fract_y
 _atom_site_fract_z
 _atom_site_occupancy
  Hf  Hf0  1  0.250000  0.037091  0.663079  1
  Hf  Hf1  1  0.250000  0.546974  0.833388  1
  Hf  Hf2  1  0.750000  0.461381  0.170391  1
  Hf  Hf3  1  0.750000  0.958759  0.333711  1
  Ta  Ta4  1  0.750000  0.862759  0.941062  1
  Ta  Ta5  1  0.250000  0.633416  0.440282  1
  Ta  Ta6  1  0.750000  0.365178  0.557568  1
  Ta  Ta7  1  0.250000  0.133408  0.061624  1
  Si  Si8  1  0.250000  0.255419  0.357553  1
  Si  Si9  1  0.250000  0.757533  0.142817  1
  Si  Si10  1  0.750000  0.742818  0.641469  1
  As  As11  1  0.750000  0.245263  0.857056  1
