# generated using pymatgen
data_Nd10As9I
_symmetry_space_group_name_H-M   'P 1'
_cell_length_a   7.42648583
_cell_length_b   8.62221804
_cell_length_c   9.56609100
_cell_angle_alpha   102.77880479
_cell_angle_beta   97.58061807
_cell_angle_gamma   106.95573848
_symmetry_Int_Tables_number   1
_chemical_formula_structural   Nd10As9I
_chemical_formula_sum   'Nd10 As9 I1'
_cell_volume   558.59249116
_cell_formula_units_Z   1
loop_
 _symmetry_equiv_pos_site_id
 _symmetry_equiv_pos_as_xyz
  1  'x, y, z'
loop_
 _atom_site_type_symbol
 _atom_site_label
 _atom_site_symmetry_multiplicity
 _atom_site_fract_x
 _atom_site_fract_y
 _atom_site_fract_z
 _atom_site_occupancy
  Nd  Nd0  1  0.903908  0.548062  0.799479  1
  Nd  Nd1  1  0.678848  0.159098  0.395552  1
  Nd  Nd2  1  0.502070  0.748612  0.003139  1
  Nd  Nd3  1  0.683578  0.627641  0.391360  1
  Nd  Nd4  1  0.316422  0.372359  0.608640  1
  Nd  Nd5  1  0.104145  0.942051  0.179851  1
  Nd  Nd6  1  0.497930  0.251388  0.996861  1
  Nd  Nd7  1  0.321152  0.840902  0.604448  1
  Nd  Nd8  1  0.096092  0.451938  0.200521  1
  Nd  Nd9  1  0.895855  0.057949  0.820149  1
  As  As10  1  0.799675  0.601204  0.101402  1
  As  As11  1  0.598858  0.198432  0.699492  1
  As  As12  1  0.401142  0.801568  0.300508  1
  As  As13  1  0.800107  0.100498  0.106715  1
  As  As14  1  0.200325  0.398796  0.898598  1
  As  As15  1  0.611659  0.704582  0.702400  1
  As  As16  1  0.388341  0.295418  0.297600  1
  As  As17  1  0.199893  0.899502  0.893285  1
  As  As18  1  0.000000  0.500000  0.500000  1
  I  I19  1  0.000000  0.000000  0.500000  1
