# generated using pymatgen
data_K5(AgAu)3
_symmetry_space_group_name_H-M   'P 1'
_cell_length_a   15.51994129
_cell_length_b   15.51994206
_cell_length_c   4.94461400
_cell_angle_alpha   90.00000000
_cell_angle_beta   90.00000000
_cell_angle_gamma   161.30550403
_symmetry_Int_Tables_number   1
_chemical_formula_structural   K5(AgAu)3
_chemical_formula_sum   'K5 Ag3 Au3'
_cell_volume   381.74240331
_cell_formula_units_Z   1
loop_
 _symmetry_equiv_pos_site_id
 _symmetry_equiv_pos_as_xyz
  1  'x, y, z'
loop_
 _atom_site_type_symbol
 _atom_site_label
 _atom_site_symmetry_multiplicity
 _atom_site_fract_x
 _atom_site_fract_y
 _atom_site_fract_z
 _atom_site_occupancy
  K  K0  1  0.997731  0.002269  0.000000  1
  K  K1  1  0.620165  0.379833  0.000000  1
  K  K2  1  0.379959  0.620039  0.000000  1
  K  K3  1  0.807378  0.192620  0.500001  1
  K  K4  1  0.195338  0.804660  0.500001  1
  Ag  Ag5  1  0.545648  0.454350  0.500001  1
  Ag  Ag6  1  0.452644  0.547354  0.500001  1
  Ag  Ag7  1  0.079620  0.920379  0.500001  1
  Au  Au8  1  0.736133  0.263865  0.000000  1
  Au  Au9  1  0.265598  0.734400  0.000000  1
  Au  Au10  1  0.919779  0.080220  0.500001  1
