# generated using pymatgen
data_Ba2Sc(IrO3)6
_symmetry_space_group_name_H-M   'P 1'
_cell_length_a   6.97867705
_cell_length_b   7.18215365
_cell_length_c   7.72891681
_cell_angle_alpha   92.71776221
_cell_angle_beta   95.14334693
_cell_angle_gamma   115.56972376
_symmetry_Int_Tables_number   1
_chemical_formula_structural   Ba2Sc(IrO3)6
_chemical_formula_sum   'Ba2 Sc1 Ir6 O18'
_cell_volume   346.43841986
_cell_formula_units_Z   1
loop_
 _symmetry_equiv_pos_site_id
 _symmetry_equiv_pos_as_xyz
  1  'x, y, z'
loop_
 _atom_site_type_symbol
 _atom_site_label
 _atom_site_symmetry_multiplicity
 _atom_site_fract_x
 _atom_site_fract_y
 _atom_site_fract_z
 _atom_site_occupancy
  Ba  Ba0  1  0.314849  0.683487  0.624254  1
  Ba  Ba1  1  0.682090  0.317901  0.380492  1
  Sc  Sc2  1  0.392762  0.268368  0.878555  1
  Ir  Ir3  1  0.809230  0.123063  0.812630  1
  Ir  Ir4  1  0.190849  0.873947  0.185687  1
  Ir  Ir5  1  0.604927  0.722328  0.117658  1
  Ir  Ir6  1  0.992208  0.993875  0.497184  1
  Ir  Ir7  1  0.823405  0.620673  0.807297  1
  Ir  Ir8  1  0.174796  0.378039  0.194838  1
  O  O9  1  0.927271  0.724991  0.585157  1
  O  O10  1  0.286943  0.169222  0.121750  1
  O  O11  1  0.323447  0.524140  0.991333  1
  O  O12  1  0.466545  0.553297  0.308675  1
  O  O13  1  0.488398  0.920750  0.166344  1
  O  O14  1  0.902106  0.399692  0.725952  1
  O  O15  1  0.726077  0.835437  0.890943  1
  O  O16  1  0.918561  0.231874  0.046599  1
  O  O17  1  0.691705  0.504773  0.025342  1
  O  O18  1  0.069861  0.268922  0.415268  1
  O  O19  1  0.088031  0.133187  0.740601  1
  O  O20  1  0.724505  0.994634  0.570944  1
  O  O21  1  0.095485  0.596471  0.274481  1
  O  O22  1  0.900150  0.867971  0.249704  1
  O  O23  1  0.088401  0.767510  0.948941  1
  O  O24  1  0.516032  0.073204  0.823590  1
  O  O25  1  0.263008  0.993071  0.428709  1
  O  O26  1  0.538358  0.459173  0.687074  1
