# generated using pymatgen
data_Sc5In4GaIr
_symmetry_space_group_name_H-M   'P 1'
_cell_length_a   3.35645300
_cell_length_b   7.72051225
_cell_length_c   17.70783700
_cell_angle_alpha   89.87541953
_cell_angle_beta   90.00000000
_cell_angle_gamma   90.00000000
_symmetry_Int_Tables_number   1
_chemical_formula_structural   Sc5In4GaIr
_chemical_formula_sum   'Sc10 In8 Ga2 Ir2'
_cell_volume   458.87159579
_cell_formula_units_Z   2
loop_
 _symmetry_equiv_pos_site_id
 _symmetry_equiv_pos_as_xyz
  1  'x, y, z'
loop_
 _atom_site_type_symbol
 _atom_site_label
 _atom_site_symmetry_multiplicity
 _atom_site_fract_x
 _atom_site_fract_y
 _atom_site_fract_z
 _atom_site_occupancy
  Sc  Sc0  1  0.000000  0.000000  0.000000  1
  Sc  Sc1  1  0.000000  0.500000  0.500000  1
  Sc  Sc2  1  0.000000  0.769206  0.776893  1
  Sc  Sc3  1  0.000000  0.230794  0.223107  1
  Sc  Sc4  1  0.000000  0.234742  0.716671  1
  Sc  Sc5  1  0.000000  0.765258  0.283329  1
  Sc  Sc6  1  0.000000  0.874642  0.582633  1
  Sc  Sc7  1  0.000000  0.125358  0.417367  1
  Sc  Sc8  1  0.000000  0.371341  0.922650  1
  Sc  Sc9  1  0.000000  0.628659  0.077350  1
  In  In10  1  0.500000  0.797021  0.434982  1
  In  In11  1  0.500000  0.202979  0.565018  1
  In  In12  1  0.500000  0.295590  0.067330  1
  In  In13  1  0.500000  0.704410  0.932670  1
  In  In14  1  0.500000  0.929424  0.147421  1
  In  In15  1  0.500000  0.070576  0.852579  1
  In  In16  1  0.500000  0.425684  0.351884  1
  In  In17  1  0.500000  0.574316  0.648116  1
  Ga  Ga18  1  0.500000  0.464291  0.804150  1
  Ga  Ga19  1  0.500000  0.535709  0.195850  1
  Ir  Ir20  1  0.500000  0.963729  0.694552  1
  Ir  Ir21  1  0.500000  0.036271  0.305448  1
