# generated using pymatgen
data_Yb(PrPb)4
_symmetry_space_group_name_H-M   'P 1'
_cell_length_a   8.34879800
_cell_length_b   8.56913000
_cell_length_c   16.38997800
_cell_angle_alpha   90.00000000
_cell_angle_beta   90.00000000
_cell_angle_gamma   90.00000000
_symmetry_Int_Tables_number   1
_chemical_formula_structural   Yb(PrPb)4
_chemical_formula_sum   'Yb4 Pr16 Pb16'
_cell_volume   1172.57074738
_cell_formula_units_Z   4
loop_
 _symmetry_equiv_pos_site_id
 _symmetry_equiv_pos_as_xyz
  1  'x, y, z'
loop_
 _atom_site_type_symbol
 _atom_site_label
 _atom_site_symmetry_multiplicity
 _atom_site_fract_x
 _atom_site_fract_y
 _atom_site_fract_z
 _atom_site_occupancy
  Yb  Yb0  1  0.806962  0.498503  0.750000  1
  Yb  Yb1  1  0.306962  0.001497  0.750000  1
  Yb  Yb2  1  0.193038  0.501497  0.250000  1
  Yb  Yb3  1  0.693038  0.998503  0.250000  1
  Pr  Pr4  1  0.639168  0.161676  0.622343  1
  Pr  Pr5  1  0.139168  0.338324  0.877657  1
  Pr  Pr6  1  0.360832  0.838324  0.122343  1
  Pr  Pr7  1  0.860832  0.661676  0.377657  1
  Pr  Pr8  1  0.360832  0.838324  0.377657  1
  Pr  Pr9  1  0.860832  0.661676  0.122343  1
  Pr  Pr10  1  0.639168  0.161676  0.877657  1
  Pr  Pr11  1  0.139168  0.338324  0.622343  1
  Pr  Pr12  1  0.489438  0.684650  0.594823  1
  Pr  Pr13  1  0.989438  0.815350  0.905177  1
  Pr  Pr14  1  0.510562  0.315350  0.094823  1
  Pr  Pr15  1  0.010562  0.184650  0.405177  1
  Pr  Pr16  1  0.510562  0.315350  0.405177  1
  Pr  Pr17  1  0.010562  0.184650  0.094823  1
  Pr  Pr18  1  0.489438  0.684650  0.905177  1
  Pr  Pr19  1  0.989438  0.815350  0.594823  1
  Pb  Pb20  1  0.702155  0.960495  0.459682  1
  Pb  Pb21  1  0.202155  0.539505  0.040318  1
  Pb  Pb22  1  0.297845  0.039505  0.959682  1
  Pb  Pb23  1  0.797845  0.460495  0.540318  1
  Pb  Pb24  1  0.297845  0.039505  0.540318  1
  Pb  Pb25  1  0.797845  0.460495  0.959682  1
  Pb  Pb26  1  0.702155  0.960495  0.040318  1
  Pb  Pb27  1  0.202155  0.539505  0.459682  1
  Pb  Pb28  1  0.443310  0.390711  0.750000  1
  Pb  Pb29  1  0.943310  0.109289  0.750000  1
  Pb  Pb30  1  0.556690  0.609289  0.250000  1
  Pb  Pb31  1  0.056690  0.890711  0.250000  1
  Pb  Pb32  1  0.678665  0.852143  0.750000  1
  Pb  Pb33  1  0.178665  0.647857  0.750000  1
  Pb  Pb34  1  0.321335  0.147857  0.250000  1
  Pb  Pb35  1  0.821335  0.352143  0.250000  1
