# generated using pymatgen
data_Tb4Sm(FeB3)2
_symmetry_space_group_name_H-M   'P 1'
_cell_length_a   5.41681631
_cell_length_b   5.41681685
_cell_length_c   8.28024508
_cell_angle_alpha   70.90759229
_cell_angle_beta   70.90758768
_cell_angle_gamma   59.99999105
_symmetry_Int_Tables_number   1
_chemical_formula_structural   Tb4Sm(FeB3)2
_chemical_formula_sum   'Tb4 Sm1 Fe2 B6'
_cell_volume   194.82307725
_cell_formula_units_Z   1
loop_
 _symmetry_equiv_pos_site_id
 _symmetry_equiv_pos_as_xyz
  1  'x, y, z'
loop_
 _atom_site_type_symbol
 _atom_site_label
 _atom_site_symmetry_multiplicity
 _atom_site_fract_x
 _atom_site_fract_y
 _atom_site_fract_z
 _atom_site_occupancy
  Tb  Tb0  1  0.251301  0.251301  0.246097  1
  Tb  Tb1  1  0.748699  0.748699  0.753903  1
  Tb  Tb2  1  0.416330  0.416330  0.751009  1
  Tb  Tb3  1  0.583670  0.583670  0.248991  1
  Sm  Sm4  1  0.000000  0.000000  0.000000  1
  Fe  Fe5  1  0.117328  0.117328  0.648017  1
  Fe  Fe6  1  0.882672  0.882672  0.351983  1
  B  B7  1  0.167464  0.832536  0.500000  1
  B  B8  1  0.832536  0.500000  0.500000  1
  B  B9  1  0.500000  0.167464  0.500000  1
  B  B10  1  0.167464  0.500000  0.500000  1
  B  B11  1  0.500000  0.832536  0.500000  1
  B  B12  1  0.832536  0.167464  0.500000  1
