# generated using pymatgen
data_Er3Zr5(Nb3Si4)4
_symmetry_space_group_name_H-M   'P 1'
_cell_length_a   6.94781028
_cell_length_b   6.94699576
_cell_length_c   12.87987817
_cell_angle_alpha   90.02598014
_cell_angle_beta   90.01044515
_cell_angle_gamma   90.05896607
_symmetry_Int_Tables_number   1
_chemical_formula_structural   Er3Zr5(Nb3Si4)4
_chemical_formula_sum   'Er3 Zr5 Nb12 Si16'
_cell_volume   621.66505797
_cell_formula_units_Z   1
loop_
 _symmetry_equiv_pos_site_id
 _symmetry_equiv_pos_as_xyz
  1  'x, y, z'
loop_
 _atom_site_type_symbol
 _atom_site_label
 _atom_site_symmetry_multiplicity
 _atom_site_fract_x
 _atom_site_fract_y
 _atom_site_fract_z
 _atom_site_occupancy
  Er  Er0  1  0.997759  0.338805  0.218243  1
  Er  Er1  1  0.002501  0.661839  0.718268  1
  Er  Er2  1  0.161762  0.496988  0.467799  1
  Zr  Zr3  1  0.498634  0.840625  0.032116  1
  Zr  Zr4  1  0.840548  0.498728  0.966759  1
  Zr  Zr5  1  0.503797  0.156451  0.532863  1
  Zr  Zr6  1  0.343680  0.004542  0.783347  1
  Zr  Zr7  1  0.656497  0.995696  0.282362  1
  Nb  Nb8  1  0.170855  0.169707  0.999706  1
  Nb  Nb9  1  0.827148  0.831982  0.499763  1
  Nb  Nb10  1  0.332052  0.671753  0.248743  1
  Nb  Nb11  1  0.668293  0.328313  0.750709  1
  Nb  Nb12  1  0.155429  0.997191  0.375788  1
  Nb  Nb13  1  0.844860  0.003113  0.877087  1
  Nb  Nb14  1  0.503484  0.655052  0.626953  1
  Nb  Nb15  1  0.347439  0.493193  0.875547  1
  Nb  Nb16  1  0.496985  0.348037  0.124280  1
  Nb  Nb17  1  0.652137  0.507180  0.374156  1
  Nb  Nb18  1  0.992529  0.153108  0.625108  1
  Nb  Nb19  1  0.005259  0.847885  0.123198  1
  Si  Si20  1  0.300264  0.043199  0.185892  1
  Si  Si21  1  0.700672  0.955853  0.687079  1
  Si  Si22  1  0.456098  0.799239  0.436479  1
  Si  Si23  1  0.202400  0.545261  0.062614  1
  Si  Si24  1  0.544510  0.201344  0.936775  1
  Si  Si25  1  0.793800  0.455290  0.563010  1
  Si  Si26  1  0.043748  0.295347  0.813829  1
  Si  Si27  1  0.954857  0.706742  0.312808  1
  Si  Si28  1  0.370645  0.290743  0.319537  1
  Si  Si29  1  0.632129  0.706976  0.822479  1
  Si  Si30  1  0.208772  0.870259  0.569900  1
  Si  Si31  1  0.136298  0.794502  0.929231  1
  Si  Si32  1  0.791071  0.132623  0.069746  1
  Si  Si33  1  0.861083  0.203055  0.429710  1
  Si  Si34  1  0.296396  0.361480  0.680090  1
  Si  Si35  1  0.705605  0.637903  0.178028  1
