# generated using pymatgen
data_Ti13Al9(Fe3Cu)2
_symmetry_space_group_name_H-M   'P 1'
_cell_length_a   8.52053889
_cell_length_b   8.55749293
_cell_length_c   8.52053800
_cell_angle_alpha   59.69154367
_cell_angle_beta   59.90813550
_cell_angle_gamma   59.69155385
_symmetry_Int_Tables_number   1
_chemical_formula_structural   Ti13Al9(Fe3Cu)2
_chemical_formula_sum   'Ti13 Al9 Fe6 Cu2'
_cell_volume   436.94367124
_cell_formula_units_Z   1
loop_
 _symmetry_equiv_pos_site_id
 _symmetry_equiv_pos_as_xyz
  1  'x, y, z'
loop_
 _atom_site_type_symbol
 _atom_site_label
 _atom_site_symmetry_multiplicity
 _atom_site_fract_x
 _atom_site_fract_y
 _atom_site_fract_z
 _atom_site_occupancy
  Ti  Ti0  1  0.207308  0.210934  0.792105  1
  Ti  Ti1  1  0.792105  0.210934  0.207308  1
  Ti  Ti2  1  0.207726  0.794534  0.207726  1
  Ti  Ti3  1  0.807370  0.801903  0.177511  1
  Ti  Ti4  1  0.177511  0.801903  0.807370  1
  Ti  Ti5  1  0.802167  0.187310  0.802167  1
  Ti  Ti6  1  0.380125  0.383596  0.380125  1
  Ti  Ti7  1  0.390348  0.852078  0.390348  1
  Ti  Ti8  1  0.857172  0.393408  0.377018  1
  Ti  Ti9  1  0.377018  0.393408  0.857172  1
  Ti  Ti10  1  0.843899  0.470633  0.843899  1
  Ti  Ti11  1  0.467956  0.836028  0.837930  1
  Ti  Ti12  1  0.837930  0.836028  0.467956  1
  Al  Al13  1  0.157704  0.161948  0.157704  1
  Al  Al14  1  0.163737  0.517831  0.163737  1
  Al  Al15  1  0.520102  0.164229  0.165095  1
  Al  Al16  1  0.165095  0.164229  0.520102  1
  Al  Al17  1  0.621816  0.611276  0.621816  1
  Al  Al18  1  0.615072  0.145502  0.615072  1
  Al  Al19  1  0.145153  0.612986  0.620304  1
  Al  Al20  1  0.620304  0.612986  0.145153  1
  Al  Al21  1  0.826931  0.823355  0.826931  1
  Fe  Fe22  1  0.003544  0.499219  0.003544  1
  Fe  Fe23  1  0.501499  0.501607  0.999833  1
  Fe  Fe24  1  0.999833  0.501607  0.501499  1
  Fe  Fe25  1  0.502994  0.993794  0.502994  1
  Fe  Fe26  1  0.500700  0.499437  0.500700  1
  Fe  Fe27  1  0.003828  0.007960  0.003828  1
  Cu  Cu28  1  0.002063  0.004668  0.500987  1
  Cu  Cu29  1  0.500987  0.004668  0.002063  1
