# generated using pymatgen
data_Sm8Nb7Si16W5
_symmetry_space_group_name_H-M   'P 1'
_cell_length_a   7.03844877
_cell_length_b   7.04093496
_cell_length_c   13.12373761
_cell_angle_alpha   89.89867097
_cell_angle_beta   89.92783774
_cell_angle_gamma   90.02043379
_symmetry_Int_Tables_number   1
_chemical_formula_structural   Sm8Nb7Si16W5
_chemical_formula_sum   'Sm8 Nb7 Si16 W5'
_cell_volume   650.37490281
_cell_formula_units_Z   1
loop_
 _symmetry_equiv_pos_site_id
 _symmetry_equiv_pos_as_xyz
  1  'x, y, z'
loop_
 _atom_site_type_symbol
 _atom_site_label
 _atom_site_symmetry_multiplicity
 _atom_site_fract_x
 _atom_site_fract_y
 _atom_site_fract_z
 _atom_site_occupancy
  Sm  Sm0  1  0.998311  0.337616  0.219081  1
  Sm  Sm1  1  0.002092  0.662713  0.717051  1
  Sm  Sm2  1  0.161810  0.498418  0.467824  1
  Sm  Sm3  1  0.500936  0.838356  0.032764  1
  Sm  Sm4  1  0.837655  0.502048  0.968050  1
  Sm  Sm5  1  0.498506  0.161710  0.531250  1
  Sm  Sm6  1  0.337874  0.998586  0.781933  1
  Sm  Sm7  1  0.662814  0.001075  0.282196  1
  Nb  Nb8  1  0.843696  0.008091  0.873968  1
  Nb  Nb9  1  0.506943  0.657617  0.623067  1
  Nb  Nb10  1  0.343926  0.492510  0.875754  1
  Nb  Nb11  1  0.490324  0.342810  0.125158  1
  Nb  Nb12  1  0.656422  0.507596  0.375978  1
  Nb  Nb13  1  0.993192  0.156538  0.625538  1
  Nb  Nb14  1  0.007245  0.844078  0.126171  1
  Si  Si15  1  0.291112  0.040714  0.187357  1
  Si  Si16  1  0.707703  0.957892  0.684866  1
  Si  Si17  1  0.454238  0.792710  0.433830  1
  Si  Si18  1  0.206788  0.542424  0.064996  1
  Si  Si19  1  0.542072  0.207497  0.935209  1
  Si  Si20  1  0.791795  0.457485  0.565025  1
  Si  Si21  1  0.042564  0.292852  0.814880  1
  Si  Si22  1  0.960993  0.711278  0.315219  1
  Si  Si23  1  0.371822  0.294440  0.316420  1
  Si  Si24  1  0.628646  0.701456  0.814697  1
  Si  Si25  1  0.200002  0.872683  0.562760  1
  Si  Si26  1  0.128872  0.799315  0.935098  1
  Si  Si27  1  0.798896  0.129379  0.065218  1
  Si  Si28  1  0.875037  0.197472  0.434154  1
  Si  Si29  1  0.299409  0.371469  0.684692  1
  Si  Si30  1  0.700934  0.627609  0.185324  1
  W  W31  1  0.169179  0.169597  0.000655  1
  W  W32  1  0.831039  0.831430  0.499588  1
  W  W33  1  0.329664  0.669082  0.250323  1
  W  W34  1  0.669587  0.330751  0.749851  1
  W  W35  1  0.157903  0.992705  0.374055  1
