# generated using pymatgen
data_Dy5Si9P3Ir11Rh8
_symmetry_space_group_name_H-M   'P 1'
_cell_length_a   12.83285801
_cell_length_b   12.82989073
_cell_length_c   3.94205300
_cell_angle_alpha   90.00000000
_cell_angle_beta   90.00000000
_cell_angle_gamma   120.00307524
_symmetry_Int_Tables_number   1
_chemical_formula_structural   Dy5Si9P3Ir11Rh8
_chemical_formula_sum   'Dy5 Si9 P3 Ir11 Rh8'
_cell_volume   562.06427002
_cell_formula_units_Z   1
loop_
 _symmetry_equiv_pos_site_id
 _symmetry_equiv_pos_as_xyz
  1  'x, y, z'
loop_
 _atom_site_type_symbol
 _atom_site_label
 _atom_site_symmetry_multiplicity
 _atom_site_fract_x
 _atom_site_fract_y
 _atom_site_fract_z
 _atom_site_occupancy
  Dy  Dy0  1  0.333539  0.666795  0.500000  1
  Dy  Dy1  1  0.666249  0.333307  0.500000  1
  Dy  Dy2  1  0.999981  0.812762  0.000000  1
  Dy  Dy3  1  0.187221  0.187253  0.000000  1
  Dy  Dy4  1  0.812279  0.999763  0.000000  1
  Si  Si5  1  0.000006  0.628986  0.500000  1
  Si  Si6  1  0.371134  0.371119  0.500000  1
  Si  Si7  1  0.629434  0.999653  0.500000  1
  Si  Si8  1  0.519847  0.686537  0.000000  1
  Si  Si9  1  0.313616  0.833213  0.000000  1
  Si  Si10  1  0.167181  0.480396  0.000000  1
  Si  Si11  1  0.479852  0.166770  0.000000  1
  Si  Si12  1  0.686546  0.519866  0.000000  1
  Si  Si13  1  0.832497  0.313532  0.000000  1
  P  P14  1  0.999556  0.179270  0.500000  1
  P  P15  1  0.820469  0.820460  0.500000  1
  P  P16  1  0.179608  0.999853  0.500000  1
  Ir  Ir17  1  0.513780  0.872932  0.000000  1
  Ir  Ir18  1  0.127011  0.640705  0.000000  1
  Ir  Ir19  1  0.359308  0.486339  0.000000  1
  Ir  Ir20  1  0.486282  0.359287  0.000000  1
  Ir  Ir21  1  0.872859  0.513521  0.000000  1
  Ir  Ir22  1  0.639998  0.127104  0.000000  1
  Ir  Ir23  1  0.999969  0.276652  0.000000  1
  Ir  Ir24  1  0.723594  0.723626  0.000000  1
  Ir  Ir25  1  0.276480  0.999854  0.000000  1
  Ir  Ir26  1  0.819559  0.192527  0.500000  1
  Ir  Ir27  1  0.000185  0.000194  0.500000  1
  Rh  Rh28  1  0.000451  0.444822  0.500000  1
  Rh  Rh29  1  0.555674  0.555232  0.500000  1
  Rh  Rh30  1  0.445532  0.000489  0.500000  1
  Rh  Rh31  1  0.627327  0.807470  0.500000  1
  Rh  Rh32  1  0.192619  0.819698  0.500000  1
  Rh  Rh33  1  0.180217  0.372369  0.500000  1
  Rh  Rh34  1  0.372314  0.180116  0.500000  1
  Rh  Rh35  1  0.807826  0.627530  0.500000  1
