# generated using pymatgen
data_Pr3CdCu(HgPd)2
_symmetry_space_group_name_H-M   'P 1'
_cell_length_a   7.94082972
_cell_length_b   7.94082978
_cell_length_c   3.89633000
_cell_angle_alpha   90.00000000
_cell_angle_beta   90.00000000
_cell_angle_gamma   120.23515294
_symmetry_Int_Tables_number   1
_chemical_formula_structural   Pr3CdCu(HgPd)2
_chemical_formula_sum   'Pr3 Cd1 Cu1 Hg2 Pd2'
_cell_volume   212.26782198
_cell_formula_units_Z   1
loop_
 _symmetry_equiv_pos_site_id
 _symmetry_equiv_pos_as_xyz
  1  'x, y, z'
loop_
 _atom_site_type_symbol
 _atom_site_label
 _atom_site_symmetry_multiplicity
 _atom_site_fract_x
 _atom_site_fract_y
 _atom_site_fract_z
 _atom_site_occupancy
  Pr  Pr0  1  0.411711  0.997751  0.500000  1
  Pr  Pr1  1  0.997751  0.411711  0.500000  1
  Pr  Pr2  1  0.593252  0.593252  0.500000  1
  Cd  Cd3  1  0.248749  0.248749  0.000000  1
  Cu  Cu4  1  0.002268  0.002268  0.500000  1
  Hg  Hg5  1  0.750232  0.001914  0.000000  1
  Hg  Hg6  1  0.001914  0.750232  0.000000  1
  Pd  Pd7  1  0.332517  0.661605  0.000000  1
  Pd  Pd8  1  0.661605  0.332517  0.000000  1
