# generated using pymatgen
data_LaThCo5B2
_symmetry_space_group_name_H-M   'P 1'
_cell_length_a   5.14088600
_cell_length_b   5.14088614
_cell_length_c   20.61418400
_cell_angle_alpha   90.00000000
_cell_angle_beta   90.00000000
_cell_angle_gamma   120.00099168
_symmetry_Int_Tables_number   1
_chemical_formula_structural   LaThCo5B2
_chemical_formula_sum   'La4 Th4 Co20 B8'
_cell_volume   471.81136618
_cell_formula_units_Z   4
loop_
 _symmetry_equiv_pos_site_id
 _symmetry_equiv_pos_as_xyz
  1  'x, y, z'
loop_
 _atom_site_type_symbol
 _atom_site_label
 _atom_site_symmetry_multiplicity
 _atom_site_fract_x
 _atom_site_fract_y
 _atom_site_fract_z
 _atom_site_occupancy
  La  La0  1  0.666735  0.333265  0.519829  1
  La  La1  1  0.333265  0.666735  0.480171  1
  La  La2  1  0.333265  0.666735  0.019829  1
  La  La3  1  0.666735  0.333265  0.980171  1
  Th  Th4  1  0.666759  0.333241  0.672562  1
  Th  Th5  1  0.333241  0.666759  0.327438  1
  Th  Th6  1  0.333241  0.666759  0.172562  1
  Th  Th7  1  0.666759  0.333241  0.827438  1
  Co  Co8  1  0.000000  0.000000  0.500000  1
  Co  Co9  1  0.000000  0.000000  0.000000  1
  Co  Co10  1  0.167634  0.335008  0.750000  1
  Co  Co11  1  0.167621  0.832379  0.750000  1
  Co  Co12  1  0.664992  0.832366  0.750000  1
  Co  Co13  1  0.832366  0.664992  0.250000  1
  Co  Co14  1  0.832379  0.167621  0.250000  1
  Co  Co15  1  0.335008  0.167634  0.250000  1
  Co  Co16  1  0.161950  0.323712  0.609244  1
  Co  Co17  1  0.161957  0.838043  0.609237  1
  Co  Co18  1  0.676288  0.838051  0.609244  1
  Co  Co19  1  0.838051  0.676288  0.390756  1
  Co  Co20  1  0.838043  0.161957  0.390763  1
  Co  Co21  1  0.323712  0.161950  0.390756  1
  Co  Co22  1  0.838051  0.676288  0.109244  1
  Co  Co23  1  0.838043  0.161957  0.109237  1
  Co  Co24  1  0.323712  0.161950  0.109244  1
  Co  Co25  1  0.161950  0.323712  0.890756  1
  Co  Co26  1  0.161957  0.838043  0.890763  1
  Co  Co27  1  0.676288  0.838051  0.890756  1
  B  B28  1  0.000094  0.999906  0.678701  1
  B  B29  1  0.999906  0.000094  0.321299  1
  B  B30  1  0.999906  0.000094  0.178701  1
  B  B31  1  0.000094  0.999906  0.821299  1
  B  B32  1  0.666619  0.333381  0.324099  1
  B  B33  1  0.333381  0.666619  0.675901  1
  B  B34  1  0.333381  0.666619  0.824099  1
  B  B35  1  0.666619  0.333381  0.175901  1
