# generated using pymatgen
data_NaYb3(Si5Pt3)2
_symmetry_space_group_name_H-M   'P 1'
_cell_length_a   8.25566657
_cell_length_b   8.26354974
_cell_length_c   8.26355020
_cell_angle_alpha   138.48519124
_cell_angle_beta   104.34617760
_cell_angle_gamma   90.21058966
_symmetry_Int_Tables_number   1
_chemical_formula_structural   NaYb3(Si5Pt3)2
_chemical_formula_sum   'Na1 Yb3 Si10 Pt6'
_cell_volume   345.93664699
_cell_formula_units_Z   1
loop_
 _symmetry_equiv_pos_site_id
 _symmetry_equiv_pos_as_xyz
  1  'x, y, z'
loop_
 _atom_site_type_symbol
 _atom_site_label
 _atom_site_symmetry_multiplicity
 _atom_site_fract_x
 _atom_site_fract_y
 _atom_site_fract_z
 _atom_site_occupancy
  Na  Na0  1  0.864146  0.628261  0.235885  1
  Yb  Yb1  1  0.136193  0.368884  0.767309  1
  Yb  Yb2  1  0.396169  0.129835  0.266334  1
  Yb  Yb3  1  0.604697  0.871437  0.733259  1
  Si  Si4  1  0.499142  0.746379  0.247451  1
  Si  Si5  1  0.499142  0.251690  0.752762  1
  Si  Si6  1  0.228297  0.979299  0.748856  1
  Si  Si7  1  0.771577  0.521390  0.748943  1
  Si  Si8  1  0.771577  0.022634  0.250188  1
  Si  Si9  1  0.228297  0.479440  0.248998  1
  Si  Si10  1  0.038875  0.887043  0.151833  1
  Si  Si11  1  0.961202  0.112831  0.848371  1
  Si  Si12  1  0.739305  0.389819  0.349486  1
  Si  Si13  1  0.261484  0.611602  0.649882  1
  Pt  Pt14  1  0.001686  0.752453  0.754262  1
  Pt  Pt15  1  0.001686  0.247424  0.249233  1
  Pt  Pt16  1  0.247731  0.863898  0.383833  1
  Pt  Pt17  1  0.749110  0.135852  0.613257  1
  Pt  Pt18  1  0.479502  0.362433  0.117068  1
  Pt  Pt19  1  0.520184  0.637395  0.882788  1
