# generated using pymatgen
data_Tm4Al6TcIr
_symmetry_space_group_name_H-M   'P 1'
_cell_length_a   5.44747000
_cell_length_b   5.44746915
_cell_length_c   8.80293100
_cell_angle_alpha   90.00000000
_cell_angle_beta   90.00000000
_cell_angle_gamma   119.99999303
_symmetry_Int_Tables_number   1
_chemical_formula_structural   Tm4Al6TcIr
_chemical_formula_sum   'Tm4 Al6 Tc1 Ir1'
_cell_volume   226.22864090
_cell_formula_units_Z   1
loop_
 _symmetry_equiv_pos_site_id
 _symmetry_equiv_pos_as_xyz
  1  'x, y, z'
loop_
 _atom_site_type_symbol
 _atom_site_label
 _atom_site_symmetry_multiplicity
 _atom_site_fract_x
 _atom_site_fract_y
 _atom_site_fract_z
 _atom_site_occupancy
  Tm  Tm0  1  0.666668  0.333334  0.055990  1
  Tm  Tm1  1  0.666668  0.333334  0.447029  1
  Tm  Tm2  1  0.333333  0.666666  0.552972  1
  Tm  Tm3  1  0.333333  0.666666  0.944009  1
  Al  Al4  1  0.163492  0.326983  0.252008  1
  Al  Al5  1  0.163491  0.836508  0.252008  1
  Al  Al6  1  0.673016  0.836508  0.252008  1
  Al  Al7  1  0.326983  0.163491  0.747991  1
  Al  Al8  1  0.836508  0.163491  0.747991  1
  Al  Al9  1  0.836509  0.673017  0.747991  1
  Tc  Tc10  1  0.000000  0.000000  0.000000  1
  Ir  Ir11  1  0.000000  0.000000  0.500000  1
