# generated using pymatgen
data_Yb2BeP2Pd
_symmetry_space_group_name_H-M   'P 1'
_cell_length_a   3.93361300
_cell_length_b   7.95149782
_cell_length_c   6.97621412
_cell_angle_alpha   90.21378162
_cell_angle_beta   90.00000000
_cell_angle_gamma   90.00000000
_symmetry_Int_Tables_number   1
_chemical_formula_structural   Yb2BeP2Pd
_chemical_formula_sum   'Yb4 Be2 P4 Pd2'
_cell_volume   218.20131001
_cell_formula_units_Z   2
loop_
 _symmetry_equiv_pos_site_id
 _symmetry_equiv_pos_as_xyz
  1  'x, y, z'
loop_
 _atom_site_type_symbol
 _atom_site_label
 _atom_site_symmetry_multiplicity
 _atom_site_fract_x
 _atom_site_fract_y
 _atom_site_fract_z
 _atom_site_occupancy
  Yb  Yb0  1  0.250000  0.507463  0.240826  1
  Yb  Yb1  1  0.750000  0.492537  0.759174  1
  Yb  Yb2  1  0.750000  0.007075  0.759907  1
  Yb  Yb3  1  0.250000  0.992925  0.240093  1
  Be  Be4  1  0.250000  0.749169  0.587438  1
  Be  Be5  1  0.750000  0.250831  0.412562  1
  P  P6  1  0.250000  0.749364  0.885992  1
  P  P7  1  0.750000  0.250636  0.114008  1
  P  P8  1  0.750000  0.749045  0.435714  1
  P  P9  1  0.250000  0.250955  0.564286  1
  Pd  Pd10  1  0.750000  0.749576  0.086150  1
  Pd  Pd11  1  0.250000  0.250424  0.913850  1
