# generated using pymatgen
data_Ce4NdSi3H
_symmetry_space_group_name_H-M   'P 1'
_cell_length_a   8.67022395
_cell_length_b   8.67022430
_cell_length_c   8.64161120
_cell_angle_alpha   126.70459409
_cell_angle_beta   126.70458601
_cell_angle_gamma   78.96351595
_symmetry_Int_Tables_number   1
_chemical_formula_structural   Ce4NdSi3H
_chemical_formula_sum   'Ce8 Nd2 Si6 H2'
_cell_volume   403.42063387
_cell_formula_units_Z   2
loop_
 _symmetry_equiv_pos_site_id
 _symmetry_equiv_pos_as_xyz
  1  'x, y, z'
loop_
 _atom_site_type_symbol
 _atom_site_label
 _atom_site_symmetry_multiplicity
 _atom_site_fract_x
 _atom_site_fract_y
 _atom_site_fract_z
 _atom_site_occupancy
  Ce  Ce0  1  0.495343  0.495343  0.000000  1
  Ce  Ce1  1  0.995343  0.995343  0.000000  1
  Ce  Ce2  1  0.527272  0.027272  0.860486  1
  Ce  Ce3  1  0.166788  0.666788  0.139514  1
  Ce  Ce4  1  0.028073  0.178432  0.500000  1
  Ce  Ce5  1  0.678432  0.528073  0.500000  1
  Ce  Ce6  1  0.475562  0.975562  0.145534  1
  Ce  Ce7  1  0.830026  0.330026  0.854466  1
  Nd  Nd8  1  0.973158  0.825881  0.500000  1
  Nd  Nd9  1  0.325881  0.473158  0.500000  1
  Si  Si10  1  0.251895  0.251895  0.000000  1
  Si  Si11  1  0.751895  0.751895  0.000000  1
  Si  Si12  1  0.884669  0.384669  0.269071  1
  Si  Si13  1  0.115598  0.615598  0.730929  1
  Si  Si14  1  0.387056  0.111201  0.500000  1
  Si  Si15  1  0.611201  0.887056  0.500000  1
  H  H16  1  0.250233  0.750233  0.500000  1
  H  H17  1  0.751573  0.251573  0.500000  1
