# generated using pymatgen
data_Gd5Al2Os2Ru
_symmetry_space_group_name_H-M   'P 1'
_cell_length_a   8.42401789
_cell_length_b   8.40428794
_cell_length_c   8.40480000
_cell_angle_alpha   109.45588938
_cell_angle_beta   109.78872123
_cell_angle_gamma   109.34693223
_symmetry_Int_Tables_number   1
_chemical_formula_structural   Gd5Al2Os2Ru
_chemical_formula_sum   'Gd10 Al4 Os4 Ru2'
_cell_volume   457.04963098
_cell_formula_units_Z   2
loop_
 _symmetry_equiv_pos_site_id
 _symmetry_equiv_pos_as_xyz
  1  'x, y, z'
loop_
 _atom_site_type_symbol
 _atom_site_label
 _atom_site_symmetry_multiplicity
 _atom_site_fract_x
 _atom_site_fract_y
 _atom_site_fract_z
 _atom_site_occupancy
  Gd  Gd0  1  0.248541  0.679866  0.431751  1
  Gd  Gd1  1  0.750384  0.820173  0.067608  1
  Gd  Gd2  1  0.431221  0.248132  0.679995  1
  Gd  Gd3  1  0.680549  0.431296  0.250504  1
  Gd  Gd4  1  0.068250  0.750957  0.820217  1
  Gd  Gd5  1  0.819440  0.068860  0.749124  1
  Gd  Gd6  1  0.212734  0.213107  0.213610  1
  Gd  Gd7  1  0.499533  0.999600  0.287216  1
  Gd  Gd8  1  0.287870  0.500162  0.000228  1
  Gd  Gd9  1  0.999611  0.287172  0.499469  1
  Al  Al10  1  0.588961  0.588500  0.589030  1
  Al  Al11  1  0.500165  0.000885  0.911460  1
  Al  Al12  1  0.911231  0.500011  0.000466  1
  Al  Al13  1  0.000554  0.911063  0.499319  1
  Os  Os14  1  0.250399  0.121129  0.870791  1
  Os  Os15  1  0.749880  0.379144  0.629310  1
  Os  Os16  1  0.870081  0.250272  0.120265  1
  Os  Os17  1  0.120381  0.870158  0.249895  1
  Ru  Ru18  1  0.630168  0.749751  0.379683  1
  Ru  Ru19  1  0.380045  0.629759  0.750059  1
