# generated using pymatgen
data_Li3Ho4Co13(NiP3)4
_symmetry_space_group_name_H-M   'P 1'
_cell_length_a   3.69004300
_cell_length_b   10.26347230
_cell_length_c   11.94071727
_cell_angle_alpha   90.24826374
_cell_angle_beta   90.00000000
_cell_angle_gamma   90.00000000
_symmetry_Int_Tables_number   1
_chemical_formula_structural   Li3Ho4Co13(NiP3)4
_chemical_formula_sum   'Li3 Ho4 Co13 Ni4 P12'
_cell_volume   452.22240975
_cell_formula_units_Z   1
loop_
 _symmetry_equiv_pos_site_id
 _symmetry_equiv_pos_as_xyz
  1  'x, y, z'
loop_
 _atom_site_type_symbol
 _atom_site_label
 _atom_site_symmetry_multiplicity
 _atom_site_fract_x
 _atom_site_fract_y
 _atom_site_fract_z
 _atom_site_occupancy
  Li  Li0  1  0.250000  0.701720  0.992113  1
  Li  Li1  1  0.250000  0.797332  0.492791  1
  Li  Li2  1  0.750000  0.296243  0.007393  1
  Ho  Ho3  1  0.250000  0.579586  0.704096  1
  Ho  Ho4  1  0.250000  0.920490  0.203522  1
  Ho  Ho5  1  0.750000  0.419635  0.294681  1
  Ho  Ho6  1  0.750000  0.078455  0.796876  1
  Co  Co7  1  0.750000  0.908000  0.016198  1
  Co  Co8  1  0.250000  0.219363  0.176170  1
  Co  Co9  1  0.250000  0.276125  0.670983  1
  Co  Co10  1  0.750000  0.779453  0.827542  1
  Co  Co11  1  0.750000  0.719942  0.325535  1
  Co  Co12  1  0.250000  0.880887  0.700090  1
  Co  Co13  1  0.250000  0.620850  0.197420  1
  Co  Co14  1  0.750000  0.120214  0.304524  1
  Co  Co15  1  0.750000  0.377923  0.797661  1
  Co  Co16  1  0.250000  0.465460  0.931379  1
  Co  Co17  1  0.250000  0.035316  0.433858  1
  Co  Co18  1  0.750000  0.532655  0.066436  1
  Co  Co19  1  0.750000  0.966532  0.567091  1
  Ni  Ni20  1  0.750000  0.210552  0.510935  1
  Ni  Ni21  1  0.250000  0.407834  0.483862  1
  Ni  Ni22  1  0.250000  0.094762  0.985547  1
  Ni  Ni23  1  0.750000  0.592726  0.514039  1
  P  P24  1  0.250000  0.421753  0.113718  1
  P  P25  1  0.250000  0.075844  0.613398  1
  P  P26  1  0.750000  0.576266  0.884852  1
  P  P27  1  0.750000  0.922519  0.385348  1
  P  P28  1  0.250000  0.271145  0.857466  1
  P  P29  1  0.250000  0.229663  0.363292  1
  P  P30  1  0.750000  0.729653  0.138220  1
  P  P31  1  0.750000  0.772720  0.642408  1
  P  P32  1  0.250000  0.604263  0.386037  1
  P  P33  1  0.250000  0.895778  0.892312  1
  P  P34  1  0.750000  0.395318  0.608805  1
  P  P35  1  0.750000  0.103024  0.113400  1
