# generated using pymatgen
data_K8Mn7VP8(O4F)8
_symmetry_space_group_name_H-M   'P 1'
_cell_length_a   6.49820000
_cell_length_b   10.83800200
_cell_length_c   13.04120400
_cell_angle_alpha   90.00000000
_cell_angle_beta   90.00000000
_cell_angle_gamma   90.00000000
_symmetry_Int_Tables_number   1
_chemical_formula_structural   K8Mn7VP8(O4F)8
_chemical_formula_sum   'K8 Mn7 V1 P8 O32 F8'
_cell_volume   918.45945465
_cell_formula_units_Z   1
loop_
 _symmetry_equiv_pos_site_id
 _symmetry_equiv_pos_as_xyz
  1  'x, y, z'
loop_
 _atom_site_type_symbol
 _atom_site_label
 _atom_site_symmetry_multiplicity
 _atom_site_fract_x
 _atom_site_fract_y
 _atom_site_fract_z
 _atom_site_occupancy
  K  K0  1  0.228492  0.799213  0.627524  1
  K  K1  1  0.727766  0.299278  0.873113  1
  K  K2  1  0.273423  0.800519  0.123769  1
  K  K3  1  0.772782  0.299715  0.373646  1
  K  K4  1  0.701554  0.059360  0.101770  1
  K  K5  1  0.298456  0.557720  0.896497  1
  K  K6  1  0.798744  0.058824  0.604179  1
  K  K7  1  0.201699  0.558038  0.396799  1
  Mn  Mn8  1  0.493861  0.004947  0.384807  1
  Mn  Mn9  1  0.510813  0.505002  0.616592  1
  Mn  Mn10  1  0.011472  0.005450  0.883503  1
  Mn  Mn11  1  0.985361  0.504487  0.114890  1
  Mn  Mn12  1  0.251869  0.251337  0.244171  1
  Mn  Mn13  1  0.748443  0.751343  0.755844  1
  Mn  Mn14  1  0.248511  0.251524  0.744280  1
  V  V15  1  0.751223  0.752427  0.257445  1
  P  P16  1  0.332198  0.252935  0.495620  1
  P  P17  1  0.668817  0.751721  0.505819  1
  P  P18  1  0.167827  0.251815  0.995932  1
  P  P19  1  0.831227  0.752515  0.002948  1
  P  P20  1  0.492478  0.505022  0.180278  1
  P  P21  1  0.503511  0.006137  0.819939  1
  P  P22  1  0.003705  0.505676  0.680186  1
  P  P23  1  0.999853  0.007707  0.319478  1
  O  O24  1  0.481124  0.139223  0.480507  1
  O  O25  1  0.521791  0.637226  0.519247  1
  O  O26  1  0.021721  0.136806  0.981743  1
  O  O27  1  0.977783  0.637627  0.017704  1
  O  O28  1  0.473344  0.366004  0.506706  1
  O  O29  1  0.527823  0.864695  0.494090  1
  O  O30  1  0.024803  0.364014  0.006857  1
  O  O31  1  0.973805  0.864908  0.991660  1
  O  O32  1  0.192751  0.269254  0.399202  1
  O  O33  1  0.806916  0.768352  0.602998  1
  O  O34  1  0.307381  0.268402  0.899507  1
  O  O35  1  0.693126  0.769656  0.099278  1
  O  O36  1  0.196293  0.231353  0.591706  1
  O  O37  1  0.806027  0.730363  0.410277  1
  O  O38  1  0.304375  0.231390  0.092050  1
  O  O39  1  0.695625  0.731277  0.906269  1
  O  O40  1  0.303693  0.533907  0.111430  1
  O  O41  1  0.690952  0.036114  0.888872  1
  O  O42  1  0.190467  0.535089  0.610591  1
  O  O43  1  0.812467  0.035191  0.389963  1
  O  O44  1  0.681342  0.478509  0.111370  1
  O  O45  1  0.315641  0.978045  0.888360  1
  O  O46  1  0.815086  0.477389  0.612289  1
  O  O47  1  0.189930  0.980100  0.387050  1
  O  O48  1  0.535239  0.616248  0.253924  1
  O  O49  1  0.456952  0.117506  0.745565  1
  O  O50  1  0.958218  0.616750  0.754697  1
  O  O51  1  0.040656  0.120719  0.246281  1
  O  O52  1  0.443534  0.392362  0.252048  1
  O  O53  1  0.557124  0.895470  0.747068  1
  O  O54  1  0.058026  0.394755  0.752968  1
  O  O55  1  0.949219  0.896643  0.247649  1
  F  F56  1  0.522291  0.880434  0.276138  1
  F  F57  1  0.487557  0.386395  0.724945  1
  F  F58  1  0.988402  0.887725  0.774840  1
  F  F59  1  0.012386  0.389356  0.226057  1
  F  F60  1  0.499067  0.133579  0.264403  1
  F  F61  1  0.497466  0.636906  0.733742  1
  F  F62  1  0.999215  0.137728  0.766367  1
  F  F63  1  0.986296  0.640498  0.234555  1
