# generated using pymatgen
data_Mo3P4Ru5
_symmetry_space_group_name_H-M   'P 1'
_cell_length_a   3.92251800
_cell_length_b   6.03433990
_cell_length_c   6.92520052
_cell_angle_alpha   90.18304036
_cell_angle_beta   90.00000000
_cell_angle_gamma   90.00000000
_symmetry_Int_Tables_number   1
_chemical_formula_structural   Mo3P4Ru5
_chemical_formula_sum   'Mo3 P4 Ru5'
_cell_volume   163.91732243
_cell_formula_units_Z   1
loop_
 _symmetry_equiv_pos_site_id
 _symmetry_equiv_pos_as_xyz
  1  'x, y, z'
loop_
 _atom_site_type_symbol
 _atom_site_label
 _atom_site_symmetry_multiplicity
 _atom_site_fract_x
 _atom_site_fract_y
 _atom_site_fract_z
 _atom_site_occupancy
  Mo  Mo0  1  0.750000  0.022005  0.668828  1
  Mo  Mo1  1  0.250000  0.979297  0.331036  1
  Mo  Mo2  1  0.750000  0.527539  0.837354  1
  P  P3  1  0.250000  0.746486  0.612421  1
  P  P4  1  0.750000  0.251491  0.390748  1
  P  P5  1  0.250000  0.242425  0.885215  1
  P  P6  1  0.750000  0.758391  0.114560  1
  Ru  Ru7  1  0.250000  0.468407  0.158565  1
  Ru  Ru8  1  0.250000  0.361833  0.573200  1
  Ru  Ru9  1  0.750000  0.636442  0.424629  1
  Ru  Ru10  1  0.250000  0.860342  0.931760  1
  Ru  Ru11  1  0.750000  0.145344  0.071684  1
