# generated using pymatgen
data_Lu4Mg(GeB4)2
_symmetry_space_group_name_H-M   'P 1'
_cell_length_a   7.09828400
_cell_length_b   7.09828400
_cell_length_c   7.71986600
_cell_angle_alpha   90.00000000
_cell_angle_beta   90.00000000
_cell_angle_gamma   90.00000000
_symmetry_Int_Tables_number   1
_chemical_formula_structural   Lu4Mg(GeB4)2
_chemical_formula_sum   'Lu8 Mg2 Ge4 B16'
_cell_volume   388.97035627
_cell_formula_units_Z   2
loop_
 _symmetry_equiv_pos_site_id
 _symmetry_equiv_pos_as_xyz
  1  'x, y, z'
loop_
 _atom_site_type_symbol
 _atom_site_label
 _atom_site_symmetry_multiplicity
 _atom_site_fract_x
 _atom_site_fract_y
 _atom_site_fract_z
 _atom_site_occupancy
  Lu  Lu0  1  0.681967  0.181967  0.227818  1
  Lu  Lu1  1  0.318033  0.818033  0.772182  1
  Lu  Lu2  1  0.318033  0.818033  0.227818  1
  Lu  Lu3  1  0.818033  0.681967  0.227818  1
  Lu  Lu4  1  0.818033  0.681967  0.772182  1
  Lu  Lu5  1  0.681967  0.181967  0.772182  1
  Lu  Lu6  1  0.181967  0.318033  0.772182  1
  Lu  Lu7  1  0.181967  0.318033  0.227818  1
  Mg  Mg8  1  0.000000  0.000000  0.500000  1
  Mg  Mg9  1  0.500000  0.500000  0.500000  1
  Ge  Ge10  1  0.121688  0.621688  0.500000  1
  Ge  Ge11  1  0.878312  0.378312  0.500000  1
  Ge  Ge12  1  0.378312  0.121688  0.500000  1
  Ge  Ge13  1  0.621688  0.878312  0.500000  1
  B  B14  1  0.174068  0.039577  0.000000  1
  B  B15  1  0.825932  0.960423  0.000000  1
  B  B16  1  0.960423  0.174068  0.000000  1
  B  B17  1  0.325932  0.539577  0.000000  1
  B  B18  1  0.039577  0.825932  0.000000  1
  B  B19  1  0.674068  0.460423  0.000000  1
  B  B20  1  0.539577  0.674068  0.000000  1
  B  B21  1  0.460423  0.325932  0.000000  1
  B  B22  1  0.088581  0.588581  0.000000  1
  B  B23  1  0.911419  0.411419  0.000000  1
  B  B24  1  0.411419  0.088581  0.000000  1
  B  B25  1  0.588581  0.911419  0.000000  1
  B  B26  1  0.000000  0.000000  0.167527  1
  B  B27  1  0.000000  0.000000  0.832473  1
  B  B28  1  0.500000  0.500000  0.832473  1
  B  B29  1  0.500000  0.500000  0.167527  1
