# generated using pymatgen
data_Sc8Si16OsRu11
_symmetry_space_group_name_H-M   'P 1'
_cell_length_a   9.93496859
_cell_length_b   9.93324779
_cell_length_c   13.40665431
_cell_angle_alpha   53.82339147
_cell_angle_beta   53.82797671
_cell_angle_gamma   31.06139179
_symmetry_Int_Tables_number   1
_chemical_formula_structural   Sc8Si16OsRu11
_chemical_formula_sum   'Sc8 Si16 Os1 Ru11'
_cell_volume   539.54667199
_cell_formula_units_Z   1
loop_
 _symmetry_equiv_pos_site_id
 _symmetry_equiv_pos_as_xyz
  1  'x, y, z'
loop_
 _atom_site_type_symbol
 _atom_site_label
 _atom_site_symmetry_multiplicity
 _atom_site_fract_x
 _atom_site_fract_y
 _atom_site_fract_z
 _atom_site_occupancy
  Sc  Sc0  1  0.295436  0.559426  0.644132  1
  Sc  Sc1  1  0.708732  0.962560  0.861043  1
  Sc  Sc2  1  0.290770  0.037304  0.138869  1
  Sc  Sc3  1  0.440570  0.704822  0.855906  1
  Sc  Sc4  1  0.037655  0.291187  0.638689  1
  Sc  Sc5  1  0.557923  0.297250  0.143908  1
  Sc  Sc6  1  0.962643  0.708978  0.360794  1
  Sc  Sc7  1  0.705043  0.440579  0.355920  1
  Si  Si8  1  0.023948  0.747398  0.106694  1
  Si  Si9  1  0.613203  0.858050  0.601007  1
  Si  Si10  1  0.977121  0.251642  0.891721  1
  Si  Si11  1  0.383202  0.616879  0.250862  1
  Si  Si12  1  0.386459  0.142287  0.398821  1
  Si  Si13  1  0.573815  0.080278  0.067459  1
  Si  Si14  1  0.142651  0.386641  0.898597  1
  Si  Si15  1  0.251961  0.975979  0.393297  1
  Si  Si16  1  0.080026  0.574439  0.567263  1
  Si  Si17  1  0.426437  0.919719  0.932395  1
  Si  Si18  1  0.128451  0.871639  0.750037  1
  Si  Si19  1  0.747876  0.024176  0.607163  1
  Si  Si20  1  0.871649  0.128137  0.250692  1
  Si  Si21  1  0.616746  0.383327  0.749931  1
  Si  Si22  1  0.919385  0.426118  0.432912  1
  Si  Si23  1  0.858324  0.612752  0.100841  1
  Os  Os24  1  0.142312  0.895234  0.086342  1
  Ru  Ru25  1  0.168154  0.352379  0.217798  1
  Ru  Ru26  1  0.352360  0.168589  0.717545  1
  Ru  Ru27  1  0.831404  0.647534  0.782549  1
  Ru  Ru28  1  0.507583  0.248796  0.432051  1
  Ru  Ru29  1  0.857413  0.104053  0.913791  1
  Ru  Ru30  1  0.647375  0.831743  0.282400  1
  Ru  Ru31  1  0.248797  0.507850  0.932147  1
  Ru  Ru32  1  0.752764  0.490872  0.067811  1
  Ru  Ru33  1  0.103747  0.857921  0.414386  1
  Ru  Ru34  1  0.896319  0.142016  0.586295  1
  Ru  Ru35  1  0.491746  0.751446  0.567931  1
