# generated using pymatgen
data_NaAc(NbSe2)8
_symmetry_space_group_name_H-M   'P 1'
_cell_length_a   7.01097900
_cell_length_b   7.01097795
_cell_length_c   16.02862500
_cell_angle_alpha   90.00000000
_cell_angle_beta   90.00000000
_cell_angle_gamma   120.00000022
_symmetry_Int_Tables_number   1
_chemical_formula_structural   NaAc(NbSe2)8
_chemical_formula_sum   'Na1 Ac1 Nb8 Se16'
_cell_volume   682.31381853
_cell_formula_units_Z   1
loop_
 _symmetry_equiv_pos_site_id
 _symmetry_equiv_pos_as_xyz
  1  'x, y, z'
loop_
 _atom_site_type_symbol
 _atom_site_label
 _atom_site_symmetry_multiplicity
 _atom_site_fract_x
 _atom_site_fract_y
 _atom_site_fract_z
 _atom_site_occupancy
  Na  Na0  1  0.000000  0.000000  0.000000  1
  Ac  Ac1  1  0.000000  0.000000  0.500000  1
  Nb  Nb2  1  0.985532  0.492766  0.252326  1
  Nb  Nb3  1  0.014468  0.507234  0.747674  1
  Nb  Nb4  1  0.492766  0.507234  0.747674  1
  Nb  Nb5  1  0.507234  0.014468  0.252326  1
  Nb  Nb6  1  0.000000  0.000000  0.747030  1
  Nb  Nb7  1  0.000000  0.000000  0.252970  1
  Nb  Nb8  1  0.507234  0.492766  0.252326  1
  Nb  Nb9  1  0.492766  0.985532  0.747674  1
  Se  Se10  1  0.333333  0.666667  0.638274  1
  Se  Se11  1  0.666667  0.333333  0.145003  1
  Se  Se12  1  0.666667  0.333333  0.361726  1
  Se  Se13  1  0.333333  0.666667  0.854997  1
  Se  Se14  1  0.169387  0.338776  0.355980  1
  Se  Se15  1  0.832420  0.167580  0.850422  1
  Se  Se16  1  0.335163  0.167580  0.850422  1
  Se  Se17  1  0.661224  0.830613  0.355980  1
  Se  Se18  1  0.169387  0.830613  0.355980  1
  Se  Se19  1  0.832420  0.664837  0.850422  1
  Se  Se20  1  0.167580  0.335163  0.149578  1
  Se  Se21  1  0.830613  0.169387  0.644020  1
  Se  Se22  1  0.338776  0.169387  0.644020  1
  Se  Se23  1  0.664837  0.832420  0.149578  1
  Se  Se24  1  0.167580  0.832420  0.149578  1
  Se  Se25  1  0.830613  0.661224  0.644020  1
