# generated using pymatgen
data_NaLa6AuBr12
_symmetry_space_group_name_H-M   'P 1'
_cell_length_a   9.79072928
_cell_length_b   9.79585082
_cell_length_c   9.78488997
_cell_angle_alpha   107.26535210
_cell_angle_beta   107.24665404
_cell_angle_gamma   107.27898662
_symmetry_Int_Tables_number   1
_chemical_formula_structural   NaLa6AuBr12
_chemical_formula_sum   'Na1 La6 Au1 Br12'
_cell_volume   775.86378440
_cell_formula_units_Z   1
loop_
 _symmetry_equiv_pos_site_id
 _symmetry_equiv_pos_as_xyz
  1  'x, y, z'
loop_
 _atom_site_type_symbol
 _atom_site_label
 _atom_site_symmetry_multiplicity
 _atom_site_fract_x
 _atom_site_fract_y
 _atom_site_fract_z
 _atom_site_occupancy
  Na  Na0  1  0.500000  0.500000  0.500000  1
  La  La1  1  0.118976  0.329800  0.031291  1
  La  La2  1  0.329579  0.031267  0.118746  1
  La  La3  1  0.031376  0.118792  0.329724  1
  La  La4  1  0.968623  0.881208  0.670276  1
  La  La5  1  0.670421  0.968732  0.881253  1
  La  La6  1  0.881024  0.670200  0.968709  1
  Au  Au7  1  0.000000  0.000000  0.000000  1
  Br  Br8  1  0.212924  0.683956  0.070228  1
  Br  Br9  1  0.453233  0.370010  0.159446  1
  Br  Br10  1  0.684184  0.071021  0.213645  1
  Br  Br11  1  0.929030  0.786669  0.316016  1
  Br  Br12  1  0.159513  0.453234  0.370201  1
  Br  Br13  1  0.370156  0.159633  0.453486  1
  Br  Br14  1  0.629844  0.840367  0.546514  1
  Br  Br15  1  0.840486  0.546766  0.629799  1
  Br  Br16  1  0.070971  0.213332  0.683985  1
  Br  Br17  1  0.315817  0.928980  0.786355  1
  Br  Br18  1  0.546766  0.629989  0.840554  1
  Br  Br19  1  0.787076  0.316045  0.929772  1
