# generated using pymatgen
data_Ce5Tm11Cd4(FeRu)2
_symmetry_space_group_name_H-M   'P 1'
_cell_length_a   9.43434289
_cell_length_b   9.46330182
_cell_length_c   9.46330209
_cell_angle_alpha   59.71511970
_cell_angle_beta   60.10118171
_cell_angle_gamma   60.10117714
_symmetry_Int_Tables_number   1
_chemical_formula_structural   Ce5Tm11Cd4(FeRu)2
_chemical_formula_sum   'Ce5 Tm11 Cd4 Fe2 Ru2'
_cell_volume   597.03246980
_cell_formula_units_Z   1
loop_
 _symmetry_equiv_pos_site_id
 _symmetry_equiv_pos_as_xyz
  1  'x, y, z'
loop_
 _atom_site_type_symbol
 _atom_site_label
 _atom_site_symmetry_multiplicity
 _atom_site_fract_x
 _atom_site_fract_y
 _atom_site_fract_z
 _atom_site_occupancy
  Ce  Ce0  1  0.814214  0.185786  0.185786  1
  Ce  Ce1  1  0.341349  0.354607  0.962695  1
  Ce  Ce2  1  0.341349  0.962695  0.354607  1
  Ce  Ce3  1  0.967935  0.350283  0.350283  1
  Ce  Ce4  1  0.331499  0.350283  0.350283  1
  Tm  Tm5  1  0.562136  0.561730  0.937716  1
  Tm  Tm6  1  0.938419  0.561730  0.937716  1
  Tm  Tm7  1  0.562844  0.937156  0.937156  1
  Tm  Tm8  1  0.938419  0.937716  0.561730  1
  Tm  Tm9  1  0.562136  0.937716  0.561730  1
  Tm  Tm10  1  0.931346  0.568654  0.568654  1
  Tm  Tm11  1  0.192662  0.186109  0.804348  1
  Tm  Tm12  1  0.816880  0.186109  0.804348  1
  Tm  Tm13  1  0.186225  0.813775  0.813774  1
  Tm  Tm14  1  0.816880  0.804349  0.186109  1
  Tm  Tm15  1  0.192661  0.804348  0.186108  1
  Cd  Cd16  1  0.580737  0.582815  0.255711  1
  Cd  Cd17  1  0.580737  0.255711  0.582815  1
  Cd  Cd18  1  0.254895  0.581254  0.581254  1
  Cd  Cd19  1  0.582598  0.581254  0.581254  1
  Fe  Fe20  1  0.151340  0.142032  0.555289  1
  Fe  Fe21  1  0.151340  0.555289  0.142032  1
  Ru  Ru22  1  0.583021  0.149302  0.149302  1
  Ru  Ru23  1  0.118376  0.149302  0.149302  1
