# generated using pymatgen
data_LaTb5Zn4Pd12Rh
_symmetry_space_group_name_H-M   'P 1'
_cell_length_a   8.28488939
_cell_length_b   8.28515752
_cell_length_c   8.28515734
_cell_angle_alpha   109.71878050
_cell_angle_beta   109.34988590
_cell_angle_gamma   109.34987975
_symmetry_Int_Tables_number   1
_chemical_formula_structural   LaTb5Zn4Pd12Rh
_chemical_formula_sum   'La1 Tb5 Zn4 Pd12 Rh1'
_cell_volume   437.75958826
_cell_formula_units_Z   1
loop_
 _symmetry_equiv_pos_site_id
 _symmetry_equiv_pos_as_xyz
  1  'x, y, z'
loop_
 _atom_site_type_symbol
 _atom_site_label
 _atom_site_symmetry_multiplicity
 _atom_site_fract_x
 _atom_site_fract_y
 _atom_site_fract_z
 _atom_site_occupancy
  La  La0  1  0.999993  0.707314  0.707314  1
  Tb  Tb1  1  0.701320  0.702384  0.001034  1
  Tb  Tb2  1  0.298679  0.001061  0.299711  1
  Tb  Tb3  1  0.000007  0.296632  0.296632  1
  Tb  Tb4  1  0.298679  0.299711  0.001061  1
  Tb  Tb5  1  0.701320  0.001034  0.702384  1
  Zn  Zn6  1  0.000002  0.000684  0.496983  1
  Zn  Zn7  1  0.000002  0.496983  0.000684  1
  Zn  Zn8  1  0.503699  0.000684  0.000684  1
  Zn  Zn9  1  0.496304  0.496986  0.496986  1
  Pd  Pd10  1  0.333256  0.333289  0.666536  1
  Pd  Pd11  1  0.666752  0.000027  0.333279  1
  Pd  Pd12  1  0.999997  0.667886  0.330348  1
  Pd  Pd13  1  0.666752  0.333279  0.000027  1
  Pd  Pd14  1  0.333256  0.666536  0.333289  1
  Pd  Pd15  1  0.999997  0.330348  0.667886  1
  Pd  Pd16  1  0.335120  0.665944  0.001067  1
  Pd  Pd17  1  0.335120  0.001067  0.665944  1
  Pd  Pd18  1  0.662486  0.330359  0.330359  1
  Pd  Pd19  1  0.664873  0.665937  0.330821  1
  Pd  Pd20  1  0.664873  0.330821  0.665937  1
  Pd  Pd21  1  0.337516  0.667879  0.667879  1
  Rh  Rh22  1  0.999998  0.003154  0.003154  1
