# generated using pymatgen
data_TbDyRh2O7
_symmetry_space_group_name_H-M   'P 1'
_cell_length_a   7.23380874
_cell_length_b   7.23293650
_cell_length_c   7.23293473
_cell_angle_alpha   59.97432156
_cell_angle_beta   59.99601040
_cell_angle_gamma   59.99600603
_symmetry_Int_Tables_number   1
_chemical_formula_structural   TbDyRh2O7
_chemical_formula_sum   'Tb2 Dy2 Rh4 O14'
_cell_volume   267.52888191
_cell_formula_units_Z   2
loop_
 _symmetry_equiv_pos_site_id
 _symmetry_equiv_pos_as_xyz
  1  'x, y, z'
loop_
 _atom_site_type_symbol
 _atom_site_label
 _atom_site_symmetry_multiplicity
 _atom_site_fract_x
 _atom_site_fract_y
 _atom_site_fract_z
 _atom_site_occupancy
  Tb  Tb0  1  0.125000  0.125000  0.125000  1
  Tb  Tb1  1  0.625000  0.125000  0.125000  1
  Dy  Dy2  1  0.125000  0.625000  0.125000  1
  Dy  Dy3  1  0.125000  0.125000  0.625000  1
  Rh  Rh4  1  0.625000  0.625000  0.625000  1
  Rh  Rh5  1  0.625000  0.625000  0.125000  1
  Rh  Rh6  1  0.125000  0.625000  0.625000  1
  Rh  Rh7  1  0.625000  0.125000  0.625000  1
  O  O8  1  0.249023  0.250977  0.250977  1
  O  O9  1  0.287880  0.711013  0.288193  1
  O  O10  1  0.962120  0.961807  0.538987  1
  O  O11  1  0.537085  0.961807  0.538987  1
  O  O12  1  0.712915  0.711013  0.288193  1
  O  O13  1  0.961458  0.538542  0.538542  1
  O  O14  1  0.712915  0.288193  0.711013  1
  O  O15  1  0.287880  0.288193  0.711013  1
  O  O16  1  0.712177  0.287823  0.287823  1
  O  O17  1  0.288542  0.711458  0.711458  1
  O  O18  1  0.962120  0.538987  0.961807  1
  O  O19  1  0.537085  0.538987  0.961807  1
  O  O20  1  0.000977  0.999023  0.999023  1
  O  O21  1  0.537823  0.962177  0.962177  1
