# generated using pymatgen
data_Lu16In6FeCo
_symmetry_space_group_name_H-M   'P 1'
_cell_length_a   10.16603400
_cell_length_b   10.16603339
_cell_length_c   6.89255900
_cell_angle_alpha   90.00000000
_cell_angle_beta   90.00000000
_cell_angle_gamma   120.00000197
_symmetry_Int_Tables_number   1
_chemical_formula_structural   Lu16In6FeCo
_chemical_formula_sum   'Lu16 In6 Fe1 Co1'
_cell_volume   616.89919741
_cell_formula_units_Z   1
loop_
 _symmetry_equiv_pos_site_id
 _symmetry_equiv_pos_as_xyz
  1  'x, y, z'
loop_
 _atom_site_type_symbol
 _atom_site_label
 _atom_site_symmetry_multiplicity
 _atom_site_fract_x
 _atom_site_fract_y
 _atom_site_fract_z
 _atom_site_occupancy
  Lu  Lu0  1  0.534894  0.069787  0.522260  1
  Lu  Lu1  1  0.930213  0.465106  0.522260  1
  Lu  Lu2  1  0.534894  0.465106  0.522260  1
  Lu  Lu3  1  0.466065  0.932131  0.022638  1
  Lu  Lu4  1  0.067869  0.533935  0.022638  1
  Lu  Lu5  1  0.466065  0.533935  0.022638  1
  Lu  Lu6  1  0.179566  0.359132  0.727353  1
  Lu  Lu7  1  0.640868  0.820434  0.727353  1
  Lu  Lu8  1  0.179566  0.820434  0.727353  1
  Lu  Lu9  1  0.820407  0.640814  0.228047  1
  Lu  Lu10  1  0.359186  0.179593  0.228047  1
  Lu  Lu11  1  0.820407  0.179593  0.228047  1
  Lu  Lu12  1  0.666667  0.333333  0.911112  1
  Lu  Lu13  1  0.333333  0.666667  0.411219  1
  Lu  Lu14  1  0.000000  0.000000  0.508393  1
  Lu  Lu15  1  0.000000  0.000000  0.008301  1
  In  In16  1  0.837427  0.674855  0.770189  1
  In  In17  1  0.325145  0.162573  0.770189  1
  In  In18  1  0.837427  0.162573  0.770189  1
  In  In19  1  0.163086  0.326173  0.269006  1
  In  In20  1  0.673827  0.836914  0.269006  1
  In  In21  1  0.163086  0.836914  0.269006  1
  Fe  Fe22  1  0.666667  0.333333  0.299323  1
  Co  Co23  1  0.333333  0.666667  0.798856  1
