# generated using pymatgen
data_Tb5HoAl19Si5Ru8
_symmetry_space_group_name_H-M   'P 1'
_cell_length_a   8.69526101
_cell_length_b   8.68020250
_cell_length_c   9.59447600
_cell_angle_alpha   90.00000000
_cell_angle_beta   90.00000000
_cell_angle_gamma   120.06390487
_symmetry_Int_Tables_number   1
_chemical_formula_structural   Tb5HoAl19Si5Ru8
_chemical_formula_sum   'Tb5 Ho1 Al19 Si5 Ru8'
_cell_volume   626.73557809
_cell_formula_units_Z   1
loop_
 _symmetry_equiv_pos_site_id
 _symmetry_equiv_pos_as_xyz
  1  'x, y, z'
loop_
 _atom_site_type_symbol
 _atom_site_label
 _atom_site_symmetry_multiplicity
 _atom_site_fract_x
 _atom_site_fract_y
 _atom_site_fract_z
 _atom_site_occupancy
  Tb  Tb0  1  0.193696  0.387376  0.250000  1
  Tb  Tb1  1  0.806885  0.613501  0.750000  1
  Tb  Tb2  1  0.610226  0.807562  0.250000  1
  Tb  Tb3  1  0.387957  0.193921  0.750000  1
  Tb  Tb4  1  0.197508  0.807435  0.250000  1
  Ho  Ho5  1  0.805432  0.194932  0.750000  1
  Al  Al6  1  0.164696  0.329725  0.578652  1
  Al  Al7  1  0.834532  0.669177  0.421342  1
  Al  Al8  1  0.669750  0.835209  0.577874  1
  Al  Al9  1  0.834532  0.669177  0.078658  1
  Al  Al10  1  0.329869  0.165787  0.421503  1
  Al  Al11  1  0.164696  0.329725  0.921348  1
  Al  Al12  1  0.165382  0.834956  0.577788  1
  Al  Al13  1  0.329869  0.165787  0.078497  1
  Al  Al14  1  0.835867  0.165714  0.421672  1
  Al  Al15  1  0.669750  0.835209  0.922126  1
  Al  Al16  1  0.835867  0.165714  0.078328  1
  Al  Al17  1  0.165382  0.834956  0.922212  1
  Al  Al18  1  0.437557  0.874473  0.750000  1
  Al  Al19  1  0.872605  0.433451  0.250000  1
  Al  Al20  1  0.127058  0.563796  0.750000  1
  Al  Al21  1  0.560906  0.433487  0.250000  1
  Al  Al22  1  0.436783  0.564323  0.750000  1
  Al  Al23  1  0.999859  0.999698  0.250000  1
  Al  Al24  1  0.999912  0.001043  0.750000  1
  Si  Si25  1  0.332568  0.664933  0.036165  1
  Si  Si26  1  0.667659  0.334547  0.961337  1
  Si  Si27  1  0.667659  0.334547  0.538663  1
  Si  Si28  1  0.332568  0.664933  0.463835  1
  Si  Si29  1  0.563846  0.127603  0.250000  1
  Ru  Ru30  1  0.501190  0.001963  0.005740  1
  Ru  Ru31  1  0.998621  0.498561  0.000262  1
  Ru  Ru32  1  0.501190  0.001963  0.494260  1
  Ru  Ru33  1  0.500158  0.498795  0.000477  1
  Ru  Ru34  1  0.998621  0.498561  0.499738  1
  Ru  Ru35  1  0.500158  0.498795  0.499523  1
  Ru  Ru36  1  0.999594  0.999333  0.000149  1
  Ru  Ru37  1  0.999594  0.999333  0.499851  1
