# generated using pymatgen
data_Ta8Cr2Si6B
_symmetry_space_group_name_H-M   'P 1'
_cell_length_a   7.46866000
_cell_length_b   7.46866061
_cell_length_c   5.13889300
_cell_angle_alpha   90.00000000
_cell_angle_beta   90.00000000
_cell_angle_gamma   119.99999729
_symmetry_Int_Tables_number   1
_chemical_formula_structural   Ta8Cr2Si6B
_chemical_formula_sum   'Ta8 Cr2 Si6 B1'
_cell_volume   248.24792826
_cell_formula_units_Z   1
loop_
 _symmetry_equiv_pos_site_id
 _symmetry_equiv_pos_as_xyz
  1  'x, y, z'
loop_
 _atom_site_type_symbol
 _atom_site_label
 _atom_site_symmetry_multiplicity
 _atom_site_fract_x
 _atom_site_fract_y
 _atom_site_fract_z
 _atom_site_occupancy
  Ta  Ta0  1  0.000000  0.754283  0.253133  1
  Ta  Ta1  1  0.245717  0.245717  0.253133  1
  Ta  Ta2  1  0.754283  0.000000  0.253133  1
  Ta  Ta3  1  0.000000  0.245717  0.746867  1
  Ta  Ta4  1  0.754283  0.754283  0.746867  1
  Ta  Ta5  1  0.245717  0.000000  0.746867  1
  Ta  Ta6  1  0.333333  0.666667  0.500000  1
  Ta  Ta7  1  0.666667  0.333333  0.500000  1
  Cr  Cr8  1  0.666667  0.333333  0.000000  1
  Cr  Cr9  1  0.333333  0.666667  0.000000  1
  Si  Si10  1  0.000000  0.402754  0.223864  1
  Si  Si11  1  0.597246  0.597246  0.223864  1
  Si  Si12  1  0.402754  0.000000  0.223864  1
  Si  Si13  1  0.000000  0.597246  0.776136  1
  Si  Si14  1  0.402754  0.402754  0.776136  1
  Si  Si15  1  0.597246  0.000000  0.776136  1
  B  B16  1  0.000000  0.000000  0.500000  1
