# generated using pymatgen
data_Cs2CePr5(CI6)2
_symmetry_space_group_name_H-M   'P 1'
_cell_length_a   9.67832251
_cell_length_b   9.74784015
_cell_length_c   10.33441919
_cell_angle_alpha   71.22437914
_cell_angle_beta   84.70164140
_cell_angle_gamma   89.37426067
_symmetry_Int_Tables_number   1
_chemical_formula_structural   Cs2CePr5(CI6)2
_chemical_formula_sum   'Cs2 Ce1 Pr5 C2 I12'
_cell_volume   918.96841230
_cell_formula_units_Z   1
loop_
 _symmetry_equiv_pos_site_id
 _symmetry_equiv_pos_as_xyz
  1  'x, y, z'
loop_
 _atom_site_type_symbol
 _atom_site_label
 _atom_site_symmetry_multiplicity
 _atom_site_fract_x
 _atom_site_fract_y
 _atom_site_fract_z
 _atom_site_occupancy
  Cs  Cs0  1  0.464834  0.365361  0.327548  1
  Cs  Cs1  1  0.534605  0.634093  0.672506  1
  Ce  Ce2  1  0.918273  0.749402  0.003639  1
  Pr  Pr3  1  0.081823  0.250094  0.996462  1
  Pr  Pr4  1  0.747275  0.083833  0.001508  1
  Pr  Pr5  1  0.252760  0.916492  0.998463  1
  Pr  Pr6  1  0.974176  0.894733  0.312460  1
  Pr  Pr7  1  0.026289  0.106857  0.687523  1
  C  C8  1  0.005583  0.022684  0.928145  1
  C  C9  1  0.993432  0.974295  0.071800  1
  I  I10  1  0.076551  0.203207  0.326469  1
  I  I11  1  0.923911  0.797947  0.673416  1
  I  I12  1  0.208393  0.589526  0.000201  1
  I  I13  1  0.792236  0.410335  0.999749  1
  I  I14  1  0.406579  0.203461  0.001443  1
  I  I15  1  0.593225  0.795991  0.998523  1
  I  I16  1  0.662711  0.003665  0.328726  1
  I  I17  1  0.337428  0.996670  0.671208  1
  I  I18  1  0.282581  0.774897  0.324227  1
  I  I19  1  0.717445  0.225376  0.675824  1
  I  I20  1  0.849190  0.589029  0.328241  1
  I  I21  1  0.150696  0.412054  0.671922  1
