# generated using pymatgen
data_DyHo2Er3(Al3Os)8
_symmetry_space_group_name_H-M   'P 1'
_cell_length_a   8.81428837
_cell_length_b   8.81428932
_cell_length_c   9.56112800
_cell_angle_alpha   90.00000000
_cell_angle_beta   90.00000000
_cell_angle_gamma   119.94801701
_symmetry_Int_Tables_number   1
_chemical_formula_structural   DyHo2Er3(Al3Os)8
_chemical_formula_sum   'Dy1 Ho2 Er3 Al24 Os8'
_cell_volume   643.63784552
_cell_formula_units_Z   1
loop_
 _symmetry_equiv_pos_site_id
 _symmetry_equiv_pos_as_xyz
  1  'x, y, z'
loop_
 _atom_site_type_symbol
 _atom_site_label
 _atom_site_symmetry_multiplicity
 _atom_site_fract_x
 _atom_site_fract_y
 _atom_site_fract_z
 _atom_site_occupancy
  Dy  Dy0  1  0.807288  0.192712  0.750000  1
  Ho  Ho1  1  0.806223  0.612400  0.750000  1
  Ho  Ho2  1  0.387600  0.193777  0.750000  1
  Er  Er3  1  0.193697  0.387850  0.250000  1
  Er  Er4  1  0.612150  0.806303  0.250000  1
  Er  Er5  1  0.193714  0.806286  0.250000  1
  Al  Al6  1  0.333250  0.666750  0.018906  1
  Al  Al7  1  0.666784  0.333216  0.982633  1
  Al  Al8  1  0.666784  0.333216  0.517367  1
  Al  Al9  1  0.333250  0.666750  0.481094  1
  Al  Al10  1  0.162917  0.325540  0.575266  1
  Al  Al11  1  0.837459  0.675132  0.423540  1
  Al  Al12  1  0.674460  0.837083  0.575266  1
  Al  Al13  1  0.837459  0.675132  0.076460  1
  Al  Al14  1  0.324868  0.162541  0.423540  1
  Al  Al15  1  0.162917  0.325540  0.924734  1
  Al  Al16  1  0.162704  0.837296  0.575278  1
  Al  Al17  1  0.324868  0.162541  0.076460  1
  Al  Al18  1  0.837387  0.162613  0.423255  1
  Al  Al19  1  0.674460  0.837083  0.924734  1
  Al  Al20  1  0.837387  0.162613  0.076745  1
  Al  Al21  1  0.162704  0.837296  0.924722  1
  Al  Al22  1  0.560194  0.120885  0.250000  1
  Al  Al23  1  0.439197  0.878509  0.750000  1
  Al  Al24  1  0.879115  0.439806  0.250000  1
  Al  Al25  1  0.121491  0.560803  0.750000  1
  Al  Al26  1  0.560341  0.439659  0.250000  1
  Al  Al27  1  0.439263  0.560737  0.750000  1
  Al  Al28  1  0.999812  0.000188  0.250000  1
  Al  Al29  1  0.000962  0.999038  0.750000  1
  Os  Os30  1  0.499584  0.999645  0.000585  1
  Os  Os31  1  0.000355  0.500416  0.000585  1
  Os  Os32  1  0.499584  0.999645  0.499415  1
  Os  Os33  1  0.499862  0.500138  0.000398  1
  Os  Os34  1  0.000355  0.500416  0.499415  1
  Os  Os35  1  0.499862  0.500138  0.499602  1
  Os  Os36  1  0.999849  0.000151  0.000058  1
  Os  Os37  1  0.999849  0.000151  0.499942  1
