# generated using pymatgen
data_Lu2Co2S
_symmetry_space_group_name_H-M   'P 1'
_cell_length_a   3.78929300
_cell_length_b   3.78929362
_cell_length_c   14.81095400
_cell_angle_alpha   90.00000000
_cell_angle_beta   90.00000000
_cell_angle_gamma   119.99998590
_symmetry_Int_Tables_number   1
_chemical_formula_structural   Lu2Co2S
_chemical_formula_sum   'Lu4 Co4 S2'
_cell_volume   184.17478530
_cell_formula_units_Z   2
loop_
 _symmetry_equiv_pos_site_id
 _symmetry_equiv_pos_as_xyz
  1  'x, y, z'
loop_
 _atom_site_type_symbol
 _atom_site_label
 _atom_site_symmetry_multiplicity
 _atom_site_fract_x
 _atom_site_fract_y
 _atom_site_fract_z
 _atom_site_occupancy
  Lu  Lu0  1  0.000000  0.000000  0.124440  1
  Lu  Lu1  1  0.000000  0.000000  0.875560  1
  Lu  Lu2  1  0.000000  0.000000  0.624440  1
  Lu  Lu3  1  0.000000  0.000000  0.375560  1
  Co  Co4  1  0.333333  0.666667  0.503072  1
  Co  Co5  1  0.666667  0.333333  0.496928  1
  Co  Co6  1  0.666667  0.333333  0.003072  1
  Co  Co7  1  0.333333  0.666667  0.996928  1
  S  S8  1  0.333333  0.666667  0.250000  1
  S  S9  1  0.666667  0.333333  0.750000  1
