# generated using pymatgen
data_Be7V2Re2Si
_symmetry_space_group_name_H-M   'P 1'
_cell_length_a   4.37504100
_cell_length_b   4.37504069
_cell_length_c   7.24576800
_cell_angle_alpha   90.00000000
_cell_angle_beta   90.00000000
_cell_angle_gamma   120.00000992
_symmetry_Int_Tables_number   1
_chemical_formula_structural   Be7V2Re2Si
_chemical_formula_sum   'Be7 V2 Re2 Si1'
_cell_volume   120.11001918
_cell_formula_units_Z   1
loop_
 _symmetry_equiv_pos_site_id
 _symmetry_equiv_pos_as_xyz
  1  'x, y, z'
loop_
 _atom_site_type_symbol
 _atom_site_label
 _atom_site_symmetry_multiplicity
 _atom_site_fract_x
 _atom_site_fract_y
 _atom_site_fract_z
 _atom_site_occupancy
  Be  Be0  1  0.000000  0.000000  0.500851  1
  Be  Be1  1  0.829213  0.658426  0.258729  1
  Be  Be2  1  0.171269  0.828731  0.741369  1
  Be  Be3  1  0.657462  0.828731  0.741369  1
  Be  Be4  1  0.341574  0.170787  0.258729  1
  Be  Be5  1  0.829213  0.170787  0.258729  1
  Be  Be6  1  0.171269  0.342538  0.741369  1
  V  V7  1  0.333333  0.666667  0.064404  1
  V  V8  1  0.666667  0.333333  0.561994  1
  Re  Re9  1  0.666667  0.333333  0.934710  1
  Re  Re10  1  0.333333  0.666667  0.436599  1
  Si  Si11  1  0.000000  0.000000  0.001148  1
