# generated using pymatgen
data_La20CoSi3Sb8
_symmetry_space_group_name_H-M   'P 1'
_cell_length_a   8.31790197
_cell_length_b   9.43976800
_cell_length_c   12.79629275
_cell_angle_alpha   90.00000000
_cell_angle_beta   89.22394619
_cell_angle_gamma   90.00000000
_symmetry_Int_Tables_number   1
_chemical_formula_structural   La20CoSi3Sb8
_chemical_formula_sum   'La20 Co1 Si3 Sb8'
_cell_volume   1004.66077650
_cell_formula_units_Z   1
loop_
 _symmetry_equiv_pos_site_id
 _symmetry_equiv_pos_as_xyz
  1  'x, y, z'
loop_
 _atom_site_type_symbol
 _atom_site_label
 _atom_site_symmetry_multiplicity
 _atom_site_fract_x
 _atom_site_fract_y
 _atom_site_fract_z
 _atom_site_occupancy
  La  La0  1  0.144967  0.750000  0.201349  1
  La  La1  1  0.654451  0.250000  0.289494  1
  La  La2  1  0.841361  0.250000  0.786465  1
  La  La3  1  0.340789  0.750000  0.715868  1
  La  La4  1  0.465714  0.750000  0.002051  1
  La  La5  1  0.971695  0.250000  0.497091  1
  La  La6  1  0.534640  0.250000  0.001719  1
  La  La7  1  0.046972  0.750000  0.498986  1
  La  La8  1  0.629953  0.750000  0.292998  1
  La  La9  1  0.131890  0.250000  0.206599  1
  La  La10  1  0.362532  0.250000  0.709976  1
  La  La11  1  0.868590  0.750000  0.796623  1
  La  La12  1  0.818626  0.955721  0.057352  1
  La  La13  1  0.303029  0.040404  0.438298  1
  La  La14  1  0.182871  0.481254  0.940599  1
  La  La15  1  0.699106  0.537567  0.562269  1
  La  La16  1  0.182871  0.018746  0.940599  1
  La  La17  1  0.699106  0.962433  0.562269  1
  La  La18  1  0.818626  0.544279  0.057352  1
  La  La19  1  0.303029  0.459596  0.438298  1
  Co  Co20  1  0.083506  0.750000  0.979152  1
  Si  Si21  1  0.440361  0.750000  0.489894  1
  Si  Si22  1  0.930532  0.250000  0.014347  1
  Si  Si23  1  0.565188  0.250000  0.517500  1
  Sb  Sb24  1  0.918989  0.990887  0.325988  1
  Sb  Sb25  1  0.421128  0.007435  0.174507  1
  Sb  Sb26  1  0.075226  0.491707  0.673439  1
  Sb  Sb27  1  0.574454  0.506902  0.827493  1
  Sb  Sb28  1  0.075226  0.008293  0.673439  1
  Sb  Sb29  1  0.574454  0.993098  0.827493  1
  Sb  Sb30  1  0.918989  0.509113  0.325988  1
  Sb  Sb31  1  0.421128  0.492565  0.174507  1
