# generated using pymatgen
data_CePr3Al16(SiIr3)2
_symmetry_space_group_name_H-M   'P 1'
_cell_length_a   7.60698825
_cell_length_b   7.57846801
_cell_length_c   9.54808116
_cell_angle_alpha   89.98382904
_cell_angle_beta   89.91132774
_cell_angle_gamma   119.69627230
_symmetry_Int_Tables_number   1
_chemical_formula_structural   CePr3Al16(SiIr3)2
_chemical_formula_sum   'Ce1 Pr3 Al16 Si2 Ir6'
_cell_volume   478.14666327
_cell_formula_units_Z   1
loop_
 _symmetry_equiv_pos_site_id
 _symmetry_equiv_pos_as_xyz
  1  'x, y, z'
loop_
 _atom_site_type_symbol
 _atom_site_label
 _atom_site_symmetry_multiplicity
 _atom_site_fract_x
 _atom_site_fract_y
 _atom_site_fract_z
 _atom_site_occupancy
  Ce  Ce0  1  0.995906  0.664454  0.243893  1
  Pr  Pr1  1  0.005203  0.334690  0.755413  1
  Pr  Pr2  1  0.673640  0.999587  0.247772  1
  Pr  Pr3  1  0.326682  0.000317  0.752363  1
  Al  Al4  1  0.131808  0.128932  0.250657  1
  Al  Al5  1  0.868679  0.870493  0.749295  1
  Al  Al6  1  0.997274  0.665788  0.565775  1
  Al  Al7  1  0.334314  0.000842  0.426779  1
  Al  Al8  1  0.002565  0.334483  0.432218  1
  Al  Al9  1  0.665210  0.998755  0.572200  1
  Al  Al10  1  0.661431  0.993973  0.924602  1
  Al  Al11  1  0.338567  0.006109  0.076321  1
  Al  Al12  1  0.334494  0.333450  0.550237  1
  Al  Al13  1  0.665679  0.666465  0.449263  1
  Al  Al14  1  0.661825  0.665273  0.052135  1
  Al  Al15  1  0.338004  0.334806  0.948298  1
  Al  Al16  1  0.339489  0.546352  0.250053  1
  Al  Al17  1  0.659476  0.452607  0.749953  1
  Al  Al18  1  0.546641  0.343210  0.250420  1
  Al  Al19  1  0.453910  0.658492  0.749461  1
  Si  Si20  1  0.004366  0.329164  0.074473  1
  Si  Si21  1  0.995607  0.671362  0.927729  1
  Ir  Ir22  1  0.688540  0.338848  0.002666  1
  Ir  Ir23  1  0.311346  0.662660  0.000503  1
  Ir  Ir24  1  0.327514  0.669980  0.498785  1
  Ir  Ir25  1  0.672452  0.330716  0.498566  1
  Ir  Ir26  1  0.999706  0.999030  0.001468  1
  Ir  Ir27  1  0.999671  0.999163  0.498703  1
