# generated using pymatgen
data_Y8N7
_symmetry_space_group_name_H-M   'P 1'
_cell_length_a   3.48579289
_cell_length_b   9.24869615
_cell_length_c   7.78621080
_cell_angle_alpha   89.81336012
_cell_angle_beta   77.09934713
_cell_angle_gamma   79.18236512
_symmetry_Int_Tables_number   1
_chemical_formula_structural   Y8N7
_chemical_formula_sum   'Y8 N7'
_cell_volume   240.13987247
_cell_formula_units_Z   1
loop_
 _symmetry_equiv_pos_site_id
 _symmetry_equiv_pos_as_xyz
  1  'x, y, z'
loop_
 _atom_site_type_symbol
 _atom_site_label
 _atom_site_symmetry_multiplicity
 _atom_site_fract_x
 _atom_site_fract_y
 _atom_site_fract_z
 _atom_site_occupancy
  Y  Y0  1  0.409529  0.560699  0.721853  1
  Y  Y1  1  0.155553  0.939874  0.839967  1
  Y  Y2  1  0.651236  0.189813  0.600664  1
  Y  Y3  1  0.669094  0.671775  0.092483  1
  Y  Y4  1  0.391125  0.078635  0.230045  1
  Y  Y5  1  0.907591  0.309764  0.970057  1
  Y  Y6  1  0.900860  0.810600  0.482436  1
  Y  Y7  1  0.154407  0.440675  0.352468  1
  N  N8  1  0.534222  0.625080  0.407212  1
  N  N9  1  0.526463  0.125487  0.915188  1
  N  N10  1  0.780076  0.246318  0.285510  1
  N  N11  1  0.281141  0.504169  0.036989  1
  N  N12  1  0.779428  0.751917  0.784865  1
  N  N13  1  0.278516  0.998675  0.537506  1
  N  N14  1  0.030882  0.375288  0.661250  1
