# generated using pymatgen
data_Rb3NiO3
_symmetry_space_group_name_H-M   'P 1'
_cell_length_a   6.91409100
_cell_length_b   7.70708111
_cell_length_c   10.99622560
_cell_angle_alpha   84.90961048
_cell_angle_beta   90.00000000
_cell_angle_gamma   90.00000000
_symmetry_Int_Tables_number   1
_chemical_formula_structural   Rb3NiO3
_chemical_formula_sum   'Rb12 Ni4 O12'
_cell_volume   583.64988116
_cell_formula_units_Z   4
loop_
 _symmetry_equiv_pos_site_id
 _symmetry_equiv_pos_as_xyz
  1  'x, y, z'
loop_
 _atom_site_type_symbol
 _atom_site_label
 _atom_site_symmetry_multiplicity
 _atom_site_fract_x
 _atom_site_fract_y
 _atom_site_fract_z
 _atom_site_occupancy
  Rb  Rb0  1  0.325427  0.349965  0.070117  1
  Rb  Rb1  1  0.627752  0.957614  0.155776  1
  Rb  Rb2  1  0.821855  0.365736  0.192678  1
  Rb  Rb3  1  0.321855  0.634264  0.307322  1
  Rb  Rb4  1  0.127752  0.042386  0.344224  1
  Rb  Rb5  1  0.825427  0.650035  0.429883  1
  Rb  Rb6  1  0.174573  0.349965  0.570117  1
  Rb  Rb7  1  0.872248  0.957614  0.655776  1
  Rb  Rb8  1  0.678145  0.365736  0.692678  1
  Rb  Rb9  1  0.178145  0.634264  0.807322  1
  Rb  Rb10  1  0.372248  0.042386  0.844224  1
  Rb  Rb11  1  0.674573  0.650035  0.929883  1
  Ni  Ni12  1  0.080946  0.847776  0.065239  1
  Ni  Ni13  1  0.580946  0.152224  0.434761  1
  Ni  Ni14  1  0.419054  0.847776  0.565239  1
  Ni  Ni15  1  0.919054  0.152224  0.934761  1
  O  O16  1  0.324139  0.756337  0.041464  1
  O  O17  1  0.053810  0.096173  0.089891  1
  O  O18  1  0.949141  0.713258  0.183876  1
  O  O19  1  0.449141  0.286742  0.316124  1
  O  O20  1  0.553810  0.903827  0.410109  1
  O  O21  1  0.824139  0.243663  0.458536  1
  O  O22  1  0.175861  0.756337  0.541464  1
  O  O23  1  0.446190  0.096173  0.589891  1
  O  O24  1  0.550859  0.713258  0.683876  1
  O  O25  1  0.050859  0.286742  0.816124  1
  O  O26  1  0.946190  0.903827  0.910109  1
  O  O27  1  0.675861  0.243663  0.958536  1
