# generated using pymatgen
data_Y7Ho(Tm3Pt4)4
_symmetry_space_group_name_H-M   'P 1'
_cell_length_a   7.43234207
_cell_length_b   7.52310207
_cell_length_c   14.63502801
_cell_angle_alpha   89.99750180
_cell_angle_beta   90.00442461
_cell_angle_gamma   90.01546999
_symmetry_Int_Tables_number   1
_chemical_formula_structural   Y7Ho(Tm3Pt4)4
_chemical_formula_sum   'Y7 Ho1 Tm12 Pt16'
_cell_volume   818.30684611
_cell_formula_units_Z   1
loop_
 _symmetry_equiv_pos_site_id
 _symmetry_equiv_pos_as_xyz
  1  'x, y, z'
loop_
 _atom_site_type_symbol
 _atom_site_label
 _atom_site_symmetry_multiplicity
 _atom_site_fract_x
 _atom_site_fract_y
 _atom_site_fract_z
 _atom_site_occupancy
  Y  Y0  1  0.500772  0.679588  0.592582  1
  Y  Y1  1  0.000767  0.820423  0.907460  1
  Y  Y2  1  0.499223  0.320445  0.092577  1
  Y  Y3  1  0.999279  0.179446  0.407446  1
  Y  Y4  1  0.499197  0.320432  0.407417  1
  Y  Y5  1  0.999231  0.179566  0.092576  1
  Y  Y6  1  0.500751  0.679541  0.907432  1
  Ho  Ho7  1  0.001148  0.820214  0.592657  1
  Tm  Tm8  1  0.656839  0.167653  0.622672  1
  Tm  Tm9  1  0.156793  0.332285  0.877304  1
  Tm  Tm10  1  0.343219  0.832286  0.122681  1
  Tm  Tm11  1  0.843305  0.667758  0.377356  1
  Tm  Tm12  1  0.343205  0.832305  0.377318  1
  Tm  Tm13  1  0.843238  0.667695  0.122695  1
  Tm  Tm14  1  0.656764  0.167727  0.877327  1
  Tm  Tm15  1  0.156754  0.332306  0.622682  1
  Tm  Tm16  1  0.819320  0.510881  0.749946  1
  Tm  Tm17  1  0.319220  0.989181  0.749946  1
  Tm  Tm18  1  0.180703  0.489201  0.250010  1
  Tm  Tm19  1  0.680710  0.010790  0.249984  1
  Pt  Pt20  1  0.682984  0.966144  0.458389  1
  Pt  Pt21  1  0.182780  0.533762  0.041714  1
  Pt  Pt22  1  0.317229  0.033769  0.958296  1
  Pt  Pt23  1  0.817428  0.466695  0.541802  1
  Pt  Pt24  1  0.316635  0.033357  0.541814  1
  Pt  Pt25  1  0.817233  0.466261  0.958285  1
  Pt  Pt26  1  0.682776  0.966238  0.041704  1
  Pt  Pt27  1  0.182638  0.533998  0.458405  1
  Pt  Pt28  1  0.454193  0.385749  0.749997  1
  Pt  Pt29  1  0.954241  0.114003  0.749854  1
  Pt  Pt30  1  0.545815  0.614231  0.250006  1
  Pt  Pt31  1  0.045815  0.885771  0.250006  1
  Pt  Pt32  1  0.683072  0.857418  0.749908  1
  Pt  Pt33  1  0.182538  0.642868  0.749722  1
  Pt  Pt34  1  0.317105  0.142558  0.250018  1
  Pt  Pt35  1  0.817083  0.357455  0.250012  1
