# generated using pymatgen
data_AcPdPt4
_symmetry_space_group_name_H-M   'P 1'
_cell_length_a   5.51561100
_cell_length_b   5.51561191
_cell_length_c   4.44511900
_cell_angle_alpha   90.00000000
_cell_angle_beta   90.00000000
_cell_angle_gamma   120.00000057
_symmetry_Int_Tables_number   1
_chemical_formula_structural   AcPdPt4
_chemical_formula_sum   'Ac1 Pd1 Pt4'
_cell_volume   117.11198726
_cell_formula_units_Z   1
loop_
 _symmetry_equiv_pos_site_id
 _symmetry_equiv_pos_as_xyz
  1  'x, y, z'
loop_
 _atom_site_type_symbol
 _atom_site_label
 _atom_site_symmetry_multiplicity
 _atom_site_fract_x
 _atom_site_fract_y
 _atom_site_fract_z
 _atom_site_occupancy
  Ac  Ac0  1  0.333333  0.666667  0.000000  1
  Pd  Pd1  1  0.000000  0.000000  0.000000  1
  Pt  Pt2  1  0.666667  0.333333  0.000000  1
  Pt  Pt3  1  0.833646  0.166354  0.500000  1
  Pt  Pt4  1  0.833646  0.667292  0.500000  1
  Pt  Pt5  1  0.332708  0.166354  0.500000  1
