# generated using pymatgen
data_Pr4In2Ir2Ru
_symmetry_space_group_name_H-M   'P 1'
_cell_length_a   7.87373359
_cell_length_b   7.87373279
_cell_length_c   4.16087400
_cell_angle_alpha   90.00000000
_cell_angle_beta   90.00000000
_cell_angle_gamma   121.62553900
_symmetry_Int_Tables_number   1
_chemical_formula_structural   Pr4In2Ir2Ru
_chemical_formula_sum   'Pr4 In2 Ir2 Ru1'
_cell_volume   219.64796408
_cell_formula_units_Z   1
loop_
 _symmetry_equiv_pos_site_id
 _symmetry_equiv_pos_as_xyz
  1  'x, y, z'
loop_
 _atom_site_type_symbol
 _atom_site_label
 _atom_site_symmetry_multiplicity
 _atom_site_fract_x
 _atom_site_fract_y
 _atom_site_fract_z
 _atom_site_occupancy
  Pr  Pr0  1  0.582892  0.024649  0.000000  1
  Pr  Pr1  1  0.024649  0.582892  0.000000  1
  Pr  Pr2  1  0.380918  0.380918  0.000000  1
  Pr  Pr3  1  0.757715  0.757715  0.500000  1
  In  In4  1  0.248586  0.994146  0.500000  1
  In  In5  1  0.994146  0.248586  0.500000  1
  Ir  Ir6  1  0.331752  0.666887  0.500000  1
  Ir  Ir7  1  0.666887  0.331752  0.500000  1
  Ru  Ru8  1  0.012454  0.012454  0.000000  1
