# generated using pymatgen
data_Cs6Y(BiI6)3
_symmetry_space_group_name_H-M   'P 1'
_cell_length_a   8.62536551
_cell_length_b   8.61495682
_cell_length_c   22.33205882
_cell_angle_alpha   91.93370819
_cell_angle_beta   88.35520471
_cell_angle_gamma   60.16985699
_symmetry_Int_Tables_number   1
_chemical_formula_structural   Cs6Y(BiI6)3
_chemical_formula_sum   'Cs6 Y1 Bi3 I18'
_cell_volume   1436.76211377
_cell_formula_units_Z   1
loop_
 _symmetry_equiv_pos_site_id
 _symmetry_equiv_pos_as_xyz
  1  'x, y, z'
loop_
 _atom_site_type_symbol
 _atom_site_label
 _atom_site_symmetry_multiplicity
 _atom_site_fract_x
 _atom_site_fract_y
 _atom_site_fract_z
 _atom_site_occupancy
  Cs  Cs0  1  0.329666  0.331735  0.066871  1
  Cs  Cs1  1  0.335270  0.324819  0.435753  1
  Cs  Cs2  1  0.678600  0.660877  0.938357  1
  Cs  Cs3  1  0.661805  0.677471  0.572231  1
  Cs  Cs4  1  0.006323  0.005955  0.750813  1
  Cs  Cs5  1  0.985766  0.001014  0.239566  1
  Y  Y6  1  0.652002  0.677001  0.158081  1
  Bi  Bi7  1  0.677995  0.651226  0.343370  1
  Bi  Bi8  1  0.347565  0.323428  0.843004  1
  Bi  Bi9  1  0.322416  0.348191  0.657514  1
  I  I10  1  0.501521  0.001198  0.736997  1
  I  I11  1  0.001135  0.501198  0.761707  1
  I  I12  1  0.501347  0.990467  0.258351  1
  I  I13  1  0.989921  0.503433  0.235473  1
  I  I14  1  0.192279  0.143655  0.915664  1
  I  I15  1  0.142119  0.192378  0.583706  1
  I  I16  1  0.807415  0.856271  0.087289  1
  I  I17  1  0.857555  0.807553  0.415751  1
  I  I18  1  0.501453  0.502939  0.749741  1
  I  I19  1  0.499906  0.503312  0.246486  1
  I  I20  1  0.649387  0.189833  0.574691  1
  I  I21  1  0.189130  0.649571  0.925724  1
  I  I22  1  0.353042  0.809382  0.426164  1
  I  I23  1  0.811408  0.350225  0.077437  1
  I  I24  1  0.691384  0.147885  0.905872  1
  I  I25  1  0.145909  0.693560  0.594312  1
  I  I26  1  0.311915  0.852152  0.095639  1
  I  I27  1  0.855760  0.303274  0.403436  1
