# generated using pymatgen
data_Hf3Si2Tc3As
_symmetry_space_group_name_H-M   'P 1'
_cell_length_a   6.96012200
_cell_length_b   6.96012160
_cell_length_c   3.43897500
_cell_angle_alpha   90.00000000
_cell_angle_beta   90.00000000
_cell_angle_gamma   120.00000192
_symmetry_Int_Tables_number   1
_chemical_formula_structural   Hf3Si2Tc3As
_chemical_formula_sum   'Hf3 Si2 Tc3 As1'
_cell_volume   144.27574355
_cell_formula_units_Z   1
loop_
 _symmetry_equiv_pos_site_id
 _symmetry_equiv_pos_as_xyz
  1  'x, y, z'
loop_
 _atom_site_type_symbol
 _atom_site_label
 _atom_site_symmetry_multiplicity
 _atom_site_fract_x
 _atom_site_fract_y
 _atom_site_fract_z
 _atom_site_occupancy
  Hf  Hf0  1  0.397356  0.405152  0.500000  1
  Hf  Hf1  1  0.594848  0.992204  0.500000  1
  Hf  Hf2  1  0.007796  0.602644  0.500000  1
  Si  Si3  1  0.333333  0.666667  0.000000  1
  Si  Si4  1  0.000000  0.000000  0.500000  1
  Tc  Tc5  1  0.745466  0.750071  0.000000  1
  Tc  Tc6  1  0.249929  0.995395  0.000000  1
  Tc  Tc7  1  0.004605  0.254534  0.000000  1
  As  As8  1  0.666667  0.333333  0.000000  1
