# generated using pymatgen
data_Tb5YAl24Os3Ru5
_symmetry_space_group_name_H-M   'P 1'
_cell_length_a   8.82890597
_cell_length_b   8.84109400
_cell_length_c   9.62185311
_cell_angle_alpha   90.04362863
_cell_angle_beta   90.02064177
_cell_angle_gamma   120.32830529
_symmetry_Int_Tables_number   1
_chemical_formula_structural   Tb5YAl24Os3Ru5
_chemical_formula_sum   'Tb5 Y1 Al24 Os3 Ru5'
_cell_volume   648.26966061
_cell_formula_units_Z   1
loop_
 _symmetry_equiv_pos_site_id
 _symmetry_equiv_pos_as_xyz
  1  'x, y, z'
loop_
 _atom_site_type_symbol
 _atom_site_label
 _atom_site_symmetry_multiplicity
 _atom_site_fract_x
 _atom_site_fract_y
 _atom_site_fract_z
 _atom_site_occupancy
  Tb  Tb0  1  0.195563  0.386633  0.250256  1
  Tb  Tb1  1  0.804487  0.613542  0.749738  1
  Tb  Tb2  1  0.612472  0.805042  0.250700  1
  Tb  Tb3  1  0.387361  0.194917  0.749305  1
  Tb  Tb4  1  0.194416  0.807801  0.250785  1
  Y  Y5  1  0.805599  0.192217  0.749205  1
  Al  Al6  1  0.333175  0.666500  0.015790  1
  Al  Al7  1  0.666843  0.333466  0.984187  1
  Al  Al8  1  0.666940  0.333917  0.515759  1
  Al  Al9  1  0.333082  0.666043  0.484271  1
  Al  Al10  1  0.162603  0.325265  0.577012  1
  Al  Al11  1  0.837377  0.674746  0.423037  1
  Al  Al12  1  0.674141  0.837183  0.576248  1
  Al  Al13  1  0.837544  0.674818  0.076913  1
  Al  Al14  1  0.325848  0.162839  0.423800  1
  Al  Al15  1  0.162426  0.325188  0.923035  1
  Al  Al16  1  0.162359  0.837654  0.576016  1
  Al  Al17  1  0.325560  0.162882  0.076585  1
  Al  Al18  1  0.837662  0.162340  0.424064  1
  Al  Al19  1  0.674428  0.837132  0.923373  1
  Al  Al20  1  0.837967  0.162445  0.076120  1
  Al  Al21  1  0.162044  0.837534  0.923812  1
  Al  Al22  1  0.562712  0.123680  0.249456  1
  Al  Al23  1  0.437462  0.876482  0.750541  1
  Al  Al24  1  0.878053  0.438287  0.249871  1
  Al  Al25  1  0.121804  0.561554  0.750125  1
  Al  Al26  1  0.562197  0.438169  0.249893  1
  Al  Al27  1  0.437782  0.561838  0.750108  1
  Al  Al28  1  0.000492  0.999542  0.249992  1
  Al  Al29  1  0.999589  0.000387  0.750013  1
  Os  Os30  1  0.500044  0.000049  0.500014  1
  Os  Os31  1  0.500052  0.499953  0.999984  1
  Os  Os32  1  0.500051  0.499950  0.500017  1
  Ru  Ru33  1  0.500061  0.000047  0.999978  1
  Ru  Ru34  1  0.999935  0.499928  0.999969  1
  Ru  Ru35  1  0.999945  0.499949  0.500023  1
  Ru  Ru36  1  0.999961  0.000040  0.999906  1
  Ru  Ru37  1  0.999962  0.000043  0.500098  1
