# generated using pymatgen
data_YTm9Cd3Re
_symmetry_space_group_name_H-M   'P 1'
_cell_length_a   9.39050791
_cell_length_b   9.39050795
_cell_length_c   9.91845400
_cell_angle_alpha   90.00000000
_cell_angle_beta   90.00000000
_cell_angle_gamma   119.89544603
_symmetry_Int_Tables_number   1
_chemical_formula_structural   YTm9Cd3Re
_chemical_formula_sum   'Y2 Tm18 Cd6 Re2'
_cell_volume   758.24468051
_cell_formula_units_Z   2
loop_
 _symmetry_equiv_pos_site_id
 _symmetry_equiv_pos_as_xyz
  1  'x, y, z'
loop_
 _atom_site_type_symbol
 _atom_site_label
 _atom_site_symmetry_multiplicity
 _atom_site_fract_x
 _atom_site_fract_y
 _atom_site_fract_z
 _atom_site_occupancy
  Y  Y0  1  0.463357  0.925867  0.750000  1
  Y  Y1  1  0.074133  0.536643  0.750000  1
  Tm  Tm2  1  0.999892  0.000108  0.499532  1
  Tm  Tm3  1  0.999892  0.000108  0.000468  1
  Tm  Tm4  1  0.209635  0.790365  0.442973  1
  Tm  Tm5  1  0.211032  0.419987  0.443448  1
  Tm  Tm6  1  0.580013  0.788968  0.443448  1
  Tm  Tm7  1  0.789219  0.210781  0.554232  1
  Tm  Tm8  1  0.788324  0.579371  0.554140  1
  Tm  Tm9  1  0.420629  0.211676  0.554140  1
  Tm  Tm10  1  0.789219  0.210781  0.945768  1
  Tm  Tm11  1  0.788324  0.579371  0.945860  1
  Tm  Tm12  1  0.420629  0.211676  0.945860  1
  Tm  Tm13  1  0.209635  0.790365  0.057027  1
  Tm  Tm14  1  0.211032  0.419987  0.056552  1
  Tm  Tm15  1  0.580013  0.788968  0.056552  1
  Tm  Tm16  1  0.536977  0.463023  0.250000  1
  Tm  Tm17  1  0.536674  0.072869  0.250000  1
  Tm  Tm18  1  0.927131  0.463326  0.250000  1
  Tm  Tm19  1  0.465573  0.534427  0.750000  1
  Cd  Cd20  1  0.886341  0.113659  0.250000  1
  Cd  Cd21  1  0.886173  0.772746  0.250000  1
  Cd  Cd22  1  0.227254  0.113827  0.250000  1
  Cd  Cd23  1  0.111811  0.888189  0.750000  1
  Cd  Cd24  1  0.113597  0.224816  0.750000  1
  Cd  Cd25  1  0.775184  0.886403  0.750000  1
  Re  Re26  1  0.333151  0.666849  0.250000  1
  Re  Re27  1  0.665157  0.334843  0.750000  1
