# generated using pymatgen
data_Ca4In4PdAu3
_symmetry_space_group_name_H-M   'P 1'
_cell_length_a   4.40908100
_cell_length_b   7.57605794
_cell_length_c   8.78518717
_cell_angle_alpha   90.22708801
_cell_angle_beta   90.00000000
_cell_angle_gamma   90.00000000
_symmetry_Int_Tables_number   1
_chemical_formula_structural   Ca4In4PdAu3
_chemical_formula_sum   'Ca4 In4 Pd1 Au3'
_cell_volume   293.45328308
_cell_formula_units_Z   1
loop_
 _symmetry_equiv_pos_site_id
 _symmetry_equiv_pos_as_xyz
  1  'x, y, z'
loop_
 _atom_site_type_symbol
 _atom_site_label
 _atom_site_symmetry_multiplicity
 _atom_site_fract_x
 _atom_site_fract_y
 _atom_site_fract_z
 _atom_site_occupancy
  Ca  Ca0  1  0.750000  0.034256  0.318274  1
  Ca  Ca1  1  0.250000  0.466093  0.823756  1
  Ca  Ca2  1  0.750000  0.527637  0.177300  1
  Ca  Ca3  1  0.250000  0.970670  0.680632  1
  In  In4  1  0.250000  0.859682  0.060621  1
  In  In5  1  0.250000  0.347784  0.431667  1
  In  In6  1  0.750000  0.647495  0.560978  1
  In  In7  1  0.750000  0.153587  0.945721  1
  Pd  Pd8  1  0.250000  0.231619  0.128407  1
  Au  Au9  1  0.250000  0.736796  0.369915  1
  Au  Au10  1  0.750000  0.261942  0.630963  1
  Au  Au11  1  0.750000  0.762439  0.871767  1
