# generated using pymatgen
data_BeCu11(SiNi)4
_symmetry_space_group_name_H-M   'P 1'
_cell_length_a   6.20348336
_cell_length_b   6.14613549
_cell_length_c   6.10737011
_cell_angle_alpha   90.40970762
_cell_angle_beta   90.32245679
_cell_angle_gamma   90.04203463
_symmetry_Int_Tables_number   1
_chemical_formula_structural   BeCu11(SiNi)4
_chemical_formula_sum   'Be1 Cu11 Si4 Ni4'
_cell_volume   232.84873310
_cell_formula_units_Z   1
loop_
 _symmetry_equiv_pos_site_id
 _symmetry_equiv_pos_as_xyz
  1  'x, y, z'
loop_
 _atom_site_type_symbol
 _atom_site_label
 _atom_site_symmetry_multiplicity
 _atom_site_fract_x
 _atom_site_fract_y
 _atom_site_fract_z
 _atom_site_occupancy
  Be  Be0  1  0.120168  0.194326  0.459152  1
  Cu  Cu1  1  0.375934  0.791526  0.952534  1
  Cu  Cu2  1  0.882364  0.705227  0.045105  1
  Cu  Cu3  1  0.450540  0.126253  0.209800  1
  Cu  Cu4  1  0.620407  0.294292  0.546572  1
  Cu  Cu5  1  0.956434  0.373301  0.786249  1
  Cu  Cu6  1  0.043990  0.886544  0.703975  1
  Cu  Cu7  1  0.546978  0.622989  0.291807  1
  Cu  Cu8  1  0.205444  0.451321  0.133043  1
  Cu  Cu9  1  0.702848  0.045727  0.883257  1
  Cu  Cu10  1  0.289108  0.538203  0.607463  1
  Cu  Cu11  1  0.796755  0.959622  0.381167  1
  Si  Si12  1  0.066029  0.066330  0.061311  1
  Si  Si13  1  0.441705  0.932511  0.564858  1
  Si  Si14  1  0.936710  0.569662  0.435537  1
  Si  Si15  1  0.562725  0.433105  0.937430  1
  Ni  Ni16  1  0.683800  0.680295  0.685910  1
  Ni  Ni17  1  0.822370  0.315711  0.188053  1
  Ni  Ni18  1  0.312672  0.184715  0.806960  1
  Ni  Ni19  1  0.183019  0.828341  0.319817  1
