# generated using pymatgen
data_Zr5Ti5(Sn3O)2
_symmetry_space_group_name_H-M   'P 1'
_cell_length_a   8.27462249
_cell_length_b   8.27955701
_cell_length_c   5.56057400
_cell_angle_alpha   90.00000000
_cell_angle_beta   90.00000000
_cell_angle_gamma   120.01973014
_symmetry_Int_Tables_number   1
_chemical_formula_structural   Zr5Ti5(Sn3O)2
_chemical_formula_sum   'Zr5 Ti5 Sn6 O2'
_cell_volume   329.85203570
_cell_formula_units_Z   1
loop_
 _symmetry_equiv_pos_site_id
 _symmetry_equiv_pos_as_xyz
  1  'x, y, z'
loop_
 _atom_site_type_symbol
 _atom_site_label
 _atom_site_symmetry_multiplicity
 _atom_site_fract_x
 _atom_site_fract_y
 _atom_site_fract_z
 _atom_site_occupancy
  Zr  Zr0  1  0.000000  0.231093  0.250000  1
  Zr  Zr1  1  0.229784  0.230992  0.750000  1
  Zr  Zr2  1  0.228499  0.997776  0.250000  1
  Zr  Zr3  1  0.771501  0.769277  0.250000  1
  Zr  Zr4  1  0.770216  0.001209  0.750000  1
  Ti  Ti5  1  0.000000  0.778074  0.750000  1
  Ti  Ti6  1  0.335248  0.666074  0.000170  1
  Ti  Ti7  1  0.335248  0.666074  0.499830  1
  Ti  Ti8  1  0.664752  0.330824  0.000170  1
  Ti  Ti9  1  0.664752  0.330824  0.499830  1
  Sn  Sn10  1  0.000000  0.591722  0.250000  1
  Sn  Sn11  1  0.000000  0.416108  0.750000  1
  Sn  Sn12  1  0.408731  0.408059  0.250000  1
  Sn  Sn13  1  0.598002  0.593221  0.750000  1
  Sn  Sn14  1  0.401998  0.995218  0.750000  1
  Sn  Sn15  1  0.591269  0.999328  0.250000  1
  O  O16  1  0.000000  0.997064  0.997062  1
  O  O17  1  0.000000  0.997064  0.502938  1
