# generated using pymatgen
data_AcLaNi12P5
_symmetry_space_group_name_H-M   'P 1'
_cell_length_a   3.70528600
_cell_length_b   10.93524308
_cell_length_c   13.25516454
_cell_angle_alpha   71.85414053
_cell_angle_beta   90.00000000
_cell_angle_gamma   90.00000000
_symmetry_Int_Tables_number   1
_chemical_formula_structural   AcLaNi12P5
_chemical_formula_sum   'Ac2 La2 Ni24 P10'
_cell_volume   510.36494771
_cell_formula_units_Z   2
loop_
 _symmetry_equiv_pos_site_id
 _symmetry_equiv_pos_as_xyz
  1  'x, y, z'
loop_
 _atom_site_type_symbol
 _atom_site_label
 _atom_site_symmetry_multiplicity
 _atom_site_fract_x
 _atom_site_fract_y
 _atom_site_fract_z
 _atom_site_occupancy
  Ac  Ac0  1  0.250000  0.748593  0.187417  1
  Ac  Ac1  1  0.750000  0.251407  0.812583  1
  La  La2  1  0.250000  0.780519  0.682831  1
  La  La3  1  0.750000  0.219481  0.317169  1
  Ni  Ni4  1  0.250000  0.570859  0.014370  1
  Ni  Ni5  1  0.250000  0.565302  0.448493  1
  Ni  Ni6  1  0.750000  0.506111  0.341282  1
  Ni  Ni7  1  0.250000  0.493889  0.658718  1
  Ni  Ni8  1  0.750000  0.509936  0.150525  1
  Ni  Ni9  1  0.250000  0.490064  0.849475  1
  Ni  Ni10  1  0.750000  0.434698  0.551507  1
  Ni  Ni11  1  0.250000  0.343477  0.136268  1
  Ni  Ni12  1  0.750000  0.657282  0.562557  1
  Ni  Ni13  1  0.250000  0.342718  0.437443  1
  Ni  Ni14  1  0.750000  0.905721  0.305733  1
  Ni  Ni15  1  0.250000  0.094279  0.694267  1
  Ni  Ni16  1  0.750000  0.918855  0.989842  1
  Ni  Ni17  1  0.250000  0.081145  0.010158  1
  Ni  Ni18  1  0.750000  0.921066  0.490724  1
  Ni  Ni19  1  0.250000  0.078934  0.509276  1
  Ni  Ni20  1  0.750000  0.938638  0.795811  1
  Ni  Ni21  1  0.250000  0.061362  0.204189  1
  Ni  Ni22  1  0.250000  0.786772  0.439073  1
  Ni  Ni23  1  0.750000  0.213228  0.560927  1
  Ni  Ni24  1  0.250000  0.796951  0.917426  1
  Ni  Ni25  1  0.750000  0.203049  0.082574  1
  Ni  Ni26  1  0.750000  0.656523  0.863732  1
  Ni  Ni27  1  0.750000  0.429141  0.985630  1
  P  P28  1  0.250000  0.004754  0.872014  1
  P  P29  1  0.750000  0.995246  0.127986  1
  P  P30  1  0.250000  0.300704  0.986848  1
  P  P31  1  0.750000  0.699296  0.013152  1
  P  P32  1  0.250000  0.448788  0.260244  1
  P  P33  1  0.750000  0.551212  0.739756  1
  P  P34  1  0.250000  0.992457  0.378971  1
  P  P35  1  0.750000  0.007543  0.621029  1
  P  P36  1  0.250000  0.312272  0.608156  1
  P  P37  1  0.750000  0.687728  0.391844  1
