# generated using pymatgen
data_Ac2SiTeO4
_symmetry_space_group_name_H-M   'P 1'
_cell_length_a   10.06159399
_cell_length_b   6.65707500
_cell_length_c   8.93630900
_cell_angle_alpha   90.00000000
_cell_angle_beta   86.74521923
_cell_angle_gamma   90.00000000
_symmetry_Int_Tables_number   1
_chemical_formula_structural   Ac2SiTeO4
_chemical_formula_sum   'Ac8 Si4 Te4 O16'
_cell_volume   597.59548217
_cell_formula_units_Z   4
loop_
 _symmetry_equiv_pos_site_id
 _symmetry_equiv_pos_as_xyz
  1  'x, y, z'
loop_
 _atom_site_type_symbol
 _atom_site_label
 _atom_site_symmetry_multiplicity
 _atom_site_fract_x
 _atom_site_fract_y
 _atom_site_fract_z
 _atom_site_occupancy
  Ac  Ac0  1  0.854808  0.192516  0.169702  1
  Ac  Ac1  1  0.391665  0.154269  0.187352  1
  Ac  Ac2  1  0.608336  0.654268  0.312647  1
  Ac  Ac3  1  0.145192  0.692517  0.330298  1
  Ac  Ac4  1  0.854808  0.307484  0.669703  1
  Ac  Ac5  1  0.391665  0.345732  0.687353  1
  Ac  Ac6  1  0.608335  0.845732  0.812646  1
  Ac  Ac7  1  0.145193  0.807483  0.830298  1
  Si  Si8  1  0.370911  0.690081  0.057293  1
  Si  Si9  1  0.629089  0.190080  0.442707  1
  Si  Si10  1  0.370911  0.809919  0.557293  1
  Si  Si11  1  0.629089  0.309920  0.942707  1
  Te  Te12  1  0.893164  0.708076  0.093682  1
  Te  Te13  1  0.106835  0.208075  0.406317  1
  Te  Te14  1  0.893164  0.791924  0.593682  1
  Te  Te15  1  0.106837  0.291926  0.906318  1
  O  O16  1  0.510635  0.810268  0.082684  1
  O  O17  1  0.245623  0.850934  0.085798  1
  O  O18  1  0.628195  0.370354  0.119342  1
  O  O19  1  0.345794  0.518722  0.185399  1
  O  O20  1  0.654205  0.018722  0.314600  1
  O  O21  1  0.371804  0.870355  0.380660  1
  O  O22  1  0.754377  0.350933  0.414200  1
  O  O23  1  0.489364  0.310269  0.417316  1
  O  O24  1  0.510636  0.689732  0.582685  1
  O  O25  1  0.245624  0.649065  0.585798  1
  O  O26  1  0.628196  0.129645  0.619341  1
  O  O27  1  0.345795  0.981278  0.685401  1
  O  O28  1  0.654207  0.481277  0.814600  1
  O  O29  1  0.371804  0.629643  0.880659  1
  O  O30  1  0.754377  0.149067  0.914201  1
  O  O31  1  0.489364  0.189732  0.917316  1
