# generated using pymatgen
data_Dy5Y11Cd4(OsPt)2
_symmetry_space_group_name_H-M   'P 1'
_cell_length_a   9.70573051
_cell_length_b   9.71458766
_cell_length_c   9.76045680
_cell_angle_alpha   59.49370340
_cell_angle_beta   59.53200128
_cell_angle_gamma   59.48486604
_symmetry_Int_Tables_number   1
_chemical_formula_structural   Dy5Y11Cd4(OsPt)2
_chemical_formula_sum   'Dy5 Y11 Cd4 Os2 Pt2'
_cell_volume   643.39262698
_cell_formula_units_Z   1
loop_
 _symmetry_equiv_pos_site_id
 _symmetry_equiv_pos_as_xyz
  1  'x, y, z'
loop_
 _atom_site_type_symbol
 _atom_site_label
 _atom_site_symmetry_multiplicity
 _atom_site_fract_x
 _atom_site_fract_y
 _atom_site_fract_z
 _atom_site_occupancy
  Dy  Dy0  1  0.349642  0.349500  0.352198  1
  Dy  Dy1  1  0.350433  0.349967  0.949774  1
  Dy  Dy2  1  0.345965  0.955978  0.349248  1
  Dy  Dy3  1  0.955334  0.346189  0.349742  1
  Dy  Dy4  1  0.814592  0.189016  0.189633  1
  Y  Y5  1  0.186565  0.814216  0.805658  1
  Y  Y6  1  0.189085  0.813878  0.190178  1
  Y  Y7  1  0.814349  0.186269  0.805429  1
  Y  Y8  1  0.188669  0.188808  0.810280  1
  Y  Y9  1  0.807654  0.807452  0.191751  1
  Y  Y10  1  0.939561  0.555800  0.566631  1
  Y  Y11  1  0.556803  0.937587  0.939531  1
  Y  Y12  1  0.555913  0.940315  0.566197  1
  Y  Y13  1  0.937889  0.555596  0.939998  1
  Y  Y14  1  0.562710  0.562159  0.939776  1
  Y  Y15  1  0.940139  0.940201  0.559981  1
  Cd  Cd16  1  0.579468  0.579793  0.579404  1
  Cd  Cd17  1  0.580086  0.580676  0.256818  1
  Cd  Cd18  1  0.581044  0.254899  0.581092  1
  Cd  Cd19  1  0.255047  0.581147  0.580635  1
  Os  Os20  1  0.142697  0.145684  0.138988  1
  Os  Os21  1  0.146000  0.145480  0.572861  1
  Pt  Pt22  1  0.145753  0.573507  0.141695  1
  Pt  Pt23  1  0.574603  0.145886  0.142504  1
