# generated using pymatgen
data_Lu6P5S
_symmetry_space_group_name_H-M   'P 1'
_cell_length_a   3.89844461
_cell_length_b   9.58083040
_cell_length_c   7.79396821
_cell_angle_alpha   90.05060496
_cell_angle_beta   59.99820136
_cell_angle_gamma   89.97600074
_symmetry_Int_Tables_number   1
_chemical_formula_structural   Lu6P5S
_chemical_formula_sum   'Lu6 P5 S1'
_cell_volume   252.10155642
_cell_formula_units_Z   1
loop_
 _symmetry_equiv_pos_site_id
 _symmetry_equiv_pos_as_xyz
  1  'x, y, z'
loop_
 _atom_site_type_symbol
 _atom_site_label
 _atom_site_symmetry_multiplicity
 _atom_site_fract_x
 _atom_site_fract_y
 _atom_site_fract_z
 _atom_site_occupancy
  Lu  Lu0  1  0.938308  0.895420  0.653816  1
  Lu  Lu1  1  0.271482  0.234460  0.324735  1
  Lu  Lu2  1  0.606585  0.564947  0.988688  1
  Lu  Lu3  1  0.278965  0.238107  0.817158  1
  Lu  Lu4  1  0.606320  0.565008  0.488665  1
  Lu  Lu5  1  0.930503  0.891954  0.161369  1
  P  P6  1  0.270652  0.731816  0.322480  1
  P  P7  1  0.940395  0.398161  0.655393  1
  P  P8  1  0.604625  0.064957  0.489391  1
  P  P9  1  0.941825  0.396207  0.154140  1
  P  P10  1  0.269534  0.733696  0.823909  1
  S  S11  1  0.604317  0.064997  0.989350  1
