# generated using pymatgen
data_Na3Cd2RhO6
_symmetry_space_group_name_H-M   'P 1'
_cell_length_a   5.74774258
_cell_length_b   5.74774297
_cell_length_c   5.73856925
_cell_angle_alpha   80.10144420
_cell_angle_beta   80.10144196
_cell_angle_gamma   119.84613277
_symmetry_Int_Tables_number   1
_chemical_formula_structural   Na3Cd2RhO6
_chemical_formula_sum   'Na3 Cd2 Rh1 O6'
_cell_volume   154.46105282
_cell_formula_units_Z   1
loop_
 _symmetry_equiv_pos_site_id
 _symmetry_equiv_pos_as_xyz
  1  'x, y, z'
loop_
 _atom_site_type_symbol
 _atom_site_label
 _atom_site_symmetry_multiplicity
 _atom_site_fract_x
 _atom_site_fract_y
 _atom_site_fract_z
 _atom_site_occupancy
  Na  Na0  1  0.500000  0.500000  0.500000  1
  Na  Na1  1  0.164936  0.835064  0.500000  1
  Na  Na2  1  0.835064  0.164936  0.500000  1
  Cd  Cd3  1  0.332236  0.667764  0.000000  1
  Cd  Cd4  1  0.667764  0.332236  0.000000  1
  Rh  Rh5  1  0.000000  0.000000  0.000000  1
  O  O6  1  0.220649  0.220649  0.205466  1
  O  O7  1  0.779351  0.779351  0.794534  1
  O  O8  1  0.637287  0.929400  0.216011  1
  O  O9  1  0.070600  0.362713  0.783989  1
  O  O10  1  0.929400  0.637287  0.216011  1
  O  O11  1  0.362713  0.070600  0.783989  1
