# generated using pymatgen
data_Y6Co16Si5Tc2P7
_symmetry_space_group_name_H-M   'P 1'
_cell_length_a   3.74056700
_cell_length_b   10.56701378
_cell_length_c   12.29446205
_cell_angle_alpha   90.17876908
_cell_angle_beta   90.00000000
_cell_angle_gamma   90.00000000
_symmetry_Int_Tables_number   1
_chemical_formula_structural   Y6Co16Si5Tc2P7
_chemical_formula_sum   'Y6 Co16 Si5 Tc2 P7'
_cell_volume   485.95620155
_cell_formula_units_Z   1
loop_
 _symmetry_equiv_pos_site_id
 _symmetry_equiv_pos_as_xyz
  1  'x, y, z'
loop_
 _atom_site_type_symbol
 _atom_site_label
 _atom_site_symmetry_multiplicity
 _atom_site_fract_x
 _atom_site_fract_y
 _atom_site_fract_z
 _atom_site_occupancy
  Y  Y0  1  0.000000  0.502362  0.525329  1
  Y  Y1  1  0.500000  0.000454  0.474744  1
  Y  Y2  1  0.500000  0.816206  0.206742  1
  Y  Y3  1  0.500000  0.184571  0.205796  1
  Y  Y4  1  0.000000  0.684210  0.793567  1
  Y  Y5  1  0.000000  0.315230  0.794903  1
  Co  Co6  1  0.500000  0.504150  0.697136  1
  Co  Co7  1  0.000000  0.000270  0.304372  1
  Co  Co8  1  0.000000  0.499938  0.988120  1
  Co  Co9  1  0.500000  0.999763  0.012737  1
  Co  Co10  1  0.500000  0.329265  0.991947  1
  Co  Co11  1  0.500000  0.670596  0.992364  1
  Co  Co12  1  0.000000  0.170117  0.008724  1
  Co  Co13  1  0.000000  0.829252  0.008714  1
  Co  Co14  1  0.500000  0.294259  0.427923  1
  Co  Co15  1  0.500000  0.707071  0.431755  1
  Co  Co16  1  0.000000  0.200358  0.565337  1
  Co  Co17  1  0.000000  0.794407  0.567880  1
  Co  Co18  1  0.500000  0.877079  0.709329  1
  Co  Co19  1  0.500000  0.118838  0.710904  1
  Co  Co20  1  0.000000  0.622577  0.290945  1
  Co  Co21  1  0.000000  0.378834  0.290230  1
  Si  Si22  1  0.500000  0.499784  0.881120  1
  Si  Si23  1  0.000000  0.999999  0.119619  1
  Si  Si24  1  0.500000  0.500215  0.345312  1
  Si  Si25  1  0.000000  0.000117  0.655234  1
  Si  Si26  1  0.500000  0.307069  0.614791  1
  Tc  Tc27  1  0.500000  0.500317  0.151425  1
  Tc  Tc28  1  0.000000  0.998740  0.849421  1
  P  P29  1  0.500000  0.692848  0.615449  1
  P  P30  1  0.000000  0.192820  0.383440  1
  P  P31  1  0.000000  0.808975  0.384124  1
  P  P32  1  0.500000  0.846937  0.894282  1
  P  P33  1  0.500000  0.151955  0.894256  1
  P  P34  1  0.000000  0.652822  0.106226  1
  P  P35  1  0.000000  0.347594  0.105804  1
