# generated using pymatgen
data_Nd4Al18IrRuPt4
_symmetry_space_group_name_H-M   'P 1'
_cell_length_a   7.65888826
_cell_length_b   7.65888869
_cell_length_c   9.58407139
_cell_angle_alpha   89.95928119
_cell_angle_beta   89.95927719
_cell_angle_gamma   119.55543749
_symmetry_Int_Tables_number   1
_chemical_formula_structural   Nd4Al18IrRuPt4
_chemical_formula_sum   'Nd4 Al18 Ir1 Ru1 Pt4'
_cell_volume   489.03491023
_cell_formula_units_Z   1
loop_
 _symmetry_equiv_pos_site_id
 _symmetry_equiv_pos_as_xyz
  1  'x, y, z'
loop_
 _atom_site_type_symbol
 _atom_site_label
 _atom_site_symmetry_multiplicity
 _atom_site_fract_x
 _atom_site_fract_y
 _atom_site_fract_z
 _atom_site_occupancy
  Nd  Nd0  1  0.994833  0.668558  0.249973  1
  Nd  Nd1  1  0.005167  0.331442  0.750027  1
  Nd  Nd2  1  0.668558  0.994833  0.249973  1
  Nd  Nd3  1  0.331442  0.005167  0.750027  1
  Al  Al4  1  0.127171  0.127171  0.248345  1
  Al  Al5  1  0.872829  0.872829  0.751655  1
  Al  Al6  1  0.001377  0.328715  0.073627  1
  Al  Al7  1  0.998623  0.671285  0.926373  1
  Al  Al8  1  0.998369  0.668857  0.574628  1
  Al  Al9  1  0.331143  0.001631  0.425372  1
  Al  Al10  1  0.001631  0.331143  0.425372  1
  Al  Al11  1  0.668857  0.998369  0.574628  1
  Al  Al12  1  0.671285  0.998623  0.926373  1
  Al  Al13  1  0.328715  0.001377  0.073627  1
  Al  Al14  1  0.330938  0.330938  0.551904  1
  Al  Al15  1  0.669062  0.669062  0.448096  1
  Al  Al16  1  0.670898  0.670898  0.051151  1
  Al  Al17  1  0.329102  0.329102  0.948849  1
  Al  Al18  1  0.340659  0.544134  0.249875  1
  Al  Al19  1  0.659341  0.455866  0.750125  1
  Al  Al20  1  0.544134  0.340659  0.249875  1
  Al  Al21  1  0.455866  0.659341  0.750125  1
  Ir  Ir22  1  0.000000  0.000000  0.500000  1
  Ru  Ru23  1  0.000000  0.000000  0.000000  1
  Pt  Pt24  1  0.671400  0.328600  0.000000  1
  Pt  Pt25  1  0.328600  0.671400  0.000000  1
  Pt  Pt26  1  0.328719  0.671281  0.500000  1
  Pt  Pt27  1  0.671281  0.328719  0.500000  1
