# generated using pymatgen
data_Pr4NdGdNb2O14
_symmetry_space_group_name_H-M   'P 1'
_cell_length_a   6.69672520
_cell_length_b   6.70290753
_cell_length_c   7.76386500
_cell_angle_alpha   90.00000000
_cell_angle_beta   90.00000000
_cell_angle_gamma   108.95106105
_symmetry_Int_Tables_number   1
_chemical_formula_structural   Pr4NdGdNb2O14
_chemical_formula_sum   'Pr4 Nd1 Gd1 Nb2 O14'
_cell_volume   329.61069767
_cell_formula_units_Z   1
loop_
 _symmetry_equiv_pos_site_id
 _symmetry_equiv_pos_as_xyz
  1  'x, y, z'
loop_
 _atom_site_type_symbol
 _atom_site_label
 _atom_site_symmetry_multiplicity
 _atom_site_fract_x
 _atom_site_fract_y
 _atom_site_fract_z
 _atom_site_occupancy
  Pr  Pr0  1  0.470961  0.468979  0.499284  1
  Pr  Pr1  1  0.470961  0.468979  0.000716  1
  Pr  Pr2  1  0.535431  0.994764  0.750000  1
  Pr  Pr3  1  0.996073  0.537830  0.250000  1
  Nd  Nd4  1  0.997215  0.462442  0.750000  1
  Gd  Gd5  1  0.466310  0.997287  0.250000  1
  Nb  Nb6  1  0.996979  0.997072  0.498795  1
  Nb  Nb7  1  0.996979  0.997072  0.001205  1
  O  O8  1  0.696708  0.950884  0.460383  1
  O  O9  1  0.941714  0.694564  0.534820  1
  O  O10  1  0.696708  0.950884  0.039617  1
  O  O11  1  0.941714  0.694564  0.965180  1
  O  O12  1  0.321720  0.074867  0.523277  1
  O  O13  1  0.079227  0.321902  0.473209  1
  O  O14  1  0.321720  0.074867  0.976723  1
  O  O15  1  0.079227  0.321902  0.026791  1
  O  O16  1  0.366307  0.626860  0.750000  1
  O  O17  1  0.624300  0.359117  0.250000  1
  O  O18  1  0.633862  0.361957  0.750000  1
  O  O19  1  0.364777  0.643823  0.250000  1
  O  O20  1  0.939543  0.059894  0.750000  1
  O  O21  1  0.061564  0.939491  0.250000  1
