# generated using pymatgen
data_La(PPd3)2
_symmetry_space_group_name_H-M   'P 1'
_cell_length_a   8.56541800
_cell_length_b   8.56541800
_cell_length_c   8.56541800
_cell_angle_alpha   90.00000000
_cell_angle_beta   90.00000000
_cell_angle_gamma   90.00000000
_symmetry_Int_Tables_number   1
_chemical_formula_structural   La(PPd3)2
_chemical_formula_sum   'La4 P8 Pd24'
_cell_volume   628.41375908
_cell_formula_units_Z   4
loop_
 _symmetry_equiv_pos_site_id
 _symmetry_equiv_pos_as_xyz
  1  'x, y, z'
loop_
 _atom_site_type_symbol
 _atom_site_label
 _atom_site_symmetry_multiplicity
 _atom_site_fract_x
 _atom_site_fract_y
 _atom_site_fract_z
 _atom_site_occupancy
  La  La0  1  0.500000  0.500000  0.000000  1
  La  La1  1  0.500000  0.000000  0.500000  1
  La  La2  1  0.000000  0.500000  0.500000  1
  La  La3  1  0.000000  0.000000  0.000000  1
  P  P4  1  0.806656  0.306656  0.193344  1
  P  P5  1  0.193344  0.806656  0.306656  1
  P  P6  1  0.693344  0.693344  0.693344  1
  P  P7  1  0.306656  0.193344  0.806656  1
  P  P8  1  0.193344  0.693344  0.806656  1
  P  P9  1  0.806656  0.193344  0.693344  1
  P  P10  1  0.306656  0.306656  0.306656  1
  P  P11  1  0.693344  0.806656  0.193344  1
  Pd  Pd12  1  0.421298  0.844517  0.158963  1
  Pd  Pd13  1  0.578702  0.344517  0.341037  1
  Pd  Pd14  1  0.078702  0.155483  0.658963  1
  Pd  Pd15  1  0.921298  0.655483  0.841037  1
  Pd  Pd16  1  0.158963  0.421298  0.844517  1
  Pd  Pd17  1  0.341037  0.578702  0.344517  1
  Pd  Pd18  1  0.658963  0.078702  0.155483  1
  Pd  Pd19  1  0.841037  0.921298  0.655483  1
  Pd  Pd20  1  0.844517  0.158963  0.421298  1
  Pd  Pd21  1  0.344517  0.341037  0.578702  1
  Pd  Pd22  1  0.155483  0.658963  0.078702  1
  Pd  Pd23  1  0.655483  0.841037  0.921298  1
  Pd  Pd24  1  0.578702  0.155483  0.841037  1
  Pd  Pd25  1  0.421298  0.655483  0.658963  1
  Pd  Pd26  1  0.921298  0.844517  0.341037  1
  Pd  Pd27  1  0.078702  0.344517  0.158963  1
  Pd  Pd28  1  0.841037  0.578702  0.155483  1
  Pd  Pd29  1  0.658963  0.421298  0.655483  1
  Pd  Pd30  1  0.341037  0.921298  0.844517  1
  Pd  Pd31  1  0.158963  0.078702  0.344517  1
  Pd  Pd32  1  0.155483  0.841037  0.578702  1
  Pd  Pd33  1  0.655483  0.658963  0.421298  1
  Pd  Pd34  1  0.844517  0.341037  0.921298  1
  Pd  Pd35  1  0.344517  0.158963  0.078702  1
