# generated using pymatgen
data_Dy12CdSi4Sn
_symmetry_space_group_name_H-M   'P 1'
_cell_length_a   8.52392638
_cell_length_b   8.52392689
_cell_length_c   8.52392700
_cell_angle_alpha   112.06450601
_cell_angle_beta   111.15887293
_cell_angle_gamma   105.27158150
_symmetry_Int_Tables_number   1
_chemical_formula_structural   Dy12CdSi4Sn
_chemical_formula_sum   'Dy12 Cd1 Si4 Sn1'
_cell_volume   474.82239242
_cell_formula_units_Z   1
loop_
 _symmetry_equiv_pos_site_id
 _symmetry_equiv_pos_as_xyz
  1  'x, y, z'
loop_
 _atom_site_type_symbol
 _atom_site_label
 _atom_site_symmetry_multiplicity
 _atom_site_fract_x
 _atom_site_fract_y
 _atom_site_fract_z
 _atom_site_occupancy
  Dy  Dy0  1  0.443452  0.239639  0.203814  1
  Dy  Dy1  1  0.556548  0.760361  0.796186  1
  Dy  Dy2  1  0.035824  0.239639  0.796186  1
  Dy  Dy3  1  0.964176  0.760361  0.203814  1
  Dy  Dy4  1  0.184168  0.276333  0.460501  1
  Dy  Dy5  1  0.815832  0.723667  0.539499  1
  Dy  Dy6  1  0.184168  0.723667  0.907835  1
  Dy  Dy7  1  0.815832  0.276333  0.092165  1
  Dy  Dy8  1  0.320123  0.616586  0.296463  1
  Dy  Dy9  1  0.679877  0.383414  0.703537  1
  Dy  Dy10  1  0.320123  0.023661  0.703537  1
  Dy  Dy11  1  0.679877  0.976339  0.296463  1
  Cd  Cd12  1  0.000000  0.000000  0.000000  1
  Si  Si13  1  0.364853  0.000000  0.364853  1
  Si  Si14  1  0.635147  0.000000  0.635147  1
  Si  Si15  1  0.115671  0.615671  0.500000  1
  Si  Si16  1  0.884329  0.384329  0.500000  1
  Sn  Sn17  1  0.500000  0.500000  0.000000  1
