# generated using pymatgen
data_Yb6Nb2PPd24
_symmetry_space_group_name_H-M   'P 1'
_cell_length_a   8.23048846
_cell_length_b   8.23048803
_cell_length_c   8.23048800
_cell_angle_alpha   88.83838177
_cell_angle_beta   88.83838183
_cell_angle_gamma   88.83838195
_symmetry_Int_Tables_number   1
_chemical_formula_structural   Yb6Nb2PPd24
_chemical_formula_sum   'Yb6 Nb2 P1 Pd24'
_cell_volume   557.20180115
_cell_formula_units_Z   1
loop_
 _symmetry_equiv_pos_site_id
 _symmetry_equiv_pos_as_xyz
  1  'x, y, z'
loop_
 _atom_site_type_symbol
 _atom_site_label
 _atom_site_symmetry_multiplicity
 _atom_site_fract_x
 _atom_site_fract_y
 _atom_site_fract_z
 _atom_site_occupancy
  Yb  Yb0  1  0.747264  0.747264  0.250010  1
  Yb  Yb1  1  0.747264  0.250010  0.747264  1
  Yb  Yb2  1  0.252736  0.252736  0.749990  1
  Yb  Yb3  1  0.252736  0.749990  0.252736  1
  Yb  Yb4  1  0.250010  0.747264  0.747264  1
  Yb  Yb5  1  0.749990  0.252736  0.252736  1
  Nb  Nb6  1  0.263702  0.263702  0.263702  1
  Nb  Nb7  1  0.736298  0.736298  0.736298  1
  P  P8  1  0.000000  0.000000  0.000000  1
  Pd  Pd9  1  0.256400  0.497686  0.008857  1
  Pd  Pd10  1  0.743600  0.502314  0.991143  1
  Pd  Pd11  1  0.008857  0.256400  0.497686  1
  Pd  Pd12  1  0.497686  0.256400  0.008857  1
  Pd  Pd13  1  0.991143  0.743600  0.502314  1
  Pd  Pd14  1  0.502314  0.743600  0.991143  1
  Pd  Pd15  1  0.497686  0.008857  0.256400  1
  Pd  Pd16  1  0.256400  0.008857  0.497686  1
  Pd  Pd17  1  0.502314  0.991143  0.743600  1
  Pd  Pd18  1  0.743600  0.991143  0.502314  1
  Pd  Pd19  1  0.008857  0.497686  0.256400  1
  Pd  Pd20  1  0.991143  0.502314  0.743600  1
  Pd  Pd21  1  0.250918  0.497103  0.497103  1
  Pd  Pd22  1  0.749082  0.502897  0.502897  1
  Pd  Pd23  1  0.497103  0.250918  0.497103  1
  Pd  Pd24  1  0.502897  0.749082  0.502897  1
  Pd  Pd25  1  0.497103  0.497103  0.250918  1
  Pd  Pd26  1  0.502897  0.502897  0.749082  1
  Pd  Pd27  1  0.275610  0.009866  0.009866  1
  Pd  Pd28  1  0.724390  0.990134  0.990134  1
  Pd  Pd29  1  0.009866  0.275610  0.009866  1
  Pd  Pd30  1  0.990134  0.724390  0.990134  1
  Pd  Pd31  1  0.009866  0.009866  0.275610  1
  Pd  Pd32  1  0.990134  0.990134  0.724390  1
