# generated using pymatgen
data_La3Ni2P6Ru7
_symmetry_space_group_name_H-M   'P 1'
_cell_length_a   4.00387700
_cell_length_b   11.09621100
_cell_length_c   12.89393900
_cell_angle_alpha   90.00000000
_cell_angle_beta   90.00000000
_cell_angle_gamma   90.00000000
_symmetry_Int_Tables_number   1
_chemical_formula_structural   La3Ni2P6Ru7
_chemical_formula_sum   'La6 Ni4 P12 Ru14'
_cell_volume   572.85016845
_cell_formula_units_Z   2
loop_
 _symmetry_equiv_pos_site_id
 _symmetry_equiv_pos_as_xyz
  1  'x, y, z'
loop_
 _atom_site_type_symbol
 _atom_site_label
 _atom_site_symmetry_multiplicity
 _atom_site_fract_x
 _atom_site_fract_y
 _atom_site_fract_z
 _atom_site_occupancy
  La  La0  1  0.000000  0.500000  0.524509  1
  La  La1  1  0.500000  0.000000  0.475491  1
  La  La2  1  0.500000  0.816916  0.205572  1
  La  La3  1  0.500000  0.183084  0.205572  1
  La  La4  1  0.000000  0.683084  0.794428  1
  La  La5  1  0.000000  0.316916  0.794428  1
  Ni  Ni6  1  0.500000  0.500000  0.700946  1
  Ni  Ni7  1  0.000000  0.000000  0.299054  1
  Ni  Ni8  1  0.000000  0.500000  0.987996  1
  Ni  Ni9  1  0.500000  0.000000  0.012004  1
  P  P10  1  0.500000  0.500000  0.882135  1
  P  P11  1  0.000000  0.000000  0.117865  1
  P  P12  1  0.500000  0.500000  0.337017  1
  P  P13  1  0.000000  0.000000  0.662983  1
  P  P14  1  0.500000  0.301478  0.613180  1
  P  P15  1  0.500000  0.698522  0.613180  1
  P  P16  1  0.000000  0.198522  0.386820  1
  P  P17  1  0.000000  0.801478  0.386820  1
  P  P18  1  0.500000  0.848906  0.897523  1
  P  P19  1  0.500000  0.151094  0.897523  1
  P  P20  1  0.000000  0.651094  0.102477  1
  P  P21  1  0.000000  0.348906  0.102477  1
  Ru  Ru22  1  0.500000  0.500000  0.156516  1
  Ru  Ru23  1  0.000000  0.000000  0.843484  1
  Ru  Ru24  1  0.500000  0.335858  0.991452  1
  Ru  Ru25  1  0.500000  0.664142  0.991452  1
  Ru  Ru26  1  0.000000  0.164142  0.008548  1
  Ru  Ru27  1  0.000000  0.835858  0.008548  1
  Ru  Ru28  1  0.500000  0.299962  0.429120  1
  Ru  Ru29  1  0.500000  0.700038  0.429120  1
  Ru  Ru30  1  0.000000  0.200038  0.570880  1
  Ru  Ru31  1  0.000000  0.799962  0.570880  1
  Ru  Ru32  1  0.500000  0.878877  0.715609  1
  Ru  Ru33  1  0.500000  0.121123  0.715609  1
  Ru  Ru34  1  0.000000  0.621123  0.284391  1
  Ru  Ru35  1  0.000000  0.378877  0.284391  1
