# generated using pymatgen
data_Ho(Hf3Sn2)3
_symmetry_space_group_name_H-M   'P 1'
_cell_length_a   8.54896996
_cell_length_b   8.54897009
_cell_length_c   5.76658300
_cell_angle_alpha   90.00000000
_cell_angle_beta   90.00000000
_cell_angle_gamma   120.91905982
_symmetry_Int_Tables_number   1
_chemical_formula_structural   Ho(Hf3Sn2)3
_chemical_formula_sum   'Ho1 Hf9 Sn6'
_cell_volume   361.55950158
_cell_formula_units_Z   1
loop_
 _symmetry_equiv_pos_site_id
 _symmetry_equiv_pos_as_xyz
  1  'x, y, z'
loop_
 _atom_site_type_symbol
 _atom_site_label
 _atom_site_symmetry_multiplicity
 _atom_site_fract_x
 _atom_site_fract_y
 _atom_site_fract_z
 _atom_site_occupancy
  Ho  Ho0  1  0.768108  0.768108  0.750000  1
  Hf  Hf1  1  0.250078  0.001403  0.750000  1
  Hf  Hf2  1  0.001403  0.250078  0.750000  1
  Hf  Hf3  1  0.234009  0.234009  0.250000  1
  Hf  Hf4  1  0.751666  0.000908  0.250000  1
  Hf  Hf5  1  0.000908  0.751666  0.250000  1
  Hf  Hf6  1  0.665169  0.333527  0.000472  1
  Hf  Hf7  1  0.333527  0.665169  0.000472  1
  Hf  Hf8  1  0.333527  0.665169  0.499528  1
  Hf  Hf9  1  0.665169  0.333527  0.499528  1
  Sn  Sn10  1  0.390729  0.390729  0.750000  1
  Sn  Sn11  1  0.605685  0.002882  0.750000  1
  Sn  Sn12  1  0.002882  0.605685  0.750000  1
  Sn  Sn13  1  0.605900  0.605900  0.250000  1
  Sn  Sn14  1  0.391839  0.999399  0.250000  1
  Sn  Sn15  1  0.999399  0.391839  0.250000  1
