# generated using pymatgen
data_Pr8DyErSn6
_symmetry_space_group_name_H-M   'P 1'
_cell_length_a   9.28844400
_cell_length_b   9.28844533
_cell_length_c   6.81964100
_cell_angle_alpha   90.00000000
_cell_angle_beta   90.00000000
_cell_angle_gamma   119.99999527
_symmetry_Int_Tables_number   1
_chemical_formula_structural   Pr8DyErSn6
_chemical_formula_sum   'Pr8 Dy1 Er1 Sn6'
_cell_volume   509.53985810
_cell_formula_units_Z   1
loop_
 _symmetry_equiv_pos_site_id
 _symmetry_equiv_pos_as_xyz
  1  'x, y, z'
loop_
 _atom_site_type_symbol
 _atom_site_label
 _atom_site_symmetry_multiplicity
 _atom_site_fract_x
 _atom_site_fract_y
 _atom_site_fract_z
 _atom_site_occupancy
  Pr  Pr0  1  0.333333  0.666667  0.000000  1
  Pr  Pr1  1  0.666667  0.333333  0.000000  1
  Pr  Pr2  1  0.756217  0.756315  0.252587  1
  Pr  Pr3  1  0.243685  0.999902  0.252587  1
  Pr  Pr4  1  0.000098  0.243783  0.252587  1
  Pr  Pr5  1  0.243685  0.243783  0.747413  1
  Pr  Pr6  1  0.756217  0.999902  0.747413  1
  Pr  Pr7  1  0.000098  0.756315  0.747413  1
  Dy  Dy8  1  0.666667  0.333333  0.500000  1
  Er  Er9  1  0.333333  0.666667  0.500000  1
  Sn  Sn10  1  0.395892  0.396324  0.260647  1
  Sn  Sn11  1  0.603676  0.999569  0.260647  1
  Sn  Sn12  1  0.000431  0.604108  0.260647  1
  Sn  Sn13  1  0.603676  0.604108  0.739353  1
  Sn  Sn14  1  0.395892  0.999569  0.739353  1
  Sn  Sn15  1  0.000431  0.396324  0.739353  1
