# generated using pymatgen
data_Yb2Nb(AgO2)3
_symmetry_space_group_name_H-M   'P 1'
_cell_length_a   5.84443900
_cell_length_b   5.84443906
_cell_length_c   18.86580100
_cell_angle_alpha   90.00000000
_cell_angle_beta   90.00000000
_cell_angle_gamma   119.99999401
_symmetry_Int_Tables_number   1
_chemical_formula_structural   Yb2Nb(AgO2)3
_chemical_formula_sum   'Yb6 Nb3 Ag9 O18'
_cell_volume   558.07371965
_cell_formula_units_Z   3
loop_
 _symmetry_equiv_pos_site_id
 _symmetry_equiv_pos_as_xyz
  1  'x, y, z'
loop_
 _atom_site_type_symbol
 _atom_site_label
 _atom_site_symmetry_multiplicity
 _atom_site_fract_x
 _atom_site_fract_y
 _atom_site_fract_z
 _atom_site_occupancy
  Yb  Yb0  1  0.107289  0.892711  0.333333  1
  Yb  Yb1  1  0.107289  0.214577  0.666667  1
  Yb  Yb2  1  0.785423  0.892711  0.000000  1
  Yb  Yb3  1  0.773957  0.226043  0.333333  1
  Yb  Yb4  1  0.773957  0.547913  0.666667  1
  Yb  Yb5  1  0.452087  0.226043  0.000000  1
  Nb  Nb6  1  0.441096  0.558904  0.333333  1
  Nb  Nb7  1  0.441096  0.882191  0.666667  1
  Nb  Nb8  1  0.117809  0.558904  0.000000  1
  Ag  Ag9  1  0.442202  0.221100  0.500000  1
  Ag  Ag10  1  0.778900  0.221100  0.833333  1
  Ag  Ag11  1  0.778900  0.557798  0.166667  1
  Ag  Ag12  1  0.134952  0.567475  0.500000  1
  Ag  Ag13  1  0.432525  0.567475  0.833333  1
  Ag  Ag14  1  0.432525  0.865048  0.166667  1
  Ag  Ag15  1  0.745533  0.872766  0.500000  1
  Ag  Ag16  1  0.127234  0.872766  0.833333  1
  Ag  Ag17  1  0.127234  0.254467  0.166667  1
  O  O18  1  0.736008  0.559097  0.276666  1
  O  O19  1  0.440903  0.176911  0.609999  1
  O  O20  1  0.823089  0.263992  0.943333  1
  O  O21  1  0.736008  0.176911  0.723334  1
  O  O22  1  0.440903  0.263992  0.390001  1
  O  O23  1  0.823089  0.559097  0.056667  1
  O  O24  1  0.440970  0.856337  0.277255  1
  O  O25  1  0.143663  0.584634  0.610588  1
  O  O26  1  0.415366  0.559030  0.943922  1
  O  O27  1  0.440970  0.584634  0.722745  1
  O  O28  1  0.143663  0.559030  0.389412  1
  O  O29  1  0.415366  0.856337  0.056078  1
  O  O30  1  0.144231  0.262495  0.277204  1
  O  O31  1  0.737505  0.881736  0.610537  1
  O  O32  1  0.118264  0.855769  0.943870  1
  O  O33  1  0.144231  0.881736  0.722796  1
  O  O34  1  0.737505  0.855769  0.389463  1
  O  O35  1  0.118264  0.262495  0.056130  1
