# generated using pymatgen
data_Cs9K7(ZrS4)4
_symmetry_space_group_name_H-M   'P 1'
_cell_length_a   8.47133078
_cell_length_b   10.28389009
_cell_length_c   15.52438000
_cell_angle_alpha   90.29973214
_cell_angle_beta   90.19641896
_cell_angle_gamma   89.90657113
_symmetry_Int_Tables_number   1
_chemical_formula_structural   Cs9K7(ZrS4)4
_chemical_formula_sum   'Cs9 K7 Zr4 S16'
_cell_volume   1352.42836774
_cell_formula_units_Z   1
loop_
 _symmetry_equiv_pos_site_id
 _symmetry_equiv_pos_as_xyz
  1  'x, y, z'
loop_
 _atom_site_type_symbol
 _atom_site_label
 _atom_site_symmetry_multiplicity
 _atom_site_fract_x
 _atom_site_fract_y
 _atom_site_fract_z
 _atom_site_occupancy
  Cs  Cs0  1  0.998410  0.003735  0.000413  1
  Cs  Cs1  1  0.501839  0.999329  0.500346  1
  Cs  Cs2  1  0.002943  0.502125  0.994406  1
  Cs  Cs3  1  0.497357  0.497698  0.500829  1
  Cs  Cs4  1  0.992037  0.747897  0.434078  1
  Cs  Cs5  1  0.491370  0.250425  0.068394  1
  Cs  Cs6  1  0.005519  0.246332  0.570427  1
  Cs  Cs7  1  0.510296  0.750369  0.930938  1
  Cs  Cs8  1  0.328014  0.561226  0.219754  1
  K  K9  1  0.839331  0.057907  0.271781  1
  K  K10  1  0.342321  0.944514  0.229609  1
  K  K11  1  0.161649  0.560719  0.729036  1
  K  K12  1  0.661566  0.438535  0.770326  1
  K  K13  1  0.161147  0.937645  0.729814  1
  K  K14  1  0.661319  0.061743  0.770923  1
  K  K15  1  0.831817  0.435197  0.272141  1
  Zr  Zr16  1  0.760385  0.749004  0.679766  1
  Zr  Zr17  1  0.234166  0.245980  0.324616  1
  Zr  Zr18  1  0.743647  0.754816  0.176264  1
  Zr  Zr19  1  0.262580  0.250248  0.820776  1
  S  S20  1  0.974458  0.252072  0.815304  1
  S  S21  1  0.522788  0.247334  0.318463  1
  S  S22  1  0.472250  0.749166  0.684834  1
  S  S23  1  0.028188  0.774198  0.180064  1
  S  S24  1  0.666979  0.557197  0.103007  1
  S  S25  1  0.135524  0.434587  0.399615  1
  S  S26  1  0.353845  0.058189  0.893377  1
  S  S27  1  0.852970  0.940254  0.607464  1
  S  S28  1  0.357151  0.442041  0.894121  1
  S  S29  1  0.851981  0.556196  0.606898  1
  S  S30  1  0.639871  0.943062  0.103839  1
  S  S31  1  0.147110  0.052568  0.396381  1
  S  S32  1  0.631381  0.753623  0.320824  1
  S  S33  1  0.116616  0.244551  0.180719  1
  S  S34  1  0.380411  0.249718  0.677645  1
  S  S35  1  0.880757  0.749802  0.822807  1
