# generated using pymatgen
data_YbGd(ThB8)2
_symmetry_space_group_name_H-M   'P 1'
_cell_length_a   7.19973885
_cell_length_b   7.19973893
_cell_length_c   4.09001300
_cell_angle_alpha   90.00000000
_cell_angle_beta   90.00000000
_cell_angle_gamma   88.87211308
_symmetry_Int_Tables_number   1
_chemical_formula_structural   YbGd(ThB8)2
_chemical_formula_sum   'Yb1 Gd1 Th2 B16'
_cell_volume   211.96981872
_cell_formula_units_Z   1
loop_
 _symmetry_equiv_pos_site_id
 _symmetry_equiv_pos_as_xyz
  1  'x, y, z'
loop_
 _atom_site_type_symbol
 _atom_site_label
 _atom_site_symmetry_multiplicity
 _atom_site_fract_x
 _atom_site_fract_y
 _atom_site_fract_z
 _atom_site_occupancy
  Yb  Yb0  1  0.817851  0.317851  0.000000  1
  Gd  Gd1  1  0.182663  0.682663  0.000000  1
  Th  Th2  1  0.313269  0.186584  0.000000  1
  Th  Th3  1  0.686584  0.813269  0.000000  1
  B  B4  1  0.502279  0.498663  0.797127  1
  B  B5  1  0.998663  0.002279  0.797127  1
  B  B6  1  0.502279  0.498663  0.202873  1
  B  B7  1  0.998663  0.002279  0.202873  1
  B  B8  1  0.676096  0.537001  0.500000  1
  B  B9  1  0.324390  0.462353  0.500000  1
  B  B10  1  0.174436  0.959634  0.500000  1
  B  B11  1  0.824095  0.040059  0.500000  1
  B  B12  1  0.459634  0.674436  0.500000  1
  B  B13  1  0.540059  0.324095  0.500000  1
  B  B14  1  0.037001  0.176096  0.500000  1
  B  B15  1  0.962353  0.824390  0.500000  1
  B  B16  1  0.911583  0.589414  0.500000  1
  B  B17  1  0.089414  0.411583  0.500000  1
  B  B18  1  0.411960  0.911960  0.500000  1
  B  B19  1  0.586728  0.086728  0.500000  1
