# generated using pymatgen
data_Tb4FeMoRu6
_symmetry_space_group_name_H-M   'P 1'
_cell_length_a   5.17672501
_cell_length_b   5.17672441
_cell_length_c   8.99579900
_cell_angle_alpha   90.00000000
_cell_angle_beta   90.00000000
_cell_angle_gamma   115.96535205
_symmetry_Int_Tables_number   1
_chemical_formula_structural   Tb4FeMoRu6
_chemical_formula_sum   'Tb4 Fe1 Mo1 Ru6'
_cell_volume   216.73949874
_cell_formula_units_Z   1
loop_
 _symmetry_equiv_pos_site_id
 _symmetry_equiv_pos_as_xyz
  1  'x, y, z'
loop_
 _atom_site_type_symbol
 _atom_site_label
 _atom_site_symmetry_multiplicity
 _atom_site_fract_x
 _atom_site_fract_y
 _atom_site_fract_z
 _atom_site_occupancy
  Tb  Tb0  1  0.327403  0.672597  0.437523  1
  Tb  Tb1  1  0.667573  0.332427  0.569069  1
  Tb  Tb2  1  0.667573  0.332427  0.930931  1
  Tb  Tb3  1  0.327403  0.672597  0.062477  1
  Fe  Fe4  1  0.163439  0.836561  0.750000  1
  Mo  Mo5  1  0.845540  0.154460  0.250000  1
  Ru  Ru6  1  0.994148  0.005852  0.503312  1
  Ru  Ru7  1  0.994148  0.005852  0.996688  1
  Ru  Ru8  1  0.828924  0.644644  0.250000  1
  Ru  Ru9  1  0.355356  0.171076  0.250000  1
  Ru  Ru10  1  0.175335  0.346843  0.750000  1
  Ru  Ru11  1  0.653157  0.824665  0.750000  1
