# generated using pymatgen
data_La2Nd2DyP12Ru19
_symmetry_space_group_name_H-M   'P 1'
_cell_length_a   12.64460328
_cell_length_b   12.65575085
_cell_length_c   4.02213200
_cell_angle_alpha   90.00000000
_cell_angle_beta   90.00000000
_cell_angle_gamma   120.03832215
_symmetry_Int_Tables_number   1
_chemical_formula_structural   La2Nd2DyP12Ru19
_chemical_formula_sum   'La2 Nd2 Dy1 P12 Ru19'
_cell_volume   557.20145153
_cell_formula_units_Z   1
loop_
 _symmetry_equiv_pos_site_id
 _symmetry_equiv_pos_as_xyz
  1  'x, y, z'
loop_
 _atom_site_type_symbol
 _atom_site_label
 _atom_site_symmetry_multiplicity
 _atom_site_fract_x
 _atom_site_fract_y
 _atom_site_fract_z
 _atom_site_occupancy
  La  La0  1  0.816645  0.999637  0.500000  1
  La  La1  1  0.183296  0.183033  0.500000  1
  Nd  Nd2  1  0.666244  0.333658  0.000000  1
  Nd  Nd3  1  0.000056  0.815646  0.500000  1
  Dy  Dy4  1  0.333633  0.667516  0.000000  1
  P  P5  1  0.624230  0.999910  0.000000  1
  P  P6  1  0.375776  0.375640  0.000000  1
  P  P7  1  0.999963  0.625621  0.000000  1
  P  P8  1  0.695505  0.523279  0.500000  1
  P  P9  1  0.827552  0.304734  0.500000  1
  P  P10  1  0.304613  0.825753  0.500000  1
  P  P11  1  0.522210  0.695855  0.500000  1
  P  P12  1  0.187235  0.997327  0.000000  1
  P  P13  1  0.812157  0.810786  0.000000  1
  P  P14  1  0.000635  0.190349  0.000000  1
  P  P15  1  0.475676  0.171589  0.500000  1
  P  P16  1  0.174569  0.479338  0.500000  1
  Ru  Ru17  1  0.619131  0.804289  0.000000  1
  Ru  Ru18  1  0.186331  0.382360  0.000000  1
  Ru  Ru19  1  0.378729  0.183780  0.000000  1
  Ru  Ru20  1  0.194543  0.813511  0.000000  1
  Ru  Ru21  1  0.806086  0.620969  0.000000  1
  Ru  Ru22  1  0.876237  0.508575  0.500000  1
  Ru  Ru23  1  0.491486  0.367632  0.500000  1
  Ru  Ru24  1  0.631508  0.123778  0.500000  1
  Ru  Ru25  1  0.126325  0.632194  0.500000  1
  Ru  Ru26  1  0.368617  0.494990  0.500000  1
  Ru  Ru27  1  0.505844  0.873547  0.500000  1
  Ru  Ru28  1  0.999998  0.999913  0.000000  1
  Ru  Ru29  1  0.713552  0.713255  0.500000  1
  Ru  Ru30  1  0.000901  0.288438  0.500000  1
  Ru  Ru31  1  0.444537  0.998867  0.000000  1
  Ru  Ru32  1  0.555284  0.554529  0.000000  1
  Ru  Ru33  1  0.000203  0.446461  0.000000  1
  Ru  Ru34  1  0.815078  0.195335  0.000000  1
  Ru  Ru35  1  0.285617  0.997906  0.500000  1
