# generated using pymatgen
data_LiPaIBr5
_symmetry_space_group_name_H-M   'P 1'
_cell_length_a   7.76834311
_cell_length_b   7.33985364
_cell_length_c   7.08890400
_cell_angle_alpha   78.79792869
_cell_angle_beta   81.41808011
_cell_angle_gamma   117.87260353
_symmetry_Int_Tables_number   1
_chemical_formula_structural   LiPaIBr5
_chemical_formula_sum   'Li1 Pa1 I1 Br5'
_cell_volume   336.80278037
_cell_formula_units_Z   1
loop_
 _symmetry_equiv_pos_site_id
 _symmetry_equiv_pos_as_xyz
  1  'x, y, z'
loop_
 _atom_site_type_symbol
 _atom_site_label
 _atom_site_symmetry_multiplicity
 _atom_site_fract_x
 _atom_site_fract_y
 _atom_site_fract_z
 _atom_site_occupancy
  Li  Li0  1  0.910547  0.118776  0.496942  1
  Pa  Pa1  1  0.996595  0.004507  0.998038  1
  I  I2  1  0.633402  0.958623  0.265804  1
  Br  Br3  1  0.224173  0.254336  0.209538  1
  Br  Br4  1  0.767138  0.763395  0.784044  1
  Br  Br5  1  0.032400  0.356914  0.730648  1
  Br  Br6  1  0.334784  0.066268  0.765800  1
  Br  Br7  1  0.934962  0.643182  0.249187  1
