# generated using pymatgen
data_Tb3PuZr4F28
_symmetry_space_group_name_H-M   'P 1'
_cell_length_a   5.80540883
_cell_length_b   9.19630347
_cell_length_c   12.35323300
_cell_angle_alpha   62.26831249
_cell_angle_beta   89.96931610
_cell_angle_gamma   90.02149622
_symmetry_Int_Tables_number   1
_chemical_formula_structural   Tb3PuZr4F28
_chemical_formula_sum   'Tb3 Pu1 Zr4 F28'
_cell_volume   583.76327695
_cell_formula_units_Z   1
loop_
 _symmetry_equiv_pos_site_id
 _symmetry_equiv_pos_as_xyz
  1  'x, y, z'
loop_
 _atom_site_type_symbol
 _atom_site_label
 _atom_site_symmetry_multiplicity
 _atom_site_fract_x
 _atom_site_fract_y
 _atom_site_fract_z
 _atom_site_occupancy
  Tb  Tb0  1  0.743807  0.816988  0.266156  1
  Tb  Tb1  1  0.243600  0.185685  0.233659  1
  Tb  Tb2  1  0.257614  0.189138  0.733665  1
  Pu  Pu3  1  0.757719  0.817833  0.764644  1
  Zr  Zr4  1  0.743538  0.278147  0.452729  1
  Zr  Zr5  1  0.242973  0.725607  0.049102  1
  Zr  Zr6  1  0.255271  0.725365  0.540484  1
  Zr  Zr7  1  0.755561  0.270569  0.956851  1
  F  F8  1  0.460386  0.711426  0.925927  1
  F  F9  1  0.966727  0.286449  0.577327  1
  F  F10  1  0.532557  0.287436  0.077858  1
  F  F11  1  0.034088  0.709962  0.418488  1
  F  F12  1  0.456074  0.282234  0.548597  1
  F  F13  1  0.953066  0.713752  0.959478  1
  F  F14  1  0.546729  0.718508  0.448680  1
  F  F15  1  0.043051  0.278780  0.051376  1
  F  F16  1  0.775053  0.518624  0.859042  1
  F  F17  1  0.266093  0.474965  0.638790  1
  F  F18  1  0.235895  0.474988  0.144046  1
  F  F19  1  0.733319  0.526652  0.356738  1
  F  F20  1  0.759643  0.021563  0.058960  1
  F  F21  1  0.261016  0.974922  0.440628  1
  F  F22  1  0.241371  0.974537  0.942772  1
  F  F23  1  0.738767  0.027794  0.553883  1
  F  F24  1  0.980383  0.735251  0.638874  1
  F  F25  1  0.485594  0.266551  0.851776  1
  F  F26  1  0.009918  0.265503  0.349136  1
  F  F27  1  0.511109  0.735366  0.152925  1
  F  F28  1  0.033705  0.747507  0.175104  1
  F  F29  1  0.530992  0.254863  0.328227  1
  F  F30  1  0.966655  0.250493  0.829925  1
  F  F31  1  0.453183  0.737861  0.673552  1
  F  F32  1  0.433689  0.976395  0.235967  1
  F  F33  1  0.933580  0.025640  0.264646  1
  F  F34  1  0.573660  0.038533  0.763137  1
  F  F35  1  0.083615  0.974115  0.736854  1
