# generated using pymatgen
data_Dy5InBi2
_symmetry_space_group_name_H-M   'P 1'
_cell_length_a   9.11443179
_cell_length_b   9.10708263
_cell_length_c   6.53245400
_cell_angle_alpha   90.00000000
_cell_angle_beta   90.00000000
_cell_angle_gamma   119.97332974
_symmetry_Int_Tables_number   1
_chemical_formula_structural   Dy5InBi2
_chemical_formula_sum   'Dy10 In2 Bi4'
_cell_volume   469.71293593
_cell_formula_units_Z   2
loop_
 _symmetry_equiv_pos_site_id
 _symmetry_equiv_pos_as_xyz
  1  'x, y, z'
loop_
 _atom_site_type_symbol
 _atom_site_label
 _atom_site_symmetry_multiplicity
 _atom_site_fract_x
 _atom_site_fract_y
 _atom_site_fract_z
 _atom_site_occupancy
  Dy  Dy0  1  0.993978  0.760094  0.750000  1
  Dy  Dy1  1  0.993978  0.233883  0.250000  1
  Dy  Dy2  1  0.759321  0.766105  0.250000  1
  Dy  Dy3  1  0.759321  0.993216  0.750000  1
  Dy  Dy4  1  0.242402  0.241554  0.750000  1
  Dy  Dy5  1  0.242402  0.000848  0.250000  1
  Dy  Dy6  1  0.341073  0.670537  0.500000  1
  Dy  Dy7  1  0.664618  0.332308  0.000000  1
  Dy  Dy8  1  0.664618  0.332308  0.500000  1
  Dy  Dy9  1  0.341073  0.670537  0.000000  1
  In  In10  1  0.605260  0.603011  0.750000  1
  In  In11  1  0.605260  0.002251  0.250000  1
  Bi  Bi12  1  0.392170  0.999330  0.750000  1
  Bi  Bi13  1  0.392170  0.392840  0.250000  1
  Bi  Bi14  1  0.001177  0.608037  0.250000  1
  Bi  Bi15  1  0.001177  0.393139  0.750000  1
