# generated using pymatgen
data_YEr9Cd3Pt
_symmetry_space_group_name_H-M   'P 1'
_cell_length_a   9.61583300
_cell_length_b   9.61572125
_cell_length_c   9.70781300
_cell_angle_alpha   90.00000000
_cell_angle_beta   90.00000000
_cell_angle_gamma   120.00117239
_symmetry_Int_Tables_number   1
_chemical_formula_structural   YEr9Cd3Pt
_chemical_formula_sum   'Y2 Er18 Cd6 Pt2'
_cell_volume   777.34834871
_cell_formula_units_Z   2
loop_
 _symmetry_equiv_pos_site_id
 _symmetry_equiv_pos_as_xyz
  1  'x, y, z'
loop_
 _atom_site_type_symbol
 _atom_site_label
 _atom_site_symmetry_multiplicity
 _atom_site_fract_x
 _atom_site_fract_y
 _atom_site_fract_z
 _atom_site_occupancy
  Y  Y0  1  0.457515  0.914737  0.250000  1
  Y  Y1  1  0.085267  0.542500  0.250000  1
  Er  Er2  1  0.207744  0.792260  0.940755  1
  Er  Er3  1  0.207954  0.415573  0.940968  1
  Er  Er4  1  0.584433  0.792046  0.940970  1
  Er  Er5  1  0.792144  0.207852  0.058565  1
  Er  Er6  1  0.791896  0.584315  0.058677  1
  Er  Er7  1  0.415689  0.208115  0.058678  1
  Er  Er8  1  0.792144  0.207852  0.441435  1
  Er  Er9  1  0.791896  0.584315  0.441323  1
  Er  Er10  1  0.415689  0.208115  0.441322  1
  Er  Er11  1  0.207744  0.792260  0.559245  1
  Er  Er12  1  0.207954  0.415573  0.559032  1
  Er  Er13  1  0.584433  0.792046  0.559030  1
  Er  Er14  1  0.542780  0.457222  0.750000  1
  Er  Er15  1  0.542753  0.085503  0.750000  1
  Er  Er16  1  0.914492  0.457219  0.750000  1
  Er  Er17  1  0.457558  0.542437  0.250000  1
  Er  Er18  1  0.999979  0.000000  0.000034  1
  Er  Er19  1  0.999979  0.000000  0.499966  1
  Cd  Cd20  1  0.884281  0.115723  0.750000  1
  Cd  Cd21  1  0.884218  0.768501  0.750000  1
  Cd  Cd22  1  0.231500  0.115783  0.750000  1
  Cd  Cd23  1  0.115359  0.884646  0.250000  1
  Cd  Cd24  1  0.115772  0.231083  0.250000  1
  Cd  Cd25  1  0.768919  0.884232  0.250000  1
  Pt  Pt26  1  0.333316  0.666688  0.750000  1
  Pt  Pt27  1  0.666594  0.333403  0.250000  1
