# generated using pymatgen
data_TbDy2PuB16
_symmetry_space_group_name_H-M   'P 1'
_cell_length_a   7.10824932
_cell_length_b   7.10824921
_cell_length_c   4.02100600
_cell_angle_alpha   90.00000000
_cell_angle_beta   90.00000000
_cell_angle_gamma   90.23899328
_symmetry_Int_Tables_number   1
_chemical_formula_structural   TbDy2PuB16
_chemical_formula_sum   'Tb1 Dy2 Pu1 B16'
_cell_volume   203.16843753
_cell_formula_units_Z   1
loop_
 _symmetry_equiv_pos_site_id
 _symmetry_equiv_pos_as_xyz
  1  'x, y, z'
loop_
 _atom_site_type_symbol
 _atom_site_label
 _atom_site_symmetry_multiplicity
 _atom_site_fract_x
 _atom_site_fract_y
 _atom_site_fract_z
 _atom_site_occupancy
  Tb  Tb0  1  0.816854  0.316854  0.000000  1
  Dy  Dy1  1  0.682695  0.816667  0.000000  1
  Dy  Dy2  1  0.316667  0.182695  0.000000  1
  Pu  Pu3  1  0.185610  0.685610  0.000000  1
  B  B4  1  0.323137  0.462066  0.500000  1
  B  B5  1  0.676260  0.538468  0.500000  1
  B  B6  1  0.538541  0.323797  0.500000  1
  B  B7  1  0.461129  0.676281  0.500000  1
  B  B8  1  0.999373  0.000228  0.202296  1
  B  B9  1  0.500228  0.499373  0.797704  1
  B  B10  1  0.999373  0.000228  0.797704  1
  B  B11  1  0.500228  0.499373  0.202296  1
  B  B12  1  0.587137  0.087137  0.500000  1
  B  B13  1  0.086403  0.413579  0.500000  1
  B  B14  1  0.913579  0.586403  0.500000  1
  B  B15  1  0.412174  0.912174  0.500000  1
  B  B16  1  0.038468  0.176260  0.500000  1
  B  B17  1  0.176281  0.961129  0.500000  1
  B  B18  1  0.823797  0.038541  0.500000  1
  B  B19  1  0.962066  0.823137  0.500000  1
