# generated using pymatgen
data_DyY2SnBi2Rh3
_symmetry_space_group_name_H-M   'P 1'
_cell_length_a   7.64631394
_cell_length_b   7.57318556
_cell_length_c   3.97322900
_cell_angle_alpha   90.00000000
_cell_angle_beta   90.00000000
_cell_angle_gamma   119.68411722
_symmetry_Int_Tables_number   1
_chemical_formula_structural   DyY2SnBi2Rh3
_chemical_formula_sum   'Dy1 Y2 Sn1 Bi2 Rh3'
_cell_volume   199.88423788
_cell_formula_units_Z   1
loop_
 _symmetry_equiv_pos_site_id
 _symmetry_equiv_pos_as_xyz
  1  'x, y, z'
loop_
 _atom_site_type_symbol
 _atom_site_label
 _atom_site_symmetry_multiplicity
 _atom_site_fract_x
 _atom_site_fract_y
 _atom_site_fract_z
 _atom_site_occupancy
  Dy  Dy0  1  0.000000  0.590250  0.500000  1
  Y  Y1  1  0.392774  0.404254  0.500000  1
  Y  Y2  1  0.607226  0.011479  0.500000  1
  Sn  Sn3  1  0.000000  0.262405  0.000000  1
  Bi  Bi4  1  0.734406  0.736634  0.000000  1
  Bi  Bi5  1  0.265594  0.002228  0.000000  1
  Rh  Rh6  1  0.674588  0.331210  0.000000  1
  Rh  Rh7  1  0.325412  0.656623  0.000000  1
  Rh  Rh8  1  0.000000  0.004919  0.500000  1
