# generated using pymatgen
data_Hf2Ti4BBr12
_symmetry_space_group_name_H-M   'P 1'
_cell_length_a   8.51299126
_cell_length_b   8.47732698
_cell_length_c   8.71468263
_cell_angle_alpha   106.78556260
_cell_angle_beta   106.74881956
_cell_angle_gamma   106.45714209
_symmetry_Int_Tables_number   1
_chemical_formula_structural   Hf2Ti4BBr12
_chemical_formula_sum   'Hf2 Ti4 B1 Br12'
_cell_volume   528.49269082
_cell_formula_units_Z   1
loop_
 _symmetry_equiv_pos_site_id
 _symmetry_equiv_pos_as_xyz
  1  'x, y, z'
loop_
 _atom_site_type_symbol
 _atom_site_label
 _atom_site_symmetry_multiplicity
 _atom_site_fract_x
 _atom_site_fract_y
 _atom_site_fract_z
 _atom_site_occupancy
  Hf  Hf0  1  0.970145  0.706569  0.905819  1
  Hf  Hf1  1  0.291877  0.096000  0.029644  1
  Ti  Ti2  1  0.084440  0.026092  0.265115  1
  Ti  Ti3  1  0.911702  0.977636  0.736412  1
  Ti  Ti4  1  0.731284  0.913532  0.972951  1
  Ti  Ti5  1  0.023705  0.269976  0.088976  1
  B  B6  1  0.005729  0.996301  0.998637  1
  Br  Br7  1  0.923864  0.311198  0.793200  1
  Br  Br8  1  0.691008  0.215898  0.073026  1
  Br  Br9  1  0.427900  0.133311  0.357410  1
  Br  Br10  1  0.863590  0.646625  0.571362  1
  Br  Br11  1  0.215319  0.081618  0.702907  1
  Br  Br12  1  0.635445  0.568948  0.861433  1
  Br  Br13  1  0.355367  0.438135  0.141350  1
  Br  Br14  1  0.780308  0.923017  0.287647  1
  Br  Br15  1  0.128676  0.352029  0.418300  1
  Br  Br16  1  0.576822  0.872357  0.653133  1
  Br  Br17  1  0.306274  0.770902  0.919737  1
  Br  Br18  1  0.076544  0.699854  0.222943  1
