# generated using pymatgen
data_Ta3Ti(B2W)2
_symmetry_space_group_name_H-M   'P 1'
_cell_length_a   6.09472941
_cell_length_b   6.09472949
_cell_length_c   3.27058800
_cell_angle_alpha   90.00000000
_cell_angle_beta   90.00000000
_cell_angle_gamma   89.58287135
_symmetry_Int_Tables_number   1
_chemical_formula_structural   Ta3Ti(B2W)2
_chemical_formula_sum   'Ta3 Ti1 B4 W2'
_cell_volume   121.48514952
_cell_formula_units_Z   1
loop_
 _symmetry_equiv_pos_site_id
 _symmetry_equiv_pos_as_xyz
  1  'x, y, z'
loop_
 _atom_site_type_symbol
 _atom_site_label
 _atom_site_symmetry_multiplicity
 _atom_site_fract_x
 _atom_site_fract_y
 _atom_site_fract_z
 _atom_site_occupancy
  Ta  Ta0  1  0.821558  0.677708  0.500000  1
  Ta  Ta1  1  0.322914  0.822914  0.500000  1
  Ta  Ta2  1  0.177708  0.321558  0.500000  1
  Ti  Ti3  1  0.677055  0.177055  0.500000  1
  B  B4  1  0.110119  0.610119  0.000000  1
  B  B5  1  0.609743  0.893755  0.000000  1
  B  B6  1  0.393755  0.109743  0.000000  1
  B  B7  1  0.888541  0.388541  0.000000  1
  W  W8  1  0.501741  0.496867  0.000000  1
  W  W9  1  0.996867  0.001741  0.000000  1
