# generated using pymatgen
data_TmCl30
_symmetry_space_group_name_H-M   'P 1'
_cell_length_a   13.59420229
_cell_length_b   13.59420222
_cell_length_c   16.17634200
_cell_angle_alpha   82.25995080
_cell_angle_beta   82.25995238
_cell_angle_gamma   119.71514518
_symmetry_Int_Tables_number   1
_chemical_formula_structural   TmCl30
_chemical_formula_sum   'Tm1 Cl30'
_cell_volume   2501.19451340
_cell_formula_units_Z   1
loop_
 _symmetry_equiv_pos_site_id
 _symmetry_equiv_pos_as_xyz
  1  'x, y, z'
loop_
 _atom_site_type_symbol
 _atom_site_label
 _atom_site_symmetry_multiplicity
 _atom_site_fract_x
 _atom_site_fract_y
 _atom_site_fract_z
 _atom_site_occupancy
  Tm  Tm0  1  0.000000  0.000000  0.000000  1
  Cl  Cl1  1  0.939691  0.939691  0.168224  1
  Cl  Cl2  1  0.060309  0.060309  0.831776  1
  Cl  Cl3  1  0.102767  0.218338  0.005997  1
  Cl  Cl4  1  0.897233  0.781662  0.994003  1
  Cl  Cl5  1  0.218338  0.102767  0.005997  1
  Cl  Cl6  1  0.781662  0.897233  0.994003  1
  Cl  Cl7  1  0.199406  0.744307  0.064086  1
  Cl  Cl8  1  0.800594  0.255693  0.935914  1
  Cl  Cl9  1  0.697773  0.080310  0.258907  1
  Cl  Cl10  1  0.255693  0.800594  0.935914  1
  Cl  Cl11  1  0.302227  0.919690  0.741093  1
  Cl  Cl12  1  0.744307  0.199406  0.064086  1
  Cl  Cl13  1  0.982462  0.198501  0.776854  1
  Cl  Cl14  1  0.919690  0.302227  0.741093  1
  Cl  Cl15  1  0.017538  0.801499  0.223146  1
  Cl  Cl16  1  0.080310  0.697773  0.258907  1
  Cl  Cl17  1  0.801499  0.017538  0.223146  1
  Cl  Cl18  1  0.198501  0.982462  0.776854  1
  Cl  Cl19  1  0.465949  0.550577  0.263009  1
  Cl  Cl20  1  0.534051  0.449423  0.736991  1
  Cl  Cl21  1  0.507764  0.207671  0.451037  1
  Cl  Cl22  1  0.449423  0.534051  0.736991  1
  Cl  Cl23  1  0.492236  0.792329  0.548963  1
  Cl  Cl24  1  0.550577  0.465949  0.263009  1
  Cl  Cl25  1  0.240434  0.429777  0.547393  1
  Cl  Cl26  1  0.792329  0.492236  0.548963  1
  Cl  Cl27  1  0.759566  0.570223  0.452607  1
  Cl  Cl28  1  0.207671  0.507764  0.451037  1
  Cl  Cl29  1  0.570223  0.759566  0.452607  1
  Cl  Cl30  1  0.429777  0.240434  0.547393  1
