# generated using pymatgen
data_Eu8Er12Si15Ir
_symmetry_space_group_name_H-M   'P 1'
_cell_length_a   7.52032800
_cell_length_b   7.92441850
_cell_length_c   14.91239700
_cell_angle_alpha   90.00000000
_cell_angle_beta   90.00000000
_cell_angle_gamma   90.09327068
_symmetry_Int_Tables_number   1
_chemical_formula_structural   Eu8Er12Si15Ir
_chemical_formula_sum   'Eu8 Er12 Si15 Ir1'
_cell_volume   888.69158440
_cell_formula_units_Z   1
loop_
 _symmetry_equiv_pos_site_id
 _symmetry_equiv_pos_as_xyz
  1  'x, y, z'
loop_
 _atom_site_type_symbol
 _atom_site_label
 _atom_site_symmetry_multiplicity
 _atom_site_fract_x
 _atom_site_fract_y
 _atom_site_fract_z
 _atom_site_occupancy
  Eu  Eu0  1  0.020622  0.178698  0.094457  1
  Eu  Eu1  1  0.980743  0.825423  0.905225  1
  Eu  Eu2  1  0.478436  0.677861  0.904024  1
  Eu  Eu3  1  0.980743  0.825423  0.594775  1
  Eu  Eu4  1  0.519771  0.324114  0.092675  1
  Eu  Eu5  1  0.020622  0.178698  0.405543  1
  Eu  Eu6  1  0.519771  0.324114  0.407325  1
  Eu  Eu7  1  0.478436  0.677861  0.595976  1
  Er  Er8  1  0.147373  0.520325  0.750000  1
  Er  Er9  1  0.849460  0.480221  0.250000  1
  Er  Er10  1  0.349637  0.022858  0.250000  1
  Er  Er11  1  0.663947  0.983291  0.750000  1
  Er  Er12  1  0.309635  0.174945  0.627199  1
  Er  Er13  1  0.681293  0.823294  0.378811  1
  Er  Er14  1  0.181895  0.679274  0.377851  1
  Er  Er15  1  0.681293  0.823294  0.121189  1
  Er  Er16  1  0.826861  0.316829  0.627297  1
  Er  Er17  1  0.309635  0.174945  0.872801  1
  Er  Er18  1  0.826861  0.316829  0.872703  1
  Er  Er19  1  0.181895  0.679274  0.122149  1
  Si  Si20  1  0.974455  0.885598  0.250000  1
  Si  Si21  1  0.475837  0.615243  0.250000  1
  Si  Si22  1  0.520576  0.389354  0.750000  1
  Si  Si23  1  0.267853  0.878688  0.750000  1
  Si  Si24  1  0.737315  0.109693  0.250000  1
  Si  Si25  1  0.237542  0.392307  0.250000  1
  Si  Si26  1  0.760618  0.609676  0.750000  1
  Si  Si27  1  0.142316  0.471495  0.539934  1
  Si  Si28  1  0.859052  0.531591  0.458758  1
  Si  Si29  1  0.356975  0.970106  0.459151  1
  Si  Si30  1  0.859052  0.531591  0.041242  1
  Si  Si31  1  0.639044  0.030655  0.540764  1
  Si  Si32  1  0.142316  0.471495  0.960066  1
  Si  Si33  1  0.639044  0.030655  0.959236  1
  Si  Si34  1  0.356975  0.970106  0.040849  1
  Ir  Ir35  1  0.022094  0.104178  0.750000  1
