# generated using pymatgen
data_BaGePRh2
_symmetry_space_group_name_H-M   'P 1'
_cell_length_a   7.03730789
_cell_length_b   7.03730826
_cell_length_c   7.03730800
_cell_angle_alpha   146.31686792
_cell_angle_beta   146.31687389
_cell_angle_gamma   48.37634242
_symmetry_Int_Tables_number   1
_chemical_formula_structural   BaGePRh2
_chemical_formula_sum   'Ba1 Ge1 P1 Rh2'
_cell_volume   106.74499654
_cell_formula_units_Z   1
loop_
 _symmetry_equiv_pos_site_id
 _symmetry_equiv_pos_as_xyz
  1  'x, y, z'
loop_
 _atom_site_type_symbol
 _atom_site_label
 _atom_site_symmetry_multiplicity
 _atom_site_fract_x
 _atom_site_fract_y
 _atom_site_fract_z
 _atom_site_occupancy
  Ba  Ba0  1  0.994716  0.994716  0.000000  1
  Ge  Ge1  1  0.645865  0.645865  0.000000  1
  P  P2  1  0.345676  0.345676  0.000000  1
  Rh  Rh3  1  0.756871  0.256871  0.500000  1
  Rh  Rh4  1  0.256871  0.756871  0.500000  1
