# generated using pymatgen
data_ScMoF6
_symmetry_space_group_name_H-M   'P 1'
_cell_length_a   5.83429212
_cell_length_b   5.83429174
_cell_length_c   5.83429506
_cell_angle_alpha   119.99862971
_cell_angle_beta   119.99862840
_cell_angle_gamma   90.00235322
_symmetry_Int_Tables_number   1
_chemical_formula_structural   ScMoF6
_chemical_formula_sum   'Sc1 Mo1 F6'
_cell_volume   140.42964021
_cell_formula_units_Z   1
loop_
 _symmetry_equiv_pos_site_id
 _symmetry_equiv_pos_as_xyz
  1  'x, y, z'
loop_
 _atom_site_type_symbol
 _atom_site_label
 _atom_site_symmetry_multiplicity
 _atom_site_fract_x
 _atom_site_fract_y
 _atom_site_fract_z
 _atom_site_occupancy
  Sc  Sc0  1  0.500000  0.500000  0.000000  1
  Mo  Mo1  1  0.000000  0.000000  0.000000  1
  F  F2  1  0.745909  0.254091  0.000000  1
  F  F3  1  0.254103  0.254103  0.000000  1
  F  F4  1  0.745897  0.745897  0.000000  1
  F  F5  1  0.254091  0.745909  0.000000  1
  F  F6  1  0.254092  0.254092  0.508184  1
  F  F7  1  0.745909  0.745909  0.491818  1
