# generated using pymatgen
data_Yb4AlSi4Ni9
_symmetry_space_group_name_H-M   'P 1'
_cell_length_a   5.14745165
_cell_length_b   5.14745144
_cell_length_c   11.57038561
_cell_angle_alpha   77.14756874
_cell_angle_beta   77.14756643
_cell_angle_gamma   59.99998572
_symmetry_Int_Tables_number   1
_chemical_formula_structural   Yb4AlSi4Ni9
_chemical_formula_sum   'Yb4 Al1 Si4 Ni9'
_cell_volume   256.59170183
_cell_formula_units_Z   1
loop_
 _symmetry_equiv_pos_site_id
 _symmetry_equiv_pos_as_xyz
  1  'x, y, z'
loop_
 _atom_site_type_symbol
 _atom_site_label
 _atom_site_symmetry_multiplicity
 _atom_site_fract_x
 _atom_site_fract_y
 _atom_site_fract_z
 _atom_site_occupancy
  Yb  Yb0  1  0.950171  0.950171  0.149489  1
  Yb  Yb1  1  0.049166  0.049166  0.852499  1
  Yb  Yb2  1  0.854571  0.854571  0.436287  1
  Yb  Yb3  1  0.145697  0.145697  0.562910  1
  Al  Al4  1  0.388480  0.388480  0.834559  1
  Si  Si5  1  0.500169  0.500169  0.499492  1
  Si  Si6  1  0.722061  0.722061  0.833814  1
  Si  Si7  1  0.277742  0.277742  0.166777  1
  Si  Si8  1  0.611098  0.611098  0.166707  1
  Ni  Ni9  1  0.995867  0.499536  0.005061  1
  Ni  Ni10  1  0.499536  0.995867  0.005061  1
  Ni  Ni11  1  0.499536  0.499536  0.005061  1
  Ni  Ni12  1  0.390900  0.390900  0.326851  1
  Ni  Ni13  1  0.891349  0.390900  0.326851  1
  Ni  Ni14  1  0.390900  0.891349  0.326851  1
  Ni  Ni15  1  0.613071  0.613071  0.667243  1
  Ni  Ni16  1  0.106614  0.613071  0.667243  1
  Ni  Ni17  1  0.613071  0.106614  0.667243  1
