# generated using pymatgen
data_Pr8Y11ErGa11Si5
_symmetry_space_group_name_H-M   'P 1'
_cell_length_a   7.61344936
_cell_length_b   8.01545636
_cell_length_c   15.20681380
_cell_angle_alpha   89.98442281
_cell_angle_beta   90.15855207
_cell_angle_gamma   90.23456473
_symmetry_Int_Tables_number   1
_chemical_formula_structural   Pr8Y11ErGa11Si5
_chemical_formula_sum   'Pr8 Y11 Er1 Ga11 Si5'
_cell_volume   927.98857220
_cell_formula_units_Z   1
loop_
 _symmetry_equiv_pos_site_id
 _symmetry_equiv_pos_as_xyz
  1  'x, y, z'
loop_
 _atom_site_type_symbol
 _atom_site_label
 _atom_site_symmetry_multiplicity
 _atom_site_fract_x
 _atom_site_fract_y
 _atom_site_fract_z
 _atom_site_occupancy
  Pr  Pr0  1  0.020111  0.179814  0.407036  1
  Pr  Pr1  1  0.518901  0.321571  0.407420  1
  Pr  Pr2  1  0.482758  0.680673  0.904668  1
  Pr  Pr3  1  0.481776  0.684590  0.594390  1
  Pr  Pr4  1  0.982197  0.814422  0.594356  1
  Pr  Pr5  1  0.980802  0.820217  0.904451  1
  Pr  Pr6  1  0.516443  0.318383  0.094859  1
  Pr  Pr7  1  0.016974  0.183360  0.094468  1
  Y  Y8  1  0.326518  0.173975  0.621098  1
  Y  Y9  1  0.674491  0.820556  0.379546  1
  Y  Y10  1  0.665151  0.980588  0.751462  1
  Y  Y11  1  0.176646  0.676987  0.378741  1
  Y  Y12  1  0.820679  0.324666  0.876960  1
  Y  Y13  1  0.821742  0.328137  0.621715  1
  Y  Y14  1  0.840786  0.484790  0.251574  1
  Y  Y15  1  0.336911  0.018130  0.251757  1
  Y  Y16  1  0.328195  0.176712  0.876007  1
  Y  Y17  1  0.175371  0.672464  0.123077  1
  Y  Y18  1  0.673457  0.824699  0.121644  1
  Er  Er19  1  0.157370  0.511788  0.750631  1
  Ga  Ga20  1  0.272090  0.876058  0.749103  1
  Ga  Ga21  1  0.468890  0.606628  0.251534  1
  Ga  Ga22  1  0.031821  0.114318  0.747870  1
  Ga  Ga23  1  0.528464  0.398354  0.748446  1
  Ga  Ga24  1  0.153406  0.469703  0.541026  1
  Ga  Ga25  1  0.967795  0.886618  0.250628  1
  Ga  Ga26  1  0.726452  0.121603  0.251686  1
  Ga  Ga27  1  0.845009  0.530097  0.040656  1
  Ga  Ga28  1  0.345113  0.967457  0.039267  1
  Ga  Ga29  1  0.153395  0.470267  0.956795  1
  Ga  Ga30  1  0.655614  0.033006  0.540461  1
  Si  Si31  1  0.349709  0.968965  0.458946  1
  Si  Si32  1  0.852003  0.528774  0.458053  1
  Si  Si33  1  0.776328  0.617717  0.749174  1
  Si  Si34  1  0.225662  0.382077  0.251717  1
  Si  Si35  1  0.650971  0.031835  0.958774  1
