# generated using pymatgen
data_Ho3Er7(Zn2Bi)2
_symmetry_space_group_name_H-M   'P 1'
_cell_length_a   8.57517830
_cell_length_b   8.57576148
_cell_length_c   8.57637201
_cell_angle_alpha   123.55471976
_cell_angle_beta   123.55119394
_cell_angle_gamma   83.94025835
_symmetry_Int_Tables_number   1
_chemical_formula_structural   Ho3Er7(Zn2Bi)2
_chemical_formula_sum   'Ho3 Er7 Zn4 Bi2'
_cell_volume   419.48679541
_cell_formula_units_Z   1
loop_
 _symmetry_equiv_pos_site_id
 _symmetry_equiv_pos_as_xyz
  1  'x, y, z'
loop_
 _atom_site_type_symbol
 _atom_site_label
 _atom_site_symmetry_multiplicity
 _atom_site_fract_x
 _atom_site_fract_y
 _atom_site_fract_z
 _atom_site_occupancy
  Ho  Ho0  1  0.510044  0.010044  0.804630  1
  Ho  Ho1  1  0.205408  0.705424  0.195371  1
  Ho  Ho2  1  0.010010  0.205481  0.500010  1
  Er  Er3  1  0.500209  0.500133  0.000124  1
  Er  Er4  1  0.000082  0.000008  0.999876  1
  Er  Er5  1  0.705559  0.510137  0.499992  1
  Er  Er6  1  0.489901  0.989940  0.195826  1
  Er  Er7  1  0.794071  0.294108  0.804158  1
  Er  Er8  1  0.989807  0.794051  0.500003  1
  Er  Er9  1  0.294177  0.489842  0.500009  1
  Zn  Zn10  1  0.139249  0.639380  0.778307  1
  Zn  Zn11  1  0.860942  0.361087  0.221707  1
  Zn  Zn12  1  0.639500  0.860880  0.499996  1
  Zn  Zn13  1  0.361027  0.139459  0.499998  1
  Bi  Bi14  1  0.250060  0.250061  0.000092  1
  Bi  Bi15  1  0.749953  0.749966  0.999901  1
