# generated using pymatgen
data_La5HoZn4IrPd12
_symmetry_space_group_name_H-M   'P 1'
_cell_length_a   8.41788202
_cell_length_b   8.41788184
_cell_length_c   8.41788190
_cell_angle_alpha   109.55917546
_cell_angle_beta   109.55917573
_cell_angle_gamma   109.29545337
_symmetry_Int_Tables_number   1
_chemical_formula_structural   La5HoZn4IrPd12
_chemical_formula_sum   'La5 Ho1 Zn4 Ir1 Pd12'
_cell_volume   459.18060389
_cell_formula_units_Z   1
loop_
 _symmetry_equiv_pos_site_id
 _symmetry_equiv_pos_as_xyz
  1  'x, y, z'
loop_
 _atom_site_type_symbol
 _atom_site_label
 _atom_site_symmetry_multiplicity
 _atom_site_fract_x
 _atom_site_fract_y
 _atom_site_fract_z
 _atom_site_occupancy
  La  La0  1  0.295192  0.998848  0.296343  1
  La  La1  1  0.998848  0.295192  0.296343  1
  La  La2  1  0.300061  0.300061  0.000000  1
  La  La3  1  0.702505  0.998848  0.703657  1
  La  La4  1  0.998848  0.702505  0.703657  1
  Ho  Ho5  1  0.697750  0.697750  0.000000  1
  Zn  Zn6  1  0.999143  0.999143  0.497075  1
  Zn  Zn7  1  0.999143  0.502068  0.000000  1
  Zn  Zn8  1  0.502068  0.999143  0.000000  1
  Zn  Zn9  1  0.502068  0.502068  0.502925  1
  Ir  Ir10  1  0.992876  0.992876  0.000000  1
  Pd  Pd11  1  0.336855  0.336855  0.669811  1
  Pd  Pd12  1  0.668855  0.997754  0.328899  1
  Pd  Pd13  1  0.997754  0.668855  0.328899  1
  Pd  Pd14  1  0.667046  0.336855  0.000000  1
  Pd  Pd15  1  0.332069  0.664219  0.332148  1
  Pd  Pd16  1  0.999921  0.332069  0.667852  1
  Pd  Pd17  1  0.336855  0.667046  0.000000  1
  Pd  Pd18  1  0.332069  0.999921  0.667852  1
  Pd  Pd19  1  0.664219  0.332069  0.332148  1
  Pd  Pd20  1  0.667046  0.667046  0.330189  1
  Pd  Pd21  1  0.668855  0.339954  0.671101  1
  Pd  Pd22  1  0.339954  0.668855  0.671101  1
