# generated using pymatgen
data_Lu3Zn2In3Pt
_symmetry_space_group_name_H-M   'P 1'
_cell_length_a   7.61969800
_cell_length_b   7.61969883
_cell_length_c   3.85254900
_cell_angle_alpha   90.00000000
_cell_angle_beta   90.00000000
_cell_angle_gamma   119.99999638
_symmetry_Int_Tables_number   1
_chemical_formula_structural   Lu3Zn2In3Pt
_chemical_formula_sum   'Lu3 Zn2 In3 Pt1'
_cell_volume   193.71104492
_cell_formula_units_Z   1
loop_
 _symmetry_equiv_pos_site_id
 _symmetry_equiv_pos_as_xyz
  1  'x, y, z'
loop_
 _atom_site_type_symbol
 _atom_site_label
 _atom_site_symmetry_multiplicity
 _atom_site_fract_x
 _atom_site_fract_y
 _atom_site_fract_z
 _atom_site_occupancy
  Lu  Lu0  1  0.019765  0.607744  0.500000  1
  Lu  Lu1  1  0.587979  0.980235  0.500000  1
  Lu  Lu2  1  0.392256  0.412021  0.500000  1
  Zn  Zn3  1  0.000000  0.000000  0.500000  1
  Zn  Zn4  1  0.666667  0.333333  0.000000  1
  In  In5  1  0.992736  0.259773  0.000000  1
  In  In6  1  0.267037  0.007264  0.000000  1
  In  In7  1  0.740227  0.732963  0.000000  1
  Pt  Pt8  1  0.333333  0.666667  0.000000  1
