# generated using pymatgen
data_HfTaCo6B
_symmetry_space_group_name_H-M   'P 1'
_cell_length_a   5.28712066
_cell_length_b   5.28712075
_cell_length_c   5.28712100
_cell_angle_alpha   60.00000472
_cell_angle_beta   60.00000416
_cell_angle_gamma   59.99999611
_symmetry_Int_Tables_number   1
_chemical_formula_structural   HfTaCo6B
_chemical_formula_sum   'Hf1 Ta1 Co6 B1'
_cell_volume   104.50635963
_cell_formula_units_Z   1
loop_
 _symmetry_equiv_pos_site_id
 _symmetry_equiv_pos_as_xyz
  1  'x, y, z'
loop_
 _atom_site_type_symbol
 _atom_site_label
 _atom_site_symmetry_multiplicity
 _atom_site_fract_x
 _atom_site_fract_y
 _atom_site_fract_z
 _atom_site_occupancy
  Hf  Hf0  1  0.249999  0.249999  0.249999  1
  Ta  Ta1  1  0.750000  0.750000  0.750000  1
  Co  Co2  1  0.740190  0.259810  0.259810  1
  Co  Co3  1  0.740190  0.740190  0.259810  1
  Co  Co4  1  0.259810  0.740190  0.259810  1
  Co  Co5  1  0.259810  0.740190  0.740190  1
  Co  Co6  1  0.259810  0.259810  0.740190  1
  Co  Co7  1  0.740190  0.259810  0.740190  1
  B  B8  1  0.000000  0.000000  0.000000  1
