# generated using pymatgen
data_Mg2GaPt
_symmetry_space_group_name_H-M   'P 1'
_cell_length_a   7.66879300
_cell_length_b   7.66879048
_cell_length_c   8.53012800
_cell_angle_alpha   90.00001494
_cell_angle_beta   90.00002989
_cell_angle_gamma   120.00011010
_symmetry_Int_Tables_number   1
_chemical_formula_structural   Mg2GaPt
_chemical_formula_sum   'Mg12 Ga6 Pt6'
_cell_volume   434.44978381
_cell_formula_units_Z   6
loop_
 _symmetry_equiv_pos_site_id
 _symmetry_equiv_pos_as_xyz
  1  'x, y, z'
loop_
 _atom_site_type_symbol
 _atom_site_label
 _atom_site_symmetry_multiplicity
 _atom_site_fract_x
 _atom_site_fract_y
 _atom_site_fract_z
 _atom_site_occupancy
  Mg  Mg0  1  0.288115  0.288536  0.086053  1
  Mg  Mg1  1  0.999335  0.292656  0.587108  1
  Mg  Mg2  1  0.293327  0.000665  0.587108  1
  Mg  Mg3  1  0.711461  0.999581  0.086052  1
  Mg  Mg4  1  0.000415  0.711876  0.086051  1
  Mg  Mg5  1  0.707344  0.706679  0.587107  1
  Mg  Mg6  1  0.365046  0.365987  0.424024  1
  Mg  Mg7  1  0.999579  0.367399  0.925240  1
  Mg  Mg8  1  0.367818  0.000425  0.925230  1
  Mg  Mg9  1  0.634015  0.999059  0.424020  1
  Mg  Mg10  1  0.000941  0.634955  0.424022  1
  Mg  Mg11  1  0.632600  0.632177  0.925238  1
  Ga  Ga12  1  0.666666  0.333334  0.227759  1
  Ga  Ga13  1  0.000001  0.000001  0.310174  1
  Ga  Ga14  1  0.000000  0.000000  0.806917  1
  Ga  Ga15  1  0.333334  0.666667  0.227227  1
  Ga  Ga16  1  0.666668  0.333334  0.729423  1
  Ga  Ga17  1  0.333333  0.666667  0.728783  1
  Pt  Pt18  1  0.330781  0.330944  0.755299  1
  Pt  Pt19  1  0.999904  0.330757  0.256053  1
  Pt  Pt20  1  0.330852  0.000098  0.256054  1
  Pt  Pt21  1  0.669056  0.999837  0.755299  1
  Pt  Pt22  1  0.000164  0.669220  0.755300  1
  Pt  Pt23  1  0.669244  0.669146  0.256054  1
