# generated using pymatgen
data_Y20Tl2Cd3Ni2Ag
_symmetry_space_group_name_H-M   'P 1'
_cell_length_a   9.72936900
_cell_length_b   9.81203594
_cell_length_c   9.66890100
_cell_angle_alpha   90.00000000
_cell_angle_beta   90.00000000
_cell_angle_gamma   120.28146741
_symmetry_Int_Tables_number   1
_chemical_formula_structural   Y20Tl2Cd3Ni2Ag
_chemical_formula_sum   'Y20 Tl2 Cd3 Ni2 Ag1'
_cell_volume   797.09994880
_cell_formula_units_Z   1
loop_
 _symmetry_equiv_pos_site_id
 _symmetry_equiv_pos_as_xyz
  1  'x, y, z'
loop_
 _atom_site_type_symbol
 _atom_site_label
 _atom_site_symmetry_multiplicity
 _atom_site_fract_x
 _atom_site_fract_y
 _atom_site_fract_z
 _atom_site_occupancy
  Y  Y0  1  0.010061  0.005030  0.493199  1
  Y  Y1  1  0.010061  0.005030  0.006801  1
  Y  Y2  1  0.533402  0.447329  0.250000  1
  Y  Y3  1  0.533402  0.086074  0.250000  1
  Y  Y4  1  0.910746  0.455372  0.250000  1
  Y  Y5  1  0.455085  0.544834  0.750000  1
  Y  Y6  1  0.455085  0.910251  0.750000  1
  Y  Y7  1  0.086972  0.543485  0.750000  1
  Y  Y8  1  0.211348  0.788569  0.438130  1
  Y  Y9  1  0.211348  0.422779  0.438130  1
  Y  Y10  1  0.579765  0.789883  0.436069  1
  Y  Y11  1  0.788222  0.209421  0.563102  1
  Y  Y12  1  0.788222  0.578800  0.563102  1
  Y  Y13  1  0.421032  0.210515  0.565627  1
  Y  Y14  1  0.788222  0.209421  0.936898  1
  Y  Y15  1  0.788222  0.578800  0.936898  1
  Y  Y16  1  0.421032  0.210515  0.934373  1
  Y  Y17  1  0.211348  0.788569  0.061870  1
  Y  Y18  1  0.211348  0.422779  0.061870  1
  Y  Y19  1  0.579765  0.789883  0.063931  1
  Tl  Tl20  1  0.879262  0.121500  0.250000  1
  Tl  Tl21  1  0.879262  0.757762  0.250000  1
  Cd  Cd22  1  0.113568  0.883855  0.750000  1
  Cd  Cd23  1  0.113568  0.229712  0.750000  1
  Cd  Cd24  1  0.773916  0.886957  0.750000  1
  Ni  Ni25  1  0.332322  0.666161  0.250000  1
  Ni  Ni26  1  0.671175  0.335587  0.750000  1
  Ag  Ag27  1  0.242240  0.121120  0.250000  1
