# generated using pymatgen
data_Pr6SnGeI6
_symmetry_space_group_name_H-M   'P 1'
_cell_length_a   11.08215567
_cell_length_b   11.08215588
_cell_length_c   11.02628721
_cell_angle_alpha   109.46691622
_cell_angle_beta   109.46691905
_cell_angle_gamma   109.68416424
_symmetry_Int_Tables_number   1
_chemical_formula_structural   Pr6SnGeI6
_chemical_formula_sum   'Pr12 Sn2 Ge2 I12'
_cell_volume   1039.81072739
_cell_formula_units_Z   2
loop_
 _symmetry_equiv_pos_site_id
 _symmetry_equiv_pos_as_xyz
  1  'x, y, z'
loop_
 _atom_site_type_symbol
 _atom_site_label
 _atom_site_symmetry_multiplicity
 _atom_site_fract_x
 _atom_site_fract_y
 _atom_site_fract_z
 _atom_site_occupancy
  Pr  Pr0  1  0.471258  0.492580  0.229942  1
  Pr  Pr1  1  0.762638  0.241316  0.270058  1
  Pr  Pr2  1  0.762273  0.020585  0.493127  1
  Pr  Pr3  1  0.230854  0.472541  0.493127  1
  Pr  Pr4  1  0.258684  0.737362  0.229942  1
  Pr  Pr5  1  0.027459  0.269146  0.006873  1
  Pr  Pr6  1  0.007420  0.028742  0.270058  1
  Pr  Pr7  1  0.479415  0.737727  0.006873  1
  Pr  Pr8  1  0.490833  0.240833  0.481665  1
  Pr  Pr9  1  0.018208  0.481792  0.750000  1
  Pr  Pr10  1  0.259167  0.009167  0.018335  1
  Pr  Pr11  1  0.231792  0.268208  0.750000  1
  Sn  Sn12  1  0.249792  0.250208  0.250000  1
  Sn  Sn13  1  0.500208  0.999792  0.250000  1
  Ge  Ge14  1  0.000299  0.250299  0.500599  1
  Ge  Ge15  1  0.249701  0.499701  0.999401  1
  I  I16  1  0.249617  0.755544  0.742925  1
  I  I17  1  0.512617  0.506692  0.757075  1
  I  I18  1  0.987353  0.743003  0.993475  1
  I  I19  1  0.744456  0.250383  0.757075  1
  I  I20  1  0.993308  0.987383  0.742925  1
  I  I21  1  0.249528  0.993876  0.506525  1
  I  I22  1  0.756997  0.512647  0.506525  1
  I  I23  1  0.506124  0.250472  0.993475  1
  I  I24  1  0.756593  0.743407  0.250000  1
  I  I25  1  0.743950  0.993950  0.987902  1
  I  I26  1  0.993407  0.506593  0.250000  1
  I  I27  1  0.506050  0.756050  0.512098  1
