# generated using pymatgen
data_TbEr2AlAg3Ge2
_symmetry_space_group_name_H-M   'P 1'
_cell_length_a   7.18712200
_cell_length_b   7.20739122
_cell_length_c   4.17864600
_cell_angle_alpha   90.00000000
_cell_angle_beta   90.00000000
_cell_angle_gamma   119.90703231
_symmetry_Int_Tables_number   1
_chemical_formula_structural   TbEr2AlAg3Ge2
_chemical_formula_sum   'Tb1 Er2 Al1 Ag3 Ge2'
_cell_volume   187.63135412
_cell_formula_units_Z   1
loop_
 _symmetry_equiv_pos_site_id
 _symmetry_equiv_pos_as_xyz
  1  'x, y, z'
loop_
 _atom_site_type_symbol
 _atom_site_label
 _atom_site_symmetry_multiplicity
 _atom_site_fract_x
 _atom_site_fract_y
 _atom_site_fract_z
 _atom_site_occupancy
  Tb  Tb0  1  0.572870  0.000000  0.000000  1
  Er  Er1  1  0.426555  0.427055  0.000000  1
  Er  Er2  1  0.999500  0.572945  0.000000  1
  Al  Al3  1  0.002288  0.000000  0.000000  1
  Ag  Ag4  1  0.754971  0.754281  0.500000  1
  Ag  Ag5  1  0.243921  0.000000  0.500000  1
  Ag  Ag6  1  0.000690  0.245719  0.500000  1
  Ge  Ge7  1  0.667159  0.335109  0.500000  1
  Ge  Ge8  1  0.332048  0.664891  0.500000  1
