# generated using pymatgen
data_Tb10Tl5CdS2
_symmetry_space_group_name_H-M   'P 1'
_cell_length_a   9.21022200
_cell_length_b   9.21022166
_cell_length_c   6.62375300
_cell_angle_alpha   90.00000000
_cell_angle_beta   90.00000000
_cell_angle_gamma   119.78580422
_symmetry_Int_Tables_number   1
_chemical_formula_structural   Tb10Tl5CdS2
_chemical_formula_sum   'Tb10 Tl5 Cd1 S2'
_cell_volume   487.65004996
_cell_formula_units_Z   1
loop_
 _symmetry_equiv_pos_site_id
 _symmetry_equiv_pos_as_xyz
  1  'x, y, z'
loop_
 _atom_site_type_symbol
 _atom_site_label
 _atom_site_symmetry_multiplicity
 _atom_site_fract_x
 _atom_site_fract_y
 _atom_site_fract_z
 _atom_site_occupancy
  Tb  Tb0  1  0.665294  0.332729  0.499649  1
  Tb  Tb1  1  0.332729  0.665294  0.499649  1
  Tb  Tb2  1  0.332729  0.665294  0.000351  1
  Tb  Tb3  1  0.665294  0.332729  0.000351  1
  Tb  Tb4  1  0.758319  0.758319  0.250000  1
  Tb  Tb5  1  0.242857  0.001163  0.250000  1
  Tb  Tb6  1  0.001163  0.242857  0.250000  1
  Tb  Tb7  1  0.242511  0.242511  0.750000  1
  Tb  Tb8  1  0.758682  0.000703  0.750000  1
  Tb  Tb9  1  0.000703  0.758682  0.750000  1
  Tl  Tl10  1  0.601580  0.000120  0.250000  1
  Tl  Tl11  1  0.000120  0.601580  0.250000  1
  Tl  Tl12  1  0.598007  0.598007  0.750000  1
  Tl  Tl13  1  0.398665  0.998370  0.750000  1
  Tl  Tl14  1  0.998370  0.398665  0.750000  1
  Cd  Cd15  1  0.402910  0.402910  0.250000  1
  S  S16  1  0.000034  0.000034  0.500367  1
  S  S17  1  0.000034  0.000034  0.999633  1
