# generated using pymatgen
data_Pr6Y10Cd4Ir3Pt
_symmetry_space_group_name_H-M   'P 1'
_cell_length_a   9.80987465
_cell_length_b   9.80987437
_cell_length_c   9.80987416
_cell_angle_alpha   60.08610440
_cell_angle_beta   60.08610418
_cell_angle_gamma   60.08610266
_symmetry_Int_Tables_number   1
_chemical_formula_structural   Pr6Y10Cd4Ir3Pt
_chemical_formula_sum   'Pr6 Y10 Cd4 Ir3 Pt1'
_cell_volume   668.83944677
_cell_formula_units_Z   1
loop_
 _symmetry_equiv_pos_site_id
 _symmetry_equiv_pos_as_xyz
  1  'x, y, z'
loop_
 _atom_site_type_symbol
 _atom_site_label
 _atom_site_symmetry_multiplicity
 _atom_site_fract_x
 _atom_site_fract_y
 _atom_site_fract_z
 _atom_site_occupancy
  Pr  Pr0  1  0.940817  0.559392  0.559392  1
  Pr  Pr1  1  0.560597  0.940629  0.940629  1
  Pr  Pr2  1  0.559392  0.940817  0.559392  1
  Pr  Pr3  1  0.940629  0.560597  0.940629  1
  Pr  Pr4  1  0.559392  0.559392  0.940817  1
  Pr  Pr5  1  0.940629  0.940629  0.560597  1
  Y  Y6  1  0.347090  0.347090  0.347090  1
  Y  Y7  1  0.350286  0.350286  0.954421  1
  Y  Y8  1  0.350286  0.954421  0.350286  1
  Y  Y9  1  0.954421  0.350286  0.350286  1
  Y  Y10  1  0.807145  0.188874  0.188874  1
  Y  Y11  1  0.185562  0.812160  0.812160  1
  Y  Y12  1  0.188874  0.807145  0.188874  1
  Y  Y13  1  0.812160  0.185562  0.812160  1
  Y  Y14  1  0.188874  0.188874  0.807145  1
  Y  Y15  1  0.812160  0.812160  0.185562  1
  Cd  Cd16  1  0.579164  0.579164  0.579164  1
  Cd  Cd17  1  0.579569  0.579569  0.261789  1
  Cd  Cd18  1  0.579569  0.261789  0.579569  1
  Cd  Cd19  1  0.261789  0.579569  0.579569  1
  Ir  Ir20  1  0.141779  0.141779  0.576147  1
  Ir  Ir21  1  0.141779  0.576147  0.141779  1
  Ir  Ir22  1  0.576147  0.141779  0.141779  1
  Pt  Pt23  1  0.141892  0.141892  0.141892  1
