# generated using pymatgen
data_Tb3Dy4Lu5Co5Sn
_symmetry_space_group_name_H-M   'P 1'
_cell_length_a   8.21939344
_cell_length_b   8.20443088
_cell_length_c   8.20443222
_cell_angle_alpha   106.79529824
_cell_angle_beta   110.61567445
_cell_angle_gamma   110.95624029
_symmetry_Int_Tables_number   1
_chemical_formula_structural   Tb3Dy4Lu5Co5Sn
_chemical_formula_sum   'Tb3 Dy4 Lu5 Co5 Sn1'
_cell_volume   425.63684680
_cell_formula_units_Z   1
loop_
 _symmetry_equiv_pos_site_id
 _symmetry_equiv_pos_as_xyz
  1  'x, y, z'
loop_
 _atom_site_type_symbol
 _atom_site_label
 _atom_site_symmetry_multiplicity
 _atom_site_fract_x
 _atom_site_fract_y
 _atom_site_fract_z
 _atom_site_occupancy
  Tb  Tb0  1  0.478771  0.291419  0.187352  1
  Tb  Tb1  1  0.105808  0.292267  0.813540  1
  Tb  Tb2  1  0.894076  0.709837  0.184241  1
  Dy  Dy3  1  0.194980  0.212498  0.406096  1
  Dy  Dy4  1  0.806682  0.790089  0.598961  1
  Dy  Dy5  1  0.194980  0.788884  0.982482  1
  Dy  Dy6  1  0.806682  0.207721  0.016594  1
  Lu  Lu7  1  0.522842  0.709344  0.813498  1
  Lu  Lu8  1  0.309304  0.623614  0.317141  1
  Lu  Lu9  1  0.309304  0.992165  0.685690  1
  Lu  Lu10  1  0.691081  0.377007  0.685113  1
  Lu  Lu11  1  0.691081  0.005967  0.314073  1
  Co  Co12  1  0.498661  0.614876  0.110708  1
  Co  Co13  1  0.498661  0.387953  0.883785  1
  Co  Co14  1  0.377638  0.999768  0.377869  1
  Co  Co15  1  0.620456  0.997936  0.622521  1
  Co  Co16  1  0.999289  0.997565  0.001726  1
  Sn  Sn17  1  0.999702  0.501091  0.498611  1
