# generated using pymatgen
data_LiTmCo3P3Rh
_symmetry_space_group_name_H-M   'P 1'
_cell_length_a   3.70064100
_cell_length_b   10.33888800
_cell_length_c   12.23043900
_cell_angle_alpha   90.00000000
_cell_angle_beta   90.00000000
_cell_angle_gamma   90.00000000
_symmetry_Int_Tables_number   1
_chemical_formula_structural   LiTmCo3P3Rh
_chemical_formula_sum   'Li4 Tm4 Co12 P12 Rh4'
_cell_volume   467.94286824
_cell_formula_units_Z   4
loop_
 _symmetry_equiv_pos_site_id
 _symmetry_equiv_pos_as_xyz
  1  'x, y, z'
loop_
 _atom_site_type_symbol
 _atom_site_label
 _atom_site_symmetry_multiplicity
 _atom_site_fract_x
 _atom_site_fract_y
 _atom_site_fract_z
 _atom_site_occupancy
  Li  Li0  1  0.250000  0.705811  0.990984  1
  Li  Li1  1  0.250000  0.794189  0.490984  1
  Li  Li2  1  0.750000  0.294189  0.009016  1
  Li  Li3  1  0.750000  0.205811  0.509016  1
  Tm  Tm4  1  0.250000  0.581229  0.709493  1
  Tm  Tm5  1  0.250000  0.918771  0.209493  1
  Tm  Tm6  1  0.750000  0.418771  0.290507  1
  Tm  Tm7  1  0.750000  0.081229  0.790507  1
  Co  Co8  1  0.250000  0.220518  0.177241  1
  Co  Co9  1  0.250000  0.279482  0.677241  1
  Co  Co10  1  0.750000  0.779482  0.822759  1
  Co  Co11  1  0.750000  0.720518  0.322759  1
  Co  Co12  1  0.250000  0.882336  0.696020  1
  Co  Co13  1  0.250000  0.617664  0.196020  1
  Co  Co14  1  0.750000  0.117664  0.303980  1
  Co  Co15  1  0.750000  0.382336  0.803980  1
  Co  Co16  1  0.250000  0.467360  0.933953  1
  Co  Co17  1  0.250000  0.032640  0.433953  1
  Co  Co18  1  0.750000  0.532640  0.066047  1
  Co  Co19  1  0.750000  0.967360  0.566047  1
  P  P20  1  0.250000  0.422460  0.114163  1
  P  P21  1  0.250000  0.077540  0.614163  1
  P  P22  1  0.750000  0.577540  0.885837  1
  P  P23  1  0.750000  0.922460  0.385837  1
  P  P24  1  0.250000  0.275076  0.857512  1
  P  P25  1  0.250000  0.224924  0.357512  1
  P  P26  1  0.750000  0.724924  0.142488  1
  P  P27  1  0.750000  0.775076  0.642488  1
  P  P28  1  0.250000  0.604620  0.379552  1
  P  P29  1  0.250000  0.895380  0.879552  1
  P  P30  1  0.750000  0.395380  0.620448  1
  P  P31  1  0.750000  0.104620  0.120448  1
  Rh  Rh32  1  0.250000  0.400506  0.479816  1
  Rh  Rh33  1  0.250000  0.099494  0.979816  1
  Rh  Rh34  1  0.750000  0.599494  0.520184  1
  Rh  Rh35  1  0.750000  0.900506  0.020184  1
