# generated using pymatgen
data_Y4Al4PdRh3
_symmetry_space_group_name_H-M   'P 1'
_cell_length_a   4.29413300
_cell_length_b   6.92082166
_cell_length_c   7.90453676
_cell_angle_alpha   90.05010740
_cell_angle_beta   90.00000000
_cell_angle_gamma   90.00000000
_symmetry_Int_Tables_number   1
_chemical_formula_structural   Y4Al4PdRh3
_chemical_formula_sum   'Y4 Al4 Pd1 Rh3'
_cell_volume   234.91427429
_cell_formula_units_Z   1
loop_
 _symmetry_equiv_pos_site_id
 _symmetry_equiv_pos_as_xyz
  1  'x, y, z'
loop_
 _atom_site_type_symbol
 _atom_site_label
 _atom_site_symmetry_multiplicity
 _atom_site_fract_x
 _atom_site_fract_y
 _atom_site_fract_z
 _atom_site_occupancy
  Y  Y0  1  0.250000  0.028467  0.322500  1
  Y  Y1  1  0.250000  0.536983  0.181363  1
  Y  Y2  1  0.750000  0.968920  0.680579  1
  Y  Y3  1  0.750000  0.471547  0.815782  1
  Al  Al4  1  0.250000  0.138648  0.935153  1
  Al  Al5  1  0.250000  0.639304  0.562497  1
  Al  Al6  1  0.750000  0.855782  0.062052  1
  Al  Al7  1  0.750000  0.362542  0.439576  1
  Pd  Pd8  1  0.750000  0.228005  0.118871  1
  Rh  Rh9  1  0.250000  0.268929  0.617068  1
  Rh  Rh10  1  0.250000  0.769127  0.882896  1
  Rh  Rh11  1  0.750000  0.731746  0.381663  1
