# generated using pymatgen
data_Hf3Ga2PdC
_symmetry_space_group_name_H-M   'P 1'
_cell_length_a   8.59931454
_cell_length_b   8.59931439
_cell_length_c   8.59931600
_cell_angle_alpha   60.00000150
_cell_angle_beta   60.00000207
_cell_angle_gamma   60.00000303
_symmetry_Int_Tables_number   1
_chemical_formula_structural   Hf3Ga2PdC
_chemical_formula_sum   'Hf12 Ga8 Pd4 C4'
_cell_volume   449.65206631
_cell_formula_units_Z   4
loop_
 _symmetry_equiv_pos_site_id
 _symmetry_equiv_pos_as_xyz
  1  'x, y, z'
loop_
 _atom_site_type_symbol
 _atom_site_label
 _atom_site_symmetry_multiplicity
 _atom_site_fract_x
 _atom_site_fract_y
 _atom_site_fract_z
 _atom_site_occupancy
  Hf  Hf0  1  0.439203  0.439203  0.060797  1
  Hf  Hf1  1  0.060797  0.439203  0.060797  1
  Hf  Hf2  1  0.439203  0.060797  0.060797  1
  Hf  Hf3  1  0.060797  0.060797  0.439203  1
  Hf  Hf4  1  0.439203  0.060797  0.439203  1
  Hf  Hf5  1  0.060797  0.439203  0.439203  1
  Hf  Hf6  1  0.810797  0.810797  0.189203  1
  Hf  Hf7  1  0.189203  0.810797  0.189203  1
  Hf  Hf8  1  0.810797  0.189203  0.189203  1
  Hf  Hf9  1  0.189203  0.189203  0.810797  1
  Hf  Hf10  1  0.810797  0.189203  0.810797  1
  Hf  Hf11  1  0.189203  0.810797  0.810797  1
  Ga  Ga12  1  0.834190  0.834190  0.497431  1
  Ga  Ga13  1  0.834190  0.497431  0.834190  1
  Ga  Ga14  1  0.497431  0.834190  0.834190  1
  Ga  Ga15  1  0.834190  0.834190  0.834190  1
  Ga  Ga16  1  0.415810  0.415810  0.752569  1
  Ga  Ga17  1  0.415810  0.752569  0.415810  1
  Ga  Ga18  1  0.752569  0.415810  0.415810  1
  Ga  Ga19  1  0.415810  0.415810  0.415810  1
  Pd  Pd20  1  0.625000  0.625000  0.125000  1
  Pd  Pd21  1  0.625000  0.125000  0.625000  1
  Pd  Pd22  1  0.125000  0.625000  0.625000  1
  Pd  Pd23  1  0.625000  0.625000  0.625000  1
  C  C24  1  0.125000  0.125000  0.625000  1
  C  C25  1  0.125000  0.625000  0.125000  1
  C  C26  1  0.625000  0.125000  0.125000  1
  C  C27  1  0.125000  0.125000  0.125000  1
