# generated using pymatgen
data_Dy4B16IrOs2Rh
_symmetry_space_group_name_H-M   'P 1'
_cell_length_a   3.57125400
_cell_length_b   5.96680080
_cell_length_c   11.56349606
_cell_angle_alpha   89.91415695
_cell_angle_beta   90.00000000
_cell_angle_gamma   90.00000000
_symmetry_Int_Tables_number   1
_chemical_formula_structural   Dy4B16IrOs2Rh
_chemical_formula_sum   'Dy4 B16 Ir1 Os2 Rh1'
_cell_volume   246.40581268
_cell_formula_units_Z   1
loop_
 _symmetry_equiv_pos_site_id
 _symmetry_equiv_pos_as_xyz
  1  'x, y, z'
loop_
 _atom_site_type_symbol
 _atom_site_label
 _atom_site_symmetry_multiplicity
 _atom_site_fract_x
 _atom_site_fract_y
 _atom_site_fract_z
 _atom_site_occupancy
  Dy  Dy0  1  0.000000  0.629709  0.351352  1
  Dy  Dy1  1  0.000000  0.370404  0.649005  1
  Dy  Dy2  1  0.000000  0.129625  0.149521  1
  Dy  Dy3  1  0.000000  0.870573  0.850298  1
  B  B4  1  0.500000  0.788973  0.187569  1
  B  B5  1  0.500000  0.211645  0.812331  1
  B  B6  1  0.500000  0.288998  0.313461  1
  B  B7  1  0.500000  0.711081  0.686593  1
  B  B8  1  0.500000  0.863074  0.029554  1
  B  B9  1  0.500000  0.137328  0.970318  1
  B  B10  1  0.500000  0.363456  0.469943  1
  B  B11  1  0.500000  0.636588  0.530278  1
  B  B12  1  0.500000  0.887817  0.453663  1
  B  B13  1  0.500000  0.112176  0.546490  1
  B  B14  1  0.500000  0.387823  0.047546  1
  B  B15  1  0.500000  0.612139  0.952911  1
  B  B16  1  0.500000  0.974400  0.308494  1
  B  B17  1  0.500000  0.025798  0.691737  1
  B  B18  1  0.500000  0.477041  0.193162  1
  B  B19  1  0.500000  0.522445  0.806775  1
  Ir  Ir20  1  0.000000  0.641818  0.095416  1
  Os  Os21  1  0.000000  0.141913  0.406499  1
  Os  Os22  1  0.000000  0.858294  0.592933  1
  Rh  Rh23  1  0.000000  0.356883  0.904149  1
