# generated using pymatgen
data_Zr10SnBi6Pt
_symmetry_space_group_name_H-M   'P 1'
_cell_length_a   8.98225800
_cell_length_b   8.98225920
_cell_length_c   5.96729400
_cell_angle_alpha   90.00000000
_cell_angle_beta   90.00000000
_cell_angle_gamma   119.99999557
_symmetry_Int_Tables_number   1
_chemical_formula_structural   Zr10SnBi6Pt
_chemical_formula_sum   'Zr10 Sn1 Bi6 Pt1'
_cell_volume   416.94540808
_cell_formula_units_Z   1
loop_
 _symmetry_equiv_pos_site_id
 _symmetry_equiv_pos_as_xyz
  1  'x, y, z'
loop_
 _atom_site_type_symbol
 _atom_site_label
 _atom_site_symmetry_multiplicity
 _atom_site_fract_x
 _atom_site_fract_y
 _atom_site_fract_z
 _atom_site_occupancy
  Zr  Zr0  1  0.727697  0.000000  0.259799  1
  Zr  Zr1  1  0.000000  0.727697  0.259799  1
  Zr  Zr2  1  0.272303  0.272303  0.259799  1
  Zr  Zr3  1  0.272303  0.000000  0.740201  1
  Zr  Zr4  1  0.000000  0.272303  0.740201  1
  Zr  Zr5  1  0.727697  0.727697  0.740201  1
  Zr  Zr6  1  0.333333  0.666667  0.500000  1
  Zr  Zr7  1  0.666667  0.333333  0.500000  1
  Zr  Zr8  1  0.666667  0.333333  0.000000  1
  Zr  Zr9  1  0.333333  0.666667  0.000000  1
  Sn  Sn10  1  0.000000  0.000000  0.000000  1
  Bi  Bi11  1  0.385616  0.000000  0.248923  1
  Bi  Bi12  1  0.000000  0.385616  0.248923  1
  Bi  Bi13  1  0.614384  0.614384  0.248923  1
  Bi  Bi14  1  0.614384  0.000000  0.751077  1
  Bi  Bi15  1  0.000000  0.614384  0.751077  1
  Bi  Bi16  1  0.385616  0.385616  0.751077  1
  Pt  Pt17  1  0.000000  0.000000  0.500000  1
