# generated using pymatgen
data_DyTm3GaSi3
_symmetry_space_group_name_H-M   'P 1'
_cell_length_a   3.84100200
_cell_length_b   4.26599500
_cell_length_c   10.49635200
_cell_angle_alpha   90.00000000
_cell_angle_beta   90.00000000
_cell_angle_gamma   90.00000000
_symmetry_Int_Tables_number   1
_chemical_formula_structural   DyTm3GaSi3
_chemical_formula_sum   'Dy1 Tm3 Ga1 Si3'
_cell_volume   171.99002592
_cell_formula_units_Z   1
loop_
 _symmetry_equiv_pos_site_id
 _symmetry_equiv_pos_as_xyz
  1  'x, y, z'
loop_
 _atom_site_type_symbol
 _atom_site_label
 _atom_site_symmetry_multiplicity
 _atom_site_fract_x
 _atom_site_fract_y
 _atom_site_fract_z
 _atom_site_occupancy
  Dy  Dy0  1  0.500000  0.000000  0.639127  1
  Tm  Tm1  1  0.000000  0.000000  0.362071  1
  Tm  Tm2  1  0.000000  0.500000  0.858219  1
  Tm  Tm3  1  0.500000  0.500000  0.141652  1
  Ga  Ga4  1  0.000000  0.000000  0.077655  1
  Si  Si5  1  0.000000  0.500000  0.576244  1
  Si  Si6  1  0.500000  0.500000  0.423545  1
  Si  Si7  1  0.500000  0.000000  0.921490  1
