# generated using pymatgen
data_Eu2BN2F
_symmetry_space_group_name_H-M   'P 1'
_cell_length_a   3.86301500
_cell_length_b   9.77958800
_cell_length_c   10.15017700
_cell_angle_alpha   90.00000000
_cell_angle_beta   90.00000000
_cell_angle_gamma   90.00000000
_symmetry_Int_Tables_number   1
_chemical_formula_structural   Eu2BN2F
_chemical_formula_sum   'Eu8 B4 N8 F4'
_cell_volume   383.46044248
_cell_formula_units_Z   4
loop_
 _symmetry_equiv_pos_site_id
 _symmetry_equiv_pos_as_xyz
  1  'x, y, z'
loop_
 _atom_site_type_symbol
 _atom_site_label
 _atom_site_symmetry_multiplicity
 _atom_site_fract_x
 _atom_site_fract_y
 _atom_site_fract_z
 _atom_site_occupancy
  Eu  Eu0  1  0.250000  0.682569  0.020414  1
  Eu  Eu1  1  0.750000  0.817431  0.520414  1
  Eu  Eu2  1  0.250000  0.182569  0.479586  1
  Eu  Eu3  1  0.750000  0.317431  0.979586  1
  Eu  Eu4  1  0.250000  0.527295  0.658435  1
  Eu  Eu5  1  0.750000  0.472705  0.341565  1
  Eu  Eu6  1  0.250000  0.027295  0.841565  1
  Eu  Eu7  1  0.750000  0.972705  0.158435  1
  B  B8  1  0.250000  0.728343  0.326219  1
  B  B9  1  0.750000  0.271657  0.673781  1
  B  B10  1  0.250000  0.228343  0.173781  1
  B  B11  1  0.750000  0.771657  0.826219  1
  N  N12  1  0.250000  0.647618  0.435951  1
  N  N13  1  0.750000  0.352382  0.564049  1
  N  N14  1  0.250000  0.147618  0.064049  1
  N  N15  1  0.750000  0.181960  0.773890  1
  N  N16  1  0.250000  0.318040  0.273890  1
  N  N17  1  0.750000  0.681960  0.726110  1
  N  N18  1  0.250000  0.818040  0.226110  1
  N  N19  1  0.750000  0.852382  0.935951  1
  F  F20  1  0.750000  0.545327  0.101907  1
  F  F21  1  0.750000  0.045327  0.398093  1
  F  F22  1  0.250000  0.454673  0.898093  1
  F  F23  1  0.250000  0.954673  0.601907  1
