# generated using pymatgen
data_Ho3PaCo3
_symmetry_space_group_name_H-M   'P 1'
_cell_length_a   5.84765192
_cell_length_b   5.84765063
_cell_length_c   14.08039800
_cell_angle_alpha   90.00000000
_cell_angle_beta   90.00000000
_cell_angle_gamma   143.27010296
_symmetry_Int_Tables_number   1
_chemical_formula_structural   Ho3PaCo3
_chemical_formula_sum   'Ho6 Pa2 Co6'
_cell_volume   287.94569361
_cell_formula_units_Z   2
loop_
 _symmetry_equiv_pos_site_id
 _symmetry_equiv_pos_as_xyz
  1  'x, y, z'
loop_
 _atom_site_type_symbol
 _atom_site_label
 _atom_site_symmetry_multiplicity
 _atom_site_fract_x
 _atom_site_fract_y
 _atom_site_fract_z
 _atom_site_occupancy
  Ho  Ho0  1  0.003009  0.996991  0.250000  1
  Ho  Ho1  1  0.996991  0.003009  0.750000  1
  Ho  Ho2  1  0.720893  0.279107  0.615575  1
  Ho  Ho3  1  0.279107  0.720893  0.384425  1
  Ho  Ho4  1  0.279107  0.720893  0.115575  1
  Ho  Ho5  1  0.720893  0.279107  0.884425  1
  Pa  Pa6  1  0.000000  0.000000  0.000000  1
  Pa  Pa7  1  0.000000  0.000000  0.500000  1
  Co  Co8  1  0.702002  0.297998  0.250000  1
  Co  Co9  1  0.297998  0.702002  0.750000  1
  Co  Co10  1  0.422783  0.577217  0.602312  1
  Co  Co11  1  0.577217  0.422783  0.397688  1
  Co  Co12  1  0.577217  0.422783  0.102312  1
  Co  Co13  1  0.422783  0.577217  0.897688  1
