# generated using pymatgen
data_Dy4Mn2OsRu5
_symmetry_space_group_name_H-M   'P 1'
_cell_length_a   5.34382786
_cell_length_b   5.20469684
_cell_length_c   8.92694800
_cell_angle_alpha   90.00000000
_cell_angle_beta   90.00000000
_cell_angle_gamma   120.52550599
_symmetry_Int_Tables_number   1
_chemical_formula_structural   Dy4Mn2OsRu5
_chemical_formula_sum   'Dy4 Mn2 Os1 Ru5'
_cell_volume   213.87368474
_cell_formula_units_Z   1
loop_
 _symmetry_equiv_pos_site_id
 _symmetry_equiv_pos_as_xyz
  1  'x, y, z'
loop_
 _atom_site_type_symbol
 _atom_site_label
 _atom_site_symmetry_multiplicity
 _atom_site_fract_x
 _atom_site_fract_y
 _atom_site_fract_z
 _atom_site_occupancy
  Dy  Dy0  1  0.668766  0.337587  0.564551  1
  Dy  Dy1  1  0.332703  0.666653  0.434903  1
  Dy  Dy2  1  0.332703  0.666653  0.065097  1
  Dy  Dy3  1  0.668766  0.337587  0.935449  1
  Mn  Mn4  1  0.164786  0.825142  0.750000  1
  Mn  Mn5  1  0.832978  0.665208  0.250000  1
  Os  Os6  1  0.163751  0.329096  0.750000  1
  Ru  Ru7  1  0.005803  0.005836  0.499759  1
  Ru  Ru8  1  0.005803  0.005836  0.000241  1
  Ru  Ru9  1  0.648244  0.818856  0.750000  1
  Ru  Ru10  1  0.829176  0.169103  0.250000  1
  Ru  Ru11  1  0.346520  0.172444  0.250000  1
