# generated using pymatgen
data_Ce2Dy3CoBi2
_symmetry_space_group_name_H-M   'P 1'
_cell_length_a   7.96143000
_cell_length_b   9.06317300
_cell_length_c   12.24515500
_cell_angle_alpha   90.00000000
_cell_angle_beta   90.00000000
_cell_angle_gamma   90.00000000
_symmetry_Int_Tables_number   1
_chemical_formula_structural   Ce2Dy3CoBi2
_chemical_formula_sum   'Ce8 Dy12 Co4 Bi8'
_cell_volume   883.55916843
_cell_formula_units_Z   4
loop_
 _symmetry_equiv_pos_site_id
 _symmetry_equiv_pos_as_xyz
  1  'x, y, z'
loop_
 _atom_site_type_symbol
 _atom_site_label
 _atom_site_symmetry_multiplicity
 _atom_site_fract_x
 _atom_site_fract_y
 _atom_site_fract_z
 _atom_site_occupancy
  Ce  Ce0  1  0.655149  0.012869  0.551101  1
  Ce  Ce1  1  0.344851  0.987131  0.448899  1
  Ce  Ce2  1  0.155149  0.987131  0.948899  1
  Ce  Ce3  1  0.344851  0.512869  0.448899  1
  Ce  Ce4  1  0.844851  0.012869  0.051101  1
  Ce  Ce5  1  0.655149  0.487131  0.551101  1
  Ce  Ce6  1  0.844851  0.487131  0.051101  1
  Ce  Ce7  1  0.155149  0.512869  0.948899  1
  Dy  Dy8  1  0.838021  0.750000  0.791814  1
  Dy  Dy9  1  0.161979  0.250000  0.208186  1
  Dy  Dy10  1  0.338021  0.250000  0.708186  1
  Dy  Dy11  1  0.661979  0.750000  0.291814  1
  Dy  Dy12  1  0.367785  0.750000  0.701730  1
  Dy  Dy13  1  0.632215  0.250000  0.298270  1
  Dy  Dy14  1  0.867785  0.250000  0.798270  1
  Dy  Dy15  1  0.132215  0.750000  0.201730  1
  Dy  Dy16  1  0.979033  0.750000  0.500255  1
  Dy  Dy17  1  0.020967  0.250000  0.499745  1
  Dy  Dy18  1  0.479033  0.250000  0.999745  1
  Dy  Dy19  1  0.520967  0.750000  0.000255  1
  Co  Co20  1  0.629742  0.750000  0.538761  1
  Co  Co21  1  0.370258  0.250000  0.461239  1
  Co  Co22  1  0.129742  0.250000  0.961239  1
  Co  Co23  1  0.870258  0.750000  0.038761  1
  Bi  Bi24  1  0.567490  0.493963  0.825531  1
  Bi  Bi25  1  0.432510  0.506037  0.174469  1
  Bi  Bi26  1  0.067490  0.506037  0.674469  1
  Bi  Bi27  1  0.432510  0.993963  0.174469  1
  Bi  Bi28  1  0.932510  0.493963  0.325531  1
  Bi  Bi29  1  0.567490  0.006037  0.825531  1
  Bi  Bi30  1  0.932510  0.006037  0.325531  1
  Bi  Bi31  1  0.067490  0.993963  0.674469  1
