# generated using pymatgen
data_NdFe3Sb12Rh
_symmetry_space_group_name_H-M   'P 1'
_cell_length_a   7.99135840
_cell_length_b   8.00981917
_cell_length_c   8.00981966
_cell_angle_alpha   109.51786031
_cell_angle_beta   109.42453789
_cell_angle_gamma   109.42453724
_symmetry_Int_Tables_number   1
_chemical_formula_structural   NdFe3Sb12Rh
_chemical_formula_sum   'Nd1 Fe3 Sb12 Rh1'
_cell_volume   394.90630717
_cell_formula_units_Z   1
loop_
 _symmetry_equiv_pos_site_id
 _symmetry_equiv_pos_as_xyz
  1  'x, y, z'
loop_
 _atom_site_type_symbol
 _atom_site_label
 _atom_site_symmetry_multiplicity
 _atom_site_fract_x
 _atom_site_fract_y
 _atom_site_fract_z
 _atom_site_occupancy
  Nd  Nd0  1  0.000000  0.000000  0.000000  1
  Fe  Fe1  1  0.000000  0.000000  0.500000  1
  Fe  Fe2  1  0.000000  0.500000  0.000000  1
  Fe  Fe3  1  0.500000  0.500000  0.500000  1
  Sb  Sb4  1  0.151918  0.821597  0.655398  1
  Sb  Sb5  1  0.848082  0.178403  0.344602  1
  Sb  Sb6  1  0.669679  0.166199  0.821597  1
  Sb  Sb7  1  0.503480  0.655398  0.833801  1
  Sb  Sb8  1  0.666813  0.837698  0.503972  1
  Sb  Sb9  1  0.496520  0.344602  0.166199  1
  Sb  Sb10  1  0.330321  0.833801  0.178403  1
  Sb  Sb11  1  0.170884  0.333725  0.837698  1
  Sb  Sb12  1  0.829116  0.666275  0.162302  1
  Sb  Sb13  1  0.333187  0.162302  0.496028  1
  Sb  Sb14  1  0.837159  0.503972  0.666275  1
  Sb  Sb15  1  0.162841  0.496028  0.333725  1
  Rh  Rh16  1  0.500000  0.000000  0.000000  1
