# generated using pymatgen
data_YbEr9In8Pd3Pt
_symmetry_space_group_name_H-M   'P 1'
_cell_length_a   3.62209000
_cell_length_b   8.08422050
_cell_length_c   18.18576856
_cell_angle_alpha   89.98725421
_cell_angle_beta   90.00000000
_cell_angle_gamma   90.00000000
_symmetry_Int_Tables_number   1
_chemical_formula_structural   YbEr9In8Pd3Pt
_chemical_formula_sum   'Yb1 Er9 In8 Pd3 Pt1'
_cell_volume   532.51155613
_cell_formula_units_Z   1
loop_
 _symmetry_equiv_pos_site_id
 _symmetry_equiv_pos_as_xyz
  1  'x, y, z'
loop_
 _atom_site_type_symbol
 _atom_site_label
 _atom_site_symmetry_multiplicity
 _atom_site_fract_x
 _atom_site_fract_y
 _atom_site_fract_z
 _atom_site_occupancy
  Yb  Yb0  1  0.000000  0.999734  0.000040  1
  Er  Er1  1  0.000000  0.118094  0.415357  1
  Er  Er2  1  0.000000  0.881539  0.584366  1
  Er  Er3  1  0.000000  0.379967  0.915451  1
  Er  Er4  1  0.000000  0.619289  0.085671  1
  Er  Er5  1  0.000000  0.247967  0.220600  1
  Er  Er6  1  0.000000  0.756805  0.779535  1
  Er  Er7  1  0.000000  0.257068  0.719926  1
  Er  Er8  1  0.000000  0.738754  0.279011  1
  Er  Er9  1  0.000000  0.500306  0.499973  1
  In  In10  1  0.500000  0.422603  0.352571  1
  In  In11  1  0.500000  0.576352  0.648776  1
  In  In12  1  0.500000  0.074749  0.850372  1
  In  In13  1  0.500000  0.927290  0.149446  1
  In  In14  1  0.500000  0.293523  0.066932  1
  In  In15  1  0.500000  0.705805  0.932270  1
  In  In16  1  0.500000  0.207908  0.566936  1
  In  In17  1  0.500000  0.792471  0.432779  1
  Pd  Pd18  1  0.500000  0.025124  0.304392  1
  Pd  Pd19  1  0.500000  0.974833  0.695469  1
  Pd  Pd20  1  0.500000  0.476179  0.803625  1
  Pt  Pt21  1  0.500000  0.523639  0.196502  1
