# generated using pymatgen
data_Er6GaSi5Rh12
_symmetry_space_group_name_H-M   'P 1'
_cell_length_a   5.56294300
_cell_length_b   5.56294142
_cell_length_c   15.09002500
_cell_angle_alpha   90.00000000
_cell_angle_beta   90.00000000
_cell_angle_gamma   119.99999155
_symmetry_Int_Tables_number   1
_chemical_formula_structural   Er6GaSi5Rh12
_chemical_formula_sum   'Er6 Ga1 Si5 Rh12'
_cell_volume   404.41729933
_cell_formula_units_Z   1
loop_
 _symmetry_equiv_pos_site_id
 _symmetry_equiv_pos_as_xyz
  1  'x, y, z'
loop_
 _atom_site_type_symbol
 _atom_site_label
 _atom_site_symmetry_multiplicity
 _atom_site_fract_x
 _atom_site_fract_y
 _atom_site_fract_z
 _atom_site_occupancy
  Er  Er0  1  0.333333  0.666667  0.537482  1
  Er  Er1  1  0.666667  0.333333  0.462518  1
  Er  Er2  1  0.666667  0.333333  0.037626  1
  Er  Er3  1  0.333333  0.666667  0.962374  1
  Er  Er4  1  0.333333  0.666667  0.750167  1
  Er  Er5  1  0.666667  0.333333  0.249833  1
  Ga  Ga6  1  0.000000  0.000000  0.000000  1
  Si  Si7  1  0.000000  0.000000  0.250643  1
  Si  Si8  1  0.000000  0.000000  0.749357  1
  Si  Si9  1  0.333333  0.666667  0.251487  1
  Si  Si10  1  0.666667  0.333333  0.748513  1
  Si  Si11  1  0.000000  0.000000  0.500000  1
  Rh  Rh12  1  0.168030  0.336061  0.133545  1
  Rh  Rh13  1  0.831970  0.663939  0.866455  1
  Rh  Rh14  1  0.663939  0.831970  0.133545  1
  Rh  Rh15  1  0.833260  0.666520  0.629949  1
  Rh  Rh16  1  0.336061  0.168030  0.866455  1
  Rh  Rh17  1  0.166740  0.333480  0.370051  1
  Rh  Rh18  1  0.168030  0.831970  0.133545  1
  Rh  Rh19  1  0.333480  0.166740  0.629949  1
  Rh  Rh20  1  0.831970  0.168030  0.866455  1
  Rh  Rh21  1  0.666520  0.833260  0.370051  1
  Rh  Rh22  1  0.833260  0.166740  0.629949  1
  Rh  Rh23  1  0.166740  0.833260  0.370051  1
