# generated using pymatgen
data_Y2Ga7Ni2Ag
_symmetry_space_group_name_H-M   'P 1'
_cell_length_a   8.02621853
_cell_length_b   8.02621855
_cell_length_c   6.44944113
_cell_angle_alpha   91.05375303
_cell_angle_beta   88.94624918
_cell_angle_gamma   149.99714086
_symmetry_Int_Tables_number   1
_chemical_formula_structural   Y2Ga7Ni2Ag
_chemical_formula_sum   'Y2 Ga7 Ni2 Ag1'
_cell_volume   207.71738889
_cell_formula_units_Z   1
loop_
 _symmetry_equiv_pos_site_id
 _symmetry_equiv_pos_as_xyz
  1  'x, y, z'
loop_
 _atom_site_type_symbol
 _atom_site_label
 _atom_site_symmetry_multiplicity
 _atom_site_fract_x
 _atom_site_fract_y
 _atom_site_fract_z
 _atom_site_occupancy
  Y  Y0  1  0.377540  0.622460  0.737510  1
  Y  Y1  1  0.622460  0.377540  0.262490  1
  Ga  Ga2  1  0.000000  0.000000  0.500000  1
  Ga  Ga3  1  0.569634  0.430366  0.759877  1
  Ga  Ga4  1  0.430366  0.569634  0.240123  1
  Ga  Ga5  1  0.184955  0.815045  0.955669  1
  Ga  Ga6  1  0.815045  0.184955  0.044331  1
  Ga  Ga7  1  0.186897  0.813103  0.553178  1
  Ga  Ga8  1  0.813103  0.186897  0.446822  1
  Ni  Ni9  1  0.721194  0.278806  0.749991  1
  Ni  Ni10  1  0.278806  0.721194  0.250009  1
  Ag  Ag11  1  0.000000  0.000000  0.000000  1
