# generated using pymatgen
data_Rb2Mn2ZnSe4
_symmetry_space_group_name_H-M   'P 1'
_cell_length_a   9.83244566
_cell_length_b   9.83244542
_cell_length_c   9.83244641
_cell_angle_alpha   143.80671247
_cell_angle_beta   104.79466448
_cell_angle_gamma   86.42326567
_symmetry_Int_Tables_number   1
_chemical_formula_structural   Rb2Mn2ZnSe4
_chemical_formula_sum   'Rb4 Mn4 Zn2 Se8'
_cell_volume   525.24338550
_cell_formula_units_Z   2
loop_
 _symmetry_equiv_pos_site_id
 _symmetry_equiv_pos_as_xyz
  1  'x, y, z'
loop_
 _atom_site_type_symbol
 _atom_site_label
 _atom_site_symmetry_multiplicity
 _atom_site_fract_x
 _atom_site_fract_y
 _atom_site_fract_z
 _atom_site_occupancy
  Rb  Rb0  1  0.122304  0.234839  0.357988  1
  Rb  Rb1  1  0.377696  0.735684  0.112535  1
  Rb  Rb2  1  0.623149  0.265161  0.887465  1
  Rb  Rb3  1  0.876851  0.764316  0.642012  1
  Mn  Mn4  1  0.479858  0.250000  0.229858  1
  Mn  Mn5  1  0.750000  0.250000  0.500000  1
  Mn  Mn6  1  0.250000  0.750000  0.500000  1
  Mn  Mn7  1  0.020142  0.250000  0.770142  1
  Zn  Zn8  1  0.517786  0.750000  0.767786  1
  Zn  Zn9  1  0.982214  0.750000  0.232214  1
  Se  Se10  1  0.219483  0.073011  0.585847  1
  Se  Se11  1  0.280517  0.866365  0.853528  1
  Se  Se12  1  0.012837  0.426989  0.146472  1
  Se  Se13  1  0.487163  0.633635  0.414153  1
  Se  Se14  1  0.781825  0.919705  0.403070  1
  Se  Se15  1  0.718175  0.121245  0.137880  1
  Se  Se16  1  0.983365  0.580295  0.862120  1
  Se  Se17  1  0.516635  0.378755  0.596930  1
