# generated using pymatgen
data_YInPdPt
_symmetry_space_group_name_H-M   'P 1'
_cell_length_a   4.59882900
_cell_length_b   4.59882947
_cell_length_c   9.05991500
_cell_angle_alpha   90.00000000
_cell_angle_beta   90.00000000
_cell_angle_gamma   120.00000379
_symmetry_Int_Tables_number   1
_chemical_formula_structural   YInPdPt
_chemical_formula_sum   'Y2 In2 Pd2 Pt2'
_cell_volume   165.93931986
_cell_formula_units_Z   2
loop_
 _symmetry_equiv_pos_site_id
 _symmetry_equiv_pos_as_xyz
  1  'x, y, z'
loop_
 _atom_site_type_symbol
 _atom_site_label
 _atom_site_symmetry_multiplicity
 _atom_site_fract_x
 _atom_site_fract_y
 _atom_site_fract_z
 _atom_site_occupancy
  Y  Y0  1  0.666667  0.333333  0.744457  1
  Y  Y1  1  0.333333  0.666667  0.255543  1
  In  In2  1  0.000000  0.000000  0.000000  1
  In  In3  1  0.000000  0.000000  0.500000  1
  Pd  Pd4  1  0.666667  0.333333  0.087111  1
  Pd  Pd5  1  0.333333  0.666667  0.912889  1
  Pt  Pt6  1  0.333333  0.666667  0.594490  1
  Pt  Pt7  1  0.666667  0.333333  0.405510  1
