# generated using pymatgen
data_Tb3Ga5Ni
_symmetry_space_group_name_H-M   'P 1'
_cell_length_a   6.92787800
_cell_length_b   6.92787720
_cell_length_c   4.25554100
_cell_angle_alpha   90.00000000
_cell_angle_beta   90.00000000
_cell_angle_gamma   119.99999425
_symmetry_Int_Tables_number   1
_chemical_formula_structural   Tb3Ga5Ni
_chemical_formula_sum   'Tb3 Ga5 Ni1'
_cell_volume   176.88289934
_cell_formula_units_Z   1
loop_
 _symmetry_equiv_pos_site_id
 _symmetry_equiv_pos_as_xyz
  1  'x, y, z'
loop_
 _atom_site_type_symbol
 _atom_site_label
 _atom_site_symmetry_multiplicity
 _atom_site_fract_x
 _atom_site_fract_y
 _atom_site_fract_z
 _atom_site_occupancy
  Tb  Tb0  1  0.597135  0.000000  0.500001  1
  Tb  Tb1  1  0.402865  0.402864  0.500001  1
  Tb  Tb2  1  0.000000  0.597135  0.500001  1
  Ga  Ga3  1  0.234620  0.000000  0.000000  1
  Ga  Ga4  1  0.000000  0.234621  0.000000  1
  Ga  Ga5  1  0.666667  0.333334  0.000000  1
  Ga  Ga6  1  0.333334  0.666667  0.000000  1
  Ga  Ga7  1  0.765380  0.765380  0.000000  1
  Ni  Ni8  1  0.000000  0.000000  0.500001  1
