# generated using pymatgen
data_LiHf3(Co4As3)2
_symmetry_space_group_name_H-M   'P 1'
_cell_length_a   12.38428376
_cell_length_b   12.39225309
_cell_length_c   3.74044000
_cell_angle_alpha   90.00000000
_cell_angle_beta   90.00000000
_cell_angle_gamma   120.02129282
_symmetry_Int_Tables_number   1
_chemical_formula_structural   LiHf3(Co4As3)2
_chemical_formula_sum   'Li2 Hf6 Co16 As12'
_cell_volume   497.02847524
_cell_formula_units_Z   2
loop_
 _symmetry_equiv_pos_site_id
 _symmetry_equiv_pos_as_xyz
  1  'x, y, z'
loop_
 _atom_site_type_symbol
 _atom_site_label
 _atom_site_symmetry_multiplicity
 _atom_site_fract_x
 _atom_site_fract_y
 _atom_site_fract_z
 _atom_site_occupancy
  Li  Li0  1  0.441130  0.440142  0.000000  1
  Li  Li1  1  0.558870  0.999010  0.000000  1
  Hf  Hf2  1  0.811505  0.808840  0.500000  1
  Hf  Hf3  1  0.000000  0.179067  0.500000  1
  Hf  Hf4  1  0.334201  0.664198  0.000000  1
  Hf  Hf5  1  0.665799  0.329994  0.000000  1
  Hf  Hf6  1  0.000000  0.557635  0.000000  1
  Hf  Hf7  1  0.188495  0.997336  0.500000  1
  Co  Co8  1  0.624365  0.822351  0.000000  1
  Co  Co9  1  0.375635  0.197984  0.000000  1
  Co  Co10  1  0.000000  0.719890  0.500000  1
  Co  Co11  1  0.282076  0.282303  0.500000  1
  Co  Co12  1  0.873354  0.351715  0.500000  1
  Co  Co13  1  0.717924  0.000227  0.500000  1
  Co  Co14  1  0.821296  0.630132  0.000000  1
  Co  Co15  1  0.178704  0.808836  0.000000  1
  Co  Co16  1  0.352940  0.874873  0.500000  1
  Co  Co17  1  0.126646  0.478361  0.500000  1
  Co  Co18  1  0.647060  0.521932  0.500000  1
  Co  Co19  1  0.000000  0.003552  0.000000  1
  Co  Co20  1  0.521301  0.651290  0.500000  1
  Co  Co21  1  0.478699  0.129988  0.500000  1
  Co  Co22  1  0.200639  0.376925  0.000000  1
  Co  Co23  1  0.799361  0.176286  0.000000  1
  As  As24  1  0.000000  0.344841  0.000000  1
  As  As25  1  0.824295  0.512273  0.500000  1
  As  As26  1  0.679935  0.166347  0.500000  1
  As  As27  1  0.178470  0.176607  0.000000  1
  As  As28  1  0.634995  0.638864  0.000000  1
  As  As29  1  0.821530  0.998137  0.000000  1
  As  As30  1  0.514227  0.833873  0.500000  1
  As  As31  1  0.175705  0.687977  0.500000  1
  As  As32  1  0.365005  0.003870  0.000000  1
  As  As33  1  0.485773  0.319646  0.500000  1
  As  As34  1  0.000000  0.828285  0.000000  1
  As  As35  1  0.320065  0.486411  0.500000  1
