# generated using pymatgen
data_Ce(Er3Se4)2
_symmetry_space_group_name_H-M   'P 1'
_cell_length_a   8.02635100
_cell_length_b   8.04253452
_cell_length_c   8.06317000
_cell_angle_alpha   120.08491211
_cell_angle_beta   90.00000000
_cell_angle_gamma   119.93346200
_symmetry_Int_Tables_number   1
_chemical_formula_structural   Ce(Er3Se4)2
_chemical_formula_sum   'Ce1 Er6 Se8'
_cell_volume   367.94294707
_cell_formula_units_Z   1
loop_
 _symmetry_equiv_pos_site_id
 _symmetry_equiv_pos_as_xyz
  1  'x, y, z'
loop_
 _atom_site_type_symbol
 _atom_site_label
 _atom_site_symmetry_multiplicity
 _atom_site_fract_x
 _atom_site_fract_y
 _atom_site_fract_z
 _atom_site_occupancy
  Ce  Ce0  1  0.249968  0.499935  0.249968  1
  Er  Er1  1  0.250021  0.000046  0.250028  1
  Er  Er2  1  0.750025  0.000046  0.250029  1
  Er  Er3  1  0.249959  0.499917  0.749960  1
  Er  Er4  1  0.250022  0.000046  0.750018  1
  Er  Er5  1  0.750025  0.000046  0.750018  1
  Er  Er6  1  0.749977  0.499955  0.749977  1
  Se  Se7  1  0.995872  0.991745  0.995872  1
  Se  Se8  1  0.504061  0.008121  0.504061  1
  Se  Se9  1  0.996012  0.992025  0.496014  1
  Se  Se10  1  0.993127  0.500042  0.501518  1
  Se  Se11  1  0.506915  0.500042  0.501518  1
  Se  Se12  1  0.993129  0.500042  0.998525  1
  Se  Se13  1  0.506913  0.500042  0.998525  1
  Se  Se14  1  0.503977  0.007954  0.003978  1
