# generated using pymatgen
data_Tb4Tm6Os3Ru
_symmetry_space_group_name_H-M   'P 1'
_cell_length_a   6.31221640
_cell_length_b   7.32249685
_cell_length_c   8.39493340
_cell_angle_alpha   97.01515184
_cell_angle_beta   112.17452675
_cell_angle_gamma   90.02517134
_symmetry_Int_Tables_number   1
_chemical_formula_structural   Tb4Tm6Os3Ru
_chemical_formula_sum   'Tb4 Tm6 Os3 Ru1'
_cell_volume   356.17757940
_cell_formula_units_Z   1
loop_
 _symmetry_equiv_pos_site_id
 _symmetry_equiv_pos_as_xyz
  1  'x, y, z'
loop_
 _atom_site_type_symbol
 _atom_site_label
 _atom_site_symmetry_multiplicity
 _atom_site_fract_x
 _atom_site_fract_y
 _atom_site_fract_z
 _atom_site_occupancy
  Tb  Tb0  1  0.791385  0.082659  0.813528  1
  Tb  Tb1  1  0.975349  0.417429  0.185465  1
  Tb  Tb2  1  0.210857  0.918130  0.189391  1
  Tb  Tb3  1  0.024569  0.583921  0.815229  1
  Tm  Tm4  1  0.201929  0.183131  0.565708  1
  Tm  Tm5  1  0.637899  0.317316  0.435411  1
  Tm  Tm6  1  0.796303  0.816059  0.433309  1
  Tm  Tm7  1  0.363264  0.681608  0.564132  1
  Tm  Tm8  1  0.422238  0.249743  0.000215  1
  Tm  Tm9  1  0.578652  0.750470  0.000395  1
  Os  Os10  1  0.598526  0.423200  0.779589  1
  Os  Os11  1  0.818318  0.077184  0.221144  1
  Os  Os12  1  0.401233  0.576827  0.219608  1
  Ru  Ru13  1  0.179479  0.922324  0.776879  1
