# generated using pymatgen
data_Nd2Eu6Al3Si12Pd
_symmetry_space_group_name_H-M   'P 1'
_cell_length_a   8.31154900
_cell_length_b   8.31154998
_cell_length_c   8.75351900
_cell_angle_alpha   90.00000000
_cell_angle_beta   90.00000000
_cell_angle_gamma   119.99999212
_symmetry_Int_Tables_number   1
_chemical_formula_structural   Nd2Eu6Al3Si12Pd
_chemical_formula_sum   'Nd2 Eu6 Al3 Si12 Pd1'
_cell_volume   523.69368302
_cell_formula_units_Z   1
loop_
 _symmetry_equiv_pos_site_id
 _symmetry_equiv_pos_as_xyz
  1  'x, y, z'
loop_
 _atom_site_type_symbol
 _atom_site_label
 _atom_site_symmetry_multiplicity
 _atom_site_fract_x
 _atom_site_fract_y
 _atom_site_fract_z
 _atom_site_occupancy
  Nd  Nd0  1  0.000000  0.000000  0.748324  1
  Nd  Nd1  1  0.000000  0.000000  0.251760  1
  Eu  Eu2  1  0.499442  0.500558  0.748930  1
  Eu  Eu3  1  0.500414  0.499586  0.251004  1
  Eu  Eu4  1  0.001116  0.500558  0.748930  1
  Eu  Eu5  1  0.999174  0.499586  0.251004  1
  Eu  Eu6  1  0.499442  0.998884  0.748930  1
  Eu  Eu7  1  0.500414  0.000826  0.251004  1
  Al  Al8  1  0.666667  0.333333  0.997662  1
  Al  Al9  1  0.333333  0.666667  0.002680  1
  Al  Al10  1  0.333333  0.666667  0.497924  1
  Si  Si11  1  0.835427  0.164573  0.000457  1
  Si  Si12  1  0.163225  0.836775  0.999503  1
  Si  Si13  1  0.329146  0.164573  0.000457  1
  Si  Si14  1  0.160021  0.839979  0.500028  1
  Si  Si15  1  0.673549  0.836775  0.999503  1
  Si  Si16  1  0.831592  0.168408  0.500210  1
  Si  Si17  1  0.835427  0.670854  0.000457  1
  Si  Si18  1  0.679958  0.839979  0.500028  1
  Si  Si19  1  0.163225  0.326451  0.999503  1
  Si  Si20  1  0.336815  0.168408  0.500210  1
  Si  Si21  1  0.160021  0.320042  0.500028  1
  Si  Si22  1  0.831592  0.663185  0.500210  1
  Pd  Pd23  1  0.666667  0.333333  0.501250  1
