# generated using pymatgen
data_NaLu3Sb6Rh7
_symmetry_space_group_name_H-M   'P 1'
_cell_length_a   7.55177256
_cell_length_b   7.55177325
_cell_length_c   7.55177372
_cell_angle_alpha   109.60658506
_cell_angle_beta   109.60658269
_cell_angle_gamma   109.60659270
_symmetry_Int_Tables_number   1
_chemical_formula_structural   NaLu3Sb6Rh7
_chemical_formula_sum   'Na1 Lu3 Sb6 Rh7'
_cell_volume   329.85956254
_cell_formula_units_Z   1
loop_
 _symmetry_equiv_pos_site_id
 _symmetry_equiv_pos_as_xyz
  1  'x, y, z'
loop_
 _atom_site_type_symbol
 _atom_site_label
 _atom_site_symmetry_multiplicity
 _atom_site_fract_x
 _atom_site_fract_y
 _atom_site_fract_z
 _atom_site_occupancy
  Na  Na0  1  0.500000  0.500000  0.500000  1
  Lu  Lu1  1  0.500000  0.000000  0.000000  1
  Lu  Lu2  1  0.000000  0.500000  0.000000  1
  Lu  Lu3  1  0.000000  0.000000  0.500000  1
  Sb  Sb4  1  0.319907  0.007842  0.319907  1
  Sb  Sb5  1  0.992158  0.680093  0.680093  1
  Sb  Sb6  1  0.680093  0.680093  0.992158  1
  Sb  Sb7  1  0.680093  0.992158  0.680093  1
  Sb  Sb8  1  0.007842  0.319907  0.319907  1
  Sb  Sb9  1  0.319907  0.319907  0.007842  1
  Rh  Rh10  1  0.245016  0.500000  0.754984  1
  Rh  Rh11  1  0.500000  0.245016  0.754984  1
  Rh  Rh12  1  0.754984  0.245016  0.500000  1
  Rh  Rh13  1  0.500000  0.754984  0.245016  1
  Rh  Rh14  1  0.000000  0.000000  0.000000  1
  Rh  Rh15  1  0.245016  0.754984  0.500000  1
  Rh  Rh16  1  0.754984  0.500000  0.245016  1
