# generated using pymatgen
data_Dy5Tm5(Bi3S)2
_symmetry_space_group_name_H-M   'P 1'
_cell_length_a   9.06246100
_cell_length_b   9.06246295
_cell_length_c   6.47304500
_cell_angle_alpha   90.00000000
_cell_angle_beta   90.00000000
_cell_angle_gamma   120.02626681
_symmetry_Int_Tables_number   1
_chemical_formula_structural   Dy5Tm5(Bi3S)2
_chemical_formula_sum   'Dy5 Tm5 Bi6 S2'
_cell_volume   460.27421048
_cell_formula_units_Z   1
loop_
 _symmetry_equiv_pos_site_id
 _symmetry_equiv_pos_as_xyz
  1  'x, y, z'
loop_
 _atom_site_type_symbol
 _atom_site_label
 _atom_site_symmetry_multiplicity
 _atom_site_fract_x
 _atom_site_fract_y
 _atom_site_fract_z
 _atom_site_occupancy
  Dy  Dy0  1  0.666850  0.333420  0.499910  1
  Dy  Dy1  1  0.333420  0.666850  0.499910  1
  Dy  Dy2  1  0.333420  0.666850  0.000090  1
  Dy  Dy3  1  0.666850  0.333420  0.000090  1
  Dy  Dy4  1  0.752095  0.752095  0.250000  1
  Tm  Tm5  1  0.245797  0.999841  0.250000  1
  Tm  Tm6  1  0.999841  0.245797  0.250000  1
  Tm  Tm7  1  0.246581  0.246581  0.750000  1
  Tm  Tm8  1  0.753601  0.000097  0.750000  1
  Tm  Tm9  1  0.000097  0.753601  0.750000  1
  Bi  Bi10  1  0.393745  0.393745  0.250000  1
  Bi  Bi11  1  0.604482  0.000952  0.250000  1
  Bi  Bi12  1  0.000952  0.604482  0.250000  1
  Bi  Bi13  1  0.604505  0.604505  0.750000  1
  Bi  Bi14  1  0.395130  0.999994  0.750000  1
  Bi  Bi15  1  0.999994  0.395130  0.750000  1
  S  S16  1  0.001320  0.001320  0.501062  1
  S  S17  1  0.001320  0.001320  0.998938  1
