# generated using pymatgen
data_Tb3CCl3
_symmetry_space_group_name_H-M   'P 1'
_cell_length_a   9.31266944
_cell_length_b   9.31266937
_cell_length_c   9.31267000
_cell_angle_alpha   109.47121984
_cell_angle_beta   109.47121968
_cell_angle_gamma   109.47121867
_symmetry_Int_Tables_number   1
_chemical_formula_structural   Tb3CCl3
_chemical_formula_sum   'Tb12 C4 Cl12'
_cell_volume   621.72841235
_cell_formula_units_Z   4
loop_
 _symmetry_equiv_pos_site_id
 _symmetry_equiv_pos_as_xyz
  1  'x, y, z'
loop_
 _atom_site_type_symbol
 _atom_site_label
 _atom_site_symmetry_multiplicity
 _atom_site_fract_x
 _atom_site_fract_y
 _atom_site_fract_z
 _atom_site_occupancy
  Tb  Tb0  1  0.536256  0.768128  0.018128  1
  Tb  Tb1  1  0.981871  0.249999  0.018128  1
  Tb  Tb2  1  0.768128  0.518128  0.036256  1
  Tb  Tb3  1  0.963744  0.981871  0.231871  1
  Tb  Tb4  1  0.768128  0.250000  0.231871  1
  Tb  Tb5  1  0.518128  0.536256  0.268128  1
  Tb  Tb6  1  0.250000  0.731871  0.268128  1
  Tb  Tb7  1  0.981872  0.731871  0.463744  1
  Tb  Tb8  1  0.731871  0.963744  0.481871  1
  Tb  Tb9  1  0.250000  0.518128  0.481871  1
  Tb  Tb10  1  0.518128  0.981871  0.749999  1
  Tb  Tb11  1  0.731871  0.768128  0.750000  1
  C  C12  1  0.749999  0.000000  0.000000  1
  C  C13  1  0.749999  0.749999  0.249999  1
  C  C14  1  0.000000  0.499999  0.250000  1
  C  C15  1  0.499999  0.749999  0.499999  1
  Cl  Cl16  1  0.494243  0.005756  0.250000  1
  Cl  Cl17  1  0.255756  0.244243  0.250000  1
  Cl  Cl18  1  0.749999  0.494243  0.505756  1
  Cl  Cl19  1  0.255756  0.011513  0.505756  1
  Cl  Cl20  1  0.005757  0.255756  0.511513  1
  Cl  Cl21  1  0.750000  0.255756  0.744243  1
  Cl  Cl22  1  0.494243  0.488487  0.744243  1
  Cl  Cl23  1  0.011512  0.005756  0.755756  1
  Cl  Cl24  1  0.244243  0.749999  0.755756  1
  Cl  Cl25  1  0.244244  0.494244  0.988487  1
  Cl  Cl26  1  0.488487  0.244243  0.994243  1
  Cl  Cl27  1  0.005756  0.750000  0.994243  1
