# generated using pymatgen
data_NdAl4GaAu2
_symmetry_space_group_name_H-M   'P 1'
_cell_length_a   6.08772000
_cell_length_b   6.08772000
_cell_length_c   8.27967200
_cell_angle_alpha   90.00000000
_cell_angle_beta   90.00000000
_cell_angle_gamma   90.00000000
_symmetry_Int_Tables_number   1
_chemical_formula_structural   NdAl4GaAu2
_chemical_formula_sum   'Nd2 Al8 Ga2 Au4'
_cell_volume   306.84741634
_cell_formula_units_Z   2
loop_
 _symmetry_equiv_pos_site_id
 _symmetry_equiv_pos_as_xyz
  1  'x, y, z'
loop_
 _atom_site_type_symbol
 _atom_site_label
 _atom_site_symmetry_multiplicity
 _atom_site_fract_x
 _atom_site_fract_y
 _atom_site_fract_z
 _atom_site_occupancy
  Nd  Nd0  1  0.750000  0.250000  0.500000  1
  Nd  Nd1  1  0.250000  0.750000  0.500000  1
  Al  Al2  1  0.498856  0.498856  0.176932  1
  Al  Al3  1  0.001144  0.498856  0.176932  1
  Al  Al4  1  0.498856  0.001144  0.176932  1
  Al  Al5  1  0.001144  0.001144  0.176932  1
  Al  Al6  1  0.998856  0.998856  0.823067  1
  Al  Al7  1  0.501144  0.998856  0.823067  1
  Al  Al8  1  0.998856  0.501144  0.823067  1
  Al  Al9  1  0.501144  0.501144  0.823067  1
  Ga  Ga10  1  0.750000  0.750000  0.354656  1
  Ga  Ga11  1  0.250000  0.250000  0.645345  1
  Au  Au12  1  0.750000  0.250000  0.000000  1
  Au  Au13  1  0.250000  0.750000  0.000000  1
  Au  Au14  1  0.250000  0.250000  0.344367  1
  Au  Au15  1  0.750000  0.750000  0.655634  1
