# generated using pymatgen
data_Sc8V11Si16Ag
_symmetry_space_group_name_H-M   'P 1'
_cell_length_a   6.66018501
_cell_length_b   6.66018501
_cell_length_c   12.29790544
_cell_angle_alpha   90.10526994
_cell_angle_beta   89.89473006
_cell_angle_gamma   89.64931461
_symmetry_Int_Tables_number   1
_chemical_formula_structural   Sc8V11Si16Ag
_chemical_formula_sum   'Sc8 V11 Si16 Ag1'
_cell_volume   545.49920998
_cell_formula_units_Z   1
loop_
 _symmetry_equiv_pos_site_id
 _symmetry_equiv_pos_as_xyz
  1  'x, y, z'
loop_
 _atom_site_type_symbol
 _atom_site_label
 _atom_site_symmetry_multiplicity
 _atom_site_fract_x
 _atom_site_fract_y
 _atom_site_fract_z
 _atom_site_occupancy
  Sc  Sc0  1  0.001051  0.662036  0.030449  1
  Sc  Sc1  1  0.836316  0.501732  0.281860  1
  Sc  Sc2  1  0.161744  0.500005  0.779181  1
  Sc  Sc3  1  0.501732  0.836316  0.718140  1
  Sc  Sc4  1  0.500005  0.161744  0.220819  1
  Sc  Sc5  1  0.998147  0.338207  0.530274  1
  Sc  Sc6  1  0.662036  0.001051  0.969551  1
  Sc  Sc7  1  0.338207  0.998147  0.469726  1
  V  V8  1  0.166437  0.832471  0.251363  1
  V  V9  1  0.832471  0.166437  0.748637  1
  V  V10  1  0.668205  0.668205  0.500000  1
  V  V11  1  0.004796  0.154787  0.126564  1
  V  V12  1  0.344831  0.506083  0.377386  1
  V  V13  1  0.658444  0.496643  0.875754  1
  V  V14  1  0.506083  0.344831  0.622614  1
  V  V15  1  0.496643  0.658444  0.124246  1
  V  V16  1  0.992471  0.844261  0.627314  1
  V  V17  1  0.154787  0.004796  0.873436  1
  V  V18  1  0.844261  0.992471  0.372686  1
  Si  Si19  1  0.287756  0.945627  0.066918  1
  Si  Si20  1  0.539170  0.793835  0.314829  1
  Si  Si21  1  0.465033  0.203623  0.808388  1
  Si  Si22  1  0.793835  0.539170  0.685171  1
  Si  Si23  1  0.203623  0.465033  0.191612  1
  Si  Si24  1  0.706156  0.039968  0.563678  1
  Si  Si25  1  0.945627  0.287756  0.933082  1
  Si  Si26  1  0.039968  0.706156  0.436322  1
  Si  Si27  1  0.717075  0.376020  0.073640  1
  Si  Si28  1  0.131633  0.202873  0.320169  1
  Si  Si29  1  0.869737  0.796011  0.819678  1
  Si  Si30  1  0.202873  0.131633  0.679831  1
  Si  Si31  1  0.796011  0.869737  0.180322  1
  Si  Si32  1  0.295533  0.630394  0.570191  1
  Si  Si33  1  0.376020  0.717075  0.926360  1
  Si  Si34  1  0.630394  0.295533  0.429809  1
  Ag  Ag35  1  0.330890  0.330890  0.000000  1
