# generated using pymatgen
data_CaHo9(In2Au)4
_symmetry_space_group_name_H-M   'P 1'
_cell_length_a   3.65923800
_cell_length_b   8.20610400
_cell_length_c   18.42137900
_cell_angle_alpha   90.00143133
_cell_angle_beta   90.00000000
_cell_angle_gamma   90.00000000
_symmetry_Int_Tables_number   1
_chemical_formula_structural   CaHo9(In2Au)4
_chemical_formula_sum   'Ca1 Ho9 In8 Au4'
_cell_volume   553.15878212
_cell_formula_units_Z   1
loop_
 _symmetry_equiv_pos_site_id
 _symmetry_equiv_pos_as_xyz
  1  'x, y, z'
loop_
 _atom_site_type_symbol
 _atom_site_label
 _atom_site_symmetry_multiplicity
 _atom_site_fract_x
 _atom_site_fract_y
 _atom_site_fract_z
 _atom_site_occupancy
  Ca  Ca0  1  0.000000  0.500000  0.500000  1
  Ho  Ho1  1  0.000000  0.000000  0.000000  1
  Ho  Ho2  1  0.000000  0.736255  0.281527  1
  Ho  Ho3  1  0.000000  0.263745  0.718473  1
  Ho  Ho4  1  0.000000  0.764284  0.782701  1
  Ho  Ho5  1  0.000000  0.235716  0.217299  1
  Ho  Ho6  1  0.000000  0.619344  0.079175  1
  Ho  Ho7  1  0.000000  0.380656  0.920825  1
  Ho  Ho8  1  0.000000  0.879761  0.579928  1
  Ho  Ho9  1  0.000000  0.120239  0.420072  1
  In  In10  1  0.500000  0.711355  0.933142  1
  In  In11  1  0.500000  0.288645  0.066858  1
  In  In12  1  0.500000  0.792523  0.432246  1
  In  In13  1  0.500000  0.207477  0.567754  1
  In  In14  1  0.500000  0.581162  0.648284  1
  In  In15  1  0.500000  0.418838  0.351716  1
  In  In16  1  0.500000  0.920373  0.146055  1
  In  In17  1  0.500000  0.079627  0.853945  1
  Au  Au18  1  0.500000  0.527063  0.196157  1
  Au  Au19  1  0.500000  0.472937  0.803843  1
  Au  Au20  1  0.500000  0.973806  0.696724  1
  Au  Au21  1  0.500000  0.026194  0.303276  1
