# generated using pymatgen
data_Ta2FeSi2Pd
_symmetry_space_group_name_H-M   'P 1'
_cell_length_a   3.72375500
_cell_length_b   6.33702399
_cell_length_c   7.25820500
_cell_angle_alpha   91.31028118
_cell_angle_beta   90.00000000
_cell_angle_gamma   90.00000000
_symmetry_Int_Tables_number   1
_chemical_formula_structural   Ta2FeSi2Pd
_chemical_formula_sum   'Ta4 Fe2 Si4 Pd2'
_cell_volume   171.23088750
_cell_formula_units_Z   2
loop_
 _symmetry_equiv_pos_site_id
 _symmetry_equiv_pos_as_xyz
  1  'x, y, z'
loop_
 _atom_site_type_symbol
 _atom_site_label
 _atom_site_symmetry_multiplicity
 _atom_site_fract_x
 _atom_site_fract_y
 _atom_site_fract_z
 _atom_site_occupancy
  Ta  Ta0  1  0.250000  0.524117  0.661888  1
  Ta  Ta1  1  0.750000  0.475883  0.338112  1
  Ta  Ta2  1  0.250000  0.019997  0.808927  1
  Ta  Ta3  1  0.750000  0.980003  0.191073  1
  Fe  Fe4  1  0.750000  0.859399  0.560378  1
  Fe  Fe5  1  0.250000  0.140601  0.439622  1
  Si  Si6  1  0.250000  0.259591  0.137338  1
  Si  Si7  1  0.750000  0.740409  0.862662  1
  Si  Si8  1  0.250000  0.780916  0.391162  1
  Si  Si9  1  0.750000  0.219084  0.608838  1
  Pd  Pd10  1  0.750000  0.350971  0.933694  1
  Pd  Pd11  1  0.250000  0.649029  0.066306  1
