# generated using pymatgen
data_DyHo11Fe2I17
_symmetry_space_group_name_H-M   'P 1'
_cell_length_a   9.68463745
_cell_length_b   11.65434432
_cell_length_c   11.64385056
_cell_angle_alpha   93.53430382
_cell_angle_beta   104.83754383
_cell_angle_gamma   114.00022731
_symmetry_Int_Tables_number   1
_chemical_formula_structural   DyHo11Fe2I17
_chemical_formula_sum   'Dy1 Ho11 Fe2 I17'
_cell_volume   1139.92421329
_cell_formula_units_Z   1
loop_
 _symmetry_equiv_pos_site_id
 _symmetry_equiv_pos_as_xyz
  1  'x, y, z'
loop_
 _atom_site_type_symbol
 _atom_site_label
 _atom_site_symmetry_multiplicity
 _atom_site_fract_x
 _atom_site_fract_y
 _atom_site_fract_z
 _atom_site_occupancy
  Dy  Dy0  1  0.860653  0.713444  0.845746  1
  Ho  Ho1  1  0.050348  0.499775  0.318720  1
  Ho  Ho2  1  0.990266  0.808350  0.587720  1
  Ho  Ho3  1  0.656299  0.241993  0.280901  1
  Ho  Ho4  1  0.008794  0.193383  0.409305  1
  Ho  Ho5  1  0.218805  0.671821  0.983605  1
  Ho  Ho6  1  0.253467  0.977456  0.888550  1
  Ho  Ho7  1  0.339180  0.757891  0.720588  1
  Ho  Ho8  1  0.947419  0.497350  0.680142  1
  Ho  Ho9  1  0.747963  0.025336  0.112541  1
  Ho  Ho10  1  0.142713  0.287012  0.153625  1
  Ho  Ho11  1  0.782737  0.327309  0.019328  1
  Fe  Fe12  1  0.102327  0.737319  0.785558  1
  Fe  Fe13  1  0.897285  0.261828  0.214123  1
  I  I14  1  0.782549  0.528347  0.417390  1
  I  I15  1  0.645584  0.419328  0.762665  1
  I  I16  1  0.846427  0.897854  0.327742  1
  I  I17  1  0.330823  0.215299  0.368742  1
  I  I18  1  0.156536  0.102619  0.671598  1
  I  I19  1  0.583511  0.051676  0.842651  1
  I  I20  1  0.761314  0.190100  0.539993  1
  I  I21  1  0.550850  0.712794  0.954522  1
  I  I22  1  0.355585  0.580917  0.237736  1
  I  I23  1  0.216412  0.472580  0.583590  1
  I  I24  1  0.058063  0.368602  0.896778  1
  I  I25  1  0.447233  0.287349  0.044401  1
  I  I26  1  0.998801  0.998935  0.998793  1
  I  I27  1  0.238906  0.808987  0.461605  1
  I  I28  1  0.414346  0.946995  0.157533  1
  I  I29  1  0.671755  0.785749  0.630994  1
  I  I30  1  0.943048  0.631599  0.102815  1
