# generated using pymatgen
data_Dy5Y(SiNi3)4
_symmetry_space_group_name_H-M   'P 1'
_cell_length_a   7.59298169
_cell_length_b   7.59298101
_cell_length_c   7.59298204
_cell_angle_alpha   109.46519336
_cell_angle_beta   109.46518619
_cell_angle_gamma   109.48328481
_symmetry_Int_Tables_number   1
_chemical_formula_structural   Dy5Y(SiNi3)4
_chemical_formula_sum   'Dy5 Y1 Si4 Ni12'
_cell_volume   336.98853427
_cell_formula_units_Z   1
loop_
 _symmetry_equiv_pos_site_id
 _symmetry_equiv_pos_as_xyz
  1  'x, y, z'
loop_
 _atom_site_type_symbol
 _atom_site_label
 _atom_site_symmetry_multiplicity
 _atom_site_fract_x
 _atom_site_fract_y
 _atom_site_fract_z
 _atom_site_occupancy
  Dy  Dy0  1  0.000049  0.285823  0.285774  1
  Dy  Dy1  1  0.000049  0.714275  0.714226  1
  Dy  Dy2  1  0.285823  0.000049  0.285774  1
  Dy  Dy3  1  0.714275  0.000049  0.714226  1
  Dy  Dy4  1  0.285616  0.285616  0.000000  1
  Y  Y5  1  0.715887  0.715887  0.000000  1
  Si  Si6  1  0.500181  0.500181  0.500483  1
  Si  Si7  1  0.999698  0.999698  0.499517  1
  Si  Si8  1  0.999698  0.500181  0.000000  1
  Si  Si9  1  0.500181  0.999698  0.000000  1
  Ni  Ni10  1  0.660774  0.330478  0.330295  1
  Ni  Ni11  1  0.338482  0.669446  0.669038  1
  Ni  Ni12  1  0.000183  0.330478  0.669705  1
  Ni  Ni13  1  0.000408  0.669446  0.330962  1
  Ni  Ni14  1  0.330478  0.660774  0.330295  1
  Ni  Ni15  1  0.669446  0.000408  0.330962  1
  Ni  Ni16  1  0.669446  0.338482  0.669038  1
  Ni  Ni17  1  0.330478  0.000183  0.669705  1
  Ni  Ni18  1  0.329735  0.329735  0.660048  1
  Ni  Ni19  1  0.669689  0.669689  0.339952  1
  Ni  Ni20  1  0.669689  0.329735  0.000000  1
  Ni  Ni21  1  0.329735  0.669689  0.000000  1
