# generated using pymatgen
data_TbEr3(PbO4)3
_symmetry_space_group_name_H-M   'P 1'
_cell_length_a   6.44990359
_cell_length_b   6.52886584
_cell_length_c   6.72607500
_cell_angle_alpha   100.50322829
_cell_angle_beta   98.38930148
_cell_angle_gamma   99.59636399
_symmetry_Int_Tables_number   1
_chemical_formula_structural   TbEr3(PbO4)3
_chemical_formula_sum   'Tb1 Er3 Pb3 O12'
_cell_volume   270.01810659
_cell_formula_units_Z   1
loop_
 _symmetry_equiv_pos_site_id
 _symmetry_equiv_pos_as_xyz
  1  'x, y, z'
loop_
 _atom_site_type_symbol
 _atom_site_label
 _atom_site_symmetry_multiplicity
 _atom_site_fract_x
 _atom_site_fract_y
 _atom_site_fract_z
 _atom_site_occupancy
  Tb  Tb0  1  0.394347  0.699186  0.863522  1
  Er  Er1  1  0.695055  0.869206  0.389425  1
  Er  Er2  1  0.606118  0.300001  0.137502  1
  Er  Er3  1  0.305807  0.130830  0.610777  1
  Pb  Pb4  1  0.000268  0.001363  0.000567  1
  Pb  Pb5  1  0.848605  0.397339  0.672669  1
  Pb  Pb6  1  0.150582  0.601577  0.326340  1
  O  O7  1  0.041638  0.676421  0.889757  1
  O  O8  1  0.681555  0.937551  0.067095  1
  O  O9  1  0.922088  0.074796  0.684397  1
  O  O10  1  0.954567  0.324940  0.108502  1
  O  O11  1  0.320080  0.067590  0.936270  1
  O  O12  1  0.078413  0.924645  0.315096  1
  O  O13  1  0.575215  0.183029  0.425918  1
  O  O14  1  0.176886  0.421478  0.579290  1
  O  O15  1  0.425487  0.584786  0.177495  1
  O  O16  1  0.424939  0.818610  0.571604  1
  O  O17  1  0.822092  0.576611  0.418472  1
  O  O18  1  0.576260  0.410037  0.825303  1
