# generated using pymatgen
data_Dy3Ho(Er2Rh)4
_symmetry_space_group_name_H-M   'P 1'
_cell_length_a   6.29952002
_cell_length_b   7.15446962
_cell_length_c   9.34548700
_cell_angle_alpha   90.00000000
_cell_angle_beta   90.00000000
_cell_angle_gamma   89.97205883
_symmetry_Int_Tables_number   1
_chemical_formula_structural   Dy3Ho(Er2Rh)4
_chemical_formula_sum   'Dy3 Ho1 Er8 Rh4'
_cell_volume   421.19847520
_cell_formula_units_Z   1
loop_
 _symmetry_equiv_pos_site_id
 _symmetry_equiv_pos_as_xyz
  1  'x, y, z'
loop_
 _atom_site_type_symbol
 _atom_site_label
 _atom_site_symmetry_multiplicity
 _atom_site_fract_x
 _atom_site_fract_y
 _atom_site_fract_z
 _atom_site_occupancy
  Dy  Dy0  1  0.867248  0.966172  0.750000  1
  Dy  Dy1  1  0.366947  0.534168  0.250000  1
  Dy  Dy2  1  0.632531  0.465933  0.750000  1
  Ho  Ho3  1  0.133185  0.034315  0.250000  1
  Er  Er4  1  0.672595  0.177900  0.063295  1
  Er  Er5  1  0.171857  0.321749  0.936999  1
  Er  Er6  1  0.828092  0.678076  0.436803  1
  Er  Er7  1  0.327583  0.822148  0.562863  1
  Er  Er8  1  0.327583  0.822148  0.937137  1
  Er  Er9  1  0.828092  0.678076  0.063197  1
  Er  Er10  1  0.171857  0.321749  0.563001  1
  Er  Er11  1  0.672595  0.177900  0.436705  1
  Rh  Rh12  1  0.054128  0.615758  0.750000  1
  Rh  Rh13  1  0.553247  0.884704  0.250000  1
  Rh  Rh14  1  0.445831  0.115717  0.750000  1
  Rh  Rh15  1  0.946632  0.383485  0.250000  1
