# generated using pymatgen
data_Ho2Th(Co3P2)3
_symmetry_space_group_name_H-M   'P 1'
_cell_length_a   3.73411800
_cell_length_b   10.56098600
_cell_length_c   12.22940900
_cell_angle_alpha   90.00000000
_cell_angle_beta   90.00000000
_cell_angle_gamma   90.00000000
_symmetry_Int_Tables_number   1
_chemical_formula_structural   Ho2Th(Co3P2)3
_chemical_formula_sum   'Ho4 Th2 Co18 P12'
_cell_volume   482.27858101
_cell_formula_units_Z   2
loop_
 _symmetry_equiv_pos_site_id
 _symmetry_equiv_pos_as_xyz
  1  'x, y, z'
loop_
 _atom_site_type_symbol
 _atom_site_label
 _atom_site_symmetry_multiplicity
 _atom_site_fract_x
 _atom_site_fract_y
 _atom_site_fract_z
 _atom_site_occupancy
  Ho  Ho0  1  0.500000  0.816097  0.203915  1
  Ho  Ho1  1  0.500000  0.183903  0.203915  1
  Ho  Ho2  1  0.000000  0.683903  0.796085  1
  Ho  Ho3  1  0.000000  0.316097  0.796085  1
  Th  Th4  1  0.000000  0.500000  0.525340  1
  Th  Th5  1  0.500000  0.000000  0.474660  1
  Co  Co6  1  0.000000  0.500000  0.986146  1
  Co  Co7  1  0.500000  0.000000  0.013854  1
  Co  Co8  1  0.500000  0.298957  0.429463  1
  Co  Co9  1  0.500000  0.701043  0.429463  1
  Co  Co10  1  0.000000  0.201043  0.570537  1
  Co  Co11  1  0.000000  0.798957  0.570537  1
  Co  Co12  1  0.500000  0.880063  0.712964  1
  Co  Co13  1  0.500000  0.119937  0.712964  1
  Co  Co14  1  0.000000  0.619937  0.287036  1
  Co  Co15  1  0.000000  0.380063  0.287036  1
  Co  Co16  1  0.500000  0.333506  0.994914  1
  Co  Co17  1  0.500000  0.666494  0.994914  1
  Co  Co18  1  0.000000  0.166494  0.005086  1
  Co  Co19  1  0.000000  0.833506  0.005086  1
  Co  Co20  1  0.500000  0.500000  0.156342  1
  Co  Co21  1  0.000000  0.000000  0.843658  1
  Co  Co22  1  0.500000  0.500000  0.703703  1
  Co  Co23  1  0.000000  0.000000  0.296297  1
  P  P24  1  0.500000  0.305933  0.618882  1
  P  P25  1  0.500000  0.694067  0.618882  1
  P  P26  1  0.000000  0.194067  0.381118  1
  P  P27  1  0.000000  0.805933  0.381118  1
  P  P28  1  0.500000  0.500000  0.882518  1
  P  P29  1  0.000000  0.000000  0.117482  1
  P  P30  1  0.500000  0.846527  0.894754  1
  P  P31  1  0.500000  0.153473  0.894754  1
  P  P32  1  0.000000  0.653473  0.105246  1
  P  P33  1  0.000000  0.346527  0.105246  1
  P  P34  1  0.500000  0.500000  0.338958  1
  P  P35  1  0.000000  0.000000  0.661042  1
