# generated using pymatgen
data_Tb2Mn14(SiC)3
_symmetry_space_group_name_H-M   'P 1'
_cell_length_a   6.43162038
_cell_length_b   6.43162140
_cell_length_c   6.43162046
_cell_angle_alpha   82.87058349
_cell_angle_beta   82.87057927
_cell_angle_gamma   82.87058528
_symmetry_Int_Tables_number   1
_chemical_formula_structural   Tb2Mn14(SiC)3
_chemical_formula_sum   'Tb2 Mn14 Si3 C3'
_cell_volume   260.34921835
_cell_formula_units_Z   1
loop_
 _symmetry_equiv_pos_site_id
 _symmetry_equiv_pos_as_xyz
  1  'x, y, z'
loop_
 _atom_site_type_symbol
 _atom_site_label
 _atom_site_symmetry_multiplicity
 _atom_site_fract_x
 _atom_site_fract_y
 _atom_site_fract_z
 _atom_site_occupancy
  Tb  Tb0  1  0.652098  0.652098  0.652098  1
  Tb  Tb1  1  0.347902  0.347902  0.347902  1
  Mn  Mn2  1  0.724112  0.275888  0.000000  1
  Mn  Mn3  1  0.000000  0.724112  0.275888  1
  Mn  Mn4  1  0.275888  0.000000  0.724112  1
  Mn  Mn5  1  0.000000  0.275888  0.724112  1
  Mn  Mn6  1  0.724112  0.000000  0.275888  1
  Mn  Mn7  1  0.275888  0.724112  0.000000  1
  Mn  Mn8  1  0.344078  0.344078  0.859715  1
  Mn  Mn9  1  0.859715  0.344078  0.344078  1
  Mn  Mn10  1  0.344078  0.859715  0.344078  1
  Mn  Mn11  1  0.655922  0.655922  0.140285  1
  Mn  Mn12  1  0.140285  0.655922  0.655922  1
  Mn  Mn13  1  0.655922  0.140285  0.655922  1
  Mn  Mn14  1  0.905949  0.905949  0.905949  1
  Mn  Mn15  1  0.094051  0.094051  0.094051  1
  Si  Si16  1  0.000000  0.000000  0.500000  1
  Si  Si17  1  0.500000  0.000000  0.000000  1
  Si  Si18  1  0.000000  0.500000  0.000000  1
  C  C19  1  0.500000  0.500000  0.000000  1
  C  C20  1  0.000000  0.500000  0.500000  1
  C  C21  1  0.500000  0.000000  0.500000  1
