# generated using pymatgen
data_Sr3(Li2Sn)4
_symmetry_space_group_name_H-M   'P 1'
_cell_length_a   9.93997800
_cell_length_b   9.95076106
_cell_length_c   8.30785300
_cell_angle_alpha   90.00000000
_cell_angle_beta   90.00000000
_cell_angle_gamma   119.96415323
_symmetry_Int_Tables_number   1
_chemical_formula_structural   Sr3(Li2Sn)4
_chemical_formula_sum   'Sr6 Li16 Sn8'
_cell_volume   711.89823678
_cell_formula_units_Z   2
loop_
 _symmetry_equiv_pos_site_id
 _symmetry_equiv_pos_as_xyz
  1  'x, y, z'
loop_
 _atom_site_type_symbol
 _atom_site_label
 _atom_site_symmetry_multiplicity
 _atom_site_fract_x
 _atom_site_fract_y
 _atom_site_fract_z
 _atom_site_occupancy
  Sr  Sr0  1  0.479545  0.959090  0.510818  1
  Sr  Sr1  1  0.041042  0.520448  0.511004  1
  Sr  Sr2  1  0.479406  0.520448  0.511004  1
  Sr  Sr3  1  0.520455  0.040910  0.010818  1
  Sr  Sr4  1  0.520594  0.479552  0.011004  1
  Sr  Sr5  1  0.958959  0.479552  0.011004  1
  Li  Li6  1  0.165866  0.331733  0.154672  1
  Li  Li7  1  0.165857  0.834344  0.154406  1
  Li  Li8  1  0.668486  0.834344  0.154406  1
  Li  Li9  1  0.999954  0.999908  0.227783  1
  Li  Li10  1  0.666710  0.333420  0.367583  1
  Li  Li11  1  0.110515  0.221029  0.465612  1
  Li  Li12  1  0.110483  0.889333  0.465583  1
  Li  Li13  1  0.778850  0.889333  0.465583  1
  Li  Li14  1  0.834133  0.668265  0.654672  1
  Li  Li15  1  0.331514  0.165656  0.654406  1
  Li  Li16  1  0.834143  0.165656  0.654406  1
  Li  Li17  1  0.000046  0.000092  0.727783  1
  Li  Li18  1  0.333290  0.666580  0.867582  1
  Li  Li19  1  0.889486  0.778971  0.965612  1
  Li  Li20  1  0.221150  0.110667  0.965583  1
  Li  Li21  1  0.889517  0.110667  0.965583  1
  Sn  Sn22  1  0.333443  0.666886  0.225039  1
  Sn  Sn23  1  0.327659  0.163908  0.289808  1
  Sn  Sn24  1  0.836249  0.163908  0.289808  1
  Sn  Sn25  1  0.836171  0.672341  0.289590  1
  Sn  Sn26  1  0.666557  0.333114  0.725038  1
  Sn  Sn27  1  0.163751  0.836092  0.789809  1
  Sn  Sn28  1  0.672341  0.836092  0.789809  1
  Sn  Sn29  1  0.163829  0.327659  0.789590  1
