# generated using pymatgen
data_Tb4Y2P13Rh20
_symmetry_space_group_name_H-M   'P 1'
_cell_length_a   13.34900326
_cell_length_b   13.35436713
_cell_length_c   3.92564401
_cell_angle_alpha   90.00256385
_cell_angle_beta   90.00609292
_cell_angle_gamma   120.00861230
_symmetry_Int_Tables_number   1
_chemical_formula_structural   Tb4Y2P13Rh20
_chemical_formula_sum   'Tb4 Y2 P13 Rh20'
_cell_volume   606.00470354
_cell_formula_units_Z   1
loop_
 _symmetry_equiv_pos_site_id
 _symmetry_equiv_pos_as_xyz
  1  'x, y, z'
loop_
 _atom_site_type_symbol
 _atom_site_label
 _atom_site_symmetry_multiplicity
 _atom_site_fract_x
 _atom_site_fract_y
 _atom_site_fract_z
 _atom_site_occupancy
  Tb  Tb0  1  0.529721  0.717253  0.248133  1
  Tb  Tb1  1  0.282683  0.812390  0.248129  1
  Tb  Tb2  1  0.187658  0.470277  0.248173  1
  Tb  Tb3  1  0.470458  0.282801  0.751893  1
  Y  Y4  1  0.717149  0.187529  0.751874  1
  Y  Y5  1  0.812447  0.529621  0.751851  1
  P  P6  1  0.525632  0.138984  0.250491  1
  P  P7  1  0.860951  0.386629  0.250450  1
  P  P8  1  0.613341  0.474376  0.250497  1
  P  P9  1  0.945636  0.715442  0.254829  1
  P  P10  1  0.284531  0.230258  0.254823  1
  P  P11  1  0.769791  0.054354  0.254755  1
  P  P12  1  0.386736  0.525492  0.749592  1
  P  P13  1  0.474594  0.861302  0.749613  1
  P  P14  1  0.138692  0.613308  0.749604  1
  P  P15  1  0.715581  0.769814  0.745151  1
  P  P16  1  0.230229  0.945755  0.745255  1
  P  P17  1  0.054164  0.284384  0.745133  1
  P  P18  1  0.999968  0.999993  0.999876  1
  Rh  Rh19  1  0.333351  0.666669  0.751845  1
  Rh  Rh20  1  0.921069  0.250000  0.254359  1
  Rh  Rh21  1  0.750077  0.671124  0.254331  1
  Rh  Rh22  1  0.328723  0.078629  0.254287  1
  Rh  Rh23  1  0.439066  0.023212  0.751450  1
  Rh  Rh24  1  0.976764  0.415833  0.751482  1
  Rh  Rh25  1  0.584191  0.561038  0.751490  1
  Rh  Rh26  1  0.666677  0.333316  0.248047  1
  Rh  Rh27  1  0.094139  0.186919  0.246800  1
  Rh  Rh28  1  0.813042  0.907231  0.246828  1
  Rh  Rh29  1  0.092766  0.905782  0.246702  1
  Rh  Rh30  1  0.023149  0.584219  0.248501  1
  Rh  Rh31  1  0.415829  0.439072  0.248505  1
  Rh  Rh32  1  0.561120  0.976922  0.248549  1
  Rh  Rh33  1  0.671292  0.921350  0.745697  1
  Rh  Rh34  1  0.078642  0.749953  0.745686  1
  Rh  Rh35  1  0.250029  0.328711  0.745704  1
  Rh  Rh36  1  0.906026  0.813276  0.753219  1
  Rh  Rh37  1  0.186848  0.092789  0.753126  1
  Rh  Rh38  1  0.907236  0.093993  0.753268  1
