# generated using pymatgen
data_Sc22Tc3Rh5
_symmetry_space_group_name_H-M   'P 1'
_cell_length_a   9.51137517
_cell_length_b   9.51137538
_cell_length_c   9.49032300
_cell_angle_alpha   60.07319483
_cell_angle_beta   60.07319411
_cell_angle_gamma   60.14198481
_symmetry_Int_Tables_number   1
_chemical_formula_structural   Sc22Tc3Rh5
_chemical_formula_sum   'Sc22 Tc3 Rh5'
_cell_volume   608.41106627
_cell_formula_units_Z   1
loop_
 _symmetry_equiv_pos_site_id
 _symmetry_equiv_pos_as_xyz
  1  'x, y, z'
loop_
 _atom_site_type_symbol
 _atom_site_label
 _atom_site_symmetry_multiplicity
 _atom_site_fract_x
 _atom_site_fract_y
 _atom_site_fract_z
 _atom_site_occupancy
  Sc  Sc0  1  0.803366  0.803366  0.196634  1
  Sc  Sc1  1  0.195896  0.804104  0.197929  1
  Sc  Sc2  1  0.804104  0.195896  0.197929  1
  Sc  Sc3  1  0.196634  0.196634  0.803366  1
  Sc  Sc4  1  0.804104  0.195896  0.802071  1
  Sc  Sc5  1  0.195896  0.804104  0.802071  1
  Sc  Sc6  1  0.616287  0.616287  0.151408  1
  Sc  Sc7  1  0.618696  0.151681  0.614811  1
  Sc  Sc8  1  0.151681  0.618696  0.614811  1
  Sc  Sc9  1  0.616287  0.616287  0.616017  1
  Sc  Sc10  1  0.383713  0.383713  0.848592  1
  Sc  Sc11  1  0.381304  0.848319  0.385189  1
  Sc  Sc12  1  0.848319  0.381304  0.385189  1
  Sc  Sc13  1  0.383713  0.383713  0.383983  1
  Sc  Sc14  1  0.843164  0.843164  0.471383  1
  Sc  Sc15  1  0.842701  0.471798  0.842749  1
  Sc  Sc16  1  0.471798  0.842701  0.842749  1
  Sc  Sc17  1  0.843164  0.843164  0.842287  1
  Sc  Sc18  1  0.156836  0.156836  0.528617  1
  Sc  Sc19  1  0.157299  0.528202  0.157251  1
  Sc  Sc20  1  0.528202  0.157299  0.157251  1
  Sc  Sc21  1  0.156836  0.156836  0.157713  1
  Tc  Tc22  1  0.000000  0.000000  0.000000  1
  Tc  Tc23  1  0.500000  0.500000  0.500000  1
  Tc  Tc24  1  0.000000  0.000000  0.500000  1
  Rh  Rh25  1  0.500000  0.000000  0.500000  1
  Rh  Rh26  1  0.000000  0.500000  0.500000  1
  Rh  Rh27  1  0.500000  0.500000  0.000000  1
  Rh  Rh28  1  0.000000  0.500000  0.000000  1
  Rh  Rh29  1  0.500000  0.000000  0.000000  1
