# generated using pymatgen
data_Tb3In3IrPd2
_symmetry_space_group_name_H-M   'P 1'
_cell_length_a   7.74904600
_cell_length_b   7.74904677
_cell_length_c   3.82942000
_cell_angle_alpha   90.00000000
_cell_angle_beta   90.00000000
_cell_angle_gamma   120.00000526
_symmetry_Int_Tables_number   1
_chemical_formula_structural   Tb3In3IrPd2
_chemical_formula_sum   'Tb3 In3 Ir1 Pd2'
_cell_volume   199.14074649
_cell_formula_units_Z   1
loop_
 _symmetry_equiv_pos_site_id
 _symmetry_equiv_pos_as_xyz
  1  'x, y, z'
loop_
 _atom_site_type_symbol
 _atom_site_label
 _atom_site_symmetry_multiplicity
 _atom_site_fract_x
 _atom_site_fract_y
 _atom_site_fract_z
 _atom_site_occupancy
  Tb  Tb0  1  0.417434  0.400666  0.000000  1
  Tb  Tb1  1  0.599334  0.016768  0.000000  1
  Tb  Tb2  1  0.983232  0.582566  0.000000  1
  In  In3  1  0.003954  0.263213  0.500000  1
  In  In4  1  0.736787  0.740741  0.500000  1
  In  In5  1  0.259259  0.996046  0.500000  1
  Ir  Ir6  1  0.666667  0.333333  0.500000  1
  Pd  Pd7  1  0.000000  0.000000  0.000000  1
  Pd  Pd8  1  0.333333  0.666667  0.500000  1
