# generated using pymatgen
data_NdSm2Ga3(Ni3Sn)3
_symmetry_space_group_name_H-M   'P 1'
_cell_length_a   4.10924500
_cell_length_b   9.23096359
_cell_length_c   9.22803529
_cell_angle_alpha   59.98267169
_cell_angle_beta   90.00000000
_cell_angle_gamma   90.00000000
_symmetry_Int_Tables_number   1
_chemical_formula_structural   NdSm2Ga3(Ni3Sn)3
_chemical_formula_sum   'Nd1 Sm2 Ga3 Ni9 Sn3'
_cell_volume   303.09103587
_cell_formula_units_Z   1
loop_
 _symmetry_equiv_pos_site_id
 _symmetry_equiv_pos_as_xyz
  1  'x, y, z'
loop_
 _atom_site_type_symbol
 _atom_site_label
 _atom_site_symmetry_multiplicity
 _atom_site_fract_x
 _atom_site_fract_y
 _atom_site_fract_z
 _atom_site_occupancy
  Nd  Nd0  1  0.500000  0.333435  0.333341  1
  Sm  Sm1  1  0.500000  0.666566  0.666780  1
  Sm  Sm2  1  0.000000  0.999953  0.999905  1
  Ga  Ga3  1  0.500000  0.740401  0.259742  1
  Ga  Ga4  1  0.500000  0.259727  0.999817  1
  Ga  Ga5  1  0.500000  0.999730  0.740549  1
  Ni  Ni6  1  0.000000  0.207317  0.158447  1
  Ni  Ni7  1  0.000000  0.158469  0.634208  1
  Ni  Ni8  1  0.000000  0.634232  0.207257  1
  Ni  Ni9  1  0.000000  0.841250  0.791370  1
  Ni  Ni10  1  0.000000  0.367383  0.841205  1
  Ni  Ni11  1  0.000000  0.791520  0.367284  1
  Ni  Ni12  1  0.500000  0.278709  0.721800  1
  Ni  Ni13  1  0.500000  0.721699  0.999626  1
  Ni  Ni14  1  0.500000  0.999434  0.278736  1
  Sn  Sn15  1  0.000000  0.467283  0.533531  1
  Sn  Sn16  1  0.000000  0.533580  0.999225  1
  Sn  Sn17  1  0.000000  0.999217  0.467277  1
