# generated using pymatgen
data_TbSc3(UTc3)2
_symmetry_space_group_name_H-M   'P 1'
_cell_length_a   5.63682100
_cell_length_b   5.63682159
_cell_length_c   8.17554200
_cell_angle_alpha   90.00000000
_cell_angle_beta   90.00000000
_cell_angle_gamma   120.00001413
_symmetry_Int_Tables_number   1
_chemical_formula_structural   TbSc3(UTc3)2
_chemical_formula_sum   'Tb1 Sc3 U2 Tc6'
_cell_volume   224.96536317
_cell_formula_units_Z   1
loop_
 _symmetry_equiv_pos_site_id
 _symmetry_equiv_pos_as_xyz
  1  'x, y, z'
loop_
 _atom_site_type_symbol
 _atom_site_label
 _atom_site_symmetry_multiplicity
 _atom_site_fract_x
 _atom_site_fract_y
 _atom_site_fract_z
 _atom_site_occupancy
  Tb  Tb0  1  0.333333  0.666667  0.436980  1
  Sc  Sc1  1  0.666667  0.333333  0.561864  1
  Sc  Sc2  1  0.666667  0.333333  0.941211  1
  Sc  Sc3  1  0.333333  0.666667  0.054327  1
  U  U4  1  0.000000  0.000000  0.501408  1
  U  U5  1  0.000000  0.000000  0.001220  1
  Tc  Tc6  1  0.832605  0.167395  0.248034  1
  Tc  Tc7  1  0.832605  0.665211  0.248034  1
  Tc  Tc8  1  0.334789  0.167395  0.248034  1
  Tc  Tc9  1  0.166324  0.833676  0.752962  1
  Tc  Tc10  1  0.166324  0.332646  0.752962  1
  Tc  Tc11  1  0.667354  0.833676  0.752962  1
