# generated using pymatgen
data_Sm2Mn3Si7Pt9
_symmetry_space_group_name_H-M   'P 1'
_cell_length_a   9.91466200
_cell_length_b   9.91466249
_cell_length_c   3.95380200
_cell_angle_alpha   90.00000000
_cell_angle_beta   90.00000000
_cell_angle_gamma   120.00000103
_symmetry_Int_Tables_number   1
_chemical_formula_structural   Sm2Mn3Si7Pt9
_chemical_formula_sum   'Sm2 Mn3 Si7 Pt9'
_cell_volume   336.59014189
_cell_formula_units_Z   1
loop_
 _symmetry_equiv_pos_site_id
 _symmetry_equiv_pos_as_xyz
  1  'x, y, z'
loop_
 _atom_site_type_symbol
 _atom_site_label
 _atom_site_symmetry_multiplicity
 _atom_site_fract_x
 _atom_site_fract_y
 _atom_site_fract_z
 _atom_site_occupancy
  Sm  Sm0  1  0.000000  0.000000  0.000000  1
  Sm  Sm1  1  0.333333  0.666667  0.500000  1
  Mn  Mn2  1  0.881205  0.453155  0.500000  1
  Mn  Mn3  1  0.571950  0.118795  0.500000  1
  Mn  Mn4  1  0.546845  0.428050  0.500000  1
  Si  Si5  1  0.261200  0.217750  0.500000  1
  Si  Si6  1  0.782250  0.043452  0.500000  1
  Si  Si7  1  0.956548  0.738800  0.500000  1
  Si  Si8  1  0.553251  0.632089  0.000000  1
  Si  Si9  1  0.367911  0.921161  0.000000  1
  Si  Si10  1  0.078839  0.446749  0.000000  1
  Si  Si11  1  0.666667  0.333333  0.000000  1
  Pt  Pt12  1  0.226895  0.947176  0.500000  1
  Pt  Pt13  1  0.052824  0.279719  0.500000  1
  Pt  Pt14  1  0.720281  0.773105  0.500000  1
  Pt  Pt15  1  0.302999  0.406031  0.000000  1
  Pt  Pt16  1  0.593969  0.896968  0.000000  1
  Pt  Pt17  1  0.103032  0.697001  0.000000  1
  Pt  Pt18  1  0.394371  0.177998  0.000000  1
  Pt  Pt19  1  0.822002  0.216373  0.000000  1
  Pt  Pt20  1  0.783627  0.605629  0.000000  1
