# generated using pymatgen
data_Y5Ho3Cd2CoPd
_symmetry_space_group_name_H-M   'P 1'
_cell_length_a   9.60188127
_cell_length_b   9.61221085
_cell_length_c   9.60792252
_cell_angle_alpha   59.94364614
_cell_angle_beta   60.05035044
_cell_angle_gamma   60.15830714
_symmetry_Int_Tables_number   1
_chemical_formula_structural   Y5Ho3Cd2CoPd
_chemical_formula_sum   'Y10 Ho6 Cd4 Co2 Pd2'
_cell_volume   627.75547964
_cell_formula_units_Z   2
loop_
 _symmetry_equiv_pos_site_id
 _symmetry_equiv_pos_as_xyz
  1  'x, y, z'
loop_
 _atom_site_type_symbol
 _atom_site_label
 _atom_site_symmetry_multiplicity
 _atom_site_fract_x
 _atom_site_fract_y
 _atom_site_fract_z
 _atom_site_occupancy
  Y  Y0  1  0.188256  0.820705  0.189351  1
  Y  Y1  1  0.820705  0.188256  0.801686  1
  Y  Y2  1  0.188131  0.188131  0.811869  1
  Y  Y3  1  0.809914  0.809914  0.190086  1
  Y  Y4  1  0.935000  0.562278  0.565578  1
  Y  Y5  1  0.562278  0.935000  0.937145  1
  Y  Y6  1  0.561953  0.935108  0.565653  1
  Y  Y7  1  0.935108  0.561953  0.937287  1
  Y  Y8  1  0.562609  0.562609  0.937391  1
  Y  Y9  1  0.935498  0.935498  0.564502  1
  Ho  Ho10  1  0.345532  0.345331  0.360271  1
  Ho  Ho11  1  0.345331  0.345532  0.948865  1
  Ho  Ho12  1  0.338318  0.959215  0.351567  1
  Ho  Ho13  1  0.959215  0.338318  0.350899  1
  Ho  Ho14  1  0.820617  0.188585  0.189165  1
  Ho  Ho15  1  0.188585  0.820617  0.801632  1
  Cd  Cd16  1  0.580995  0.580914  0.579619  1
  Cd  Cd17  1  0.580914  0.580995  0.258474  1
  Cd  Cd18  1  0.582940  0.255073  0.581069  1
  Cd  Cd19  1  0.255073  0.582940  0.580918  1
  Co  Co20  1  0.141658  0.144255  0.142171  1
  Co  Co21  1  0.144255  0.141658  0.571915  1
  Pd  Pd22  1  0.146973  0.570141  0.140321  1
  Pd  Pd23  1  0.570141  0.146973  0.142565  1
