# generated using pymatgen
data_Er12CuNi4Sb
_symmetry_space_group_name_H-M   'P 1'
_cell_length_a   8.28099416
_cell_length_b   8.28116277
_cell_length_c   8.28099500
_cell_angle_alpha   112.08035181
_cell_angle_beta   109.52808034
_cell_angle_gamma   106.84664347
_symmetry_Int_Tables_number   1
_chemical_formula_structural   Er12CuNi4Sb
_chemical_formula_sum   'Er12 Cu1 Ni4 Sb1'
_cell_volume   436.24710632
_cell_formula_units_Z   1
loop_
 _symmetry_equiv_pos_site_id
 _symmetry_equiv_pos_as_xyz
  1  'x, y, z'
loop_
 _atom_site_type_symbol
 _atom_site_label
 _atom_site_symmetry_multiplicity
 _atom_site_fract_x
 _atom_site_fract_y
 _atom_site_fract_z
 _atom_site_occupancy
  Er  Er0  1  0.322931  0.132008  0.809077  1
  Er  Er1  1  0.677053  0.486155  0.809101  1
  Er  Er2  1  0.416344  0.721153  0.695219  1
  Er  Er3  1  0.583656  0.278847  0.304781  1
  Er  Er4  1  0.974066  0.278847  0.695192  1
  Er  Er5  1  0.025934  0.721153  0.304808  1
  Er  Er6  1  0.322947  0.513845  0.190899  1
  Er  Er7  1  0.677069  0.867992  0.190923  1
  Er  Er8  1  0.178620  0.788397  0.967035  1
  Er  Er9  1  0.821363  0.788397  0.609776  1
  Er  Er10  1  0.178637  0.211603  0.390224  1
  Er  Er11  1  0.821380  0.211603  0.032965  1
  Cu  Cu12  1  0.000000  0.500000  0.500000  1
  Ni  Ni13  1  0.875824  0.875824  0.000000  1
  Ni  Ni14  1  0.124176  0.124176  0.000000  1
  Ni  Ni15  1  0.645559  0.500000  0.145559  1
  Ni  Ni16  1  0.354441  0.500000  0.854441  1
  Sb  Sb17  1  0.500000  0.000000  0.500000  1
