# generated using pymatgen
data_NdY2Hf(Co4P3)2
_symmetry_space_group_name_H-M   'P 1'
_cell_length_a   3.73459200
_cell_length_b   10.71979900
_cell_length_c   12.42769800
_cell_angle_alpha   90.00000000
_cell_angle_beta   90.00000000
_cell_angle_gamma   90.00000000
_symmetry_Int_Tables_number   1
_chemical_formula_structural   NdY2Hf(Co4P3)2
_chemical_formula_sum   'Nd2 Y4 Hf2 Co16 P12'
_cell_volume   497.53140110
_cell_formula_units_Z   2
loop_
 _symmetry_equiv_pos_site_id
 _symmetry_equiv_pos_as_xyz
  1  'x, y, z'
loop_
 _atom_site_type_symbol
 _atom_site_label
 _atom_site_symmetry_multiplicity
 _atom_site_fract_x
 _atom_site_fract_y
 _atom_site_fract_z
 _atom_site_occupancy
  Nd  Nd0  1  0.000000  0.500000  0.529542  1
  Nd  Nd1  1  0.500000  0.000000  0.470458  1
  Y  Y2  1  0.500000  0.821134  0.203847  1
  Y  Y3  1  0.500000  0.178866  0.203847  1
  Y  Y4  1  0.000000  0.678866  0.796153  1
  Y  Y5  1  0.000000  0.321134  0.796153  1
  Hf  Hf6  1  0.500000  0.500000  0.154607  1
  Hf  Hf7  1  0.000000  0.000000  0.845393  1
  Co  Co8  1  0.500000  0.500000  0.706394  1
  Co  Co9  1  0.000000  0.000000  0.293606  1
  Co  Co10  1  0.000000  0.500000  0.986704  1
  Co  Co11  1  0.500000  0.000000  0.013296  1
  Co  Co12  1  0.500000  0.331834  0.993346  1
  Co  Co13  1  0.500000  0.668166  0.993346  1
  Co  Co14  1  0.000000  0.168166  0.006654  1
  Co  Co15  1  0.000000  0.831834  0.006654  1
  Co  Co16  1  0.500000  0.295102  0.431875  1
  Co  Co17  1  0.500000  0.704898  0.431875  1
  Co  Co18  1  0.000000  0.204898  0.568125  1
  Co  Co19  1  0.000000  0.795102  0.568125  1
  Co  Co20  1  0.500000  0.878604  0.705126  1
  Co  Co21  1  0.500000  0.121396  0.705126  1
  Co  Co22  1  0.000000  0.621396  0.294874  1
  Co  Co23  1  0.000000  0.378604  0.294874  1
  P  P24  1  0.500000  0.500000  0.884526  1
  P  P25  1  0.000000  0.000000  0.115474  1
  P  P26  1  0.500000  0.500000  0.357681  1
  P  P27  1  0.000000  0.000000  0.642319  1
  P  P28  1  0.500000  0.306497  0.616674  1
  P  P29  1  0.500000  0.693503  0.616674  1
  P  P30  1  0.000000  0.193503  0.383326  1
  P  P31  1  0.000000  0.806497  0.383326  1
  P  P32  1  0.500000  0.838973  0.894094  1
  P  P33  1  0.500000  0.161027  0.894094  1
  P  P34  1  0.000000  0.661027  0.105906  1
  P  P35  1  0.000000  0.338973  0.105906  1
