# generated using pymatgen
data_Nd20Si11Pb
_symmetry_space_group_name_H-M   'P 1'
_cell_length_a   7.77354100
_cell_length_b   7.77354100
_cell_length_c   14.27673500
_cell_angle_alpha   90.00000000
_cell_angle_beta   90.00000000
_cell_angle_gamma   90.00000000
_symmetry_Int_Tables_number   1
_chemical_formula_structural   Nd20Si11Pb
_chemical_formula_sum   'Nd20 Si11 Pb1'
_cell_volume   862.71368139
_cell_formula_units_Z   1
loop_
 _symmetry_equiv_pos_site_id
 _symmetry_equiv_pos_as_xyz
  1  'x, y, z'
loop_
 _atom_site_type_symbol
 _atom_site_label
 _atom_site_symmetry_multiplicity
 _atom_site_fract_x
 _atom_site_fract_y
 _atom_site_fract_z
 _atom_site_occupancy
  Nd  Nd0  1  0.500000  0.000000  0.780632  1
  Nd  Nd1  1  0.317351  0.326601  0.103148  1
  Nd  Nd2  1  0.827846  0.815148  0.897078  1
  Nd  Nd3  1  0.000000  0.500000  0.259118  1
  Nd  Nd4  1  0.810040  0.164563  0.386930  1
  Nd  Nd5  1  0.172154  0.184852  0.897078  1
  Nd  Nd6  1  0.682649  0.673399  0.103148  1
  Nd  Nd7  1  0.000000  0.500000  0.737220  1
  Nd  Nd8  1  0.808100  0.836486  0.612882  1
  Nd  Nd9  1  0.335437  0.310040  0.386930  1
  Nd  Nd10  1  0.173399  0.817351  0.103148  1
  Nd  Nd11  1  0.191900  0.163514  0.612882  1
  Nd  Nd12  1  0.826601  0.182649  0.103148  1
  Nd  Nd13  1  0.336486  0.691900  0.612882  1
  Nd  Nd14  1  0.500000  0.000000  0.222523  1
  Nd  Nd15  1  0.684852  0.327846  0.897078  1
  Nd  Nd16  1  0.663514  0.308100  0.612882  1
  Nd  Nd17  1  0.315148  0.672154  0.897078  1
  Nd  Nd18  1  0.189960  0.835437  0.386930  1
  Nd  Nd19  1  0.664563  0.689960  0.386930  1
  Si  Si20  1  0.615579  0.386149  0.245037  1
  Si  Si21  1  0.886512  0.115367  0.755003  1
  Si  Si22  1  0.500000  0.000000  0.498295  1
  Si  Si23  1  0.886149  0.884421  0.245037  1
  Si  Si24  1  0.000000  0.500000  0.001781  1
  Si  Si25  1  0.113488  0.884633  0.755003  1
  Si  Si26  1  0.384633  0.386512  0.755003  1
  Si  Si27  1  0.113851  0.115579  0.245037  1
  Si  Si28  1  0.384421  0.613851  0.245037  1
  Si  Si29  1  0.615367  0.613488  0.755003  1
  Si  Si30  1  0.500000  0.000000  0.000483  1
  Pb  Pb31  1  0.000000  0.500000  0.499636  1
