# generated using pymatgen
data_Be3Fe2SiW6C
_symmetry_space_group_name_H-M   'P 1'
_cell_length_a   7.60742808
_cell_length_b   7.61140236
_cell_length_c   7.60742800
_cell_angle_alpha   60.01727137
_cell_angle_beta   60.00000036
_cell_angle_gamma   60.01727376
_symmetry_Int_Tables_number   1
_chemical_formula_structural   Be3Fe2SiW6C
_chemical_formula_sum   'Be6 Fe4 Si2 W12 C2'
_cell_volume   311.55786848
_cell_formula_units_Z   2
loop_
 _symmetry_equiv_pos_site_id
 _symmetry_equiv_pos_as_xyz
  1  'x, y, z'
loop_
 _atom_site_type_symbol
 _atom_site_label
 _atom_site_symmetry_multiplicity
 _atom_site_fract_x
 _atom_site_fract_y
 _atom_site_fract_z
 _atom_site_occupancy
  Be  Be0  1  0.329335  0.332587  0.329335  1
  Be  Be1  1  0.008742  0.332587  0.329335  1
  Be  Be2  1  0.920665  0.917413  0.241258  1
  Be  Be3  1  0.241258  0.917413  0.920665  1
  Be  Be4  1  0.329335  0.332587  0.008742  1
  Be  Be5  1  0.920665  0.917413  0.920665  1
  Fe  Fe6  1  0.125000  0.125000  0.625000  1
  Fe  Fe7  1  0.125000  0.625000  0.125000  1
  Fe  Fe8  1  0.125000  0.125000  0.125000  1
  Fe  Fe9  1  0.625000  0.125000  0.125000  1
  Si  Si10  1  0.922893  0.231321  0.922893  1
  Si  Si11  1  0.327107  0.018679  0.327107  1
  W  W12  1  0.299032  0.697404  0.704533  1
  W  W13  1  0.302673  0.299434  0.698947  1
  W  W14  1  0.551053  0.950566  0.551053  1
  W  W15  1  0.950968  0.552596  0.545467  1
  W  W16  1  0.551053  0.950566  0.947327  1
  W  W17  1  0.698947  0.299434  0.302673  1
  W  W18  1  0.950968  0.552596  0.950968  1
  W  W19  1  0.299032  0.697404  0.299032  1
  W  W20  1  0.545467  0.552596  0.950968  1
  W  W21  1  0.698947  0.299434  0.698947  1
  W  W22  1  0.704533  0.697404  0.299032  1
  W  W23  1  0.947327  0.950566  0.551053  1
  C  C24  1  0.750216  0.749351  0.750216  1
  C  C25  1  0.499784  0.500649  0.499784  1
