# generated using pymatgen
data_LuHfP7Ru12
_symmetry_space_group_name_H-M   'P 1'
_cell_length_a   9.38270200
_cell_length_b   9.38270212
_cell_length_c   3.91394700
_cell_angle_alpha   90.00000000
_cell_angle_beta   90.00000000
_cell_angle_gamma   119.99999254
_symmetry_Int_Tables_number   1
_chemical_formula_structural   LuHfP7Ru12
_chemical_formula_sum   'Lu1 Hf1 P7 Ru12'
_cell_volume   298.40181227
_cell_formula_units_Z   1
loop_
 _symmetry_equiv_pos_site_id
 _symmetry_equiv_pos_as_xyz
  1  'x, y, z'
loop_
 _atom_site_type_symbol
 _atom_site_label
 _atom_site_symmetry_multiplicity
 _atom_site_fract_x
 _atom_site_fract_y
 _atom_site_fract_z
 _atom_site_occupancy
  Lu  Lu0  1  0.333333  0.666667  0.000000  1
  Hf  Hf1  1  0.666667  0.333333  0.500000  1
  P  P2  1  0.597709  0.719401  0.500000  1
  P  P3  1  0.000000  0.000000  0.000000  1
  P  P4  1  0.280599  0.878309  0.500000  1
  P  P5  1  0.121691  0.402291  0.500000  1
  P  P6  1  0.884511  0.573934  0.000000  1
  P  P7  1  0.426066  0.310577  0.000000  1
  P  P8  1  0.689423  0.115489  0.000000  1
  Ru  Ru9  1  0.555290  0.951065  0.500000  1
  Ru  Ru10  1  0.395777  0.444710  0.500000  1
  Ru  Ru11  1  0.913527  0.123786  0.500000  1
  Ru  Ru12  1  0.210260  0.086473  0.500000  1
  Ru  Ru13  1  0.876214  0.789740  0.500000  1
  Ru  Ru14  1  0.726344  0.889902  0.000000  1
  Ru  Ru15  1  0.110098  0.836440  0.000000  1
  Ru  Ru16  1  0.163560  0.273656  0.000000  1
  Ru  Ru17  1  0.429798  0.073676  0.000000  1
  Ru  Ru18  1  0.926324  0.356123  0.000000  1
  Ru  Ru19  1  0.643877  0.570202  0.000000  1
  Ru  Ru20  1  0.048935  0.604223  0.500000  1
