# generated using pymatgen
data_RbV3F9
_symmetry_space_group_name_H-M   'P 1'
_cell_length_a   7.61398070
_cell_length_b   7.63799281
_cell_length_c   7.85157537
_cell_angle_alpha   89.92126078
_cell_angle_beta   90.16753169
_cell_angle_gamma   59.93011634
_symmetry_Int_Tables_number   1
_chemical_formula_structural   RbV3F9
_chemical_formula_sum   'Rb2 V6 F18'
_cell_volume   395.15547127
_cell_formula_units_Z   2
loop_
 _symmetry_equiv_pos_site_id
 _symmetry_equiv_pos_as_xyz
  1  'x, y, z'
loop_
 _atom_site_type_symbol
 _atom_site_label
 _atom_site_symmetry_multiplicity
 _atom_site_fract_x
 _atom_site_fract_y
 _atom_site_fract_z
 _atom_site_occupancy
  Rb  Rb0  1  0.979560  0.510033  0.249694  1
  Rb  Rb1  1  0.016240  0.495452  0.748196  1
  V  V2  1  0.499191  0.000111  0.999044  1
  V  V3  1  0.499248  0.499999  0.000053  1
  V  V4  1  0.999370  0.000098  0.499608  1
  V  V5  1  0.999265  0.999962  0.999682  1
  V  V6  1  0.499445  0.500063  0.500156  1
  V  V7  1  0.499333  0.000098  0.499202  1
  F  F8  1  0.545771  0.512297  0.748847  1
  F  F9  1  0.446743  0.066001  0.257571  1
  F  F10  1  0.788913  0.307506  0.471801  1
  F  F11  1  0.207054  0.100676  0.531812  1
  F  F12  1  0.793683  0.297797  0.031910  1
  F  F13  1  0.190503  0.100163  0.967419  1
  F  F14  1  0.420130  0.289943  0.545443  1
  F  F15  1  0.579146  0.709747  0.453941  1
  F  F16  1  0.056748  0.971342  0.241609  1
  F  F17  1  0.941710  0.027929  0.757658  1
  F  F18  1  0.415569  0.300561  0.958858  1
  F  F19  1  0.583027  0.699584  0.040295  1
  F  F20  1  0.792126  0.898901  0.466580  1
  F  F21  1  0.209816  0.692735  0.528527  1
  F  F22  1  0.807970  0.899521  0.031037  1
  F  F23  1  0.204712  0.701896  0.968383  1
  F  F24  1  0.552858  0.933393  0.740692  1
  F  F25  1  0.452998  0.487973  0.251372  1
