# generated using pymatgen
data_Tb10Cd7InNi4
_symmetry_space_group_name_H-M   'P 1'
_cell_length_a   3.56825000
_cell_length_b   7.95181522
_cell_length_c   18.20300465
_cell_angle_alpha   89.79209949
_cell_angle_beta   90.00000000
_cell_angle_gamma   90.00000000
_symmetry_Int_Tables_number   1
_chemical_formula_structural   Tb10Cd7InNi4
_chemical_formula_sum   'Tb10 Cd7 In1 Ni4'
_cell_volume   516.48983092
_cell_formula_units_Z   1
loop_
 _symmetry_equiv_pos_site_id
 _symmetry_equiv_pos_as_xyz
  1  'x, y, z'
loop_
 _atom_site_type_symbol
 _atom_site_label
 _atom_site_symmetry_multiplicity
 _atom_site_fract_x
 _atom_site_fract_y
 _atom_site_fract_z
 _atom_site_occupancy
  Tb  Tb0  1  0.000000  0.498344  0.499806  1
  Tb  Tb1  1  0.000000  0.001514  0.998875  1
  Tb  Tb2  1  0.000000  0.748872  0.279446  1
  Tb  Tb3  1  0.000000  0.251791  0.720731  1
  Tb  Tb4  1  0.000000  0.750777  0.779211  1
  Tb  Tb5  1  0.000000  0.248083  0.220370  1
  Tb  Tb6  1  0.000000  0.615770  0.088415  1
  Tb  Tb7  1  0.000000  0.385899  0.911924  1
  Tb  Tb8  1  0.000000  0.885258  0.588302  1
  Tb  Tb9  1  0.000000  0.114058  0.411924  1
  Cd  Cd10  1  0.500000  0.711280  0.930223  1
  Cd  Cd11  1  0.500000  0.290702  0.069287  1
  Cd  Cd12  1  0.500000  0.787817  0.430560  1
  Cd  Cd13  1  0.500000  0.209973  0.570059  1
  Cd  Cd14  1  0.500000  0.568602  0.650906  1
  Cd  Cd15  1  0.500000  0.431362  0.348442  1
  Cd  Cd16  1  0.500000  0.931682  0.151125  1
  In  In17  1  0.500000  0.067679  0.848534  1
  Ni  Ni18  1  0.500000  0.527705  0.196686  1
  Ni  Ni19  1  0.500000  0.471623  0.803906  1
  Ni  Ni20  1  0.500000  0.973254  0.697114  1
  Ni  Ni21  1  0.500000  0.027955  0.304154  1
