# generated using pymatgen
data_Ho2H12Os
_symmetry_space_group_name_H-M   'P 1'
_cell_length_a   6.81203741
_cell_length_b   4.79749340
_cell_length_c   4.76699489
_cell_angle_alpha   60.48731439
_cell_angle_beta   96.40874385
_cell_angle_gamma   75.20637688
_symmetry_Int_Tables_number   1
_chemical_formula_structural   Ho2H12Os
_chemical_formula_sum   'Ho2 H12 Os1'
_cell_volume   125.75466394
_cell_formula_units_Z   1
loop_
 _symmetry_equiv_pos_site_id
 _symmetry_equiv_pos_as_xyz
  1  'x, y, z'
loop_
 _atom_site_type_symbol
 _atom_site_label
 _atom_site_symmetry_multiplicity
 _atom_site_fract_x
 _atom_site_fract_y
 _atom_site_fract_z
 _atom_site_occupancy
  Ho  Ho0  1  0.093941  0.278183  0.347630  1
  Ho  Ho1  1  0.524290  0.676761  0.206620  1
  H  H2  1  0.804328  0.710764  0.041475  1
  H  H3  1  0.742248  0.803509  0.528163  1
  H  H4  1  0.451653  0.213033  0.191132  1
  H  H5  1  0.458434  0.206927  0.681348  1
  H  H6  1  0.487703  0.686179  0.701346  1
  H  H7  1  0.810147  0.278942  0.037194  1
  H  H8  1  0.886625  0.164673  0.996363  1
  H  H9  1  0.133557  0.271216  0.851553  1
  H  H10  1  0.805086  0.752758  0.425591  1
  H  H11  1  0.160495  0.749883  0.874219  1
  H  H12  1  0.163690  0.746660  0.361791  1
  H  H13  1  0.812541  0.250288  0.496304  1
  Os  Os14  1  0.309482  0.479758  0.776220  1
