# generated using pymatgen
data_Hf3(ThSi2)2
_symmetry_space_group_name_H-M   'P 1'
_cell_length_a   7.40114900
_cell_length_b   7.40114900
_cell_length_c   13.60894800
_cell_angle_alpha   90.00000000
_cell_angle_beta   90.00000000
_cell_angle_gamma   90.00000000
_symmetry_Int_Tables_number   1
_chemical_formula_structural   Hf3(ThSi2)2
_chemical_formula_sum   'Hf12 Th8 Si16'
_cell_volume   745.45743333
_cell_formula_units_Z   4
loop_
 _symmetry_equiv_pos_site_id
 _symmetry_equiv_pos_as_xyz
  1  'x, y, z'
loop_
 _atom_site_type_symbol
 _atom_site_label
 _atom_site_symmetry_multiplicity
 _atom_site_fract_x
 _atom_site_fract_y
 _atom_site_fract_z
 _atom_site_occupancy
  Hf  Hf0  1  0.174341  0.174341  0.000000  1
  Hf  Hf1  1  0.825659  0.825659  0.500000  1
  Hf  Hf2  1  0.325659  0.674341  0.250000  1
  Hf  Hf3  1  0.674341  0.325659  0.750000  1
  Hf  Hf4  1  0.153853  0.996788  0.375339  1
  Hf  Hf5  1  0.846147  0.003212  0.875339  1
  Hf  Hf6  1  0.503212  0.653853  0.625339  1
  Hf  Hf7  1  0.346147  0.496788  0.874661  1
  Hf  Hf8  1  0.496788  0.346147  0.125339  1
  Hf  Hf9  1  0.653853  0.503212  0.374661  1
  Hf  Hf10  1  0.996788  0.153853  0.624661  1
  Hf  Hf11  1  0.003212  0.846147  0.124661  1
  Th  Th12  1  0.996209  0.341833  0.216143  1
  Th  Th13  1  0.003791  0.658167  0.716143  1
  Th  Th14  1  0.158167  0.496209  0.466143  1
  Th  Th15  1  0.503791  0.841833  0.033857  1
  Th  Th16  1  0.841833  0.503791  0.966143  1
  Th  Th17  1  0.496209  0.158167  0.533857  1
  Th  Th18  1  0.341833  0.996209  0.783857  1
  Th  Th19  1  0.658167  0.003791  0.283857  1
  Si  Si20  1  0.367553  0.297581  0.315754  1
  Si  Si21  1  0.632447  0.702419  0.815754  1
  Si  Si22  1  0.202419  0.867553  0.565754  1
  Si  Si23  1  0.132447  0.797581  0.934246  1
  Si  Si24  1  0.797581  0.132447  0.065754  1
  Si  Si25  1  0.867553  0.202419  0.434246  1
  Si  Si26  1  0.297581  0.367553  0.684246  1
  Si  Si27  1  0.702419  0.632447  0.184246  1
  Si  Si28  1  0.290992  0.046094  0.185202  1
  Si  Si29  1  0.709008  0.953906  0.685202  1
  Si  Si30  1  0.453906  0.790992  0.435202  1
  Si  Si31  1  0.209008  0.546094  0.064798  1
  Si  Si32  1  0.546094  0.209008  0.935202  1
  Si  Si33  1  0.790992  0.453906  0.564798  1
  Si  Si34  1  0.046094  0.290992  0.814798  1
  Si  Si35  1  0.953906  0.709008  0.314798  1
