# generated using pymatgen
data_KHf4Zr2In3CBr18
_symmetry_space_group_name_H-M   'P 1'
_cell_length_a   10.32751751
_cell_length_b   10.53741550
_cell_length_c   10.59786700
_cell_angle_alpha   118.37116256
_cell_angle_beta   100.05249348
_cell_angle_gamma   104.01293737
_symmetry_Int_Tables_number   1
_chemical_formula_structural   KHf4Zr2In3CBr18
_chemical_formula_sum   'K1 Hf4 Zr2 In3 C1 Br18'
_cell_volume   926.20341866
_cell_formula_units_Z   1
loop_
 _symmetry_equiv_pos_site_id
 _symmetry_equiv_pos_as_xyz
  1  'x, y, z'
loop_
 _atom_site_type_symbol
 _atom_site_label
 _atom_site_symmetry_multiplicity
 _atom_site_fract_x
 _atom_site_fract_y
 _atom_site_fract_z
 _atom_site_occupancy
  K  K0  1  0.178989  0.723856  0.560412  1
  Hf  Hf1  1  0.353858  0.443560  0.776362  1
  Hf  Hf2  1  0.364555  0.622408  0.130260  1
  Hf  Hf3  1  0.643187  0.731164  0.042599  1
  Hf  Hf4  1  0.646192  0.551623  0.221724  1
  Zr  Zr5  1  0.359159  0.268272  0.956201  1
  Zr  Zr6  1  0.633010  0.375453  0.869480  1
  In  In7  1  0.853516  0.964745  0.775748  1
  In  In8  1  0.147079  0.036350  0.223849  1
  In  In9  1  0.821630  0.279235  0.444032  1
  C  C10  1  0.500187  0.506242  0.003207  1
  Br  Br11  1  0.822835  0.422838  0.111972  1
  Br  Br12  1  0.516287  0.703093  0.406634  1
  Br  Br13  1  0.171339  0.976830  0.899959  1
  Br  Br14  1  0.179967  0.577542  0.891063  1
  Br  Br15  1  0.828764  0.830143  0.308831  1
  Br  Br16  1  0.506459  0.298137  0.212619  1
  Br  Br17  1  0.799788  0.223351  0.707168  1
  Br  Br18  1  0.168356  0.167803  0.686806  1
  Br  Br19  1  0.508985  0.906019  0.195161  1
  Br  Br20  1  0.818936  0.629395  0.903136  1
  Br  Br21  1  0.205112  0.776722  0.288743  1
  Br  Br22  1  0.164242  0.379888  0.500334  1
  Br  Br23  1  0.495260  0.702513  0.791093  1
  Br  Br24  1  0.823056  0.019697  0.100698  1
  Br  Br25  1  0.482222  0.296931  0.589418  1
  Br  Br26  1  0.181521  0.375485  0.099558  1
  Br  Br27  1  0.834218  0.624223  0.501770  1
  Br  Br28  1  0.491290  0.086481  0.801163  1
