# generated using pymatgen
data_Ac3Yb(InRh)4
_symmetry_space_group_name_H-M   'P 1'
_cell_length_a   4.37161500
_cell_length_b   7.56077437
_cell_length_c   8.84377079
_cell_angle_alpha   89.90909390
_cell_angle_beta   90.00000000
_cell_angle_gamma   90.00000000
_symmetry_Int_Tables_number   1
_chemical_formula_structural   Ac3Yb(InRh)4
_chemical_formula_sum   'Ac3 Yb1 In4 Rh4'
_cell_volume   292.31097203
_cell_formula_units_Z   1
loop_
 _symmetry_equiv_pos_site_id
 _symmetry_equiv_pos_as_xyz
  1  'x, y, z'
loop_
 _atom_site_type_symbol
 _atom_site_label
 _atom_site_symmetry_multiplicity
 _atom_site_fract_x
 _atom_site_fract_y
 _atom_site_fract_z
 _atom_site_occupancy
  Ac  Ac0  1  0.250000  0.031504  0.182841  1
  Ac  Ac1  1  0.750000  0.966820  0.816735  1
  Ac  Ac2  1  0.250000  0.530595  0.325365  1
  Yb  Yb3  1  0.750000  0.465550  0.684706  1
  In  In4  1  0.750000  0.363221  0.052911  1
  In  In5  1  0.250000  0.632354  0.932812  1
  In  In6  1  0.750000  0.856476  0.445571  1
  In  In7  1  0.250000  0.151709  0.562893  1
  Rh  Rh8  1  0.250000  0.763498  0.632195  1
  Rh  Rh9  1  0.750000  0.235001  0.365142  1
  Rh  Rh10  1  0.250000  0.265635  0.865900  1
  Rh  Rh11  1  0.750000  0.737635  0.132929  1
