# generated using pymatgen
data_Li2Pr3ZnAgSn4
_symmetry_space_group_name_H-M   'P 1'
_cell_length_a   8.85679391
_cell_length_b   8.92894524
_cell_length_c   8.92894601
_cell_angle_alpha   149.29992417
_cell_angle_beta   131.23775215
_cell_angle_gamma   58.80884773
_symmetry_Int_Tables_number   1
_chemical_formula_structural   Li2Pr3ZnAgSn4
_chemical_formula_sum   'Li2 Pr3 Zn1 Ag1 Sn4'
_cell_volume   268.88351109
_cell_formula_units_Z   1
loop_
 _symmetry_equiv_pos_site_id
 _symmetry_equiv_pos_as_xyz
  1  'x, y, z'
loop_
 _atom_site_type_symbol
 _atom_site_label
 _atom_site_symmetry_multiplicity
 _atom_site_fract_x
 _atom_site_fract_y
 _atom_site_fract_z
 _atom_site_occupancy
  Li  Li0  1  0.856814  0.672288  0.184526  1
  Li  Li1  1  0.139406  0.326608  0.812797  1
  Pr  Pr2  1  0.502914  0.999396  0.503516  1
  Pr  Pr3  1  0.860532  0.871805  0.988727  1
  Pr  Pr4  1  0.142460  0.130319  0.012141  1
  Zn  Zn5  1  0.479117  0.667244  0.811874  1
  Ag  Ag6  1  0.518173  0.334899  0.183274  1
  Sn  Sn7  1  0.282458  0.782130  0.500328  1
  Sn  Sn8  1  0.710745  0.213580  0.497164  1
  Sn  Sn9  1  0.813012  0.505382  0.307630  1
  Sn  Sn10  1  0.194372  0.496348  0.698024  1
