# generated using pymatgen
data_TbPrU2F15
_symmetry_space_group_name_H-M   'P 1'
_cell_length_a   7.89495515
_cell_length_b   7.80077404
_cell_length_c   7.89495463
_cell_angle_alpha   112.50647312
_cell_angle_beta   113.50245080
_cell_angle_gamma   112.50647936
_symmetry_Int_Tables_number   1
_chemical_formula_structural   TbPrU2F15
_chemical_formula_sum   'Tb1 Pr1 U2 F15'
_cell_volume   319.22739664
_cell_formula_units_Z   1
loop_
 _symmetry_equiv_pos_site_id
 _symmetry_equiv_pos_as_xyz
  1  'x, y, z'
loop_
 _atom_site_type_symbol
 _atom_site_label
 _atom_site_symmetry_multiplicity
 _atom_site_fract_x
 _atom_site_fract_y
 _atom_site_fract_z
 _atom_site_occupancy
  Tb  Tb0  1  0.851628  0.276792  0.851628  1
  Pr  Pr1  1  0.494752  0.495078  0.494752  1
  U  U2  1  0.290023  0.854306  0.863053  1
  U  U3  1  0.863053  0.854306  0.290023  1
  F  F4  1  0.606427  0.938394  0.151034  1
  F  F5  1  0.929851  0.135097  0.592236  1
  F  F6  1  0.148490  0.607888  0.930574  1
  F  F7  1  0.930574  0.607888  0.148490  1
  F  F8  1  0.597216  0.588699  0.249117  1
  F  F9  1  0.249117  0.588699  0.597216  1
  F  F10  1  0.600947  0.279143  0.600947  1
  F  F11  1  0.137744  0.136916  0.354516  1
  F  F12  1  0.354516  0.136916  0.137744  1
  F  F13  1  0.156424  0.372199  0.156424  1
  F  F14  1  0.662125  0.674766  0.905101  1
  F  F15  1  0.905101  0.674766  0.662125  1
  F  F16  1  0.665909  0.891823  0.665909  1
  F  F17  1  0.151034  0.938394  0.606427  1
  F  F18  1  0.592236  0.135097  0.929851  1
