# generated using pymatgen
data_Ta3BeNbB3
_symmetry_space_group_name_H-M   'P 1'
_cell_length_a   3.21263600
_cell_length_b   3.31919900
_cell_length_c   8.86023800
_cell_angle_alpha   90.00000000
_cell_angle_beta   90.00000000
_cell_angle_gamma   90.00000000
_symmetry_Int_Tables_number   1
_chemical_formula_structural   Ta3BeNbB3
_chemical_formula_sum   'Ta3 Be1 Nb1 B3'
_cell_volume   94.48006872
_cell_formula_units_Z   1
loop_
 _symmetry_equiv_pos_site_id
 _symmetry_equiv_pos_as_xyz
  1  'x, y, z'
loop_
 _atom_site_type_symbol
 _atom_site_label
 _atom_site_symmetry_multiplicity
 _atom_site_fract_x
 _atom_site_fract_y
 _atom_site_fract_z
 _atom_site_occupancy
  Ta  Ta0  1  0.000000  0.500000  0.648944  1
  Ta  Ta1  1  0.500000  0.500000  0.351745  1
  Ta  Ta2  1  0.500000  0.000000  0.857967  1
  Be  Be3  1  0.500000  0.000000  0.560006  1
  Nb  Nb4  1  0.000000  0.000000  0.145200  1
  B  B5  1  0.000000  0.000000  0.435000  1
  B  B6  1  0.000000  0.500000  0.941053  1
  B  B7  1  0.500000  0.500000  0.060086  1
