# generated using pymatgen
data_TbHoGa4PdAu
_symmetry_space_group_name_H-M   'P 1'
_cell_length_a   5.58310759
_cell_length_b   5.58310688
_cell_length_c   6.65506100
_cell_angle_alpha   90.00000000
_cell_angle_beta   90.00000000
_cell_angle_gamma   132.56661124
_symmetry_Int_Tables_number   1
_chemical_formula_structural   TbHoGa4PdAu
_chemical_formula_sum   'Tb1 Ho1 Ga4 Pd1 Au1'
_cell_volume   152.78181472
_cell_formula_units_Z   1
loop_
 _symmetry_equiv_pos_site_id
 _symmetry_equiv_pos_as_xyz
  1  'x, y, z'
loop_
 _atom_site_type_symbol
 _atom_site_label
 _atom_site_symmetry_multiplicity
 _atom_site_fract_x
 _atom_site_fract_y
 _atom_site_fract_z
 _atom_site_occupancy
  Tb  Tb0  1  0.091706  0.908294  0.250000  1
  Ho  Ho1  1  0.910991  0.089009  0.750000  1
  Ga  Ga2  1  0.374157  0.625843  0.046128  1
  Ga  Ga3  1  0.624519  0.375481  0.556917  1
  Ga  Ga4  1  0.624519  0.375481  0.943083  1
  Ga  Ga5  1  0.374157  0.625843  0.453872  1
  Pd  Pd6  1  0.199636  0.800364  0.750000  1
  Au  Au7  1  0.800317  0.199683  0.250000  1
