# generated using pymatgen
data_Ho12CdCo5
_symmetry_space_group_name_H-M   'P 1'
_cell_length_a   8.26398106
_cell_length_b   8.26472026
_cell_length_c   8.26398171
_cell_angle_alpha   110.50227677
_cell_angle_beta   110.44147160
_cell_angle_gamma   107.48443426
_symmetry_Int_Tables_number   1
_chemical_formula_structural   Ho12CdCo5
_chemical_formula_sum   'Ho12 Cd1 Co5'
_cell_volume   434.12433906
_cell_formula_units_Z   1
loop_
 _symmetry_equiv_pos_site_id
 _symmetry_equiv_pos_as_xyz
  1  'x, y, z'
loop_
 _atom_site_type_symbol
 _atom_site_label
 _atom_site_symmetry_multiplicity
 _atom_site_fract_x
 _atom_site_fract_y
 _atom_site_fract_z
 _atom_site_occupancy
  Ho  Ho0  1  0.816731  0.710978  0.527710  1
  Ho  Ho1  1  0.183269  0.289022  0.472290  1
  Ho  Ho2  1  0.183269  0.710978  0.894247  1
  Ho  Ho3  1  0.816731  0.289022  0.105753  1
  Ho  Ho4  1  0.684525  0.379199  0.694675  1
  Ho  Ho5  1  0.315475  0.620801  0.305325  1
  Ho  Ho6  1  0.684620  0.989929  0.305308  1
  Ho  Ho7  1  0.315380  0.010071  0.694692  1
  Ho  Ho8  1  0.596609  0.789736  0.806853  1
  Ho  Ho9  1  0.403391  0.210264  0.193147  1
  Ho  Ho10  1  0.982882  0.789736  0.193126  1
  Ho  Ho11  1  0.017118  0.210264  0.806874  1
  Cd  Cd12  1  0.500000  0.500000  0.000000  1
  Co  Co13  1  0.622759  0.000000  0.622759  1
  Co  Co14  1  0.377241  0.000000  0.377241  1
  Co  Co15  1  0.112872  0.612897  0.500025  1
  Co  Co16  1  0.887128  0.387103  0.499975  1
  Co  Co17  1  0.000000  0.000000  0.000000  1
