# generated using pymatgen
data_TbEr3Cu2(Si2Ru)2
_symmetry_space_group_name_H-M   'P 1'
_cell_length_a   4.21318000
_cell_length_b   6.93216774
_cell_length_c   7.33023038
_cell_angle_alpha   91.39873295
_cell_angle_beta   90.00000000
_cell_angle_gamma   90.00000000
_symmetry_Int_Tables_number   1
_chemical_formula_structural   TbEr3Cu2(Si2Ru)2
_chemical_formula_sum   'Tb1 Er3 Cu2 Si4 Ru2'
_cell_volume   214.02636482
_cell_formula_units_Z   1
loop_
 _symmetry_equiv_pos_site_id
 _symmetry_equiv_pos_as_xyz
  1  'x, y, z'
loop_
 _atom_site_type_symbol
 _atom_site_label
 _atom_site_symmetry_multiplicity
 _atom_site_fract_x
 _atom_site_fract_y
 _atom_site_fract_z
 _atom_site_occupancy
  Tb  Tb0  1  0.250000  0.993654  0.798114  1
  Er  Er1  1  0.750000  0.006266  0.202518  1
  Er  Er2  1  0.250000  0.492545  0.688535  1
  Er  Er3  1  0.750000  0.508034  0.311686  1
  Cu  Cu4  1  0.750000  0.833014  0.572003  1
  Cu  Cu5  1  0.250000  0.167054  0.424950  1
  Si  Si6  1  0.250000  0.298429  0.092842  1
  Si  Si7  1  0.750000  0.700729  0.909988  1
  Si  Si8  1  0.250000  0.795251  0.388562  1
  Si  Si9  1  0.750000  0.206319  0.609244  1
  Ru  Ru10  1  0.750000  0.346170  0.935212  1
  Ru  Ru11  1  0.250000  0.652535  0.066347  1
