# generated using pymatgen
data_Ce5Dy11(InCo)4
_symmetry_space_group_name_H-M   'P 1'
_cell_length_a   9.46097409
_cell_length_b   9.56433248
_cell_length_c   9.53458900
_cell_angle_alpha   120.10324457
_cell_angle_beta   89.39233435
_cell_angle_gamma   120.36205444
_symmetry_Int_Tables_number   1
_chemical_formula_structural   Ce5Dy11(InCo)4
_chemical_formula_sum   'Ce5 Dy11 In4 Co4'
_cell_volume   608.97427305
_cell_formula_units_Z   1
loop_
 _symmetry_equiv_pos_site_id
 _symmetry_equiv_pos_as_xyz
  1  'x, y, z'
loop_
 _atom_site_type_symbol
 _atom_site_label
 _atom_site_symmetry_multiplicity
 _atom_site_fract_x
 _atom_site_fract_y
 _atom_site_fract_z
 _atom_site_occupancy
  Ce  Ce0  1  0.179287  0.994498  0.182961  1
  Ce  Ce1  1  0.179287  0.367749  0.182961  1
  Ce  Ce2  1  0.653702  0.305579  0.340208  1
  Ce  Ce3  1  0.043552  0.697830  0.352109  1
  Ce  Ce4  1  0.653702  0.688330  0.340208  1
  Dy  Dy5  1  0.803855  0.995083  0.186313  1
  Dy  Dy6  1  0.060583  0.124861  0.560219  1
  Dy  Dy7  1  0.060583  0.495940  0.560219  1
  Dy  Dy8  1  0.437517  0.497768  0.558019  1
  Dy  Dy9  1  0.186503  0.995320  0.804137  1
  Dy  Dy10  1  0.807994  0.995381  0.808447  1
  Dy  Dy11  1  0.807994  0.621059  0.808447  1
  Dy  Dy12  1  0.060308  0.499212  0.938115  1
  Dy  Dy13  1  0.429228  0.496966  0.931952  1
  Dy  Dy14  1  0.429228  0.864214  0.931952  1
  Dy  Dy15  1  0.653150  0.305349  0.957548  1
  In  In16  1  0.421528  0.840245  0.258962  1
  In  In17  1  0.422480  0.166329  0.585737  1
  In  In18  1  0.744806  0.164219  0.583630  1
  In  In19  1  0.422480  0.841888  0.585737  1
  Co  Co20  1  0.409968  0.286615  0.163262  1
  Co  Co21  1  0.893979  0.308487  0.159560  1
  Co  Co22  1  0.893979  0.745053  0.159560  1
  Co  Co23  1  0.844309  0.702022  0.559736  1
