# generated using pymatgen
data_La2Zn2NiRh
_symmetry_space_group_name_H-M   'P 1'
_cell_length_a   3.99652000
_cell_length_b   7.45370600
_cell_length_c   16.38090701
_cell_angle_alpha   89.99660078
_cell_angle_beta   90.00000000
_cell_angle_gamma   90.00000000
_symmetry_Int_Tables_number   1
_chemical_formula_structural   La2Zn2NiRh
_chemical_formula_sum   'La8 Zn8 Ni4 Rh4'
_cell_volume   487.96895608
_cell_formula_units_Z   4
loop_
 _symmetry_equiv_pos_site_id
 _symmetry_equiv_pos_as_xyz
  1  'x, y, z'
loop_
 _atom_site_type_symbol
 _atom_site_label
 _atom_site_symmetry_multiplicity
 _atom_site_fract_x
 _atom_site_fract_y
 _atom_site_fract_z
 _atom_site_occupancy
  La  La0  1  0.750000  0.328458  0.440642  1
  La  La1  1  0.250000  0.051769  0.717354  1
  La  La2  1  0.250000  0.550197  0.782905  1
  La  La3  1  0.250000  0.675207  0.558656  1
  La  La4  1  0.750000  0.827160  0.058776  1
  La  La5  1  0.250000  0.172286  0.940996  1
  La  La6  1  0.750000  0.451083  0.217355  1
  La  La7  1  0.750000  0.952902  0.283547  1
  Zn  Zn8  1  0.250000  0.126376  0.150469  1
  Zn  Zn9  1  0.250000  0.002752  0.440126  1
  Zn  Zn10  1  0.750000  0.869029  0.852316  1
  Zn  Zn11  1  0.750000  0.007166  0.560629  1
  Zn  Zn12  1  0.250000  0.499935  0.058069  1
  Zn  Zn13  1  0.750000  0.366705  0.647835  1
  Zn  Zn14  1  0.750000  0.503856  0.937738  1
  Zn  Zn15  1  0.250000  0.622786  0.350163  1
  Ni  Ni16  1  0.750000  0.252702  0.814475  1
  Ni  Ni17  1  0.250000  0.247150  0.317057  1
  Ni  Ni18  1  0.250000  0.736280  0.933482  1
  Ni  Ni19  1  0.250000  0.237076  0.566216  1
  Rh  Rh20  1  0.250000  0.750621  0.183929  1
  Rh  Rh21  1  0.750000  0.760745  0.435781  1
  Rh  Rh22  1  0.750000  0.260240  0.063691  1
  Rh  Rh23  1  0.750000  0.747517  0.687790  1
