# generated using pymatgen
data_YLu3(AlNi)4
_symmetry_space_group_name_H-M   'P 1'
_cell_length_a   4.23578500
_cell_length_b   6.58816854
_cell_length_c   7.56236242
_cell_angle_alpha   88.74322717
_cell_angle_beta   90.00000000
_cell_angle_gamma   90.00000000
_symmetry_Int_Tables_number   1
_chemical_formula_structural   YLu3(AlNi)4
_chemical_formula_sum   'Y1 Lu3 Al4 Ni4'
_cell_volume   210.98501452
_cell_formula_units_Z   1
loop_
 _symmetry_equiv_pos_site_id
 _symmetry_equiv_pos_as_xyz
  1  'x, y, z'
loop_
 _atom_site_type_symbol
 _atom_site_label
 _atom_site_symmetry_multiplicity
 _atom_site_fract_x
 _atom_site_fract_y
 _atom_site_fract_z
 _atom_site_occupancy
  Y  Y0  1  0.750000  0.466606  0.824610  1
  Lu  Lu1  1  0.250000  0.033237  0.322142  1
  Lu  Lu2  1  0.250000  0.536472  0.178989  1
  Lu  Lu3  1  0.750000  0.965812  0.674821  1
  Al  Al4  1  0.250000  0.141517  0.941241  1
  Al  Al5  1  0.250000  0.641810  0.558509  1
  Al  Al6  1  0.750000  0.860949  0.058910  1
  Al  Al7  1  0.750000  0.357061  0.440671  1
  Ni  Ni8  1  0.250000  0.264639  0.617781  1
  Ni  Ni9  1  0.250000  0.776237  0.877179  1
  Ni  Ni10  1  0.750000  0.728458  0.376332  1
  Ni  Ni11  1  0.750000  0.227201  0.128812  1
