# generated using pymatgen
data_NaTb2Ho4Co6Sn23
_symmetry_space_group_name_H-M   'P 1'
_cell_length_a   9.71993604
_cell_length_b   9.71875276
_cell_length_c   9.96462402
_cell_angle_alpha   90.00000142
_cell_angle_beta   89.99334018
_cell_angle_gamma   119.99597720
_symmetry_Int_Tables_number   1
_chemical_formula_structural   NaTb2Ho4Co6Sn23
_chemical_formula_sum   'Na1 Tb2 Ho4 Co6 Sn23'
_cell_volume   815.23551126
_cell_formula_units_Z   1
loop_
 _symmetry_equiv_pos_site_id
 _symmetry_equiv_pos_as_xyz
  1  'x, y, z'
loop_
 _atom_site_type_symbol
 _atom_site_label
 _atom_site_symmetry_multiplicity
 _atom_site_fract_x
 _atom_site_fract_y
 _atom_site_fract_z
 _atom_site_occupancy
  Na  Na0  1  0.999987  0.999994  0.000016  1
  Tb  Tb1  1  0.520434  0.479512  0.694065  1
  Tb  Tb2  1  0.520434  0.040923  0.694065  1
  Ho  Ho3  1  0.959550  0.479775  0.694083  1
  Ho  Ho4  1  0.040439  0.520220  0.305870  1
  Ho  Ho5  1  0.479777  0.959576  0.305820  1
  Ho  Ho6  1  0.479777  0.520201  0.305820  1
  Co  Co7  1  0.170113  0.829264  0.799281  1
  Co  Co8  1  0.170113  0.340849  0.799281  1
  Co  Co9  1  0.659344  0.829672  0.799338  1
  Co  Co10  1  0.340907  0.170453  0.200808  1
  Co  Co11  1  0.829547  0.659069  0.200850  1
  Co  Co12  1  0.829547  0.170478  0.200850  1
  Sn  Sn13  1  0.666675  0.333337  0.184692  1
  Sn  Sn14  1  0.667295  0.333647  0.882935  1
  Sn  Sn15  1  0.333319  0.666660  0.117848  1
  Sn  Sn16  1  0.344028  0.344065  0.000135  1
  Sn  Sn17  1  0.999975  0.655870  0.000042  1
  Sn  Sn18  1  0.655980  0.000024  0.000127  1
  Sn  Sn19  1  0.655980  0.655956  0.000127  1
  Sn  Sn20  1  0.333177  0.666589  0.815373  1
  Sn  Sn21  1  0.436670  0.218336  0.452948  1
  Sn  Sn22  1  0.217989  0.781206  0.546364  1
  Sn  Sn23  1  0.217989  0.436781  0.546364  1
  Sn  Sn24  1  0.563268  0.781633  0.546203  1
  Sn  Sn25  1  0.116401  0.883574  0.271750  1
  Sn  Sn26  1  0.781804  0.563283  0.453185  1
  Sn  Sn27  1  0.781804  0.218523  0.453185  1
  Sn  Sn28  1  0.344028  0.999963  0.000135  1
  Sn  Sn29  1  0.116401  0.232826  0.271750  1
  Sn  Sn30  1  0.767233  0.883616  0.271726  1
  Sn  Sn31  1  0.232197  0.116099  0.728345  1
  Sn  Sn32  1  0.883944  0.767493  0.728304  1
  Sn  Sn33  1  0.883944  0.116451  0.728304  1
  Sn  Sn34  1  0.999955  0.999978  0.499967  1
  Sn  Sn35  1  0.999975  0.344105  0.000042  1
