# generated using pymatgen
data_SrNiPd3O8
_symmetry_space_group_name_H-M   'P 1'
_cell_length_a   6.15074300
_cell_length_b   6.90904556
_cell_length_c   10.65398807
_cell_angle_alpha   104.88763769
_cell_angle_beta   90.00196981
_cell_angle_gamma   63.56816773
_symmetry_Int_Tables_number   1
_chemical_formula_structural   SrNiPd3O8
_chemical_formula_sum   'Sr2 Ni2 Pd6 O16'
_cell_volume   388.37731287
_cell_formula_units_Z   2
loop_
 _symmetry_equiv_pos_site_id
 _symmetry_equiv_pos_as_xyz
  1  'x, y, z'
loop_
 _atom_site_type_symbol
 _atom_site_label
 _atom_site_symmetry_multiplicity
 _atom_site_fract_x
 _atom_site_fract_y
 _atom_site_fract_z
 _atom_site_occupancy
  Sr  Sr0  1  0.750020  0.499961  0.749998  1
  Sr  Sr1  1  0.250023  0.499954  0.249989  1
  Ni  Ni2  1  0.500069  0.999884  0.499962  1
  Ni  Ni3  1  0.000076  0.999888  0.999974  1
  Pd  Pd4  1  0.250108  0.000009  0.750064  1
  Pd  Pd5  1  0.750075  0.000028  0.250011  1
  Pd  Pd6  1  0.999995  0.000012  0.499935  1
  Pd  Pd7  1  0.499994  0.000012  0.999934  1
  Pd  Pd8  1  0.749882  0.000008  0.750064  1
  Pd  Pd9  1  0.249894  0.000025  0.250009  1
  O  O10  1  0.084903  0.830193  0.638359  1
  O  O11  1  0.584893  0.830219  0.138380  1
  O  O12  1  0.415071  0.169845  0.861632  1
  O  O13  1  0.915063  0.169871  0.361653  1
  O  O14  1  0.831605  0.822185  0.884599  1
  O  O15  1  0.331606  0.822184  0.384609  1
  O  O16  1  0.911090  0.177806  0.858139  1
  O  O17  1  0.411085  0.177827  0.358153  1
  O  O18  1  0.668324  0.177832  0.615376  1
  O  O19  1  0.168320  0.177831  0.115385  1
  O  O20  1  0.153892  0.177823  0.615374  1
  O  O21  1  0.653893  0.177822  0.115383  1
  O  O22  1  0.588908  0.822186  0.641896  1
  O  O23  1  0.088901  0.822208  0.141908  1
  O  O24  1  0.346153  0.822195  0.884603  1
  O  O25  1  0.846160  0.822193  0.384611  1
