# generated using pymatgen
data_DyYCo12Si4P3
_symmetry_space_group_name_H-M   'P 1'
_cell_length_a   9.11399700
_cell_length_b   9.11399594
_cell_length_c   3.60653900
_cell_angle_alpha   90.00000000
_cell_angle_beta   90.00000000
_cell_angle_gamma   120.00000021
_symmetry_Int_Tables_number   1
_chemical_formula_structural   DyYCo12Si4P3
_chemical_formula_sum   'Dy1 Y1 Co12 Si4 P3'
_cell_volume   259.44121879
_cell_formula_units_Z   1
loop_
 _symmetry_equiv_pos_site_id
 _symmetry_equiv_pos_as_xyz
  1  'x, y, z'
loop_
 _atom_site_type_symbol
 _atom_site_label
 _atom_site_symmetry_multiplicity
 _atom_site_fract_x
 _atom_site_fract_y
 _atom_site_fract_z
 _atom_site_occupancy
  Dy  Dy0  1  0.333333  0.666667  0.000000  1
  Y  Y1  1  0.666667  0.333333  0.500000  1
  Co  Co2  1  0.435103  0.381383  0.000000  1
  Co  Co3  1  0.618617  0.053720  0.000000  1
  Co  Co4  1  0.946280  0.564897  0.000000  1
  Co  Co5  1  0.149531  0.869901  0.000000  1
  Co  Co6  1  0.130099  0.279629  0.000000  1
  Co  Co7  1  0.720371  0.850469  0.000000  1
  Co  Co8  1  0.379638  0.941533  0.500000  1
  Co  Co9  1  0.058467  0.438105  0.500000  1
  Co  Co10  1  0.561895  0.620362  0.500000  1
  Co  Co11  1  0.234628  0.130458  0.500000  1
  Co  Co12  1  0.869542  0.104170  0.500000  1
  Co  Co13  1  0.895830  0.765372  0.500000  1
  Si  Si14  1  0.397834  0.111205  0.000000  1
  Si  Si15  1  0.888795  0.286629  0.000000  1
  Si  Si16  1  0.713371  0.602166  0.000000  1
  Si  Si17  1  0.000000  0.000000  0.000000  1
  P  P18  1  0.108008  0.707038  0.500000  1
  P  P19  1  0.292962  0.400970  0.500000  1
  P  P20  1  0.599030  0.891992  0.500000  1
