# generated using pymatgen
data_Tb4DyMg2P12Ir17
_symmetry_space_group_name_H-M   'P 1'
_cell_length_a   12.67394300
_cell_length_b   12.83143397
_cell_length_c   3.98408200
_cell_angle_alpha   90.00000000
_cell_angle_beta   90.00000000
_cell_angle_gamma   119.59605625
_symmetry_Int_Tables_number   1
_chemical_formula_structural   Tb4DyMg2P12Ir17
_chemical_formula_sum   'Tb4 Dy1 Mg2 P12 Ir17'
_cell_volume   563.37717198
_cell_formula_units_Z   1
loop_
 _symmetry_equiv_pos_site_id
 _symmetry_equiv_pos_as_xyz
  1  'x, y, z'
loop_
 _atom_site_type_symbol
 _atom_site_label
 _atom_site_symmetry_multiplicity
 _atom_site_fract_x
 _atom_site_fract_y
 _atom_site_fract_z
 _atom_site_occupancy
  Tb  Tb0  1  0.332911  0.664250  0.500000  1
  Tb  Tb1  1  0.002277  0.813176  0.000000  1
  Tb  Tb2  1  0.189104  0.186832  0.000000  1
  Tb  Tb3  1  0.810104  0.999991  0.000000  1
  Dy  Dy4  1  0.668732  0.335769  0.500000  1
  Mg  Mg5  1  0.997645  0.444060  0.500000  1
  Mg  Mg6  1  0.553605  0.555924  0.500000  1
  P  P7  1  0.003129  0.643214  0.500000  1
  P  P8  1  0.359880  0.356817  0.500000  1
  P  P9  1  0.642348  0.999964  0.500000  1
  P  P10  1  0.514210  0.686001  0.000000  1
  P  P11  1  0.308218  0.824389  0.000000  1
  P  P12  1  0.168621  0.481205  0.000000  1
  P  P13  1  0.484013  0.175809  0.000000  1
  P  P14  1  0.687390  0.518587  0.000000  1
  P  P15  1  0.827986  0.313995  0.000000  1
  P  P16  1  0.998713  0.175994  0.500000  1
  P  P17  1  0.822735  0.823988  0.500000  1
  P  P18  1  0.179134  0.000021  0.500000  1
  Ir  Ir19  1  0.505212  0.866407  0.000000  1
  Ir  Ir20  1  0.127991  0.639794  0.000000  1
  Ir  Ir21  1  0.357700  0.492290  0.000000  1
  Ir  Ir22  1  0.488575  0.360178  0.000000  1
  Ir  Ir23  1  0.864995  0.507354  0.000000  1
  Ir  Ir24  1  0.638822  0.133929  0.000000  1
  Ir  Ir25  1  0.462041  0.000017  0.500000  1
  Ir  Ir26  1  0.996412  0.279491  0.000000  1
  Ir  Ir27  1  0.716980  0.720482  0.000000  1
  Ir  Ir28  1  0.287609  0.000036  0.000000  1
  Ir  Ir29  1  0.622717  0.806949  0.500000  1
  Ir  Ir30  1  0.201415  0.824895  0.500000  1
  Ir  Ir31  1  0.176865  0.367772  0.500000  1
  Ir  Ir32  1  0.376630  0.175162  0.500000  1
  Ir  Ir33  1  0.809095  0.632170  0.500000  1
  Ir  Ir34  1  0.815681  0.193092  0.500000  1
  Ir  Ir35  1  0.000505  0.999997  0.500000  1
