# generated using pymatgen
data_K3ReF8
_symmetry_space_group_name_H-M   'P 1'
_cell_length_a   8.44436900
_cell_length_b   8.44436869
_cell_length_c   6.37654600
_cell_angle_alpha   90.00000000
_cell_angle_beta   90.00000000
_cell_angle_gamma   119.99999731
_symmetry_Int_Tables_number   1
_chemical_formula_structural   K3ReF8
_chemical_formula_sum   'K6 Re2 F16'
_cell_volume   393.77716674
_cell_formula_units_Z   2
loop_
 _symmetry_equiv_pos_site_id
 _symmetry_equiv_pos_as_xyz
  1  'x, y, z'
loop_
 _atom_site_type_symbol
 _atom_site_label
 _atom_site_symmetry_multiplicity
 _atom_site_fract_x
 _atom_site_fract_y
 _atom_site_fract_z
 _atom_site_occupancy
  K  K0  1  0.152230  0.304459  0.246589  1
  K  K1  1  0.847770  0.695541  0.746590  1
  K  K2  1  0.695541  0.847770  0.246589  1
  K  K3  1  0.152230  0.847770  0.246589  1
  K  K4  1  0.847770  0.152230  0.746590  1
  K  K5  1  0.304459  0.152230  0.746590  1
  Re  Re6  1  0.333333  0.666667  0.732528  1
  Re  Re7  1  0.666667  0.333333  0.232528  1
  F  F8  1  0.000000  0.000000  0.005485  1
  F  F9  1  0.000000  0.000000  0.505485  1
  F  F10  1  0.436429  0.563571  0.535498  1
  F  F11  1  0.563571  0.436429  0.035498  1
  F  F12  1  0.436429  0.872858  0.535498  1
  F  F13  1  0.127142  0.563571  0.535498  1
  F  F14  1  0.872858  0.436429  0.035498  1
  F  F15  1  0.563571  0.127142  0.035498  1
  F  F16  1  0.333333  0.666667  0.042201  1
  F  F17  1  0.666667  0.333333  0.542201  1
  F  F18  1  0.202172  0.797828  0.819559  1
  F  F19  1  0.797828  0.202172  0.319559  1
  F  F20  1  0.202172  0.404344  0.819559  1
  F  F21  1  0.595656  0.797828  0.819559  1
  F  F22  1  0.404344  0.202172  0.319559  1
  F  F23  1  0.797828  0.595656  0.319559  1
