# generated using pymatgen
data_Ce4Ho3Er3(AgPb3)2
_symmetry_space_group_name_H-M   'P 1'
_cell_length_a   9.49364200
_cell_length_b   9.49364374
_cell_length_c   6.42144200
_cell_angle_alpha   90.00000000
_cell_angle_beta   90.00000000
_cell_angle_gamma   120.00000788
_symmetry_Int_Tables_number   1
_chemical_formula_structural   Ce4Ho3Er3(AgPb3)2
_chemical_formula_sum   'Ce4 Ho3 Er3 Ag2 Pb6'
_cell_volume   501.22063504
_cell_formula_units_Z   1
loop_
 _symmetry_equiv_pos_site_id
 _symmetry_equiv_pos_as_xyz
  1  'x, y, z'
loop_
 _atom_site_type_symbol
 _atom_site_label
 _atom_site_symmetry_multiplicity
 _atom_site_fract_x
 _atom_site_fract_y
 _atom_site_fract_z
 _atom_site_occupancy
  Ce  Ce0  1  0.666667  0.333333  0.500020  1
  Ce  Ce1  1  0.333333  0.666667  0.500020  1
  Ce  Ce2  1  0.333333  0.666667  0.999949  1
  Ce  Ce3  1  0.666667  0.333333  0.999949  1
  Ho  Ho4  1  0.724536  0.724536  0.249999  1
  Ho  Ho5  1  0.275464  0.000000  0.249999  1
  Ho  Ho6  1  0.000000  0.275464  0.249999  1
  Er  Er7  1  0.275492  0.275492  0.750033  1
  Er  Er8  1  0.724508  0.000000  0.750033  1
  Er  Er9  1  0.000000  0.724508  0.750033  1
  Ag  Ag10  1  0.000000  0.000000  0.500380  1
  Ag  Ag11  1  0.000000  0.000000  0.999601  1
  Pb  Pb12  1  0.371527  0.371527  0.250009  1
  Pb  Pb13  1  0.628473  0.000000  0.250009  1
  Pb  Pb14  1  0.000000  0.628473  0.250009  1
  Pb  Pb15  1  0.628544  0.628544  0.749985  1
  Pb  Pb16  1  0.371456  0.000000  0.749985  1
  Pb  Pb17  1  0.000000  0.371456  0.749985  1
