# generated using pymatgen
data_Dy3Er5(Si3Pt)4
_symmetry_space_group_name_H-M   'P 1'
_cell_length_a   8.12377355
_cell_length_b   8.12377391
_cell_length_c   8.10028400
_cell_angle_alpha   90.00000000
_cell_angle_beta   90.00000000
_cell_angle_gamma   120.04220569
_symmetry_Int_Tables_number   1
_chemical_formula_structural   Dy3Er5(Si3Pt)4
_chemical_formula_sum   'Dy3 Er5 Si12 Pt4'
_cell_volume   462.76622570
_cell_formula_units_Z   1
loop_
 _symmetry_equiv_pos_site_id
 _symmetry_equiv_pos_as_xyz
  1  'x, y, z'
loop_
 _atom_site_type_symbol
 _atom_site_label
 _atom_site_symmetry_multiplicity
 _atom_site_fract_x
 _atom_site_fract_y
 _atom_site_fract_z
 _atom_site_occupancy
  Dy  Dy0  1  0.000008  0.999992  0.250000  1
  Dy  Dy1  1  0.000000  0.000000  0.750000  1
  Dy  Dy2  1  0.497826  0.502174  0.250000  1
  Er  Er3  1  0.497839  0.995724  0.250000  1
  Er  Er4  1  0.004276  0.502161  0.250000  1
  Er  Er5  1  0.502164  0.497836  0.750000  1
  Er  Er6  1  0.995646  0.497827  0.750000  1
  Er  Er7  1  0.502173  0.004354  0.750000  1
  Si  Si8  1  0.834492  0.165508  0.498703  1
  Si  Si9  1  0.834544  0.668942  0.498949  1
  Si  Si10  1  0.331058  0.165456  0.498949  1
  Si  Si11  1  0.834492  0.165508  0.001297  1
  Si  Si12  1  0.834544  0.668942  0.001051  1
  Si  Si13  1  0.331058  0.165456  0.001051  1
  Si  Si14  1  0.165524  0.834476  0.998716  1
  Si  Si15  1  0.668959  0.834565  0.998423  1
  Si  Si16  1  0.165435  0.331041  0.998423  1
  Si  Si17  1  0.165524  0.834476  0.501284  1
  Si  Si18  1  0.668959  0.834565  0.501577  1
  Si  Si19  1  0.165435  0.331041  0.501577  1
  Pt  Pt20  1  0.666958  0.333042  0.496316  1
  Pt  Pt21  1  0.666958  0.333042  0.003684  1
  Pt  Pt22  1  0.333063  0.666937  0.994832  1
  Pt  Pt23  1  0.333063  0.666937  0.505168  1
