# generated using pymatgen
data_Tb3Gd2YTa2O14
_symmetry_space_group_name_H-M   'P 1'
_cell_length_a   6.49548572
_cell_length_b   6.49916473
_cell_length_c   7.56745700
_cell_angle_alpha   90.00000000
_cell_angle_beta   90.00000000
_cell_angle_gamma   109.38445884
_symmetry_Int_Tables_number   1
_chemical_formula_structural   Tb3Gd2YTa2O14
_chemical_formula_sum   'Tb3 Gd2 Y1 Ta2 O14'
_cell_volume   301.35252169
_cell_formula_units_Z   1
loop_
 _symmetry_equiv_pos_site_id
 _symmetry_equiv_pos_as_xyz
  1  'x, y, z'
loop_
 _atom_site_type_symbol
 _atom_site_label
 _atom_site_symmetry_multiplicity
 _atom_site_fract_x
 _atom_site_fract_y
 _atom_site_fract_z
 _atom_site_occupancy
  Tb  Tb0  1  0.534409  0.000164  0.750000  1
  Tb  Tb1  1  0.000114  0.534255  0.250000  1
  Tb  Tb2  1  0.465717  0.999915  0.250000  1
  Gd  Gd3  1  0.499925  0.499953  0.499990  1
  Gd  Gd4  1  0.499925  0.499953  0.000010  1
  Y  Y5  1  0.999801  0.466291  0.750000  1
  Ta  Ta6  1  0.999987  0.999927  0.500098  1
  Ta  Ta7  1  0.999987  0.999927  0.999902  1
  O  O8  1  0.679770  0.929449  0.468180  1
  O  O9  1  0.929636  0.679874  0.531950  1
  O  O10  1  0.679770  0.929449  0.031820  1
  O  O11  1  0.929636  0.679874  0.968050  1
  O  O12  1  0.320274  0.070526  0.531831  1
  O  O13  1  0.070473  0.320203  0.468372  1
  O  O14  1  0.320274  0.070526  0.968169  1
  O  O15  1  0.070473  0.320203  0.031628  1
  O  O16  1  0.935623  0.064313  0.750000  1
  O  O17  1  0.064370  0.935652  0.250000  1
  O  O18  1  0.368537  0.630046  0.750000  1
  O  O19  1  0.630487  0.369441  0.250000  1
  O  O20  1  0.639324  0.361441  0.750000  1
  O  O21  1  0.361491  0.638619  0.250000  1
