# generated using pymatgen
data_Dy2Tm4Al15Si9Ru8
_symmetry_space_group_name_H-M   'P 1'
_cell_length_a   8.66776030
_cell_length_b   8.67230108
_cell_length_c   9.35880500
_cell_angle_alpha   90.00000000
_cell_angle_beta   90.00000000
_cell_angle_gamma   119.97331435
_symmetry_Int_Tables_number   1
_chemical_formula_structural   Dy2Tm4Al15Si9Ru8
_chemical_formula_sum   'Dy2 Tm4 Al15 Si9 Ru8'
_cell_volume   609.40917660
_cell_formula_units_Z   1
loop_
 _symmetry_equiv_pos_site_id
 _symmetry_equiv_pos_as_xyz
  1  'x, y, z'
loop_
 _atom_site_type_symbol
 _atom_site_label
 _atom_site_symmetry_multiplicity
 _atom_site_fract_x
 _atom_site_fract_y
 _atom_site_fract_z
 _atom_site_occupancy
  Dy  Dy0  1  0.807606  0.193730  0.750000  1
  Dy  Dy1  1  0.190268  0.805636  0.250000  1
  Tm  Tm2  1  0.389821  0.195270  0.750000  1
  Tm  Tm3  1  0.611887  0.803914  0.250000  1
  Tm  Tm4  1  0.804884  0.609273  0.750000  1
  Tm  Tm5  1  0.194582  0.389461  0.250000  1
  Al  Al6  1  0.834813  0.163353  0.420844  1
  Al  Al7  1  0.164003  0.835393  0.581187  1
  Al  Al8  1  0.328732  0.163959  0.421810  1
  Al  Al9  1  0.164003  0.835393  0.918813  1
  Al  Al10  1  0.671034  0.834775  0.580419  1
  Al  Al11  1  0.834813  0.163353  0.079156  1
  Al  Al12  1  0.835105  0.671213  0.421642  1
  Al  Al13  1  0.671034  0.834775  0.919581  1
  Al  Al14  1  0.165359  0.329647  0.579482  1
  Al  Al15  1  0.328732  0.163959  0.078190  1
  Al  Al16  1  0.165359  0.329647  0.920518  1
  Al  Al17  1  0.835105  0.671213  0.078358  1
  Al  Al18  1  0.564064  0.128188  0.250000  1
  Al  Al19  1  0.001067  0.997767  0.750000  1
  Al  Al20  1  0.998734  0.001679  0.250000  1
  Si  Si21  1  0.665558  0.331268  0.959789  1
  Si  Si22  1  0.334194  0.668154  0.041402  1
  Si  Si23  1  0.334194  0.668154  0.458598  1
  Si  Si24  1  0.665558  0.331268  0.540211  1
  Si  Si25  1  0.439228  0.561723  0.750000  1
  Si  Si26  1  0.563321  0.440464  0.250000  1
  Si  Si27  1  0.124297  0.563016  0.750000  1
  Si  Si28  1  0.875853  0.439573  0.250000  1
  Si  Si29  1  0.436935  0.874711  0.750000  1
  Ru  Ru30  1  0.499864  0.500888  0.999127  1
  Ru  Ru31  1  0.001138  0.500925  0.999064  1
  Ru  Ru32  1  0.499864  0.500888  0.500873  1
  Ru  Ru33  1  0.498894  0.997974  0.993047  1
  Ru  Ru34  1  0.001138  0.500925  0.500936  1
  Ru  Ru35  1  0.498894  0.997974  0.506953  1
  Ru  Ru36  1  0.000031  0.000250  0.000241  1
  Ru  Ru37  1  0.000031  0.000250  0.499759  1
