# generated using pymatgen
data_Cs4Na2ScGaP4
_symmetry_space_group_name_H-M   'P 1'
_cell_length_a   9.51580458
_cell_length_b   9.51580508
_cell_length_c   9.51580444
_cell_angle_alpha   139.98932707
_cell_angle_beta   137.64312276
_cell_angle_gamma   59.67612432
_symmetry_Int_Tables_number   1
_chemical_formula_structural   Cs4Na2ScGaP4
_chemical_formula_sum   'Cs4 Na2 Sc1 Ga1 P4'
_cell_volume   369.51553027
_cell_formula_units_Z   1
loop_
 _symmetry_equiv_pos_site_id
 _symmetry_equiv_pos_as_xyz
  1  'x, y, z'
loop_
 _atom_site_type_symbol
 _atom_site_label
 _atom_site_symmetry_multiplicity
 _atom_site_fract_x
 _atom_site_fract_y
 _atom_site_fract_z
 _atom_site_occupancy
  Cs  Cs0  1  0.550112  0.321260  0.223390  1
  Cs  Cs1  1  0.449888  0.673279  0.771149  1
  Cs  Cs2  1  0.097870  0.826721  0.276610  1
  Cs  Cs3  1  0.902130  0.178740  0.728851  1
  Na  Na4  1  0.500000  0.250000  0.750000  1
  Na  Na5  1  0.500000  0.750000  0.250000  1
  Sc  Sc6  1  0.000000  0.750000  0.750000  1
  Ga  Ga7  1  0.000000  0.250000  0.250000  1
  P  P8  1  0.287569  0.093893  0.213447  1
  P  P9  1  0.712431  0.925878  0.806325  1
  P  P10  1  0.880447  0.574122  0.286553  1
  P  P11  1  0.119553  0.406107  0.693675  1
