# generated using pymatgen
data_Dy2Er2Hf3ScRh4
_symmetry_space_group_name_H-M   'P 1'
_cell_length_a   4.56153700
_cell_length_b   6.96100277
_cell_length_c   8.29572532
_cell_angle_alpha   90.14599359
_cell_angle_beta   90.00000000
_cell_angle_gamma   90.00000000
_symmetry_Int_Tables_number   1
_chemical_formula_structural   Dy2Er2Hf3ScRh4
_chemical_formula_sum   'Dy2 Er2 Hf3 Sc1 Rh4'
_cell_volume   263.41224642
_cell_formula_units_Z   1
loop_
 _symmetry_equiv_pos_site_id
 _symmetry_equiv_pos_as_xyz
  1  'x, y, z'
loop_
 _atom_site_type_symbol
 _atom_site_label
 _atom_site_symmetry_multiplicity
 _atom_site_fract_x
 _atom_site_fract_y
 _atom_site_fract_z
 _atom_site_occupancy
  Dy  Dy0  1  0.250000  0.985680  0.324073  1
  Dy  Dy1  1  0.250000  0.483208  0.174334  1
  Er  Er2  1  0.750000  0.018926  0.679824  1
  Er  Er3  1  0.750000  0.513227  0.821692  1
  Hf  Hf4  1  0.250000  0.364370  0.574340  1
  Hf  Hf5  1  0.250000  0.856701  0.926799  1
  Hf  Hf6  1  0.750000  0.644672  0.424823  1
  Sc  Sc7  1  0.750000  0.137689  0.075856  1
  Rh  Rh8  1  0.250000  0.232445  0.901362  1
  Rh  Rh9  1  0.250000  0.737276  0.589925  1
  Rh  Rh10  1  0.750000  0.756118  0.088737  1
  Rh  Rh11  1  0.750000  0.269690  0.418235  1
