# generated using pymatgen
data_Dy9Mg(Co2Au)2
_symmetry_space_group_name_H-M   'P 1'
_cell_length_a   8.50277396
_cell_length_b   8.50277490
_cell_length_c   8.50277564
_cell_angle_alpha   128.59746453
_cell_angle_beta   128.59746585
_cell_angle_gamma   75.65913774
_symmetry_Int_Tables_number   1
_chemical_formula_structural   Dy9Mg(Co2Au)2
_chemical_formula_sum   'Dy9 Mg1 Co4 Au2'
_cell_volume   365.27268803
_cell_formula_units_Z   1
loop_
 _symmetry_equiv_pos_site_id
 _symmetry_equiv_pos_as_xyz
  1  'x, y, z'
loop_
 _atom_site_type_symbol
 _atom_site_label
 _atom_site_symmetry_multiplicity
 _atom_site_fract_x
 _atom_site_fract_y
 _atom_site_fract_z
 _atom_site_occupancy
  Dy  Dy0  1  0.000000  0.000000  0.000000  1
  Dy  Dy1  1  0.793148  0.311905  0.839905  1
  Dy  Dy2  1  0.206852  0.688095  0.160096  1
  Dy  Dy3  1  0.472001  0.953244  0.160096  1
  Dy  Dy4  1  0.311905  0.472001  0.518757  1
  Dy  Dy5  1  0.046756  0.206852  0.518757  1
  Dy  Dy6  1  0.527999  0.046756  0.839904  1
  Dy  Dy7  1  0.688095  0.527999  0.481243  1
  Dy  Dy8  1  0.953244  0.793148  0.481243  1
  Mg  Mg9  1  0.500000  0.500000  0.000000  1
  Co  Co10  1  0.122520  0.625934  0.748455  1
  Co  Co11  1  0.877480  0.374066  0.251545  1
  Co  Co12  1  0.625934  0.877480  0.503414  1
  Co  Co13  1  0.374066  0.122520  0.496586  1
  Au  Au14  1  0.243711  0.243711  0.000000  1
  Au  Au15  1  0.756289  0.756289  0.000000  1
