# generated using pymatgen
data_Lu10In6Se
_symmetry_space_group_name_H-M   'P 1'
_cell_length_a   8.93470100
_cell_length_b   8.93470208
_cell_length_c   6.50647900
_cell_angle_alpha   90.00000000
_cell_angle_beta   90.00000000
_cell_angle_gamma   119.99999970
_symmetry_Int_Tables_number   1
_chemical_formula_structural   Lu10In6Se
_chemical_formula_sum   'Lu10 In6 Se1'
_cell_volume   449.81793215
_cell_formula_units_Z   1
loop_
 _symmetry_equiv_pos_site_id
 _symmetry_equiv_pos_as_xyz
  1  'x, y, z'
loop_
 _atom_site_type_symbol
 _atom_site_label
 _atom_site_symmetry_multiplicity
 _atom_site_fract_x
 _atom_site_fract_y
 _atom_site_fract_z
 _atom_site_occupancy
  Lu  Lu0  1  0.000000  0.747787  0.244852  1
  Lu  Lu1  1  0.252213  0.252213  0.244852  1
  Lu  Lu2  1  0.747787  0.000000  0.244852  1
  Lu  Lu3  1  0.000000  0.252213  0.755148  1
  Lu  Lu4  1  0.747787  0.747787  0.755148  1
  Lu  Lu5  1  0.252213  0.000000  0.755148  1
  Lu  Lu6  1  0.333333  0.666667  0.500000  1
  Lu  Lu7  1  0.666667  0.333333  0.500000  1
  Lu  Lu8  1  0.666667  0.333333  0.000000  1
  Lu  Lu9  1  0.333333  0.666667  0.000000  1
  In  In10  1  0.000000  0.395565  0.246701  1
  In  In11  1  0.604435  0.604435  0.246701  1
  In  In12  1  0.395565  0.000000  0.246701  1
  In  In13  1  0.000000  0.604435  0.753299  1
  In  In14  1  0.395565  0.395565  0.753299  1
  In  In15  1  0.604435  0.000000  0.753299  1
  Se  Se16  1  0.000000  0.000000  0.500000  1
