# generated using pymatgen
data_Zn5Fe6SiRh12
_symmetry_space_group_name_H-M   'P 1'
_cell_length_a   4.25865600
_cell_length_b   6.01651400
_cell_length_c   12.76424200
_cell_angle_alpha   89.99996300
_cell_angle_beta   89.99801239
_cell_angle_gamma   90.00002298
_symmetry_Int_Tables_number   1
_chemical_formula_structural   Zn5Fe6SiRh12
_chemical_formula_sum   'Zn5 Fe6 Si1 Rh12'
_cell_volume   327.04877110
_cell_formula_units_Z   1
loop_
 _symmetry_equiv_pos_site_id
 _symmetry_equiv_pos_as_xyz
  1  'x, y, z'
loop_
 _atom_site_type_symbol
 _atom_site_label
 _atom_site_symmetry_multiplicity
 _atom_site_fract_x
 _atom_site_fract_y
 _atom_site_fract_z
 _atom_site_occupancy
  Zn  Zn0  1  0.499887  0.000000  0.165844  1
  Zn  Zn1  1  0.999904  0.499999  0.332595  1
  Zn  Zn2  1  0.500001  0.000000  0.500000  1
  Zn  Zn3  1  0.000096  0.499999  0.667405  1
  Zn  Zn4  1  0.500112  0.000000  0.834156  1
  Fe  Fe5  1  0.000000  0.000000  0.000000  1
  Fe  Fe6  1  0.499880  0.499999  0.171335  1
  Fe  Fe7  1  0.999874  0.000000  0.333626  1
  Fe  Fe8  1  0.500001  0.499999  0.500000  1
  Fe  Fe9  1  0.000125  0.000000  0.666374  1
  Fe  Fe10  1  0.500119  0.499999  0.828665  1
  Si  Si11  1  0.000000  0.499999  0.000000  1
  Rh  Rh12  1  0.500000  0.260739  0.000000  1
  Rh  Rh13  1  0.500002  0.739262  0.000000  1
  Rh  Rh14  1  0.999890  0.255576  0.160807  1
  Rh  Rh15  1  0.999891  0.744424  0.160808  1
  Rh  Rh16  1  0.499907  0.249488  0.332496  1
  Rh  Rh17  1  0.499906  0.750512  0.332496  1
  Rh  Rh18  1  0.000000  0.249476  0.500000  1
  Rh  Rh19  1  0.000000  0.750524  0.500000  1
  Rh  Rh20  1  0.500093  0.249488  0.667504  1
  Rh  Rh21  1  0.500092  0.750512  0.667504  1
  Rh  Rh22  1  0.000110  0.255575  0.839192  1
  Rh  Rh23  1  0.000111  0.744423  0.839193  1
