# generated using pymatgen
data_Rb7Na9(SiSe4)4
_symmetry_space_group_name_H-M   'P 1'
_cell_length_a   7.32451261
_cell_length_b   10.21496900
_cell_length_c   15.08974297
_cell_angle_alpha   90.00000000
_cell_angle_beta   90.25032807
_cell_angle_gamma   90.00000000
_symmetry_Int_Tables_number   1
_chemical_formula_structural   Rb7Na9(SiSe4)4
_chemical_formula_sum   'Rb7 Na9 Si4 Se16'
_cell_volume   1128.99880333
_cell_formula_units_Z   1
loop_
 _symmetry_equiv_pos_site_id
 _symmetry_equiv_pos_as_xyz
  1  'x, y, z'
loop_
 _atom_site_type_symbol
 _atom_site_label
 _atom_site_symmetry_multiplicity
 _atom_site_fract_x
 _atom_site_fract_y
 _atom_site_fract_z
 _atom_site_occupancy
  Rb  Rb0  1  0.006456  0.997518  0.999616  1
  Rb  Rb1  1  0.499043  0.001676  0.501127  1
  Rb  Rb2  1  0.006456  0.502482  0.999616  1
  Rb  Rb3  1  0.499043  0.498324  0.501127  1
  Rb  Rb4  1  0.006878  0.750000  0.430233  1
  Rb  Rb5  1  0.512350  0.250000  0.071889  1
  Rb  Rb6  1  0.990844  0.250000  0.573697  1
  Na  Na7  1  0.550798  0.750000  0.942837  1
  Na  Na8  1  0.818429  0.051476  0.253342  1
  Na  Na9  1  0.318758  0.945285  0.240287  1
  Na  Na10  1  0.180198  0.558605  0.747574  1
  Na  Na11  1  0.682962  0.445087  0.760494  1
  Na  Na12  1  0.180198  0.941395  0.747574  1
  Na  Na13  1  0.682962  0.054913  0.760494  1
  Na  Na14  1  0.818429  0.448524  0.253342  1
  Na  Na15  1  0.318758  0.554715  0.240287  1
  Si  Si16  1  0.772707  0.750000  0.684459  1
  Si  Si17  1  0.211435  0.250000  0.314683  1
  Si  Si18  1  0.708621  0.750000  0.178770  1
  Si  Si19  1  0.292219  0.250000  0.818674  1
  Se  Se20  1  0.977369  0.250000  0.822408  1
  Se  Se21  1  0.526427  0.250000  0.316999  1
  Se  Se22  1  0.459871  0.750000  0.673085  1
  Se  Se23  1  0.022756  0.750000  0.177837  1
  Se  Se24  1  0.600596  0.570712  0.103362  1
  Se  Se25  1  0.106497  0.433169  0.386128  1
  Se  Se26  1  0.397337  0.064366  0.889597  1
  Se  Se27  1  0.889236  0.932117  0.615946  1
  Se  Se28  1  0.397337  0.435634  0.889597  1
  Se  Se29  1  0.889236  0.567883  0.615946  1
  Se  Se30  1  0.600596  0.929288  0.103362  1
  Se  Se31  1  0.106497  0.066831  0.386128  1
  Se  Se32  1  0.589678  0.750000  0.320967  1
  Se  Se33  1  0.088771  0.250000  0.172520  1
  Se  Se34  1  0.410803  0.250000  0.675850  1
  Se  Se35  1  0.879452  0.750000  0.830147  1
