# generated using pymatgen
data_HoNpSc2(ReB6)2
_symmetry_space_group_name_H-M   'P 1'
_cell_length_a   3.58672000
_cell_length_b   8.98919715
_cell_length_c   11.35139241
_cell_angle_alpha   90.12801936
_cell_angle_beta   90.00000000
_cell_angle_gamma   90.00000000
_symmetry_Int_Tables_number   1
_chemical_formula_structural   HoNpSc2(ReB6)2
_chemical_formula_sum   'Ho2 Np2 Sc4 Re4 B24'
_cell_volume   365.98765210
_cell_formula_units_Z   2
loop_
 _symmetry_equiv_pos_site_id
 _symmetry_equiv_pos_as_xyz
  1  'x, y, z'
loop_
 _atom_site_type_symbol
 _atom_site_label
 _atom_site_symmetry_multiplicity
 _atom_site_fract_x
 _atom_site_fract_y
 _atom_site_fract_z
 _atom_site_occupancy
  Ho  Ho0  1  0.000000  0.821124  0.085656  1
  Ho  Ho1  1  0.000000  0.178876  0.914344  1
  Np  Np2  1  0.000000  0.319582  0.413767  1
  Np  Np3  1  0.000000  0.680418  0.586233  1
  Sc  Sc4  1  0.000000  0.945593  0.372840  1
  Sc  Sc5  1  0.000000  0.054407  0.627160  1
  Sc  Sc6  1  0.000000  0.444272  0.127432  1
  Sc  Sc7  1  0.000000  0.555728  0.872568  1
  Re  Re8  1  0.000000  0.637900  0.322112  1
  Re  Re9  1  0.000000  0.362100  0.677888  1
  Re  Re10  1  0.000000  0.142374  0.183533  1
  Re  Re11  1  0.000000  0.857626  0.816467  1
  B  B12  1  0.500000  0.553127  0.433540  1
  B  B13  1  0.500000  0.446873  0.566460  1
  B  B14  1  0.500000  0.054211  0.067074  1
  B  B15  1  0.500000  0.945789  0.932926  1
  B  B16  1  0.500000  0.753220  0.419633  1
  B  B17  1  0.500000  0.246780  0.580367  1
  B  B18  1  0.500000  0.253445  0.080649  1
  B  B19  1  0.500000  0.746555  0.919351  1
  B  B20  1  0.500000  0.794358  0.265129  1
  B  B21  1  0.500000  0.205642  0.734871  1
  B  B22  1  0.500000  0.295219  0.235164  1
  B  B23  1  0.500000  0.704781  0.764836  1
  B  B24  1  0.500000  0.628921  0.183007  1
  B  B25  1  0.500000  0.371079  0.816993  1
  B  B26  1  0.500000  0.130440  0.317541  1
  B  B27  1  0.500000  0.869560  0.682459  1
  B  B28  1  0.500000  0.980885  0.213879  1
  B  B29  1  0.500000  0.019115  0.786121  1
  B  B30  1  0.500000  0.480453  0.285954  1
  B  B31  1  0.500000  0.519547  0.714046  1
  B  B32  1  0.500000  0.597363  0.026844  1
  B  B33  1  0.500000  0.402637  0.973156  1
  B  B34  1  0.500000  0.100249  0.472705  1
  B  B35  1  0.500000  0.899751  0.527295  1
