# generated using pymatgen
data_LaPr5Y4(Sn3Cl)2
_symmetry_space_group_name_H-M   'P 1'
_cell_length_a   9.39739400
_cell_length_b   9.40676724
_cell_length_c   6.72832100
_cell_angle_alpha   90.00000000
_cell_angle_beta   90.00000000
_cell_angle_gamma   119.96703660
_symmetry_Int_Tables_number   1
_chemical_formula_structural   LaPr5Y4(Sn3Cl)2
_chemical_formula_sum   'La1 Pr5 Y4 Sn6 Cl2'
_cell_volume   515.26343964
_cell_formula_units_Z   1
loop_
 _symmetry_equiv_pos_site_id
 _symmetry_equiv_pos_as_xyz
  1  'x, y, z'
loop_
 _atom_site_type_symbol
 _atom_site_label
 _atom_site_symmetry_multiplicity
 _atom_site_fract_x
 _atom_site_fract_y
 _atom_site_fract_z
 _atom_site_occupancy
  La  La0  1  0.259742  0.000000  0.250000  1
  Pr  Pr1  1  0.739676  0.000000  0.750000  1
  Pr  Pr2  1  0.739954  0.739892  0.250000  1
  Pr  Pr3  1  0.000062  0.260108  0.250000  1
  Pr  Pr4  1  0.999801  0.739619  0.750000  1
  Pr  Pr5  1  0.260183  0.260381  0.750000  1
  Y  Y6  1  0.667191  0.333697  0.999334  1
  Y  Y7  1  0.333493  0.666303  0.500666  1
  Y  Y8  1  0.667191  0.333697  0.500666  1
  Y  Y9  1  0.333493  0.666303  0.999334  1
  Sn  Sn10  1  0.606475  0.606766  0.750000  1
  Sn  Sn11  1  0.998842  0.605319  0.250000  1
  Sn  Sn12  1  0.608571  0.000000  0.250000  1
  Sn  Sn13  1  0.393312  0.000000  0.750000  1
  Sn  Sn14  1  0.999709  0.393234  0.750000  1
  Sn  Sn15  1  0.393524  0.394681  0.250000  1
  Cl  Cl16  1  0.999391  0.000000  0.500604  1
  Cl  Cl17  1  0.999391  0.000000  0.999396  1
