# generated using pymatgen
data_Tl4GePd3F28
_symmetry_space_group_name_H-M   'P 1'
_cell_length_a   5.41582538
_cell_length_b   8.64046230
_cell_length_c   11.69326700
_cell_angle_alpha   62.79964517
_cell_angle_beta   90.04093141
_cell_angle_gamma   90.02991645
_symmetry_Int_Tables_number   1
_chemical_formula_structural   Tl4GePd3F28
_chemical_formula_sum   'Tl4 Ge1 Pd3 F28'
_cell_volume   486.67732909
_cell_formula_units_Z   1
loop_
 _symmetry_equiv_pos_site_id
 _symmetry_equiv_pos_as_xyz
  1  'x, y, z'
loop_
 _atom_site_type_symbol
 _atom_site_label
 _atom_site_symmetry_multiplicity
 _atom_site_fract_x
 _atom_site_fract_y
 _atom_site_fract_z
 _atom_site_occupancy
  Tl  Tl0  1  0.260741  0.813974  0.262495  1
  Tl  Tl1  1  0.736758  0.182097  0.739552  1
  Tl  Tl2  1  0.764407  0.188393  0.236109  1
  Tl  Tl3  1  0.237255  0.812715  0.766260  1
  Ge  Ge4  1  0.759915  0.724873  0.044481  1
  Pd  Pd5  1  0.240287  0.272826  0.956408  1
  Pd  Pd6  1  0.259792  0.274446  0.455567  1
  Pd  Pd7  1  0.739035  0.725465  0.545054  1
  F  F8  1  0.917594  0.695234  0.412947  1
  F  F9  1  0.076497  0.307806  0.584224  1
  F  F10  1  0.421767  0.306200  0.085859  1
  F  F11  1  0.575632  0.701722  0.923854  1
  F  F12  1  0.478319  0.721681  0.131278  1
  F  F13  1  0.554521  0.279327  0.873802  1
  F  F14  1  0.947483  0.287718  0.368112  1
  F  F15  1  0.052596  0.715105  0.629927  1
  F  F16  1  0.939626  0.737127  0.174565  1
  F  F17  1  0.070423  0.259719  0.813705  1
  F  F18  1  0.430290  0.259766  0.313423  1
  F  F19  1  0.571912  0.738139  0.689248  1
  F  F20  1  0.783160  0.487866  0.137069  1
  F  F21  1  0.209520  0.524369  0.855322  1
  F  F22  1  0.294742  0.525805  0.352167  1
  F  F23  1  0.704176  0.473626  0.646303  1
  F  F24  1  0.923257  0.277396  0.033890  1
  F  F25  1  0.052238  0.720701  0.965431  1
  F  F26  1  0.421915  0.724326  0.466128  1
  F  F27  1  0.575516  0.274434  0.535281  1
  F  F28  1  0.749034  0.976861  0.456400  1
  F  F29  1  0.251258  0.023311  0.545054  1
  F  F30  1  0.247038  0.021710  0.044452  1
  F  F31  1  0.759839  0.961127  0.958495  1
  F  F32  1  0.609273  0.962928  0.225352  1
  F  F33  1  0.384775  0.039726  0.775770  1
  F  F34  1  0.110217  0.039586  0.273386  1
  F  F35  1  0.889186  0.961892  0.722635  1
