# generated using pymatgen
data_Pr2Y4Zn3Ga2SiRh12
_symmetry_space_group_name_H-M   'P 1'
_cell_length_a   5.62079600
_cell_length_b   5.62079453
_cell_length_c   15.60927100
_cell_angle_alpha   90.00000000
_cell_angle_beta   90.00000000
_cell_angle_gamma   119.99999691
_symmetry_Int_Tables_number   1
_chemical_formula_structural   Pr2Y4Zn3Ga2SiRh12
_chemical_formula_sum   'Pr2 Y4 Zn3 Ga2 Si1 Rh12'
_cell_volume   427.07957191
_cell_formula_units_Z   1
loop_
 _symmetry_equiv_pos_site_id
 _symmetry_equiv_pos_as_xyz
  1  'x, y, z'
loop_
 _atom_site_type_symbol
 _atom_site_label
 _atom_site_symmetry_multiplicity
 _atom_site_fract_x
 _atom_site_fract_y
 _atom_site_fract_z
 _atom_site_occupancy
  Pr  Pr0  1  0.666667  0.333333  0.750000  1
  Pr  Pr1  1  0.333333  0.666667  0.250000  1
  Y  Y2  1  0.666667  0.333333  0.961235  1
  Y  Y3  1  0.666667  0.333333  0.538765  1
  Y  Y4  1  0.333333  0.666667  0.037241  1
  Y  Y5  1  0.333333  0.666667  0.462759  1
  Zn  Zn6  1  0.666667  0.333333  0.250000  1
  Zn  Zn7  1  0.000000  0.000000  0.502591  1
  Zn  Zn8  1  0.000000  0.000000  0.997409  1
  Ga  Ga9  1  0.000000  0.000000  0.250000  1
  Ga  Ga10  1  0.000000  0.000000  0.750000  1
  Si  Si11  1  0.333333  0.666667  0.750000  1
  Rh  Rh12  1  0.169806  0.339612  0.868721  1
  Rh  Rh13  1  0.169806  0.339612  0.631279  1
  Rh  Rh14  1  0.660388  0.830194  0.868721  1
  Rh  Rh15  1  0.337822  0.168910  0.376451  1
  Rh  Rh16  1  0.831090  0.662178  0.376451  1
  Rh  Rh17  1  0.831090  0.168910  0.376451  1
  Rh  Rh18  1  0.831090  0.168910  0.123549  1
  Rh  Rh19  1  0.337822  0.168910  0.123549  1
  Rh  Rh20  1  0.660388  0.830194  0.631279  1
  Rh  Rh21  1  0.169806  0.830194  0.631279  1
  Rh  Rh22  1  0.831090  0.662178  0.123549  1
  Rh  Rh23  1  0.169806  0.830194  0.868721  1
