# generated using pymatgen
data_Tm3ZnIn3IrAu
_symmetry_space_group_name_H-M   'P 1'
_cell_length_a   7.89045700
_cell_length_b   7.89045843
_cell_length_c   3.63547500
_cell_angle_alpha   90.00000000
_cell_angle_beta   90.00000000
_cell_angle_gamma   120.00000656
_symmetry_Int_Tables_number   1
_chemical_formula_structural   Tm3ZnIn3IrAu
_chemical_formula_sum   'Tm3 Zn1 In3 Ir1 Au1'
_cell_volume   196.01809279
_cell_formula_units_Z   1
loop_
 _symmetry_equiv_pos_site_id
 _symmetry_equiv_pos_as_xyz
  1  'x, y, z'
loop_
 _atom_site_type_symbol
 _atom_site_label
 _atom_site_symmetry_multiplicity
 _atom_site_fract_x
 _atom_site_fract_y
 _atom_site_fract_z
 _atom_site_occupancy
  Tm  Tm0  1  0.410878  0.386700  0.500000  1
  Tm  Tm1  1  0.613300  0.024178  0.500000  1
  Tm  Tm2  1  0.975822  0.589122  0.500000  1
  Zn  Zn3  1  0.000000  0.000000  0.500000  1
  In  In4  1  0.726942  0.731340  0.000000  1
  In  In5  1  0.268660  0.995603  0.000000  1
  In  In6  1  0.004397  0.273058  0.000000  1
  Ir  Ir7  1  0.666667  0.333333  0.000000  1
  Au  Au8  1  0.333333  0.666667  0.000000  1
