# generated using pymatgen
data_Dy10In7Rh4Pb
_symmetry_space_group_name_H-M   'P 1'
_cell_length_a   3.66764700
_cell_length_b   8.02748630
_cell_length_c   18.29960068
_cell_angle_alpha   90.03120379
_cell_angle_beta   90.00000000
_cell_angle_gamma   90.00000000
_symmetry_Int_Tables_number   1
_chemical_formula_structural   Dy10In7Rh4Pb
_chemical_formula_sum   'Dy10 In7 Rh4 Pb1'
_cell_volume   538.77650776
_cell_formula_units_Z   1
loop_
 _symmetry_equiv_pos_site_id
 _symmetry_equiv_pos_as_xyz
  1  'x, y, z'
loop_
 _atom_site_type_symbol
 _atom_site_label
 _atom_site_symmetry_multiplicity
 _atom_site_fract_x
 _atom_site_fract_y
 _atom_site_fract_z
 _atom_site_occupancy
  Dy  Dy0  1  0.500000  0.383407  0.588617  1
  Dy  Dy1  1  0.500000  0.883416  0.910967  1
  Dy  Dy2  1  0.500000  0.117742  0.088440  1
  Dy  Dy3  1  0.500000  0.753178  0.721252  1
  Dy  Dy4  1  0.500000  0.252971  0.778430  1
  Dy  Dy5  1  0.500000  0.499827  0.000235  1
  Dy  Dy6  1  0.500000  0.745154  0.221327  1
  Dy  Dy7  1  0.500000  0.246551  0.278692  1
  Dy  Dy8  1  0.500000  0.000044  0.499988  1
  Dy  Dy9  1  0.500000  0.616520  0.411450  1
  In  In10  1  0.000000  0.927823  0.349292  1
  In  In11  1  0.000000  0.071886  0.650575  1
  In  In12  1  0.000000  0.572207  0.849058  1
  In  In13  1  0.000000  0.707598  0.568631  1
  In  In14  1  0.000000  0.207942  0.931466  1
  In  In15  1  0.000000  0.292768  0.431944  1
  In  In16  1  0.000000  0.423682  0.151481  1
  Rh  Rh17  1  0.000000  0.976279  0.805375  1
  Rh  Rh18  1  0.000000  0.524193  0.305074  1
  Rh  Rh19  1  0.000000  0.477016  0.694778  1
  Rh  Rh20  1  0.000000  0.027514  0.196116  1
  Pb  Pb21  1  0.000000  0.792281  0.066812  1
