# generated using pymatgen
data_Tb4DySn3Sb
_symmetry_space_group_name_H-M   'P 1'
_cell_length_a   8.14092300
_cell_length_b   8.18718800
_cell_length_c   15.45918800
_cell_angle_alpha   90.00000000
_cell_angle_beta   90.00000000
_cell_angle_gamma   90.00000000
_symmetry_Int_Tables_number   1
_chemical_formula_structural   Tb4DySn3Sb
_chemical_formula_sum   'Tb16 Dy4 Sn12 Sb4'
_cell_volume   1030.37446845
_cell_formula_units_Z   4
loop_
 _symmetry_equiv_pos_site_id
 _symmetry_equiv_pos_as_xyz
  1  'x, y, z'
loop_
 _atom_site_type_symbol
 _atom_site_label
 _atom_site_symmetry_multiplicity
 _atom_site_fract_x
 _atom_site_fract_y
 _atom_site_fract_z
 _atom_site_occupancy
  Tb  Tb0  1  0.375639  0.839039  0.878469  1
  Tb  Tb1  1  0.875639  0.660961  0.621531  1
  Tb  Tb2  1  0.624361  0.160961  0.378469  1
  Tb  Tb3  1  0.124361  0.339039  0.121531  1
  Tb  Tb4  1  0.626595  0.161790  0.121724  1
  Tb  Tb5  1  0.126595  0.338210  0.378276  1
  Tb  Tb6  1  0.373405  0.838210  0.621724  1
  Tb  Tb7  1  0.873405  0.661790  0.878276  1
  Tb  Tb8  1  0.537772  0.326987  0.896819  1
  Tb  Tb9  1  0.037772  0.173013  0.603181  1
  Tb  Tb10  1  0.462228  0.673013  0.396819  1
  Tb  Tb11  1  0.962228  0.826987  0.103181  1
  Tb  Tb12  1  0.472175  0.676721  0.100926  1
  Tb  Tb13  1  0.972175  0.823279  0.399074  1
  Tb  Tb14  1  0.527825  0.323279  0.600926  1
  Tb  Tb15  1  0.027825  0.176721  0.899074  1
  Dy  Dy16  1  0.203026  0.500556  0.748000  1
  Dy  Dy17  1  0.703026  0.999444  0.752000  1
  Dy  Dy18  1  0.796974  0.499444  0.248000  1
  Dy  Dy19  1  0.296974  0.000556  0.252000  1
  Sn  Sn20  1  0.715733  0.967336  0.957170  1
  Sn  Sn21  1  0.215733  0.532664  0.542830  1
  Sn  Sn22  1  0.284267  0.032664  0.457170  1
  Sn  Sn23  1  0.784267  0.467336  0.042830  1
  Sn  Sn24  1  0.569844  0.621893  0.749181  1
  Sn  Sn25  1  0.069844  0.878107  0.750819  1
  Sn  Sn26  1  0.430156  0.378107  0.249181  1
  Sn  Sn27  1  0.930156  0.121893  0.250819  1
  Sn  Sn28  1  0.338815  0.146695  0.750933  1
  Sn  Sn29  1  0.838815  0.353305  0.749067  1
  Sn  Sn30  1  0.661185  0.853305  0.250933  1
  Sn  Sn31  1  0.161185  0.646695  0.249067  1
  Sb  Sb32  1  0.280283  0.029709  0.044222  1
  Sb  Sb33  1  0.780283  0.470291  0.455778  1
  Sb  Sb34  1  0.719717  0.970291  0.544222  1
  Sb  Sb35  1  0.219717  0.529709  0.955778  1
