# generated using pymatgen
data_Y5ErZn4Pt13
_symmetry_space_group_name_H-M   'P 1'
_cell_length_a   8.31105436
_cell_length_b   8.31103271
_cell_length_c   8.31103400
_cell_angle_alpha   109.54017966
_cell_angle_beta   109.43665665
_cell_angle_gamma   109.43665212
_symmetry_Int_Tables_number   1
_chemical_formula_structural   Y5ErZn4Pt13
_chemical_formula_sum   'Y5 Er1 Zn4 Pt13'
_cell_volume   441.92122235
_cell_formula_units_Z   1
loop_
 _symmetry_equiv_pos_site_id
 _symmetry_equiv_pos_as_xyz
  1  'x, y, z'
loop_
 _atom_site_type_symbol
 _atom_site_label
 _atom_site_symmetry_multiplicity
 _atom_site_fract_x
 _atom_site_fract_y
 _atom_site_fract_z
 _atom_site_occupancy
  Y  Y0  1  0.697855  0.697822  0.999940  1
  Y  Y1  1  0.302153  0.999851  0.301991  1
  Y  Y2  1  0.999869  0.300880  0.300880  1
  Y  Y3  1  0.302153  0.301991  0.999851  1
  Y  Y4  1  0.697855  0.999940  0.697822  1
  Er  Er5  1  0.000037  0.695837  0.695837  1
  Zn  Zn6  1  0.000009  0.000797  0.499464  1
  Zn  Zn7  1  0.000009  0.499464  0.000797  1
  Zn  Zn8  1  0.501344  0.000798  0.000798  1
  Zn  Zn9  1  0.498672  0.499470  0.499470  1
  Pt  Pt10  1  0.332282  0.331987  0.664250  1
  Pt  Pt11  1  0.667775  0.999704  0.331974  1
  Pt  Pt12  1  0.000007  0.667547  0.333534  1
  Pt  Pt13  1  0.667775  0.331974  0.999704  1
  Pt  Pt14  1  0.332282  0.664250  0.331987  1
  Pt  Pt15  1  0.000007  0.333534  0.667547  1
  Pt  Pt16  1  0.330448  0.669181  0.999648  1
  Pt  Pt17  1  0.330448  0.999648  0.669181  1
  Pt  Pt18  1  0.665989  0.333546  0.333546  1
  Pt  Pt19  1  0.669517  0.669170  0.338685  1
  Pt  Pt20  1  0.669517  0.338685  0.669170  1
  Pt  Pt21  1  0.333992  0.667524  0.667524  1
  Pt  Pt22  1  0.000006  0.996400  0.996400  1
