# generated using pymatgen
data_Tb6ZrFe(Co4P3)4
_symmetry_space_group_name_H-M   'P 1'
_cell_length_a   3.71212500
_cell_length_b   10.60297000
_cell_length_c   12.31766300
_cell_angle_alpha   90.00000000
_cell_angle_beta   90.00000000
_cell_angle_gamma   90.00000000
_symmetry_Int_Tables_number   1
_chemical_formula_structural   Tb6ZrFe(Co4P3)4
_chemical_formula_sum   'Tb6 Zr1 Fe1 Co16 P12'
_cell_volume   484.81767287
_cell_formula_units_Z   1
loop_
 _symmetry_equiv_pos_site_id
 _symmetry_equiv_pos_as_xyz
  1  'x, y, z'
loop_
 _atom_site_type_symbol
 _atom_site_label
 _atom_site_symmetry_multiplicity
 _atom_site_fract_x
 _atom_site_fract_y
 _atom_site_fract_z
 _atom_site_occupancy
  Tb  Tb0  1  0.000000  0.500000  0.522313  1
  Tb  Tb1  1  0.500000  0.000000  0.470470  1
  Tb  Tb2  1  0.500000  0.817797  0.204299  1
  Tb  Tb3  1  0.500000  0.182203  0.204299  1
  Tb  Tb4  1  0.000000  0.678251  0.793393  1
  Tb  Tb5  1  0.000000  0.321749  0.793393  1
  Zr  Zr6  1  0.000000  0.000000  0.845064  1
  Fe  Fe7  1  0.500000  0.500000  0.159881  1
  Co  Co8  1  0.500000  0.500000  0.704273  1
  Co  Co9  1  0.000000  0.000000  0.296831  1
  Co  Co10  1  0.000000  0.500000  0.988951  1
  Co  Co11  1  0.500000  0.000000  0.016081  1
  Co  Co12  1  0.500000  0.337632  0.998711  1
  Co  Co13  1  0.500000  0.662368  0.998711  1
  Co  Co14  1  0.000000  0.172857  0.011348  1
  Co  Co15  1  0.000000  0.827143  0.011348  1
  Co  Co16  1  0.500000  0.297748  0.430067  1
  Co  Co17  1  0.500000  0.702252  0.430067  1
  Co  Co18  1  0.000000  0.205670  0.565770  1
  Co  Co19  1  0.000000  0.794330  0.565770  1
  Co  Co20  1  0.500000  0.877608  0.701813  1
  Co  Co21  1  0.500000  0.122392  0.701813  1
  Co  Co22  1  0.000000  0.619838  0.292592  1
  Co  Co23  1  0.000000  0.380162  0.292592  1
  P  P24  1  0.500000  0.500000  0.884931  1
  P  P25  1  0.000000  0.000000  0.117572  1
  P  P26  1  0.500000  0.500000  0.343869  1
  P  P27  1  0.000000  0.000000  0.638070  1
  P  P28  1  0.500000  0.311202  0.613579  1
  P  P29  1  0.500000  0.688798  0.613579  1
  P  P30  1  0.000000  0.191865  0.382607  1
  P  P31  1  0.000000  0.808135  0.382607  1
  P  P32  1  0.500000  0.835309  0.899755  1
  P  P33  1  0.500000  0.164691  0.899755  1
  P  P34  1  0.000000  0.648723  0.111913  1
  P  P35  1  0.000000  0.351277  0.111913  1
