# generated using pymatgen
data_LaReSb12Ru2Pt
_symmetry_space_group_name_H-M   'P 1'
_cell_length_a   8.21496554
_cell_length_b   8.19733956
_cell_length_c   8.19341974
_cell_angle_alpha   109.52694614
_cell_angle_beta   109.59143968
_cell_angle_gamma   109.60564821
_symmetry_Int_Tables_number   1
_chemical_formula_structural   LaReSb12Ru2Pt
_chemical_formula_sum   'La1 Re1 Sb12 Ru2 Pt1'
_cell_volume   423.10393536
_cell_formula_units_Z   1
loop_
 _symmetry_equiv_pos_site_id
 _symmetry_equiv_pos_as_xyz
  1  'x, y, z'
loop_
 _atom_site_type_symbol
 _atom_site_label
 _atom_site_symmetry_multiplicity
 _atom_site_fract_x
 _atom_site_fract_y
 _atom_site_fract_z
 _atom_site_occupancy
  La  La0  1  0.000000  0.000000  0.000000  1
  Re  Re1  1  0.500000  0.500000  0.500000  1
  Sb  Sb2  1  0.149971  0.813388  0.653705  1
  Sb  Sb3  1  0.850029  0.186612  0.346295  1
  Sb  Sb4  1  0.841696  0.503481  0.662513  1
  Sb  Sb5  1  0.158304  0.496519  0.337487  1
  Sb  Sb6  1  0.820991  0.661604  0.158114  1
  Sb  Sb7  1  0.179009  0.338396  0.841886  1
  Sb  Sb8  1  0.503381  0.654107  0.842013  1
  Sb  Sb9  1  0.496619  0.345893  0.157987  1
  Sb  Sb10  1  0.662765  0.159147  0.813314  1
  Sb  Sb11  1  0.337235  0.840853  0.186686  1
  Sb  Sb12  1  0.663306  0.842582  0.503538  1
  Sb  Sb13  1  0.336694  0.157418  0.496462  1
  Ru  Ru14  1  0.000000  0.000000  0.500000  1
  Ru  Ru15  1  0.000000  0.500000  0.000000  1
  Pt  Pt16  1  0.500000  0.000000  0.000000  1
