# generated using pymatgen
data_VSiB2(MoW)2
_symmetry_space_group_name_H-M   'P 1'
_cell_length_a   6.97312470
_cell_length_b   6.97000912
_cell_length_c   6.97740700
_cell_angle_alpha   129.12745098
_cell_angle_beta   129.14848420
_cell_angle_gamma   74.68213171
_symmetry_Int_Tables_number   1
_chemical_formula_structural   VSiB2(MoW)2
_chemical_formula_sum   'V2 Si2 B4 Mo4 W4'
_cell_volume   198.87214568
_cell_formula_units_Z   2
loop_
 _symmetry_equiv_pos_site_id
 _symmetry_equiv_pos_as_xyz
  1  'x, y, z'
loop_
 _atom_site_type_symbol
 _atom_site_label
 _atom_site_symmetry_multiplicity
 _atom_site_fract_x
 _atom_site_fract_y
 _atom_site_fract_z
 _atom_site_occupancy
  V  V0  1  0.000026  0.000343  0.000408  1
  V  V1  1  0.500216  0.499752  0.999987  1
  Si  Si2  1  0.751141  0.748065  0.999164  1
  Si  Si3  1  0.250984  0.252053  0.002917  1
  B  B4  1  0.373913  0.873659  0.247452  1
  B  B5  1  0.874518  0.625588  0.500473  1
  B  B6  1  0.625342  0.124875  0.749968  1
  B  B7  1  0.124596  0.375823  0.500470  1
  Mo  Mo8  1  0.028076  0.527711  0.830048  1
  Mo  Mo9  1  0.697085  0.196344  0.168701  1
  Mo  Mo10  1  0.972138  0.472112  0.170262  1
  Mo  Mo11  1  0.470534  0.303224  0.499819  1
  W  W12  1  0.804027  0.971530  0.500022  1
  W  W13  1  0.302306  0.802404  0.828728  1
  W  W14  1  0.196897  0.028703  0.500836  1
  W  W15  1  0.528202  0.697815  0.500745  1
