# generated using pymatgen
data_Dy4TmZn2Sb
_symmetry_space_group_name_H-M   'P 1'
_cell_length_a   8.53263970
_cell_length_b   8.53264029
_cell_length_c   8.53263954
_cell_angle_alpha   123.51149802
_cell_angle_beta   123.51150996
_cell_angle_gamma   84.01841821
_symmetry_Int_Tables_number   1
_chemical_formula_structural   Dy4TmZn2Sb
_chemical_formula_sum   'Dy8 Tm2 Zn4 Sb2'
_cell_volume   413.49249206
_cell_formula_units_Z   2
loop_
 _symmetry_equiv_pos_site_id
 _symmetry_equiv_pos_as_xyz
  1  'x, y, z'
loop_
 _atom_site_type_symbol
 _atom_site_label
 _atom_site_symmetry_multiplicity
 _atom_site_fract_x
 _atom_site_fract_y
 _atom_site_fract_z
 _atom_site_occupancy
  Dy  Dy0  1  0.799928  0.299928  0.810851  1
  Dy  Dy1  1  0.200072  0.700072  0.189149  1
  Dy  Dy2  1  0.489077  0.989077  0.189149  1
  Dy  Dy3  1  0.299928  0.489077  0.500000  1
  Dy  Dy4  1  0.010923  0.200072  0.500000  1
  Dy  Dy5  1  0.510923  0.010923  0.810851  1
  Dy  Dy6  1  0.700072  0.510923  0.500000  1
  Dy  Dy7  1  0.989077  0.799928  0.500000  1
  Tm  Tm8  1  0.000000  0.000000  0.000000  1
  Tm  Tm9  1  0.500000  0.500000  0.000000  1
  Zn  Zn10  1  0.137292  0.637292  0.774583  1
  Zn  Zn11  1  0.862708  0.362708  0.225417  1
  Zn  Zn12  1  0.637292  0.862708  0.500000  1
  Zn  Zn13  1  0.362708  0.137292  0.500000  1
  Sb  Sb14  1  0.250000  0.250000  0.000000  1
  Sb  Sb15  1  0.750000  0.750000  0.000000  1
