# generated using pymatgen
data_BaHg2Pd3
_symmetry_space_group_name_H-M   'P 1'
_cell_length_a   5.95247900
_cell_length_b   5.95247922
_cell_length_c   4.44000500
_cell_angle_alpha   90.00000000
_cell_angle_beta   90.00000000
_cell_angle_gamma   120.00000431
_symmetry_Int_Tables_number   1
_chemical_formula_structural   BaHg2Pd3
_chemical_formula_sum   'Ba1 Hg2 Pd3'
_cell_volume   136.24163041
_cell_formula_units_Z   1
loop_
 _symmetry_equiv_pos_site_id
 _symmetry_equiv_pos_as_xyz
  1  'x, y, z'
loop_
 _atom_site_type_symbol
 _atom_site_label
 _atom_site_symmetry_multiplicity
 _atom_site_fract_x
 _atom_site_fract_y
 _atom_site_fract_z
 _atom_site_occupancy
  Ba  Ba0  1  0.000000  0.000000  0.000000  1
  Hg  Hg1  1  0.666668  0.333334  0.000000  1
  Hg  Hg2  1  0.333333  0.666666  0.000000  1
  Pd  Pd3  1  0.500001  0.000000  0.499999  1
  Pd  Pd4  1  0.000000  0.500001  0.499999  1
  Pd  Pd5  1  0.500000  0.500001  0.499999  1
