# generated using pymatgen
data_Lu5Co19(Si5P)2
_symmetry_space_group_name_H-M   'P 1'
_cell_length_a   12.04988300
_cell_length_b   12.07453667
_cell_length_c   3.67851800
_cell_angle_alpha   90.00000000
_cell_angle_beta   90.00000000
_cell_angle_gamma   119.93247835
_symmetry_Int_Tables_number   1
_chemical_formula_structural   Lu5Co19(Si5P)2
_chemical_formula_sum   'Lu5 Co19 Si10 P2'
_cell_volume   463.82260522
_cell_formula_units_Z   1
loop_
 _symmetry_equiv_pos_site_id
 _symmetry_equiv_pos_as_xyz
  1  'x, y, z'
loop_
 _atom_site_type_symbol
 _atom_site_label
 _atom_site_symmetry_multiplicity
 _atom_site_fract_x
 _atom_site_fract_y
 _atom_site_fract_z
 _atom_site_occupancy
  Lu  Lu0  1  0.332684  0.666330  0.500000  1
  Lu  Lu1  1  0.666355  0.333670  0.500000  1
  Lu  Lu2  1  0.184550  0.000000  0.000000  1
  Lu  Lu3  1  0.000931  0.185131  0.000000  1
  Lu  Lu4  1  0.815800  0.814869  0.000000  1
  Co  Co5  1  0.197015  0.373092  0.500000  1
  Co  Co6  1  0.623548  0.820250  0.500000  1
  Co  Co7  1  0.175926  0.803338  0.500000  1
  Co  Co8  1  0.823923  0.626908  0.500000  1
  Co  Co9  1  0.803298  0.179750  0.500000  1
  Co  Co10  1  0.372588  0.196662  0.500000  1
  Co  Co11  1  0.557993  0.000000  0.500000  1
  Co  Co12  1  0.000595  0.558087  0.500000  1
  Co  Co13  1  0.442509  0.441913  0.500000  1
  Co  Co14  1  0.124629  0.478840  0.000000  1
  Co  Co15  1  0.520970  0.644314  0.000000  1
  Co  Co16  1  0.353914  0.875653  0.000000  1
  Co  Co17  1  0.645789  0.521160  0.000000  1
  Co  Co18  1  0.876655  0.355686  0.000000  1
  Co  Co19  1  0.478261  0.124347  0.000000  1
  Co  Co20  1  0.719338  0.000000  0.000000  1
  Co  Co21  1  0.999847  0.722585  0.000000  1
  Co  Co22  1  0.277262  0.277415  0.000000  1
  Co  Co23  1  0.004590  0.000000  0.500000  1
  Si  Si24  1  0.368941  0.000000  0.500000  1
  Si  Si25  1  0.000327  0.369211  0.500000  1
  Si  Si26  1  0.631115  0.630789  0.500000  1
  Si  Si27  1  0.319369  0.479083  0.000000  1
  Si  Si28  1  0.520415  0.838983  0.000000  1
  Si  Si29  1  0.159967  0.680836  0.000000  1
  Si  Si30  1  0.840285  0.520917  0.000000  1
  Si  Si31  1  0.681432  0.161017  0.000000  1
  Si  Si32  1  0.479131  0.319164  0.000000  1
  Si  Si33  1  0.819476  0.000000  0.500000  1
  P  P34  1  0.999694  0.818817  0.500000  1
  P  P35  1  0.180877  0.181183  0.500000  1
