# generated using pymatgen
data_Ho2LuTa3(B2Ru5)2
_symmetry_space_group_name_H-M   'P 1'
_cell_length_a   9.57832125
_cell_length_b   9.57832150
_cell_length_c   3.11223700
_cell_angle_alpha   90.00000000
_cell_angle_beta   90.00000000
_cell_angle_gamma   90.44439132
_symmetry_Int_Tables_number   1
_chemical_formula_structural   Ho2LuTa3(B2Ru5)2
_chemical_formula_sum   'Ho2 Lu1 Ta3 B4 Ru10'
_cell_volume   285.52123113
_cell_formula_units_Z   1
loop_
 _symmetry_equiv_pos_site_id
 _symmetry_equiv_pos_as_xyz
  1  'x, y, z'
loop_
 _atom_site_type_symbol
 _atom_site_label
 _atom_site_symmetry_multiplicity
 _atom_site_fract_x
 _atom_site_fract_y
 _atom_site_fract_z
 _atom_site_occupancy
  Ho  Ho0  1  0.824202  0.675140  0.000000  1
  Ho  Ho1  1  0.175140  0.324202  0.000000  1
  Lu  Lu2  1  0.325706  0.825706  0.000000  1
  Ta  Ta3  1  0.675294  0.175294  0.000000  1
  Ta  Ta4  1  0.497985  0.503273  0.000000  1
  Ta  Ta5  1  0.003273  0.997985  0.000000  1
  B  B6  1  0.622577  0.881066  0.000000  1
  B  B7  1  0.381066  0.122577  0.000000  1
  B  B8  1  0.120040  0.620040  0.000000  1
  B  B9  1  0.876089  0.376089  0.000000  1
  Ru  Ru10  1  0.569863  0.722152  0.500000  1
  Ru  Ru11  1  0.440477  0.280247  0.500000  1
  Ru  Ru12  1  0.071214  0.781156  0.500000  1
  Ru  Ru13  1  0.915865  0.213082  0.500000  1
  Ru  Ru14  1  0.281156  0.571214  0.500000  1
  Ru  Ru15  1  0.713082  0.415865  0.500000  1
  Ru  Ru16  1  0.222152  0.069863  0.500000  1
  Ru  Ru17  1  0.780247  0.940477  0.500000  1
  Ru  Ru18  1  0.508326  0.008326  0.500000  1
  Ru  Ru19  1  0.996245  0.496245  0.500000  1
