# generated using pymatgen
data_Hf4Fe2Si4PdPt
_symmetry_space_group_name_H-M   'P 1'
_cell_length_a   3.90656000
_cell_length_b   6.44772394
_cell_length_c   7.34660461
_cell_angle_alpha   91.49155928
_cell_angle_beta   90.00000000
_cell_angle_gamma   90.00000000
_symmetry_Int_Tables_number   1
_chemical_formula_structural   Hf4Fe2Si4PdPt
_chemical_formula_sum   'Hf4 Fe2 Si4 Pd1 Pt1'
_cell_volume   184.98666544
_cell_formula_units_Z   1
loop_
 _symmetry_equiv_pos_site_id
 _symmetry_equiv_pos_as_xyz
  1  'x, y, z'
loop_
 _atom_site_type_symbol
 _atom_site_label
 _atom_site_symmetry_multiplicity
 _atom_site_fract_x
 _atom_site_fract_y
 _atom_site_fract_z
 _atom_site_occupancy
  Hf  Hf0  1  0.250000  0.513255  0.677066  1
  Hf  Hf1  1  0.750000  0.484965  0.323529  1
  Hf  Hf2  1  0.250000  0.019953  0.805697  1
  Hf  Hf3  1  0.750000  0.980943  0.193998  1
  Fe  Fe4  1  0.750000  0.848734  0.559952  1
  Fe  Fe5  1  0.250000  0.152341  0.439720  1
  Si  Si6  1  0.250000  0.263157  0.133430  1
  Si  Si7  1  0.750000  0.736408  0.866059  1
  Si  Si8  1  0.250000  0.788193  0.401337  1
  Si  Si9  1  0.750000  0.211195  0.598758  1
  Pd  Pd10  1  0.250000  0.653479  0.067832  1
  Pt  Pt11  1  0.750000  0.347378  0.932622  1
