# generated using pymatgen
data_HfSc3Nb2Sn5
_symmetry_space_group_name_H-M   'P 1'
_cell_length_a   10.79715326
_cell_length_b   10.84060010
_cell_length_c   10.84060044
_cell_angle_alpha   149.20504583
_cell_angle_beta   131.47499115
_cell_angle_gamma   58.61872618
_symmetry_Int_Tables_number   1
_chemical_formula_structural   HfSc3Nb2Sn5
_chemical_formula_sum   'Hf2 Sc6 Nb4 Sn10'
_cell_volume   482.86802557
_cell_formula_units_Z   2
loop_
 _symmetry_equiv_pos_site_id
 _symmetry_equiv_pos_as_xyz
  1  'x, y, z'
loop_
 _atom_site_type_symbol
 _atom_site_label
 _atom_site_symmetry_multiplicity
 _atom_site_fract_x
 _atom_site_fract_y
 _atom_site_fract_z
 _atom_site_occupancy
  Hf  Hf0  1  0.674832  0.436061  0.238771  1
  Hf  Hf1  1  0.325168  0.563939  0.761229  1
  Sc  Sc2  1  0.198540  0.936238  0.262302  1
  Sc  Sc3  1  0.801460  0.063762  0.737698  1
  Sc  Sc4  1  0.259101  0.146487  0.112615  1
  Sc  Sc5  1  0.740899  0.853513  0.887385  1
  Sc  Sc6  1  0.033616  0.646221  0.387394  1
  Sc  Sc7  1  0.966384  0.353779  0.612606  1
  Nb  Nb8  1  0.308887  0.557408  0.250063  1
  Nb  Nb9  1  0.691113  0.442592  0.749937  1
  Nb  Nb10  1  0.691113  0.941176  0.248521  1
  Nb  Nb11  1  0.308887  0.058824  0.751479  1
  Sn  Sn12  1  0.586731  0.287699  0.299032  1
  Sn  Sn13  1  0.413269  0.712301  0.700968  1
  Sn  Sn14  1  0.989622  0.788327  0.201295  1
  Sn  Sn15  1  0.010378  0.211673  0.798705  1
  Sn  Sn16  1  0.000000  0.250170  0.250170  1
  Sn  Sn17  1  0.000000  0.749830  0.749830  1
  Sn  Sn18  1  0.467489  0.069932  0.397554  1
  Sn  Sn19  1  0.532511  0.930068  0.602446  1
  Sn  Sn20  1  0.672265  0.570553  0.101712  1
  Sn  Sn21  1  0.327735  0.429447  0.898288  1
