# generated using pymatgen
data_Y3ErAl14(Ga2Ir3)2
_symmetry_space_group_name_H-M   'P 1'
_cell_length_a   7.53450857
_cell_length_b   7.53392698
_cell_length_c   9.55546800
_cell_angle_alpha   90.00000000
_cell_angle_beta   90.00000000
_cell_angle_gamma   119.57394388
_symmetry_Int_Tables_number   1
_chemical_formula_structural   Y3ErAl14(Ga2Ir3)2
_chemical_formula_sum   'Y3 Er1 Al14 Ga4 Ir6'
_cell_volume   471.74520106
_cell_formula_units_Z   1
loop_
 _symmetry_equiv_pos_site_id
 _symmetry_equiv_pos_as_xyz
  1  'x, y, z'
loop_
 _atom_site_type_symbol
 _atom_site_label
 _atom_site_symmetry_multiplicity
 _atom_site_fract_x
 _atom_site_fract_y
 _atom_site_fract_z
 _atom_site_occupancy
  Y  Y0  1  0.002467  0.326376  0.750000  1
  Y  Y1  1  0.669898  0.992864  0.250000  1
  Y  Y2  1  0.330159  0.007076  0.750000  1
  Er  Er3  1  0.997626  0.673902  0.250000  1
  Al  Al4  1  0.001304  0.335617  0.073780  1
  Al  Al5  1  0.998716  0.665011  0.927651  1
  Al  Al6  1  0.998716  0.665011  0.572349  1
  Al  Al7  1  0.334956  0.001512  0.426123  1
  Al  Al8  1  0.001304  0.335617  0.426220  1
  Al  Al9  1  0.664447  0.997877  0.573153  1
  Al  Al10  1  0.664447  0.997877  0.926847  1
  Al  Al11  1  0.334956  0.001512  0.073877  1
  Al  Al12  1  0.333785  0.334148  0.554637  1
  Al  Al13  1  0.666732  0.665854  0.444529  1
  Al  Al14  1  0.666732  0.665854  0.055471  1
  Al  Al15  1  0.333785  0.334148  0.945363  1
  Al  Al16  1  0.550005  0.339694  0.250000  1
  Al  Al17  1  0.450851  0.661145  0.750000  1
  Ga  Ga18  1  0.130206  0.130448  0.250000  1
  Ga  Ga19  1  0.869143  0.868152  0.750000  1
  Ga  Ga20  1  0.338297  0.545839  0.250000  1
  Ga  Ga21  1  0.661571  0.454622  0.750000  1
  Ir  Ir22  1  0.671323  0.328605  0.002744  1
  Ir  Ir23  1  0.328739  0.671675  0.997750  1
  Ir  Ir24  1  0.328739  0.671675  0.502250  1
  Ir  Ir25  1  0.671323  0.328605  0.497256  1
  Ir  Ir26  1  0.999886  0.999643  0.000278  1
  Ir  Ir27  1  0.999886  0.999643  0.499722  1
