# generated using pymatgen
data_Er4Al15Ga3Ir5Pt
_symmetry_space_group_name_H-M   'P 1'
_cell_length_a   7.55032452
_cell_length_b   7.55167267
_cell_length_c   9.48893117
_cell_angle_alpha   89.95638596
_cell_angle_beta   89.97110591
_cell_angle_gamma   119.91400861
_symmetry_Int_Tables_number   1
_chemical_formula_structural   Er4Al15Ga3Ir5Pt
_chemical_formula_sum   'Er4 Al15 Ga3 Ir5 Pt1'
_cell_volume   468.95591607
_cell_formula_units_Z   1
loop_
 _symmetry_equiv_pos_site_id
 _symmetry_equiv_pos_as_xyz
  1  'x, y, z'
loop_
 _atom_site_type_symbol
 _atom_site_label
 _atom_site_symmetry_multiplicity
 _atom_site_fract_x
 _atom_site_fract_y
 _atom_site_fract_z
 _atom_site_occupancy
  Er  Er0  1  0.994365  0.665767  0.750811  1
  Er  Er1  1  0.002494  0.332523  0.249228  1
  Er  Er2  1  0.670072  0.000263  0.750740  1
  Er  Er3  1  0.333224  0.004466  0.249150  1
  Al  Al4  1  0.125011  0.123117  0.750222  1
  Al  Al5  1  0.876519  0.875717  0.249792  1
  Al  Al6  1  0.004531  0.333925  0.575878  1
  Al  Al7  1  0.002454  0.669566  0.424781  1
  Al  Al8  1  0.999888  0.666113  0.073610  1
  Al  Al9  1  0.333630  0.999010  0.925957  1
  Al  Al10  1  0.000955  0.333721  0.925294  1
  Al  Al11  1  0.666685  0.999143  0.074454  1
  Al  Al12  1  0.666270  0.995487  0.424335  1
  Al  Al13  1  0.330122  0.996501  0.575640  1
  Al  Al14  1  0.333012  0.332852  0.053085  1
  Al  Al15  1  0.667327  0.667654  0.943167  1
  Al  Al16  1  0.666488  0.669853  0.560389  1
  Al  Al17  1  0.331160  0.333971  0.443392  1
  Al  Al18  1  0.340077  0.550429  0.750519  1
  Ga  Ga19  1  0.659595  0.455983  0.247459  1
  Ga  Ga20  1  0.541325  0.339515  0.752587  1
  Ga  Ga21  1  0.452402  0.659659  0.249421  1
  Ir  Ir22  1  0.328344  0.671125  0.502029  1
  Ir  Ir23  1  0.328180  0.671169  0.998027  1
  Ir  Ir24  1  0.672691  0.327038  0.000098  1
  Ir  Ir25  1  0.999884  0.999566  0.499778  1
  Ir  Ir26  1  0.000064  0.999295  0.000236  1
  Pt  Pt27  1  0.673228  0.326573  0.499919  1
