# generated using pymatgen
data_Na2Mn5(NiP)7
_symmetry_space_group_name_H-M   'P 1'
_cell_length_a   9.14823038
_cell_length_b   9.16452361
_cell_length_c   3.56908700
_cell_angle_alpha   90.00000000
_cell_angle_beta   90.00000000
_cell_angle_gamma   120.13961218
_symmetry_Int_Tables_number   1
_chemical_formula_structural   Na2Mn5(NiP)7
_chemical_formula_sum   'Na2 Mn5 Ni7 P7'
_cell_volume   258.77484451
_cell_formula_units_Z   1
loop_
 _symmetry_equiv_pos_site_id
 _symmetry_equiv_pos_as_xyz
  1  'x, y, z'
loop_
 _atom_site_type_symbol
 _atom_site_label
 _atom_site_symmetry_multiplicity
 _atom_site_fract_x
 _atom_site_fract_y
 _atom_site_fract_z
 _atom_site_occupancy
  Na  Na0  1  0.666606  0.333071  0.000000  1
  Na  Na1  1  0.333124  0.666108  0.500000  1
  Mn  Mn2  1  0.721835  0.880024  0.500000  1
  Mn  Mn3  1  0.119880  0.841903  0.500000  1
  Mn  Mn4  1  0.219286  0.097159  0.000000  1
  Mn  Mn5  1  0.903450  0.129363  0.000000  1
  Mn  Mn6  1  0.875717  0.775969  0.000000  1
  Ni  Ni7  1  0.437054  0.061753  0.500000  1
  Ni  Ni8  1  0.942949  0.376261  0.500000  1
  Ni  Ni9  1  0.625715  0.563969  0.500000  1
  Ni  Ni10  1  0.154722  0.274466  0.500000  1
  Ni  Ni11  1  0.385263  0.438652  0.000000  1
  Ni  Ni12  1  0.562176  0.950002  0.000000  1
  Ni  Ni13  1  0.053343  0.613035  0.000000  1
  P  P14  1  0.117936  0.406347  0.000000  1
  P  P15  1  0.592758  0.712526  0.000000  1
  P  P16  1  0.288825  0.884381  0.000000  1
  P  P17  1  0.996876  0.995805  0.500000  1
  P  P18  1  0.408740  0.292819  0.500000  1
  P  P19  1  0.708955  0.116210  0.500000  1
  P  P20  1  0.884786  0.590176  0.500000  1
