# generated using pymatgen
data_Al3CuPd8
_symmetry_space_group_name_H-M   'P 1'
_cell_length_a   4.10708100
_cell_length_b   5.42305709
_cell_length_c   7.86921034
_cell_angle_alpha   90.21990146
_cell_angle_beta   90.00000000
_cell_angle_gamma   90.00000000
_symmetry_Int_Tables_number   1
_chemical_formula_structural   Al3CuPd8
_chemical_formula_sum   'Al3 Cu1 Pd8'
_cell_volume   175.26911741
_cell_formula_units_Z   1
loop_
 _symmetry_equiv_pos_site_id
 _symmetry_equiv_pos_as_xyz
  1  'x, y, z'
loop_
 _atom_site_type_symbol
 _atom_site_label
 _atom_site_symmetry_multiplicity
 _atom_site_fract_x
 _atom_site_fract_y
 _atom_site_fract_z
 _atom_site_occupancy
  Al  Al0  1  0.250000  0.181029  0.096577  1
  Al  Al1  1  0.750000  0.305303  0.608062  1
  Al  Al2  1  0.250000  0.691211  0.396876  1
  Cu  Cu3  1  0.750000  0.816734  0.898171  1
  Pd  Pd4  1  0.750000  0.460337  0.285416  1
  Pd  Pd5  1  0.250000  0.545159  0.716542  1
  Pd  Pd6  1  0.750000  0.961512  0.218283  1
  Pd  Pd7  1  0.250000  0.046008  0.777896  1
  Pd  Pd8  1  0.750000  0.332012  0.934152  1
  Pd  Pd9  1  0.250000  0.662280  0.071938  1
  Pd  Pd10  1  0.750000  0.830226  0.564735  1
  Pd  Pd11  1  0.250000  0.168189  0.431352  1
