# generated using pymatgen
data_Dy2Er3(OsO6)2
_symmetry_space_group_name_H-M   'P 1'
_cell_length_a   6.84113828
_cell_length_b   6.84113903
_cell_length_c   7.44587004
_cell_angle_alpha   74.10017040
_cell_angle_beta   74.10017630
_cell_angle_gamma   48.73653200
_symmetry_Int_Tables_number   1
_chemical_formula_structural   Dy2Er3(OsO6)2
_chemical_formula_sum   'Dy2 Er3 Os2 O12'
_cell_volume   249.81657531
_cell_formula_units_Z   1
loop_
 _symmetry_equiv_pos_site_id
 _symmetry_equiv_pos_as_xyz
  1  'x, y, z'
loop_
 _atom_site_type_symbol
 _atom_site_label
 _atom_site_symmetry_multiplicity
 _atom_site_fract_x
 _atom_site_fract_y
 _atom_site_fract_z
 _atom_site_occupancy
  Dy  Dy0  1  0.698952  0.698952  0.642345  1
  Dy  Dy1  1  0.301048  0.301048  0.357655  1
  Er  Er2  1  0.688111  0.688111  0.171077  1
  Er  Er3  1  0.311889  0.311889  0.828923  1
  Er  Er4  1  0.000000  0.000000  0.500000  1
  Os  Os5  1  0.780431  0.219569  0.000000  1
  Os  Os6  1  0.219569  0.780431  0.000000  1
  O  O7  1  0.000491  0.000491  0.204688  1
  O  O8  1  0.999509  0.999509  0.795312  1
  O  O9  1  0.580404  0.085657  0.084804  1
  O  O10  1  0.419596  0.914343  0.915196  1
  O  O11  1  0.914343  0.419596  0.915196  1
  O  O12  1  0.085657  0.580404  0.084804  1
  O  O13  1  0.499663  0.499663  0.175577  1
  O  O14  1  0.500337  0.500337  0.824423  1
  O  O15  1  0.403270  0.900487  0.425840  1
  O  O16  1  0.596730  0.099513  0.574160  1
  O  O17  1  0.099513  0.596730  0.574160  1
  O  O18  1  0.900487  0.403270  0.425840  1
