# generated using pymatgen
data_Tm8ReMo(OsC4)2
_symmetry_space_group_name_H-M   'P 1'
_cell_length_a   5.02772400
_cell_length_b   6.49975946
_cell_length_c   9.75324347
_cell_angle_alpha   90.29075448
_cell_angle_beta   90.00000000
_cell_angle_gamma   90.00000000
_symmetry_Int_Tables_number   1
_chemical_formula_structural   Tm8ReMo(OsC4)2
_chemical_formula_sum   'Tm8 Re1 Mo1 Os2 C8'
_cell_volume   318.72210690
_cell_formula_units_Z   1
loop_
 _symmetry_equiv_pos_site_id
 _symmetry_equiv_pos_as_xyz
  1  'x, y, z'
loop_
 _atom_site_type_symbol
 _atom_site_label
 _atom_site_symmetry_multiplicity
 _atom_site_fract_x
 _atom_site_fract_y
 _atom_site_fract_z
 _atom_site_occupancy
  Tm  Tm0  1  0.250000  0.822830  0.941217  1
  Tm  Tm1  1  0.250000  0.322820  0.557193  1
  Tm  Tm2  1  0.750000  0.175081  0.057778  1
  Tm  Tm3  1  0.750000  0.678801  0.441486  1
  Tm  Tm4  1  0.250000  0.465761  0.215480  1
  Tm  Tm5  1  0.250000  0.965685  0.281326  1
  Tm  Tm6  1  0.750000  0.535744  0.780529  1
  Tm  Tm7  1  0.750000  0.032049  0.715542  1
  Re  Re8  1  0.750000  0.219369  0.367605  1
  Mo  Mo9  1  0.250000  0.283294  0.869706  1
  Os  Os10  1  0.250000  0.781414  0.630524  1
  Os  Os11  1  0.750000  0.717731  0.131731  1
  C  C12  1  0.250000  0.047363  0.740266  1
  C  C13  1  0.250000  0.551534  0.758742  1
  C  C14  1  0.750000  0.951545  0.260690  1
  C  C15  1  0.750000  0.452381  0.242649  1
  C  C16  1  0.250000  0.674459  0.446734  1
  C  C17  1  0.250000  0.172866  0.058106  1
  C  C18  1  0.750000  0.324604  0.553847  1
  C  C19  1  0.750000  0.824667  0.948847  1
