# generated using pymatgen
data_TmVI18
_symmetry_space_group_name_H-M   'P 1'
_cell_length_a   10.23696850
_cell_length_b   10.25408432
_cell_length_c   10.22052115
_cell_angle_alpha   89.75035696
_cell_angle_beta   89.78333938
_cell_angle_gamma   89.75469154
_symmetry_Int_Tables_number   1
_chemical_formula_structural   TmVI18
_chemical_formula_sum   'Tm1 V1 I18'
_cell_volume   1072.82803790
_cell_formula_units_Z   1
loop_
 _symmetry_equiv_pos_site_id
 _symmetry_equiv_pos_as_xyz
  1  'x, y, z'
loop_
 _atom_site_type_symbol
 _atom_site_label
 _atom_site_symmetry_multiplicity
 _atom_site_fract_x
 _atom_site_fract_y
 _atom_site_fract_z
 _atom_site_occupancy
  Tm  Tm0  1  0.000000  0.000000  0.000000  1
  V  V1  1  0.500000  0.500000  0.500000  1
  I  I2  1  0.768306  0.476220  0.508196  1
  I  I3  1  0.507432  0.767372  0.475561  1
  I  I4  1  0.476373  0.508339  0.768288  1
  I  I5  1  0.231694  0.523780  0.491804  1
  I  I6  1  0.492568  0.232628  0.524439  1
  I  I7  1  0.523627  0.491661  0.231712  1
  I  I8  1  0.883856  0.376453  0.751138  1
  I  I9  1  0.750272  0.882606  0.376590  1
  I  I10  1  0.376788  0.750814  0.883875  1
  I  I11  1  0.116144  0.623547  0.248862  1
  I  I12  1  0.249728  0.117394  0.623410  1
  I  I13  1  0.623212  0.249186  0.116125  1
  I  I14  1  0.014624  0.969769  0.707944  1
  I  I15  1  0.708242  0.014655  0.968494  1
  I  I16  1  0.968527  0.708798  0.013593  1
  I  I17  1  0.985376  0.030231  0.292056  1
  I  I18  1  0.291758  0.985345  0.031506  1
  I  I19  1  0.031473  0.291202  0.986407  1
