# generated using pymatgen
data_Nd5HoZn4Pd12Rh
_symmetry_space_group_name_H-M   'P 1'
_cell_length_a   8.35208684
_cell_length_b   8.35208620
_cell_length_c   8.35208674
_cell_angle_alpha   109.51760878
_cell_angle_beta   109.51760920
_cell_angle_gamma   109.37848149
_symmetry_Int_Tables_number   1
_chemical_formula_structural   Nd5HoZn4Pd12Rh
_chemical_formula_sum   'Nd5 Ho1 Zn4 Pd12 Rh1'
_cell_volume   448.49977842
_cell_formula_units_Z   1
loop_
 _symmetry_equiv_pos_site_id
 _symmetry_equiv_pos_as_xyz
  1  'x, y, z'
loop_
 _atom_site_type_symbol
 _atom_site_label
 _atom_site_symmetry_multiplicity
 _atom_site_fract_x
 _atom_site_fract_y
 _atom_site_fract_z
 _atom_site_occupancy
  Nd  Nd0  1  0.296245  0.999422  0.296823  1
  Nd  Nd1  1  0.999422  0.296245  0.296823  1
  Nd  Nd2  1  0.296809  0.296809  0.000000  1
  Nd  Nd3  1  0.702599  0.999422  0.703177  1
  Nd  Nd4  1  0.999422  0.702599  0.703177  1
  Ho  Ho5  1  0.698924  0.698924  0.000000  1
  Zn  Zn6  1  0.000175  0.000175  0.498474  1
  Zn  Zn7  1  0.000175  0.501701  0.000000  1
  Zn  Zn8  1  0.501701  0.000175  0.000000  1
  Zn  Zn9  1  0.501701  0.501701  0.501526  1
  Pd  Pd10  1  0.336299  0.336299  0.669905  1
  Pd  Pd11  1  0.668759  0.998801  0.330042  1
  Pd  Pd12  1  0.998801  0.668759  0.330042  1
  Pd  Pd13  1  0.666393  0.336299  0.000000  1
  Pd  Pd14  1  0.332383  0.664768  0.332386  1
  Pd  Pd15  1  0.999997  0.332383  0.667614  1
  Pd  Pd16  1  0.336299  0.666393  0.000000  1
  Pd  Pd17  1  0.332383  0.999997  0.667614  1
  Pd  Pd18  1  0.664768  0.332383  0.332386  1
  Pd  Pd19  1  0.666393  0.666393  0.330095  1
  Pd  Pd20  1  0.668759  0.338718  0.669958  1
  Pd  Pd21  1  0.338718  0.668759  0.669958  1
  Rh  Rh22  1  0.992874  0.992874  0.000000  1
