# generated using pymatgen
data_Y3Tm3Al24(Ir3Ru)2
_symmetry_space_group_name_H-M   'P 1'
_cell_length_a   8.81346011
_cell_length_b   8.81562069
_cell_length_c   9.47917200
_cell_angle_alpha   90.00000000
_cell_angle_beta   90.00000000
_cell_angle_gamma   119.97389163
_symmetry_Int_Tables_number   1
_chemical_formula_structural   Y3Tm3Al24(Ir3Ru)2
_chemical_formula_sum   'Y3 Tm3 Al24 Ir6 Ru2'
_cell_volume   637.99102695
_cell_formula_units_Z   1
loop_
 _symmetry_equiv_pos_site_id
 _symmetry_equiv_pos_as_xyz
  1  'x, y, z'
loop_
 _atom_site_type_symbol
 _atom_site_label
 _atom_site_symmetry_multiplicity
 _atom_site_fract_x
 _atom_site_fract_y
 _atom_site_fract_z
 _atom_site_occupancy
  Y  Y0  1  0.806911  0.193479  0.750000  1
  Y  Y1  1  0.193609  0.806658  0.250000  1
  Y  Y2  1  0.386672  0.193380  0.750000  1
  Tm  Tm3  1  0.610653  0.805316  0.250000  1
  Tm  Tm4  1  0.805644  0.611011  0.750000  1
  Tm  Tm5  1  0.194858  0.389421  0.250000  1
  Al  Al6  1  0.666945  0.333666  0.971902  1
  Al  Al7  1  0.333591  0.666623  0.028898  1
  Al  Al8  1  0.333591  0.666623  0.471102  1
  Al  Al9  1  0.666945  0.333666  0.528098  1
  Al  Al10  1  0.837302  0.162635  0.422709  1
  Al  Al11  1  0.162595  0.836763  0.576563  1
  Al  Al12  1  0.325726  0.163162  0.423057  1
  Al  Al13  1  0.162595  0.836763  0.923437  1
  Al  Al14  1  0.674337  0.836867  0.575917  1
  Al  Al15  1  0.837302  0.162635  0.077291  1
  Al  Al16  1  0.836903  0.674436  0.423661  1
  Al  Al17  1  0.674337  0.836867  0.924083  1
  Al  Al18  1  0.163018  0.326064  0.575566  1
  Al  Al19  1  0.325726  0.163162  0.076943  1
  Al  Al20  1  0.163018  0.326064  0.924434  1
  Al  Al21  1  0.836903  0.674436  0.076339  1
  Al  Al22  1  0.438174  0.562864  0.750000  1
  Al  Al23  1  0.562296  0.437951  0.250000  1
  Al  Al24  1  0.124800  0.562796  0.750000  1
  Al  Al25  1  0.875259  0.437233  0.250000  1
  Al  Al26  1  0.437540  0.874819  0.750000  1
  Al  Al27  1  0.562930  0.124841  0.250000  1
  Al  Al28  1  0.998947  0.997908  0.750000  1
  Al  Al29  1  0.998934  0.000966  0.250000  1
  Ir  Ir30  1  0.500262  0.500558  0.000476  1
  Ir  Ir31  1  0.000244  0.500118  0.000075  1
  Ir  Ir32  1  0.500262  0.500558  0.499524  1
  Ir  Ir33  1  0.500282  0.999705  0.000454  1
  Ir  Ir34  1  0.000244  0.500118  0.499925  1
  Ir  Ir35  1  0.500282  0.999705  0.499546  1
  Ru  Ru36  1  0.000180  0.000080  0.999967  1
  Ru  Ru37  1  0.000180  0.000080  0.500033  1
