# generated using pymatgen
data_Rb6InAs3
_symmetry_space_group_name_H-M   'P 1'
_cell_length_a   6.20795900
_cell_length_b   10.50619200
_cell_length_c   12.03753209
_cell_angle_alpha   78.92439752
_cell_angle_beta   90.00000000
_cell_angle_gamma   90.00000000
_symmetry_Int_Tables_number   1
_chemical_formula_structural   Rb6InAs3
_chemical_formula_sum   'Rb12 In2 As6'
_cell_volume   770.48896647
_cell_formula_units_Z   2
loop_
 _symmetry_equiv_pos_site_id
 _symmetry_equiv_pos_as_xyz
  1  'x, y, z'
loop_
 _atom_site_type_symbol
 _atom_site_label
 _atom_site_symmetry_multiplicity
 _atom_site_fract_x
 _atom_site_fract_y
 _atom_site_fract_z
 _atom_site_occupancy
  Rb  Rb0  1  0.750000  0.470908  0.071086  1
  Rb  Rb1  1  0.250000  0.529092  0.928914  1
  Rb  Rb2  1  0.750000  0.737303  0.225850  1
  Rb  Rb3  1  0.250000  0.262697  0.774150  1
  Rb  Rb4  1  0.250000  0.565706  0.525450  1
  Rb  Rb5  1  0.750000  0.434294  0.474550  1
  Rb  Rb6  1  0.250000  0.865919  0.018311  1
  Rb  Rb7  1  0.750000  0.134081  0.981689  1
  Rb  Rb8  1  0.250000  0.881657  0.674501  1
  Rb  Rb9  1  0.750000  0.118343  0.325499  1
  Rb  Rb10  1  0.250000  0.921819  0.365482  1
  Rb  Rb11  1  0.750000  0.078181  0.634518  1
  In  In12  1  0.250000  0.324807  0.277928  1
  In  In13  1  0.750000  0.675193  0.722072  1
  As  As14  1  0.250000  0.173490  0.120590  1
  As  As15  1  0.750000  0.826510  0.879410  1
  As  As16  1  0.250000  0.211009  0.495368  1
  As  As17  1  0.750000  0.788991  0.504632  1
  As  As18  1  0.250000  0.578163  0.221362  1
  As  As19  1  0.750000  0.421837  0.778638  1
