# generated using pymatgen
data_Gd3In3Ag2Au
_symmetry_space_group_name_H-M   'P 1'
_cell_length_a   8.01842900
_cell_length_b   8.01842993
_cell_length_c   3.98492300
_cell_angle_alpha   90.00000000
_cell_angle_beta   90.00000000
_cell_angle_gamma   120.00000028
_symmetry_Int_Tables_number   1
_chemical_formula_structural   Gd3In3Ag2Au
_chemical_formula_sum   'Gd3 In3 Ag2 Au1'
_cell_volume   221.88563724
_cell_formula_units_Z   1
loop_
 _symmetry_equiv_pos_site_id
 _symmetry_equiv_pos_as_xyz
  1  'x, y, z'
loop_
 _atom_site_type_symbol
 _atom_site_label
 _atom_site_symmetry_multiplicity
 _atom_site_fract_x
 _atom_site_fract_y
 _atom_site_fract_z
 _atom_site_occupancy
  Gd  Gd0  1  0.401364  0.408737  0.500000  1
  Gd  Gd1  1  0.591263  0.992626  0.500000  1
  Gd  Gd2  1  0.007374  0.598636  0.500000  1
  In  In3  1  0.742130  0.736639  0.000000  1
  In  In4  1  0.263361  0.005490  0.000000  1
  In  In5  1  0.994510  0.257870  0.000000  1
  Ag  Ag6  1  0.666667  0.333333  0.000000  1
  Ag  Ag7  1  0.000000  0.000000  0.500000  1
  Au  Au8  1  0.333333  0.666667  0.000000  1
