# generated using pymatgen
data_Hf9Ta3RePt
_symmetry_space_group_name_H-M   'P 1'
_cell_length_a   8.86809000
_cell_length_b   8.86808981
_cell_length_c   8.59220800
_cell_angle_alpha   90.00000000
_cell_angle_beta   90.00000000
_cell_angle_gamma   120.00000072
_symmetry_Int_Tables_number   1
_chemical_formula_structural   Hf9Ta3RePt
_chemical_formula_sum   'Hf18 Ta6 Re2 Pt2'
_cell_volume   585.18823334
_cell_formula_units_Z   2
loop_
 _symmetry_equiv_pos_site_id
 _symmetry_equiv_pos_as_xyz
  1  'x, y, z'
loop_
 _atom_site_type_symbol
 _atom_site_label
 _atom_site_symmetry_multiplicity
 _atom_site_fract_x
 _atom_site_fract_y
 _atom_site_fract_z
 _atom_site_occupancy
  Hf  Hf0  1  0.196547  0.803453  0.445384  1
  Hf  Hf1  1  0.196547  0.393094  0.445384  1
  Hf  Hf2  1  0.606906  0.803453  0.445384  1
  Hf  Hf3  1  0.803453  0.196547  0.554616  1
  Hf  Hf4  1  0.803453  0.606906  0.554616  1
  Hf  Hf5  1  0.393094  0.196547  0.554616  1
  Hf  Hf6  1  0.803453  0.196547  0.945384  1
  Hf  Hf7  1  0.803453  0.606906  0.945384  1
  Hf  Hf8  1  0.393094  0.196547  0.945384  1
  Hf  Hf9  1  0.196547  0.803453  0.054616  1
  Hf  Hf10  1  0.196547  0.393094  0.054616  1
  Hf  Hf11  1  0.606906  0.803453  0.054616  1
  Hf  Hf12  1  0.542038  0.457962  0.250000  1
  Hf  Hf13  1  0.542038  0.084075  0.250000  1
  Hf  Hf14  1  0.915925  0.457962  0.250000  1
  Hf  Hf15  1  0.457962  0.542038  0.750000  1
  Hf  Hf16  1  0.457962  0.915925  0.750000  1
  Hf  Hf17  1  0.084075  0.542038  0.750000  1
  Ta  Ta18  1  0.888446  0.111554  0.250000  1
  Ta  Ta19  1  0.888446  0.776891  0.250000  1
  Ta  Ta20  1  0.223109  0.111554  0.250000  1
  Ta  Ta21  1  0.111554  0.888446  0.750000  1
  Ta  Ta22  1  0.111554  0.223109  0.750000  1
  Ta  Ta23  1  0.776891  0.888446  0.750000  1
  Re  Re24  1  0.000000  0.000000  0.500000  1
  Re  Re25  1  0.000000  0.000000  0.000000  1
  Pt  Pt26  1  0.333333  0.666667  0.250000  1
  Pt  Pt27  1  0.666667  0.333333  0.750000  1
