# generated using pymatgen
data_Ac3Se3N
_symmetry_space_group_name_H-M   'P 1'
_cell_length_a   4.40467200
_cell_length_b   13.38061300
_cell_length_c   14.18674700
_cell_angle_alpha   90.00000000
_cell_angle_beta   90.00000000
_cell_angle_gamma   90.00000000
_symmetry_Int_Tables_number   1
_chemical_formula_structural   Ac3Se3N
_chemical_formula_sum   'Ac12 Se12 N4'
_cell_volume   836.12730736
_cell_formula_units_Z   4
loop_
 _symmetry_equiv_pos_site_id
 _symmetry_equiv_pos_as_xyz
  1  'x, y, z'
loop_
 _atom_site_type_symbol
 _atom_site_label
 _atom_site_symmetry_multiplicity
 _atom_site_fract_x
 _atom_site_fract_y
 _atom_site_fract_z
 _atom_site_occupancy
  Ac  Ac0  1  0.750000  0.417275  0.129228  1
  Ac  Ac1  1  0.750000  0.917275  0.370772  1
  Ac  Ac2  1  0.250000  0.582725  0.870772  1
  Ac  Ac3  1  0.250000  0.082725  0.629228  1
  Ac  Ac4  1  0.750000  0.782168  0.132776  1
  Ac  Ac5  1  0.750000  0.282168  0.367224  1
  Ac  Ac6  1  0.250000  0.217832  0.867224  1
  Ac  Ac7  1  0.250000  0.717832  0.632776  1
  Ac  Ac8  1  0.750000  0.964322  0.846036  1
  Ac  Ac9  1  0.750000  0.464322  0.653964  1
  Ac  Ac10  1  0.250000  0.035678  0.153964  1
  Ac  Ac11  1  0.250000  0.535678  0.346036  1
  Se  Se12  1  0.750000  0.635392  0.498773  1
  Se  Se13  1  0.750000  0.135392  0.001227  1
  Se  Se14  1  0.250000  0.364608  0.501227  1
  Se  Se15  1  0.250000  0.864608  0.998773  1
  Se  Se16  1  0.750000  0.415562  0.891658  1
  Se  Se17  1  0.750000  0.915562  0.608342  1
  Se  Se18  1  0.250000  0.584438  0.108342  1
  Se  Se19  1  0.250000  0.084438  0.391658  1
  Se  Se20  1  0.750000  0.730023  0.802292  1
  Se  Se21  1  0.750000  0.230023  0.697708  1
  Se  Se22  1  0.250000  0.269977  0.197708  1
  Se  Se23  1  0.250000  0.769977  0.302292  1
  N  N24  1  0.750000  0.449256  0.296514  1
  N  N25  1  0.750000  0.949256  0.203486  1
  N  N26  1  0.250000  0.550744  0.703486  1
  N  N27  1  0.250000  0.050744  0.796514  1
