# generated using pymatgen
data_Tm4Co7P12Rh13
_symmetry_space_group_name_H-M   'P 1'
_cell_length_a   3.78508700
_cell_length_b   10.66964217
_cell_length_c   12.22709120
_cell_angle_alpha   89.93137398
_cell_angle_beta   90.00000000
_cell_angle_gamma   90.00000000
_symmetry_Int_Tables_number   1
_chemical_formula_structural   Tm4Co7P12Rh13
_chemical_formula_sum   'Tm4 Co7 P12 Rh13'
_cell_volume   493.79712934
_cell_formula_units_Z   1
loop_
 _symmetry_equiv_pos_site_id
 _symmetry_equiv_pos_as_xyz
  1  'x, y, z'
loop_
 _atom_site_type_symbol
 _atom_site_label
 _atom_site_symmetry_multiplicity
 _atom_site_fract_x
 _atom_site_fract_y
 _atom_site_fract_z
 _atom_site_occupancy
  Tm  Tm0  1  0.250000  0.580620  0.709859  1
  Tm  Tm1  1  0.250000  0.916801  0.209283  1
  Tm  Tm2  1  0.750000  0.417438  0.290449  1
  Tm  Tm3  1  0.750000  0.085879  0.792104  1
  Co  Co4  1  0.250000  0.614885  0.197344  1
  Co  Co5  1  0.750000  0.116650  0.302801  1
  Co  Co6  1  0.750000  0.383444  0.803908  1
  Co  Co7  1  0.250000  0.462536  0.933245  1
  Co  Co8  1  0.250000  0.036737  0.429626  1
  Co  Co9  1  0.750000  0.536149  0.068309  1
  Co  Co10  1  0.750000  0.964094  0.563626  1
  P  P11  1  0.250000  0.430800  0.111778  1
  P  P12  1  0.250000  0.077745  0.605268  1
  P  P13  1  0.750000  0.566844  0.889544  1
  P  P14  1  0.750000  0.930474  0.386701  1
  P  P15  1  0.250000  0.273508  0.871504  1
  P  P16  1  0.250000  0.227297  0.369992  1
  P  P17  1  0.750000  0.725652  0.129402  1
  P  P18  1  0.750000  0.770310  0.626298  1
  P  P19  1  0.250000  0.598198  0.379885  1
  P  P20  1  0.250000  0.899934  0.889056  1
  P  P21  1  0.750000  0.401198  0.619631  1
  P  P22  1  0.750000  0.100160  0.119920  1
  Rh  Rh23  1  0.250000  0.714955  0.993066  1
  Rh  Rh24  1  0.250000  0.782943  0.486259  1
  Rh  Rh25  1  0.750000  0.284082  0.009862  1
  Rh  Rh26  1  0.750000  0.216378  0.510120  1
  Rh  Rh27  1  0.250000  0.408505  0.476729  1
  Rh  Rh28  1  0.250000  0.091980  0.979609  1
  Rh  Rh29  1  0.750000  0.590078  0.521165  1
  Rh  Rh30  1  0.750000  0.908854  0.022994  1
  Rh  Rh31  1  0.250000  0.227162  0.180055  1
  Rh  Rh32  1  0.250000  0.276096  0.680520  1
  Rh  Rh33  1  0.750000  0.768317  0.822619  1
  Rh  Rh34  1  0.750000  0.726245  0.318853  1
  Rh  Rh35  1  0.250000  0.887054  0.698615  1
