# generated using pymatgen
data_YMn4VP3
_symmetry_space_group_name_H-M   'P 1'
_cell_length_a   3.59959400
_cell_length_b   10.79278700
_cell_length_c   12.32399000
_cell_angle_alpha   90.00000000
_cell_angle_beta   90.00000000
_cell_angle_gamma   90.00000000
_symmetry_Int_Tables_number   1
_chemical_formula_structural   YMn4VP3
_chemical_formula_sum   'Y4 Mn16 V4 P12'
_cell_volume   478.78271448
_cell_formula_units_Z   4
loop_
 _symmetry_equiv_pos_site_id
 _symmetry_equiv_pos_as_xyz
  1  'x, y, z'
loop_
 _atom_site_type_symbol
 _atom_site_label
 _atom_site_symmetry_multiplicity
 _atom_site_fract_x
 _atom_site_fract_y
 _atom_site_fract_z
 _atom_site_occupancy
  Y  Y0  1  0.250000  0.586379  0.706735  1
  Y  Y1  1  0.250000  0.913621  0.206735  1
  Y  Y2  1  0.750000  0.413621  0.293265  1
  Y  Y3  1  0.750000  0.086379  0.793265  1
  Mn  Mn4  1  0.250000  0.410206  0.493146  1
  Mn  Mn5  1  0.250000  0.089794  0.993146  1
  Mn  Mn6  1  0.750000  0.589794  0.506854  1
  Mn  Mn7  1  0.750000  0.910206  0.006854  1
  Mn  Mn8  1  0.250000  0.212659  0.180687  1
  Mn  Mn9  1  0.250000  0.287341  0.680687  1
  Mn  Mn10  1  0.750000  0.787341  0.819313  1
  Mn  Mn11  1  0.750000  0.712659  0.319313  1
  Mn  Mn12  1  0.250000  0.883451  0.693403  1
  Mn  Mn13  1  0.250000  0.616549  0.193403  1
  Mn  Mn14  1  0.750000  0.116549  0.306597  1
  Mn  Mn15  1  0.750000  0.383451  0.806597  1
  Mn  Mn16  1  0.250000  0.465351  0.935269  1
  Mn  Mn17  1  0.250000  0.034649  0.435269  1
  Mn  Mn18  1  0.750000  0.534649  0.064731  1
  Mn  Mn19  1  0.750000  0.965351  0.564731  1
  V  V20  1  0.250000  0.708141  0.983139  1
  V  V21  1  0.250000  0.791859  0.483139  1
  V  V22  1  0.750000  0.291859  0.016861  1
  V  V23  1  0.750000  0.208141  0.516861  1
  P  P24  1  0.250000  0.412722  0.115974  1
  P  P25  1  0.250000  0.087278  0.615974  1
  P  P26  1  0.750000  0.587278  0.884026  1
  P  P27  1  0.750000  0.912722  0.384026  1
  P  P28  1  0.250000  0.264986  0.873632  1
  P  P29  1  0.250000  0.235014  0.373632  1
  P  P30  1  0.750000  0.735014  0.126368  1
  P  P31  1  0.750000  0.764986  0.626368  1
  P  P32  1  0.250000  0.592341  0.384189  1
  P  P33  1  0.250000  0.907659  0.884189  1
  P  P34  1  0.750000  0.407659  0.615811  1
  P  P35  1  0.750000  0.092341  0.115811  1
