# generated using pymatgen
data_DyTm4Lu5Pb6
_symmetry_space_group_name_H-M   'P 1'
_cell_length_a   8.94229600
_cell_length_b   8.92539472
_cell_length_c   6.51601000
_cell_angle_alpha   90.00000000
_cell_angle_beta   90.00000000
_cell_angle_gamma   119.94700469
_symmetry_Int_Tables_number   1
_chemical_formula_structural   DyTm4Lu5Pb6
_chemical_formula_sum   'Dy1 Tm4 Lu5 Pb6'
_cell_volume   450.63043439
_cell_formula_units_Z   1
loop_
 _symmetry_equiv_pos_site_id
 _symmetry_equiv_pos_as_xyz
  1  'x, y, z'
loop_
 _atom_site_type_symbol
 _atom_site_label
 _atom_site_symmetry_multiplicity
 _atom_site_fract_x
 _atom_site_fract_y
 _atom_site_fract_z
 _atom_site_occupancy
  Dy  Dy0  1  0.999497  0.764113  0.250000  1
  Tm  Tm1  1  0.762965  0.764140  0.750000  1
  Tm  Tm2  1  0.237135  0.001195  0.750000  1
  Tm  Tm3  1  0.000308  0.234639  0.750000  1
  Tm  Tm4  1  0.236259  0.236062  0.250000  1
  Lu  Lu5  1  0.667422  0.333556  0.999937  1
  Lu  Lu6  1  0.332650  0.666641  0.999949  1
  Lu  Lu7  1  0.332650  0.666641  0.500051  1
  Lu  Lu8  1  0.667422  0.333556  0.500063  1
  Lu  Lu9  1  0.763675  0.999268  0.250000  1
  Pb  Pb10  1  0.395130  0.395455  0.750000  1
  Pb  Pb11  1  0.604351  0.000005  0.750000  1
  Pb  Pb12  1  0.999917  0.604888  0.750000  1
  Pb  Pb13  1  0.603127  0.604870  0.250000  1
  Pb  Pb14  1  0.397861  0.001391  0.250000  1
  Pb  Pb15  1  0.999632  0.393581  0.250000  1
