# generated using pymatgen
data_YCuHgPd3
_symmetry_space_group_name_H-M   'P 1'
_cell_length_a   5.20331547
_cell_length_b   5.44739429
_cell_length_c   5.44739400
_cell_angle_alpha   60.00000176
_cell_angle_beta   58.43576543
_cell_angle_gamma   58.43576680
_symmetry_Int_Tables_number   1
_chemical_formula_structural   YCuHgPd3
_chemical_formula_sum   'Y1 Cu1 Hg1 Pd3'
_cell_volume   106.52690593
_cell_formula_units_Z   1
loop_
 _symmetry_equiv_pos_site_id
 _symmetry_equiv_pos_as_xyz
  1  'x, y, z'
loop_
 _atom_site_type_symbol
 _atom_site_label
 _atom_site_symmetry_multiplicity
 _atom_site_fract_x
 _atom_site_fract_y
 _atom_site_fract_z
 _atom_site_occupancy
  Y  Y0  1  0.249837  0.250054  0.250054  1
  Cu  Cu1  1  0.123895  0.625369  0.625369  1
  Hg  Hg2  1  0.005516  0.998161  0.998161  1
  Pd  Pd3  1  0.623585  0.626103  0.124212  1
  Pd  Pd4  1  0.623585  0.124212  0.626103  1
  Pd  Pd5  1  0.623585  0.626103  0.626103  1
