# generated using pymatgen
data_LiCa6Si3Pd4
_symmetry_space_group_name_H-M   'P 1'
_cell_length_a   5.72554100
_cell_length_b   8.09858000
_cell_length_c   13.60177400
_cell_angle_alpha   90.00000000
_cell_angle_beta   90.00000000
_cell_angle_gamma   90.00000000
_symmetry_Int_Tables_number   1
_chemical_formula_structural   LiCa6Si3Pd4
_chemical_formula_sum   'Li2 Ca12 Si6 Pd8'
_cell_volume   630.69728308
_cell_formula_units_Z   2
loop_
 _symmetry_equiv_pos_site_id
 _symmetry_equiv_pos_as_xyz
  1  'x, y, z'
loop_
 _atom_site_type_symbol
 _atom_site_label
 _atom_site_symmetry_multiplicity
 _atom_site_fract_x
 _atom_site_fract_y
 _atom_site_fract_z
 _atom_site_occupancy
  Li  Li0  1  0.384476  0.250000  0.000000  1
  Li  Li1  1  0.615524  0.750000  0.500000  1
  Ca  Ca2  1  0.133863  0.616085  0.103653  1
  Ca  Ca3  1  0.133863  0.883915  0.896347  1
  Ca  Ca4  1  0.866137  0.116085  0.396347  1
  Ca  Ca5  1  0.866137  0.383915  0.603653  1
  Ca  Ca6  1  0.857483  0.395552  0.894289  1
  Ca  Ca7  1  0.857483  0.104448  0.105711  1
  Ca  Ca8  1  0.142517  0.895552  0.605711  1
  Ca  Ca9  1  0.142517  0.604448  0.394289  1
  Ca  Ca10  1  0.351360  0.258539  0.250204  1
  Ca  Ca11  1  0.351360  0.241461  0.749796  1
  Ca  Ca12  1  0.648640  0.758539  0.249796  1
  Ca  Ca13  1  0.648640  0.741461  0.750204  1
  Si  Si14  1  0.619122  0.750000  0.000000  1
  Si  Si15  1  0.380878  0.250000  0.500000  1
  Si  Si16  1  0.837134  0.407522  0.247243  1
  Si  Si17  1  0.837134  0.092478  0.752757  1
  Si  Si18  1  0.162866  0.907522  0.252757  1
  Si  Si19  1  0.162866  0.592478  0.747243  1
  Pd  Pd20  1  0.638411  0.483911  0.091434  1
  Pd  Pd21  1  0.638411  0.016089  0.908566  1
  Pd  Pd22  1  0.361589  0.983911  0.408566  1
  Pd  Pd23  1  0.361589  0.516089  0.591434  1
  Pd  Pd24  1  0.376574  0.547772  0.905203  1
  Pd  Pd25  1  0.376574  0.952228  0.094797  1
  Pd  Pd26  1  0.623426  0.047772  0.594797  1
  Pd  Pd27  1  0.623426  0.452228  0.405203  1
