# generated using pymatgen
data_Sr2Pr5As12Pd17
_symmetry_space_group_name_H-M   'P 1'
_cell_length_a   12.86034162
_cell_length_b   12.86034223
_cell_length_c   14.10869897
_cell_angle_alpha   68.70916244
_cell_angle_beta   68.70916124
_cell_angle_gamma   18.79012918
_symmetry_Int_Tables_number   1
_chemical_formula_structural   Sr2Pr5As12Pd17
_chemical_formula_sum   'Sr2 Pr5 As12 Pd17'
_cell_volume   698.84458547
_cell_formula_units_Z   1
loop_
 _symmetry_equiv_pos_site_id
 _symmetry_equiv_pos_as_xyz
  1  'x, y, z'
loop_
 _atom_site_type_symbol
 _atom_site_label
 _atom_site_symmetry_multiplicity
 _atom_site_fract_x
 _atom_site_fract_y
 _atom_site_fract_z
 _atom_site_occupancy
  Sr  Sr0  1  0.366915  0.366915  0.000907  1
  Sr  Sr1  1  0.633085  0.633085  0.999093  1
  Pr  Pr2  1  0.500000  0.500000  0.500000  1
  Pr  Pr3  1  0.231831  0.231831  0.314807  1
  Pr  Pr4  1  0.768169  0.768169  0.685193  1
  Pr  Pr5  1  0.419926  0.419926  0.260373  1
  Pr  Pr6  1  0.580074  0.580074  0.739627  1
  As  As7  1  0.061018  0.061018  0.925351  1
  As  As8  1  0.938982  0.938982  0.074649  1
  As  As9  1  0.885697  0.885697  0.826138  1
  As  As10  1  0.114303  0.114303  0.173862  1
  As  As11  1  0.189316  0.189316  0.618135  1
  As  As12  1  0.810684  0.810684  0.381865  1
  As  As13  1  0.365867  0.365867  0.579041  1
  As  As14  1  0.634133  0.634133  0.420959  1
  As  As15  1  0.011538  0.011538  0.667650  1
  As  As16  1  0.988462  0.988462  0.332350  1
  As  As17  1  0.234873  0.234873  0.882578  1
  As  As18  1  0.765127  0.765127  0.117422  1
  Pd  Pd19  1  0.837893  0.837893  0.195315  1
  Pd  Pd20  1  0.162107  0.162107  0.804685  1
  Pd  Pd21  1  0.024148  0.024148  0.129987  1
  Pd  Pd22  1  0.975852  0.975852  0.870013  1
  Pd  Pd23  1  0.887768  0.887768  0.459744  1
  Pd  Pd24  1  0.112232  0.112232  0.540256  1
  Pd  Pd25  1  0.500000  0.500000  0.000000  1
  Pd  Pd26  1  0.548136  0.548136  0.256442  1
  Pd  Pd27  1  0.451864  0.451864  0.743558  1
  Pd  Pd28  1  0.295387  0.295387  0.488960  1
  Pd  Pd29  1  0.704613  0.704613  0.511040  1
  Pd  Pd30  1  0.663243  0.663243  0.225558  1
  Pd  Pd31  1  0.336757  0.336757  0.774442  1
  Pd  Pd32  1  0.908753  0.908753  0.638187  1
  Pd  Pd33  1  0.091247  0.091247  0.361813  1
  Pd  Pd34  1  0.220288  0.220288  0.072198  1
  Pd  Pd35  1  0.779712  0.779712  0.927802  1
