# generated using pymatgen
data_Ho8Re2B24OsRu
_symmetry_space_group_name_H-M   'P 1'
_cell_length_a   3.65993800
_cell_length_b   9.14217208
_cell_length_c   11.52022702
_cell_angle_alpha   89.96912688
_cell_angle_beta   90.00000000
_cell_angle_gamma   90.00000000
_symmetry_Int_Tables_number   1
_chemical_formula_structural   Ho8Re2B24OsRu
_chemical_formula_sum   'Ho8 Re2 B24 Os1 Ru1'
_cell_volume   385.46424020
_cell_formula_units_Z   1
loop_
 _symmetry_equiv_pos_site_id
 _symmetry_equiv_pos_as_xyz
  1  'x, y, z'
loop_
 _atom_site_type_symbol
 _atom_site_label
 _atom_site_symmetry_multiplicity
 _atom_site_fract_x
 _atom_site_fract_y
 _atom_site_fract_z
 _atom_site_occupancy
  Ho  Ho0  1  0.000000  0.321579  0.413999  1
  Ho  Ho1  1  0.000000  0.675193  0.586151  1
  Ho  Ho2  1  0.000000  0.824514  0.086530  1
  Ho  Ho3  1  0.000000  0.178237  0.914005  1
  Ho  Ho4  1  0.000000  0.943007  0.371353  1
  Ho  Ho5  1  0.000000  0.056572  0.629606  1
  Ho  Ho6  1  0.000000  0.443147  0.128830  1
  Ho  Ho7  1  0.000000  0.557855  0.870896  1
  Re  Re8  1  0.000000  0.362636  0.678489  1
  Re  Re9  1  0.000000  0.137425  0.178519  1
  B  B10  1  0.500000  0.553372  0.432620  1
  B  B11  1  0.500000  0.446908  0.566390  1
  B  B12  1  0.500000  0.052933  0.066401  1
  B  B13  1  0.500000  0.946396  0.932607  1
  B  B14  1  0.500000  0.747901  0.419172  1
  B  B15  1  0.500000  0.250930  0.580863  1
  B  B16  1  0.500000  0.248872  0.080684  1
  B  B17  1  0.500000  0.752284  0.919191  1
  B  B18  1  0.500000  0.791212  0.266087  1
  B  B19  1  0.500000  0.208402  0.734557  1
  B  B20  1  0.500000  0.291617  0.234295  1
  B  B21  1  0.500000  0.709036  0.766004  1
  B  B22  1  0.500000  0.631863  0.185587  1
  B  B23  1  0.500000  0.369332  0.814458  1
  B  B24  1  0.500000  0.130807  0.314462  1
  B  B25  1  0.500000  0.868060  0.685671  1
  B  B26  1  0.500000  0.981975  0.212251  1
  B  B27  1  0.500000  0.016520  0.787547  1
  B  B28  1  0.500000  0.483245  0.287262  1
  B  B29  1  0.500000  0.518091  0.712097  1
  B  B30  1  0.500000  0.605122  0.029113  1
  B  B31  1  0.500000  0.397485  0.971143  1
  B  B32  1  0.500000  0.102607  0.471523  1
  B  B33  1  0.500000  0.894990  0.529335  1
  Os  Os34  1  0.000000  0.638013  0.321201  1
  Ru  Ru35  1  0.000000  0.861863  0.821100  1
