# generated using pymatgen
data_U8Tc(B8Mo)3
_symmetry_space_group_name_H-M   'P 1'
_cell_length_a   3.68109900
_cell_length_b   9.27075620
_cell_length_c   11.36266924
_cell_angle_alpha   89.97626052
_cell_angle_beta   90.00000000
_cell_angle_gamma   90.00000000
_symmetry_Int_Tables_number   1
_chemical_formula_structural   U8Tc(B8Mo)3
_chemical_formula_sum   'U8 Tc1 B24 Mo3'
_cell_volume   387.76890965
_cell_formula_units_Z   1
loop_
 _symmetry_equiv_pos_site_id
 _symmetry_equiv_pos_as_xyz
  1  'x, y, z'
loop_
 _atom_site_type_symbol
 _atom_site_label
 _atom_site_symmetry_multiplicity
 _atom_site_fract_x
 _atom_site_fract_y
 _atom_site_fract_z
 _atom_site_occupancy
  U  U0  1  0.000000  0.335353  0.408007  1
  U  U1  1  0.000000  0.664410  0.592830  1
  U  U2  1  0.000000  0.836011  0.091836  1
  U  U3  1  0.000000  0.164836  0.907414  1
  U  U4  1  0.000000  0.956199  0.394473  1
  U  U5  1  0.000000  0.043679  0.605106  1
  U  U6  1  0.000000  0.455689  0.105138  1
  U  U7  1  0.000000  0.544148  0.894896  1
  Tc  Tc8  1  0.000000  0.644649  0.320180  1
  B  B9  1  0.500000  0.550231  0.432483  1
  B  B10  1  0.500000  0.450684  0.566302  1
  B  B11  1  0.500000  0.049906  0.066762  1
  B  B12  1  0.500000  0.950326  0.933181  1
  B  B13  1  0.500000  0.742756  0.423270  1
  B  B14  1  0.500000  0.256721  0.575523  1
  B  B15  1  0.500000  0.243482  0.075791  1
  B  B16  1  0.500000  0.756716  0.924612  1
  B  B17  1  0.500000  0.803111  0.273071  1
  B  B18  1  0.500000  0.196228  0.727136  1
  B  B19  1  0.500000  0.304476  0.227580  1
  B  B20  1  0.500000  0.696038  0.772853  1
  B  B21  1  0.500000  0.644251  0.188557  1
  B  B22  1  0.500000  0.355383  0.812472  1
  B  B23  1  0.500000  0.144808  0.312780  1
  B  B24  1  0.500000  0.854926  0.687223  1
  B  B25  1  0.500000  0.984830  0.218720  1
  B  B26  1  0.500000  0.014615  0.781295  1
  B  B27  1  0.500000  0.486335  0.281848  1
  B  B28  1  0.500000  0.514855  0.718518  1
  B  B29  1  0.500000  0.642329  0.040200  1
  B  B30  1  0.500000  0.357789  0.960544  1
  B  B31  1  0.500000  0.142160  0.460615  1
  B  B32  1  0.500000  0.856778  0.538852  1
  Mo  Mo33  1  0.000000  0.355333  0.679603  1
  Mo  Mo34  1  0.000000  0.145014  0.180265  1
  Mo  Mo35  1  0.000000  0.854943  0.820064  1
