# generated using pymatgen
data_Y3ErIrPd3O14
_symmetry_space_group_name_H-M   'P 1'
_cell_length_a   7.25077417
_cell_length_b   7.25077453
_cell_length_c   7.27698938
_cell_angle_alpha   60.10790299
_cell_angle_beta   60.10790123
_cell_angle_gamma   59.97903873
_symmetry_Int_Tables_number   1
_chemical_formula_structural   Y3ErIrPd3O14
_chemical_formula_sum   'Y3 Er1 Ir1 Pd3 O14'
_cell_volume   270.92110543
_cell_formula_units_Z   1
loop_
 _symmetry_equiv_pos_site_id
 _symmetry_equiv_pos_as_xyz
  1  'x, y, z'
loop_
 _atom_site_type_symbol
 _atom_site_label
 _atom_site_symmetry_multiplicity
 _atom_site_fract_x
 _atom_site_fract_y
 _atom_site_fract_z
 _atom_site_occupancy
  Y  Y0  1  0.625000  0.125000  0.125000  1
  Y  Y1  1  0.125000  0.625000  0.125000  1
  Y  Y2  1  0.125000  0.125000  0.625000  1
  Er  Er3  1  0.125000  0.125000  0.125000  1
  Ir  Ir4  1  0.625000  0.625000  0.125000  1
  Pd  Pd5  1  0.125000  0.625000  0.625000  1
  Pd  Pd6  1  0.625000  0.125000  0.625000  1
  Pd  Pd7  1  0.625000  0.625000  0.625000  1
  O  O8  1  0.712633  0.712633  0.283538  1
  O  O9  1  0.283242  0.283242  0.720393  1
  O  O10  1  0.714516  0.283596  0.718468  1
  O  O11  1  0.290033  0.715271  0.283350  1
  O  O12  1  0.283596  0.714516  0.718468  1
  O  O13  1  0.715271  0.290033  0.283350  1
  O  O14  1  0.537367  0.537367  0.966462  1
  O  O15  1  0.966758  0.966758  0.529607  1
  O  O16  1  0.535484  0.966404  0.531532  1
  O  O17  1  0.959967  0.534729  0.966650  1
  O  O18  1  0.966404  0.535484  0.531532  1
  O  O19  1  0.534729  0.959967  0.966650  1
  O  O20  1  0.249460  0.249460  0.247874  1
  O  O21  1  0.000540  0.000540  0.002126  1
