# generated using pymatgen
data_TbGd5Cl18
_symmetry_space_group_name_H-M   'P 1'
_cell_length_a   7.06003132
_cell_length_b   7.05656613
_cell_length_c   21.58025116
_cell_angle_alpha   89.96305257
_cell_angle_beta   90.01846824
_cell_angle_gamma   119.98375479
_symmetry_Int_Tables_number   1
_chemical_formula_structural   TbGd5Cl18
_chemical_formula_sum   'Tb1 Gd5 Cl18'
_cell_volume   931.23255373
_cell_formula_units_Z   1
loop_
 _symmetry_equiv_pos_site_id
 _symmetry_equiv_pos_as_xyz
  1  'x, y, z'
loop_
 _atom_site_type_symbol
 _atom_site_label
 _atom_site_symmetry_multiplicity
 _atom_site_fract_x
 _atom_site_fract_y
 _atom_site_fract_z
 _atom_site_occupancy
  Tb  Tb0  1  0.221881  0.110941  0.000000  1
  Gd  Gd1  1  0.555042  0.777520  0.000000  1
  Gd  Gd2  1  0.222308  0.444912  0.333736  1
  Gd  Gd3  1  0.889162  0.778330  0.333733  1
  Gd  Gd4  1  0.889163  0.110833  0.666266  1
  Gd  Gd5  1  0.222306  0.777395  0.666263  1
  Cl  Cl6  1  0.514947  0.442402  0.069173  1
  Cl  Cl7  1  0.890290  0.072759  0.069101  1
  Cl  Cl8  1  0.260314  0.817804  0.069183  1
  Cl  Cl9  1  0.184242  0.740195  0.264358  1
  Cl  Cl10  1  0.927256  0.111693  0.264361  1
  Cl  Cl11  1  0.555724  0.483095  0.264365  1
  Cl  Cl12  1  0.926903  0.482715  0.403261  1
  Cl  Cl13  1  0.184649  0.111553  0.403236  1
  Cl  Cl14  1  0.555745  0.740542  0.403253  1
  Cl  Cl15  1  0.555745  0.815202  0.596747  1
  Cl  Cl16  1  0.184648  0.073096  0.596764  1
  Cl  Cl17  1  0.926903  0.444189  0.596739  1
  Cl  Cl18  1  0.555724  0.072631  0.735635  1
  Cl  Cl19  1  0.927256  0.815563  0.735639  1
  Cl  Cl20  1  0.184241  0.444047  0.735642  1
  Cl  Cl21  1  0.260315  0.442510  0.930817  1
  Cl  Cl22  1  0.890289  0.817530  0.930899  1
  Cl  Cl23  1  0.514946  0.072545  0.930827  1
