# generated using pymatgen
data_Ho4Tm(In2Ir)2
_symmetry_space_group_name_H-M   'P 1'
_cell_length_a   3.63151000
_cell_length_b   7.98218886
_cell_length_c   18.23471399
_cell_angle_alpha   90.00011064
_cell_angle_beta   90.00000000
_cell_angle_gamma   90.00000000
_symmetry_Int_Tables_number   1
_chemical_formula_structural   Ho4Tm(In2Ir)2
_chemical_formula_sum   'Ho8 Tm2 In8 Ir4'
_cell_volume   528.57692416
_cell_formula_units_Z   2
loop_
 _symmetry_equiv_pos_site_id
 _symmetry_equiv_pos_as_xyz
  1  'x, y, z'
loop_
 _atom_site_type_symbol
 _atom_site_label
 _atom_site_symmetry_multiplicity
 _atom_site_fract_x
 _atom_site_fract_y
 _atom_site_fract_z
 _atom_site_occupancy
  Ho  Ho0  1  0.000000  0.500000  0.500000  1
  Ho  Ho1  1  0.000000  0.000000  0.000000  1
  Ho  Ho2  1  0.000000  0.745400  0.278582  1
  Ho  Ho3  1  0.000000  0.254600  0.721418  1
  Ho  Ho4  1  0.000000  0.754528  0.777774  1
  Ho  Ho5  1  0.000000  0.245472  0.222226  1
  Ho  Ho6  1  0.000000  0.616431  0.089201  1
  Ho  Ho7  1  0.000000  0.383569  0.910799  1
  Tm  Tm8  1  0.000000  0.883795  0.589232  1
  Tm  Tm9  1  0.000000  0.116205  0.410768  1
  In  In10  1  0.500000  0.707304  0.932174  1
  In  In11  1  0.500000  0.292696  0.067826  1
  In  In12  1  0.500000  0.795107  0.433160  1
  In  In13  1  0.500000  0.204893  0.566840  1
  In  In14  1  0.500000  0.573085  0.649282  1
  In  In15  1  0.500000  0.426915  0.350718  1
  In  In16  1  0.500000  0.929050  0.150198  1
  In  In17  1  0.500000  0.070950  0.849802  1
  Ir  Ir18  1  0.500000  0.521717  0.195810  1
  Ir  Ir19  1  0.500000  0.478283  0.804190  1
  Ir  Ir20  1  0.500000  0.977759  0.694713  1
  Ir  Ir21  1  0.500000  0.022241  0.305287  1
