# generated using pymatgen
data_SmEr3(AuCl6)4
_symmetry_space_group_name_H-M   'P 1'
_cell_length_a   7.95479069
_cell_length_b   9.88567043
_cell_length_c   13.98625700
_cell_angle_alpha   102.82511015
_cell_angle_beta   97.58545341
_cell_angle_gamma   113.04124880
_symmetry_Int_Tables_number   1
_chemical_formula_structural   SmEr3(AuCl6)4
_chemical_formula_sum   'Sm1 Er3 Au4 Cl24'
_cell_volume   957.04995759
_cell_formula_units_Z   1
loop_
 _symmetry_equiv_pos_site_id
 _symmetry_equiv_pos_as_xyz
  1  'x, y, z'
loop_
 _atom_site_type_symbol
 _atom_site_label
 _atom_site_symmetry_multiplicity
 _atom_site_fract_x
 _atom_site_fract_y
 _atom_site_fract_z
 _atom_site_occupancy
  Sm  Sm0  1  0.029992  0.685542  0.127843  1
  Er  Er1  1  0.578290  0.928668  0.623142  1
  Er  Er2  1  0.423210  0.072403  0.378012  1
  Er  Er3  1  0.968267  0.313692  0.870914  1
  Au  Au4  1  0.287945  0.633437  0.763490  1
  Au  Au5  1  0.710732  0.364807  0.237163  1
  Au  Au6  1  0.500681  0.500834  0.500524  1
  Au  Au7  1  0.000057  0.001130  0.998687  1
  Cl  Cl8  1  0.597987  0.735967  0.750477  1
  Cl  Cl9  1  0.400514  0.262536  0.249391  1
  Cl  Cl10  1  0.278386  0.850308  0.730937  1
  Cl  Cl11  1  0.720632  0.148103  0.269227  1
  Cl  Cl12  1  0.975778  0.533022  0.773532  1
  Cl  Cl13  1  0.023853  0.462479  0.228898  1
  Cl  Cl14  1  0.295139  0.411553  0.790283  1
  Cl  Cl15  1  0.698894  0.585186  0.210021  1
  Cl  Cl16  1  0.687125  0.369174  0.501066  1
  Cl  Cl17  1  0.313507  0.631734  0.499317  1
  Cl  Cl18  1  0.757180  0.737877  0.534516  1
  Cl  Cl19  1  0.244460  0.264078  0.466639  1
  Cl  Cl20  1  0.790711  0.108368  0.975506  1
  Cl  Cl21  1  0.213194  0.896939  0.021715  1
  Cl  Cl22  1  0.774238  0.790187  0.028825  1
  Cl  Cl23  1  0.223414  0.212889  0.969046  1
  Cl  Cl24  1  0.622264  0.192078  0.743832  1
  Cl  Cl25  1  0.383659  0.809571  0.257874  1
  Cl  Cl26  1  0.934191  0.059665  0.732425  1
  Cl  Cl27  1  0.067376  0.945925  0.271368  1
  Cl  Cl28  1  0.715836  0.047856  0.485089  1
  Cl  Cl29  1  0.285906  0.953274  0.516267  1
  Cl  Cl30  1  0.768294  0.430482  0.973891  1
  Cl  Cl31  1  0.228291  0.560240  0.020081  1
