# generated using pymatgen
data_Pr2Dy4Al24Os4Pd3Rh
_symmetry_space_group_name_H-M   'P 1'
_cell_length_a   8.84193800
_cell_length_b   8.87764431
_cell_length_c   9.62803100
_cell_angle_alpha   90.00000000
_cell_angle_beta   90.00000000
_cell_angle_gamma   119.86703322
_symmetry_Int_Tables_number   1
_chemical_formula_structural   Pr2Dy4Al24Os4Pd3Rh
_chemical_formula_sum   'Pr2 Dy4 Al24 Os4 Pd3 Rh1'
_cell_volume   655.38070968
_cell_formula_units_Z   1
loop_
 _symmetry_equiv_pos_site_id
 _symmetry_equiv_pos_as_xyz
  1  'x, y, z'
loop_
 _atom_site_type_symbol
 _atom_site_label
 _atom_site_symmetry_multiplicity
 _atom_site_fract_x
 _atom_site_fract_y
 _atom_site_fract_z
 _atom_site_occupancy
  Pr  Pr0  1  0.188158  0.376127  0.249248  1
  Pr  Pr1  1  0.811842  0.623873  0.750752  1
  Dy  Dy2  1  0.612966  0.813758  0.251060  1
  Dy  Dy3  1  0.387034  0.186242  0.748940  1
  Dy  Dy4  1  0.200622  0.812900  0.249812  1
  Dy  Dy5  1  0.799378  0.187100  0.750188  1
  Al  Al6  1  0.335465  0.670814  0.026917  1
  Al  Al7  1  0.664535  0.329186  0.973083  1
  Al  Al8  1  0.668604  0.331078  0.526305  1
  Al  Al9  1  0.331396  0.668922  0.473695  1
  Al  Al10  1  0.158109  0.324296  0.576958  1
  Al  Al11  1  0.841891  0.675704  0.423042  1
  Al  Al12  1  0.673027  0.842110  0.574974  1
  Al  Al13  1  0.838350  0.676689  0.079195  1
  Al  Al14  1  0.326973  0.157890  0.425026  1
  Al  Al15  1  0.161650  0.323311  0.920805  1
  Al  Al16  1  0.166290  0.837968  0.574337  1
  Al  Al17  1  0.326847  0.157686  0.075590  1
  Al  Al18  1  0.833710  0.162032  0.425663  1
  Al  Al19  1  0.673153  0.842314  0.924410  1
  Al  Al20  1  0.830784  0.157931  0.076284  1
  Al  Al21  1  0.169216  0.842069  0.923716  1
  Al  Al22  1  0.563818  0.127032  0.249987  1
  Al  Al23  1  0.436182  0.872968  0.750013  1
  Al  Al24  1  0.875387  0.438733  0.252806  1
  Al  Al25  1  0.124613  0.561267  0.747194  1
  Al  Al26  1  0.564618  0.438273  0.250038  1
  Al  Al27  1  0.435382  0.561727  0.749962  1
  Al  Al28  1  0.997908  0.996431  0.250289  1
  Al  Al29  1  0.002092  0.003569  0.749711  1
  Os  Os30  1  0.500000  0.000000  0.000000  1
  Os  Os31  1  0.500000  0.000000  0.500000  1
  Os  Os32  1  0.000000  0.000000  0.000000  1
  Os  Os33  1  0.000000  0.000000  0.500000  1
  Pd  Pd34  1  0.000000  0.500000  0.000000  1
  Pd  Pd35  1  0.500000  0.500000  0.000000  1
  Pd  Pd36  1  0.500000  0.500000  0.500000  1
  Rh  Rh37  1  0.000000  0.500000  0.500000  1
