# generated using pymatgen
data_Zr8Fe8Si13As
_symmetry_space_group_name_H-M   'P 1'
_cell_length_a   9.57798508
_cell_length_b   9.57798491
_cell_length_c   9.57798589
_cell_angle_alpha   94.01372056
_cell_angle_beta   94.01372177
_cell_angle_gamma   149.31761746
_symmetry_Int_Tables_number   1
_chemical_formula_structural   Zr8Fe8Si13As
_chemical_formula_sum   'Zr8 Fe8 Si13 As1'
_cell_volume   432.38670621
_cell_formula_units_Z   1
loop_
 _symmetry_equiv_pos_site_id
 _symmetry_equiv_pos_as_xyz
  1  'x, y, z'
loop_
 _atom_site_type_symbol
 _atom_site_label
 _atom_site_symmetry_multiplicity
 _atom_site_fract_x
 _atom_site_fract_y
 _atom_site_fract_z
 _atom_site_occupancy
  Zr  Zr0  1  0.695223  0.497572  0.197651  1
  Zr  Zr1  1  0.497572  0.695223  0.197651  1
  Zr  Zr2  1  0.497572  0.299920  0.802349  1
  Zr  Zr3  1  0.299920  0.497572  0.802349  1
  Zr  Zr4  1  0.862983  0.862983  0.722913  1
  Zr  Zr5  1  0.140071  0.862983  0.000000  1
  Zr  Zr6  1  0.862983  0.140071  0.000000  1
  Zr  Zr7  1  0.140071  0.140071  0.277087  1
  Fe  Fe8  1  0.102591  0.898388  0.500249  1
  Fe  Fe9  1  0.898388  0.398139  0.795796  1
  Fe  Fe10  1  0.602342  0.102591  0.204204  1
  Fe  Fe11  1  0.102591  0.602342  0.204204  1
  Fe  Fe12  1  0.602342  0.398139  0.499751  1
  Fe  Fe13  1  0.398139  0.898388  0.795796  1
  Fe  Fe14  1  0.898388  0.102591  0.500249  1
  Fe  Fe15  1  0.398139  0.602342  0.499751  1
  Si  Si16  1  0.250411  0.250411  0.000000  1
  Si  Si17  1  0.091964  0.500862  0.591102  1
  Si  Si18  1  0.500862  0.091964  0.591102  1
  Si  Si19  1  0.500862  0.909759  0.408898  1
  Si  Si20  1  0.909759  0.500862  0.408898  1
  Si  Si21  1  0.697543  0.998518  0.699025  1
  Si  Si22  1  0.998518  0.697543  0.699025  1
  Si  Si23  1  0.711572  0.711572  0.421708  1
  Si  Si24  1  0.289864  0.711572  0.000000  1
  Si  Si25  1  0.299493  0.998518  0.300975  1
  Si  Si26  1  0.711572  0.289864  0.000000  1
  Si  Si27  1  0.289864  0.289864  0.578292  1
  Si  Si28  1  0.998518  0.299493  0.300975  1
  As  As29  1  0.749884  0.749884  0.000000  1
