# generated using pymatgen
data_Ac3ZnCd3HgAu
_symmetry_space_group_name_H-M   'P 1'
_cell_length_a   8.23435700
_cell_length_b   8.23435608
_cell_length_c   4.36419600
_cell_angle_alpha   90.00000000
_cell_angle_beta   90.00000000
_cell_angle_gamma   120.00000770
_symmetry_Int_Tables_number   1
_chemical_formula_structural   Ac3ZnCd3HgAu
_chemical_formula_sum   'Ac3 Zn1 Cd3 Hg1 Au1'
_cell_volume   256.26788250
_cell_formula_units_Z   1
loop_
 _symmetry_equiv_pos_site_id
 _symmetry_equiv_pos_as_xyz
  1  'x, y, z'
loop_
 _atom_site_type_symbol
 _atom_site_label
 _atom_site_symmetry_multiplicity
 _atom_site_fract_x
 _atom_site_fract_y
 _atom_site_fract_z
 _atom_site_occupancy
  Ac  Ac0  1  0.593904  0.011424  0.000000  1
  Ac  Ac1  1  0.988576  0.582480  0.000000  1
  Ac  Ac2  1  0.417520  0.406096  0.000000  1
  Zn  Zn3  1  0.000000  0.000000  0.000000  1
  Cd  Cd4  1  0.235196  0.999562  0.500000  1
  Cd  Cd5  1  0.000438  0.235635  0.500000  1
  Cd  Cd6  1  0.764365  0.764804  0.500000  1
  Hg  Hg7  1  0.333333  0.666667  0.500000  1
  Au  Au8  1  0.666667  0.333333  0.500000  1
