# generated using pymatgen
data_Ca20Zn8Cd3Pb
_symmetry_space_group_name_H-M   'P 1'
_cell_length_a   8.05296400
_cell_length_b   8.05296400
_cell_length_c   15.19654700
_cell_angle_alpha   90.00000000
_cell_angle_beta   90.00000000
_cell_angle_gamma   90.00000000
_symmetry_Int_Tables_number   1
_chemical_formula_structural   Ca20Zn8Cd3Pb
_chemical_formula_sum   'Ca20 Zn8 Cd3 Pb1'
_cell_volume   985.49955578
_cell_formula_units_Z   1
loop_
 _symmetry_equiv_pos_site_id
 _symmetry_equiv_pos_as_xyz
  1  'x, y, z'
loop_
 _atom_site_type_symbol
 _atom_site_label
 _atom_site_symmetry_multiplicity
 _atom_site_fract_x
 _atom_site_fract_y
 _atom_site_fract_z
 _atom_site_occupancy
  Ca  Ca0  1  0.672238  0.168261  0.104256  1
  Ca  Ca1  1  0.169306  0.670875  0.606953  1
  Ca  Ca2  1  0.327762  0.831739  0.104256  1
  Ca  Ca3  1  0.830694  0.329125  0.606953  1
  Ca  Ca4  1  0.831739  0.672238  0.104256  1
  Ca  Ca5  1  0.329125  0.169306  0.606953  1
  Ca  Ca6  1  0.168261  0.327762  0.104256  1
  Ca  Ca7  1  0.670875  0.830694  0.606953  1
  Ca  Ca8  1  0.831739  0.327762  0.895744  1
  Ca  Ca9  1  0.329125  0.830694  0.393047  1
  Ca  Ca10  1  0.168261  0.672238  0.895744  1
  Ca  Ca11  1  0.670875  0.169306  0.393047  1
  Ca  Ca12  1  0.672238  0.831739  0.895744  1
  Ca  Ca13  1  0.169306  0.329125  0.393047  1
  Ca  Ca14  1  0.327762  0.168261  0.895744  1
  Ca  Ca15  1  0.830694  0.670875  0.393047  1
  Ca  Ca16  1  0.500000  0.500000  0.754447  1
  Ca  Ca17  1  0.000000  0.000000  0.249503  1
  Ca  Ca18  1  0.000000  0.000000  0.750497  1
  Ca  Ca19  1  0.500000  0.500000  0.245553  1
  Zn  Zn20  1  0.616747  0.117684  0.751050  1
  Zn  Zn21  1  0.117684  0.616747  0.248950  1
  Zn  Zn22  1  0.882316  0.383253  0.248950  1
  Zn  Zn23  1  0.383253  0.882316  0.751050  1
  Zn  Zn24  1  0.882316  0.616747  0.751050  1
  Zn  Zn25  1  0.383253  0.117684  0.248950  1
  Zn  Zn26  1  0.117684  0.383253  0.751050  1
  Zn  Zn27  1  0.616747  0.882316  0.248950  1
  Cd  Cd28  1  0.500000  0.500000  0.500000  1
  Cd  Cd29  1  0.500000  0.500000  0.000000  1
  Cd  Cd30  1  0.000000  0.000000  0.500000  1
  Pb  Pb31  1  0.000000  0.000000  0.000000  1
