# generated using pymatgen
data_Y8In4Pd7Au
_symmetry_space_group_name_H-M   'P 1'
_cell_length_a   7.78319657
_cell_length_b   7.78319669
_cell_length_c   7.49627425
_cell_angle_alpha   90.01662855
_cell_angle_beta   90.01662581
_cell_angle_gamma   89.75347775
_symmetry_Int_Tables_number   1
_chemical_formula_structural   Y8In4Pd7Au
_chemical_formula_sum   'Y8 In4 Pd7 Au1'
_cell_volume   454.10618362
_cell_formula_units_Z   1
loop_
 _symmetry_equiv_pos_site_id
 _symmetry_equiv_pos_as_xyz
  1  'x, y, z'
loop_
 _atom_site_type_symbol
 _atom_site_label
 _atom_site_symmetry_multiplicity
 _atom_site_fract_x
 _atom_site_fract_y
 _atom_site_fract_z
 _atom_site_occupancy
  Y  Y0  1  0.822206  0.171832  0.503183  1
  Y  Y1  1  0.171832  0.822206  0.503183  1
  Y  Y2  1  0.330693  0.330693  0.997128  1
  Y  Y3  1  0.674330  0.674330  0.999355  1
  Y  Y4  1  0.673253  0.673253  0.500929  1
  Y  Y5  1  0.331342  0.331342  0.502699  1
  Y  Y6  1  0.170532  0.822611  0.996757  1
  Y  Y7  1  0.822611  0.170532  0.996757  1
  In  In8  1  0.503173  0.998354  0.250065  1
  In  In9  1  0.999847  0.496738  0.750057  1
  In  In10  1  0.496738  0.999847  0.750057  1
  In  In11  1  0.998354  0.503173  0.250065  1
  Pd  Pd12  1  0.628620  0.374171  0.248863  1
  Pd  Pd13  1  0.374171  0.628620  0.248863  1
  Pd  Pd14  1  0.128040  0.128040  0.748976  1
  Pd  Pd15  1  0.873475  0.873475  0.748508  1
  Pd  Pd16  1  0.374937  0.628584  0.751138  1
  Pd  Pd17  1  0.628584  0.374937  0.751138  1
  Pd  Pd18  1  0.871958  0.871958  0.251775  1
  Au  Au19  1  0.125304  0.125304  0.250503  1
