# generated using pymatgen
data_LuCo4P3Rh
_symmetry_space_group_name_H-M   'P 1'
_cell_length_a   3.66974100
_cell_length_b   10.34531000
_cell_length_c   11.77612600
_cell_angle_alpha   90.00000000
_cell_angle_beta   90.00000000
_cell_angle_gamma   90.00000000
_symmetry_Int_Tables_number   1
_chemical_formula_structural   LuCo4P3Rh
_chemical_formula_sum   'Lu4 Co16 P12 Rh4'
_cell_volume   447.07601047
_cell_formula_units_Z   4
loop_
 _symmetry_equiv_pos_site_id
 _symmetry_equiv_pos_as_xyz
  1  'x, y, z'
loop_
 _atom_site_type_symbol
 _atom_site_label
 _atom_site_symmetry_multiplicity
 _atom_site_fract_x
 _atom_site_fract_y
 _atom_site_fract_z
 _atom_site_occupancy
  Lu  Lu0  1  0.250000  0.583837  0.704143  1
  Lu  Lu1  1  0.250000  0.916163  0.204143  1
  Lu  Lu2  1  0.750000  0.416163  0.295857  1
  Lu  Lu3  1  0.750000  0.083837  0.795857  1
  Co  Co4  1  0.250000  0.409273  0.485892  1
  Co  Co5  1  0.250000  0.090727  0.985892  1
  Co  Co6  1  0.750000  0.590727  0.514108  1
  Co  Co7  1  0.750000  0.909273  0.014108  1
  Co  Co8  1  0.250000  0.222032  0.176152  1
  Co  Co9  1  0.250000  0.277968  0.676152  1
  Co  Co10  1  0.750000  0.777968  0.823848  1
  Co  Co11  1  0.750000  0.722032  0.323848  1
  Co  Co12  1  0.250000  0.885291  0.702646  1
  Co  Co13  1  0.250000  0.614709  0.202646  1
  Co  Co14  1  0.750000  0.114709  0.297354  1
  Co  Co15  1  0.750000  0.385291  0.797354  1
  Co  Co16  1  0.250000  0.464585  0.929557  1
  Co  Co17  1  0.250000  0.035415  0.429557  1
  Co  Co18  1  0.750000  0.535415  0.070443  1
  Co  Co19  1  0.750000  0.964585  0.570443  1
  P  P20  1  0.250000  0.421620  0.113557  1
  P  P21  1  0.250000  0.078380  0.613557  1
  P  P22  1  0.750000  0.578380  0.886443  1
  P  P23  1  0.750000  0.921620  0.386443  1
  P  P24  1  0.250000  0.269033  0.864646  1
  P  P25  1  0.250000  0.230967  0.364646  1
  P  P26  1  0.750000  0.730967  0.135354  1
  P  P27  1  0.750000  0.769033  0.635354  1
  P  P28  1  0.250000  0.594093  0.388891  1
  P  P29  1  0.250000  0.905907  0.888891  1
  P  P30  1  0.750000  0.405907  0.611109  1
  P  P31  1  0.750000  0.094093  0.111109  1
  Rh  Rh32  1  0.250000  0.717860  0.992050  1
  Rh  Rh33  1  0.250000  0.782140  0.492050  1
  Rh  Rh34  1  0.750000  0.282140  0.007950  1
  Rh  Rh35  1  0.750000  0.217860  0.507950  1
