# generated using pymatgen
data_DyEr3(Si2Pt3)2
_symmetry_space_group_name_H-M   'P 1'
_cell_length_a   4.17337500
_cell_length_b   6.65435565
_cell_length_c   8.91992621
_cell_angle_alpha   90.08067554
_cell_angle_beta   90.00000000
_cell_angle_gamma   90.00000000
_symmetry_Int_Tables_number   1
_chemical_formula_structural   DyEr3(Si2Pt3)2
_chemical_formula_sum   'Dy1 Er3 Si4 Pt6'
_cell_volume   247.71610907
_cell_formula_units_Z   1
loop_
 _symmetry_equiv_pos_site_id
 _symmetry_equiv_pos_as_xyz
  1  'x, y, z'
loop_
 _atom_site_type_symbol
 _atom_site_label
 _atom_site_symmetry_multiplicity
 _atom_site_fract_x
 _atom_site_fract_y
 _atom_site_fract_z
 _atom_site_occupancy
  Dy  Dy0  1  0.000000  0.888152  0.328997  1
  Er  Er1  1  0.000000  0.112107  0.671399  1
  Er  Er2  1  0.000000  0.387839  0.170582  1
  Er  Er3  1  0.000000  0.612093  0.829291  1
  Si  Si4  1  0.500000  0.573140  0.356306  1
  Si  Si5  1  0.500000  0.425953  0.644313  1
  Si  Si6  1  0.500000  0.074966  0.143071  1
  Si  Si7  1  0.500000  0.925734  0.855920  1
  Pt  Pt8  1  0.500000  0.693870  0.089389  1
  Pt  Pt9  1  0.500000  0.306196  0.910101  1
  Pt  Pt10  1  0.500000  0.194865  0.410493  1
  Pt  Pt11  1  0.500000  0.805857  0.590463  1
  Pt  Pt12  1  0.000000  0.499076  0.500485  1
  Pt  Pt13  1  0.000000  0.000151  0.999190  1
