# generated using pymatgen
data_YEr2Hf(Ga3Rh)6
_symmetry_space_group_name_H-M   'P 1'
_cell_length_a   7.53125164
_cell_length_b   7.52753738
_cell_length_c   9.47681600
_cell_angle_alpha   90.00000000
_cell_angle_beta   90.00000000
_cell_angle_gamma   119.62242565
_symmetry_Int_Tables_number   1
_chemical_formula_structural   YEr2Hf(Ga3Rh)6
_chemical_formula_sum   'Y1 Er2 Hf1 Ga18 Rh6'
_cell_volume   467.03881299
_cell_formula_units_Z   1
loop_
 _symmetry_equiv_pos_site_id
 _symmetry_equiv_pos_as_xyz
  1  'x, y, z'
loop_
 _atom_site_type_symbol
 _atom_site_label
 _atom_site_symmetry_multiplicity
 _atom_site_fract_x
 _atom_site_fract_y
 _atom_site_fract_z
 _atom_site_occupancy
  Y  Y0  1  0.996065  0.670282  0.250000  1
  Er  Er1  1  0.668844  0.995681  0.250000  1
  Er  Er2  1  0.330176  0.003320  0.750000  1
  Hf  Hf3  1  0.004555  0.329995  0.750000  1
  Ga  Ga4  1  0.127235  0.129050  0.250000  1
  Ga  Ga5  1  0.874575  0.875417  0.750000  1
  Ga  Ga6  1  0.999101  0.334189  0.075533  1
  Ga  Ga7  1  0.000483  0.661284  0.916868  1
  Ga  Ga8  1  0.000483  0.661284  0.583132  1
  Ga  Ga9  1  0.335254  0.000731  0.420938  1
  Ga  Ga10  1  0.999101  0.334189  0.424467  1
  Ga  Ga11  1  0.668994  0.003809  0.583311  1
  Ga  Ga12  1  0.668994  0.003809  0.916689  1
  Ga  Ga13  1  0.335254  0.000731  0.079062  1
  Ga  Ga14  1  0.329333  0.332484  0.571148  1
  Ga  Ga15  1  0.666780  0.667282  0.434162  1
  Ga  Ga16  1  0.666780  0.667282  0.065838  1
  Ga  Ga17  1  0.329333  0.332484  0.928852  1
  Ga  Ga18  1  0.338119  0.546557  0.250000  1
  Ga  Ga19  1  0.664308  0.452236  0.750000  1
  Ga  Ga20  1  0.547730  0.337885  0.250000  1
  Ga  Ga21  1  0.447562  0.659225  0.750000  1
  Rh  Rh22  1  0.670701  0.327543  0.997912  1
  Rh  Rh23  1  0.328720  0.672099  0.998964  1
  Rh  Rh24  1  0.328720  0.672099  0.501036  1
  Rh  Rh25  1  0.670701  0.327543  0.502088  1
  Rh  Rh26  1  0.001049  0.000754  0.998391  1
  Rh  Rh27  1  0.001049  0.000754  0.501609  1
