# generated using pymatgen
data_YLu3(Al8Pt3)3
_symmetry_space_group_name_H-M   'P 1'
_cell_length_a   7.51382722
_cell_length_b   7.53303913
_cell_length_c   13.12795505
_cell_angle_alpha   84.58616434
_cell_angle_beta   79.09359976
_cell_angle_gamma   59.97310641
_symmetry_Int_Tables_number   1
_chemical_formula_structural   YLu3(Al8Pt3)3
_chemical_formula_sum   'Y1 Lu3 Al24 Pt9'
_cell_volume   631.72088328
_cell_formula_units_Z   1
loop_
 _symmetry_equiv_pos_site_id
 _symmetry_equiv_pos_as_xyz
  1  'x, y, z'
loop_
 _atom_site_type_symbol
 _atom_site_label
 _atom_site_symmetry_multiplicity
 _atom_site_fract_x
 _atom_site_fract_y
 _atom_site_fract_z
 _atom_site_occupancy
  Y  Y0  1  0.393435  0.168375  0.808851  1
  Lu  Lu1  1  0.606414  0.831064  0.192828  1
  Lu  Lu2  1  0.733980  0.498952  0.806803  1
  Lu  Lu3  1  0.265792  0.501441  0.192938  1
  Al  Al4  1  0.684575  0.832773  0.944330  1
  Al  Al5  1  0.316284  0.166105  0.056893  1
  Al  Al6  1  0.146605  0.832429  0.561780  1
  Al  Al7  1  0.853419  0.167452  0.438114  1
  Al  Al8  1  0.479523  0.166832  0.558867  1
  Al  Al9  1  0.520280  0.833158  0.441174  1
  Al  Al10  1  0.217803  0.165331  0.328272  1
  Al  Al11  1  0.782190  0.834557  0.671534  1
  Al  Al12  1  0.437254  0.506171  0.671844  1
  Al  Al13  1  0.562889  0.493761  0.327918  1
  Al  Al14  1  0.109121  0.160152  0.670733  1
  Al  Al15  1  0.890883  0.839990  0.328959  1
  Al  Al16  1  0.354054  0.499593  0.944268  1
  Al  Al17  1  0.646144  0.501365  0.056124  1
  Al  Al18  1  0.014944  0.168583  0.951819  1
  Al  Al19  1  0.983900  0.831933  0.048373  1
  Al  Al20  1  0.186701  0.499374  0.441182  1
  Al  Al21  1  0.813334  0.500671  0.558492  1
  Al  Al22  1  0.733460  0.163967  0.183260  1
  Al  Al23  1  0.266585  0.835224  0.816640  1
  Al  Al24  1  0.060711  0.630979  0.815549  1
  Al  Al25  1  0.938698  0.369389  0.184132  1
  Al  Al26  1  0.854999  0.042660  0.816132  1
  Al  Al27  1  0.145428  0.957403  0.183668  1
  Pt  Pt28  1  0.118904  0.491598  0.639341  1
  Pt  Pt29  1  0.880375  0.509416  0.359956  1
  Pt  Pt30  1  0.657050  0.171695  0.999869  1
  Pt  Pt31  1  0.343197  0.828420  0.000079  1
  Pt  Pt32  1  0.536981  0.166706  0.360541  1
  Pt  Pt33  1  0.463033  0.832356  0.639276  1
  Pt  Pt34  1  0.778541  0.176012  0.637531  1
  Pt  Pt35  1  0.222377  0.823960  0.361957  1
  Pt  Pt36  1  0.000137  0.500153  0.999970  1
