# generated using pymatgen
data_Nd4CuNi3Hg2
_symmetry_space_group_name_H-M   'P 1'
_cell_length_a   7.58728761
_cell_length_b   7.58728857
_cell_length_c   3.82268700
_cell_angle_alpha   90.00000000
_cell_angle_beta   90.00000000
_cell_angle_gamma   90.31707642
_symmetry_Int_Tables_number   1
_chemical_formula_structural   Nd4CuNi3Hg2
_chemical_formula_sum   'Nd4 Cu1 Ni3 Hg2'
_cell_volume   220.05702556
_cell_formula_units_Z   1
loop_
 _symmetry_equiv_pos_site_id
 _symmetry_equiv_pos_as_xyz
  1  'x, y, z'
loop_
 _atom_site_type_symbol
 _atom_site_label
 _atom_site_symmetry_multiplicity
 _atom_site_fract_x
 _atom_site_fract_y
 _atom_site_fract_z
 _atom_site_occupancy
  Nd  Nd0  1  0.675914  0.188387  0.000000  1
  Nd  Nd1  1  0.311613  0.824086  0.000000  1
  Nd  Nd2  1  0.180101  0.319899  0.000000  1
  Nd  Nd3  1  0.830832  0.669168  0.000000  1
  Cu  Cu4  1  0.615438  0.884562  0.500000  1
  Ni  Ni5  1  0.887228  0.381984  0.500000  1
  Ni  Ni6  1  0.118016  0.612772  0.500000  1
  Ni  Ni7  1  0.384732  0.115268  0.500000  1
  Hg  Hg8  1  0.498786  0.502662  0.500000  1
  Hg  Hg9  1  0.997338  0.001214  0.500000  1
