# generated using pymatgen
data_Pa4Sn2Os3Rh
_symmetry_space_group_name_H-M   'P 1'
_cell_length_a   7.68070058
_cell_length_b   7.68070065
_cell_length_c   3.61649500
_cell_angle_alpha   90.00000000
_cell_angle_beta   90.00000000
_cell_angle_gamma   90.15493819
_symmetry_Int_Tables_number   1
_chemical_formula_structural   Pa4Sn2Os3Rh
_chemical_formula_sum   'Pa4 Sn2 Os3 Rh1'
_cell_volume   213.34769491
_cell_formula_units_Z   1
loop_
 _symmetry_equiv_pos_site_id
 _symmetry_equiv_pos_as_xyz
  1  'x, y, z'
loop_
 _atom_site_type_symbol
 _atom_site_label
 _atom_site_symmetry_multiplicity
 _atom_site_fract_x
 _atom_site_fract_y
 _atom_site_fract_z
 _atom_site_occupancy
  Pa  Pa0  1  0.336548  0.163452  0.500000  1
  Pa  Pa1  1  0.668609  0.831391  0.500000  1
  Pa  Pa2  1  0.165392  0.673432  0.500000  1
  Pa  Pa3  1  0.826568  0.334608  0.500000  1
  Sn  Sn4  1  0.999684  0.001775  0.000000  1
  Sn  Sn5  1  0.498225  0.500316  0.000000  1
  Os  Os6  1  0.635876  0.136382  0.000000  1
  Os  Os7  1  0.868216  0.631784  0.000000  1
  Os  Os8  1  0.363618  0.864124  0.000000  1
  Rh  Rh9  1  0.137263  0.362737  0.000000  1
