# generated using pymatgen
data_Tb4ErTm5Sn8
_symmetry_space_group_name_H-M   'P 1'
_cell_length_a   7.98847300
_cell_length_b   8.12855901
_cell_length_c   15.35602402
_cell_angle_alpha   89.99414956
_cell_angle_beta   90.00000000
_cell_angle_gamma   90.00000000
_symmetry_Int_Tables_number   1
_chemical_formula_structural   Tb4ErTm5Sn8
_chemical_formula_sum   'Tb8 Er2 Tm10 Sn16'
_cell_volume   997.13994692
_cell_formula_units_Z   2
loop_
 _symmetry_equiv_pos_site_id
 _symmetry_equiv_pos_as_xyz
  1  'x, y, z'
loop_
 _atom_site_type_symbol
 _atom_site_label
 _atom_site_symmetry_multiplicity
 _atom_site_fract_x
 _atom_site_fract_y
 _atom_site_fract_z
 _atom_site_occupancy
  Tb  Tb0  1  0.520792  0.320493  0.902777  1
  Tb  Tb1  1  0.020792  0.179507  0.597223  1
  Tb  Tb2  1  0.479216  0.679497  0.402774  1
  Tb  Tb3  1  0.979216  0.820503  0.097226  1
  Tb  Tb4  1  0.479222  0.679502  0.097293  1
  Tb  Tb5  1  0.979222  0.820498  0.402707  1
  Tb  Tb6  1  0.520755  0.320450  0.597201  1
  Tb  Tb7  1  0.020755  0.179550  0.902799  1
  Er  Er8  1  0.366980  0.836421  0.877485  1
  Er  Er9  1  0.866980  0.663579  0.622515  1
  Tm  Tm10  1  0.633031  0.163538  0.377347  1
  Tm  Tm11  1  0.133031  0.336462  0.122653  1
  Tm  Tm12  1  0.633029  0.163503  0.122609  1
  Tm  Tm13  1  0.133029  0.336497  0.377391  1
  Tm  Tm14  1  0.366946  0.836469  0.622612  1
  Tm  Tm15  1  0.866946  0.663531  0.877388  1
  Tm  Tm16  1  0.198004  0.503901  0.749981  1
  Tm  Tm17  1  0.698004  0.996099  0.750019  1
  Tm  Tm18  1  0.802005  0.495954  0.249994  1
  Tm  Tm19  1  0.302005  0.004046  0.250006  1
  Sn  Sn20  1  0.294584  0.037586  0.041885  1
  Sn  Sn21  1  0.794584  0.462414  0.458115  1
  Sn  Sn22  1  0.705182  0.962872  0.541671  1
  Sn  Sn23  1  0.205182  0.537128  0.958329  1
  Sn  Sn24  1  0.705629  0.962670  0.958302  1
  Sn  Sn25  1  0.205629  0.537330  0.541698  1
  Sn  Sn26  1  0.294672  0.037411  0.458276  1
  Sn  Sn27  1  0.794672  0.462589  0.041724  1
  Sn  Sn28  1  0.564238  0.621051  0.749997  1
  Sn  Sn29  1  0.064238  0.878949  0.750003  1
  Sn  Sn30  1  0.435744  0.378848  0.250002  1
  Sn  Sn31  1  0.935744  0.121152  0.249998  1
  Sn  Sn32  1  0.329608  0.146910  0.749948  1
  Sn  Sn33  1  0.829608  0.353090  0.750052  1
  Sn  Sn34  1  0.670362  0.853181  0.250001  1
  Sn  Sn35  1  0.170362  0.646819  0.249999  1
