# generated using pymatgen
data_Tb3HfAl17SiIr6
_symmetry_space_group_name_H-M   'P 1'
_cell_length_a   7.54105055
_cell_length_b   7.53115173
_cell_length_c   9.35268500
_cell_angle_alpha   90.00000000
_cell_angle_beta   90.00000000
_cell_angle_gamma   119.70552409
_symmetry_Int_Tables_number   1
_chemical_formula_structural   Tb3HfAl17SiIr6
_chemical_formula_sum   'Tb3 Hf1 Al17 Si1 Ir6'
_cell_volume   461.36139577
_cell_formula_units_Z   1
loop_
 _symmetry_equiv_pos_site_id
 _symmetry_equiv_pos_as_xyz
  1  'x, y, z'
loop_
 _atom_site_type_symbol
 _atom_site_label
 _atom_site_symmetry_multiplicity
 _atom_site_fract_x
 _atom_site_fract_y
 _atom_site_fract_z
 _atom_site_occupancy
  Tb  Tb0  1  0.006487  0.323961  0.750000  1
  Tb  Tb1  1  0.670725  0.995252  0.250000  1
  Tb  Tb2  1  0.324768  0.006860  0.750000  1
  Hf  Hf3  1  0.995202  0.671467  0.250000  1
  Al  Al4  1  0.124560  0.122023  0.250000  1
  Al  Al5  1  0.000817  0.337991  0.078889  1
  Al  Al6  1  0.999608  0.663345  0.928336  1
  Al  Al7  1  0.999608  0.663345  0.571664  1
  Al  Al8  1  0.331456  0.998045  0.421071  1
  Al  Al9  1  0.000817  0.337991  0.421111  1
  Al  Al10  1  0.662842  0.998508  0.576070  1
  Al  Al11  1  0.662842  0.998508  0.923930  1
  Al  Al12  1  0.331456  0.998045  0.078929  1
  Al  Al13  1  0.336458  0.336507  0.550366  1
  Al  Al14  1  0.669977  0.667304  0.438846  1
  Al  Al15  1  0.669977  0.667304  0.061154  1
  Al  Al16  1  0.336458  0.336507  0.949634  1
  Al  Al17  1  0.334509  0.548331  0.250000  1
  Al  Al18  1  0.665135  0.452597  0.750000  1
  Al  Al19  1  0.553592  0.342860  0.250000  1
  Al  Al20  1  0.450521  0.662544  0.750000  1
  Si  Si21  1  0.868084  0.866977  0.750000  1
  Ir  Ir22  1  0.673749  0.330012  0.000852  1
  Ir  Ir23  1  0.329691  0.673649  0.001254  1
  Ir  Ir24  1  0.329691  0.673649  0.498746  1
  Ir  Ir25  1  0.673749  0.330012  0.499148  1
  Ir  Ir26  1  0.998611  0.998202  0.994777  1
  Ir  Ir27  1  0.998611  0.998202  0.505223  1
