# generated using pymatgen
data_K5CdAg5
_symmetry_space_group_name_H-M   'P 1'
_cell_length_a   16.42977636
_cell_length_b   16.42977549
_cell_length_c   5.18836000
_cell_angle_alpha   90.00000000
_cell_angle_beta   90.00000000
_cell_angle_gamma   162.84677361
_symmetry_Int_Tables_number   1
_chemical_formula_structural   K5CdAg5
_chemical_formula_sum   'K5 Cd1 Ag5'
_cell_volume   413.05658130
_cell_formula_units_Z   1
loop_
 _symmetry_equiv_pos_site_id
 _symmetry_equiv_pos_as_xyz
  1  'x, y, z'
loop_
 _atom_site_type_symbol
 _atom_site_label
 _atom_site_symmetry_multiplicity
 _atom_site_fract_x
 _atom_site_fract_y
 _atom_site_fract_z
 _atom_site_occupancy
  K  K0  1  0.005347  0.994653  0.000000  1
  K  K1  1  0.616495  0.383503  0.000000  1
  K  K2  1  0.380760  0.619238  0.000000  1
  K  K3  1  0.799778  0.200220  0.500001  1
  K  K4  1  0.196187  0.803811  0.500001  1
  Cd  Cd5  1  0.918160  0.081839  0.500001  1
  Ag  Ag6  1  0.731167  0.268831  0.000000  1
  Ag  Ag7  1  0.267816  0.732182  0.000000  1
  Ag  Ag8  1  0.545008  0.454990  0.500001  1
  Ag  Ag9  1  0.458377  0.541621  0.500001  1
  Ag  Ag10  1  0.080894  0.919105  0.500001  1
