# generated using pymatgen
data_Er7Lu13(Ir2Rh)4
_symmetry_space_group_name_H-M   'P 1'
_cell_length_a   10.68389605
_cell_length_b   10.68449700
_cell_length_c   6.29806503
_cell_angle_alpha   90.00297367
_cell_angle_beta   89.98932757
_cell_angle_gamma   90.00052568
_symmetry_Int_Tables_number   1
_chemical_formula_structural   Er7Lu13(Ir2Rh)4
_chemical_formula_sum   'Er7 Lu13 Ir8 Rh4'
_cell_volume   718.93705403
_cell_formula_units_Z   1
loop_
 _symmetry_equiv_pos_site_id
 _symmetry_equiv_pos_as_xyz
  1  'x, y, z'
loop_
 _atom_site_type_symbol
 _atom_site_label
 _atom_site_symmetry_multiplicity
 _atom_site_fract_x
 _atom_site_fract_y
 _atom_site_fract_z
 _atom_site_occupancy
  Er  Er0  1  0.210578  0.588740  0.121622  1
  Er  Er1  1  0.789580  0.410990  0.121658  1
  Er  Er2  1  0.789581  0.588996  0.621686  1
  Er  Er3  1  0.911050  0.710352  0.121585  1
  Er  Er4  1  0.911414  0.289640  0.621561  1
  Er  Er5  1  0.089212  0.710149  0.621633  1
  Er  Er6  1  0.089369  0.289667  0.121643  1
  Lu  Lu7  1  0.291504  0.087673  0.379785  1
  Lu  Lu8  1  0.291467  0.912371  0.879610  1
  Lu  Lu9  1  0.708470  0.087672  0.879708  1
  Lu  Lu10  1  0.708504  0.912395  0.379596  1
  Lu  Lu11  1  0.587560  0.791504  0.879668  1
  Lu  Lu12  1  0.587606  0.208507  0.379524  1
  Lu  Lu13  1  0.412331  0.791414  0.379807  1
  Lu  Lu14  1  0.411922  0.208917  0.879466  1
  Lu  Lu15  1  0.209862  0.411049  0.620823  1
  Lu  Lu16  1  0.000164  0.000023  0.498739  1
  Lu  Lu17  1  0.000108  0.000069  0.998539  1
  Lu  Lu18  1  0.499898  0.499907  0.998769  1
  Lu  Lu19  1  0.499508  0.499757  0.498943  1
  Ir  Ir20  1  0.845355  0.151904  0.249501  1
  Ir  Ir21  1  0.845295  0.848143  0.749491  1
  Ir  Ir22  1  0.154853  0.152870  0.748966  1
  Ir  Ir23  1  0.154685  0.848156  0.249480  1
  Ir  Ir24  1  0.651897  0.345353  0.749560  1
  Ir  Ir25  1  0.651818  0.654679  0.249500  1
  Ir  Ir26  1  0.347579  0.345654  0.251237  1
  Ir  Ir27  1  0.347748  0.653901  0.749090  1
  Rh  Rh28  1  0.499952  0.000000  0.123318  1
  Rh  Rh29  1  0.499965  0.000057  0.623357  1
  Rh  Rh30  1  0.000547  0.499723  0.875557  1
  Rh  Rh31  1  0.000617  0.499769  0.376579  1
