# generated using pymatgen
data_Yb8CoSi16W11
_symmetry_space_group_name_H-M   'P 1'
_cell_length_a   6.71312528
_cell_length_b   6.87642300
_cell_length_c   13.00293600
_cell_angle_alpha   89.97856123
_cell_angle_beta   89.98334843
_cell_angle_gamma   90.05798594
_symmetry_Int_Tables_number   1
_chemical_formula_structural   Yb8CoSi16W11
_chemical_formula_sum   'Yb8 Co1 Si16 W11'
_cell_volume   600.24491629
_cell_formula_units_Z   1
loop_
 _symmetry_equiv_pos_site_id
 _symmetry_equiv_pos_as_xyz
  1  'x, y, z'
loop_
 _atom_site_type_symbol
 _atom_site_label
 _atom_site_symmetry_multiplicity
 _atom_site_fract_x
 _atom_site_fract_y
 _atom_site_fract_z
 _atom_site_occupancy
  Yb  Yb0  1  0.996250  0.165983  0.090232  1
  Yb  Yb1  1  0.000960  0.831810  0.911311  1
  Yb  Yb2  1  0.505290  0.668053  0.910590  1
  Yb  Yb3  1  0.001178  0.833751  0.589393  1
  Yb  Yb4  1  0.500147  0.334890  0.090833  1
  Yb  Yb5  1  0.997522  0.164908  0.408672  1
  Yb  Yb6  1  0.495863  0.337284  0.408575  1
  Yb  Yb7  1  0.501613  0.668482  0.590267  1
  Co  Co8  1  0.169573  0.649470  0.122867  1
  Si  Si9  1  0.033551  0.119656  0.750792  1
  Si  Si10  1  0.968909  0.871874  0.242305  1
  Si  Si11  1  0.461707  0.626877  0.247836  1
  Si  Si12  1  0.535503  0.380475  0.751371  1
  Si  Si13  1  0.297863  0.863616  0.750449  1
  Si  Si14  1  0.699714  0.136748  0.251724  1
  Si  Si15  1  0.196930  0.365022  0.248552  1
  Si  Si16  1  0.799981  0.637859  0.750236  1
  Si  Si17  1  0.159377  0.456990  0.544044  1
  Si  Si18  1  0.837464  0.542617  0.454509  1
  Si  Si19  1  0.341289  0.959591  0.452948  1
  Si  Si20  1  0.848033  0.544502  0.051041  1
  Si  Si21  1  0.661268  0.044727  0.543153  1
  Si  Si22  1  0.161412  0.456138  0.956519  1
  Si  Si23  1  0.660155  0.044646  0.956660  1
  Si  Si24  1  0.338416  0.949054  0.051166  1
  W  W25  1  0.160390  0.488318  0.750740  1
  W  W26  1  0.837125  0.508496  0.250232  1
  W  W27  1  0.335091  0.992868  0.249287  1
  W  W28  1  0.659284  0.011518  0.750579  1
  W  W29  1  0.336614  0.168807  0.628681  1
  W  W30  1  0.667146  0.833770  0.372475  1
  W  W31  1  0.162384  0.668245  0.366175  1
  W  W32  1  0.665815  0.838359  0.129103  1
  W  W33  1  0.834821  0.334337  0.628199  1
  W  W34  1  0.334294  0.164775  0.874432  1
  W  W35  1  0.837065  0.335481  0.874049  1
