# generated using pymatgen
data_LiGd6Y2(Si4Pd)3
_symmetry_space_group_name_H-M   'P 1'
_cell_length_a   8.27647700
_cell_length_b   8.27647596
_cell_length_c   8.11593600
_cell_angle_alpha   90.00000000
_cell_angle_beta   90.00000000
_cell_angle_gamma   119.99999217
_symmetry_Int_Tables_number   1
_chemical_formula_structural   LiGd6Y2(Si4Pd)3
_chemical_formula_sum   'Li1 Gd6 Y2 Si12 Pd3'
_cell_volume   481.46004269
_cell_formula_units_Z   1
loop_
 _symmetry_equiv_pos_site_id
 _symmetry_equiv_pos_as_xyz
  1  'x, y, z'
loop_
 _atom_site_type_symbol
 _atom_site_label
 _atom_site_symmetry_multiplicity
 _atom_site_fract_x
 _atom_site_fract_y
 _atom_site_fract_z
 _atom_site_occupancy
  Li  Li0  1  0.333333  0.666667  0.998885  1
  Gd  Gd1  1  0.501004  0.002008  0.250251  1
  Gd  Gd2  1  0.501293  0.002586  0.749728  1
  Gd  Gd3  1  0.997992  0.498996  0.250251  1
  Gd  Gd4  1  0.997414  0.498707  0.749728  1
  Gd  Gd5  1  0.501004  0.498996  0.250251  1
  Gd  Gd6  1  0.501293  0.498707  0.749728  1
  Y  Y7  1  0.000000  0.000000  0.249030  1
  Y  Y8  1  0.000000  0.000000  0.751099  1
  Si  Si9  1  0.165927  0.331854  0.000233  1
  Si  Si10  1  0.834709  0.669419  0.999912  1
  Si  Si11  1  0.668146  0.834073  0.000233  1
  Si  Si12  1  0.834833  0.669666  0.499806  1
  Si  Si13  1  0.330581  0.165291  0.999912  1
  Si  Si14  1  0.165446  0.330893  0.500301  1
  Si  Si15  1  0.165927  0.834073  0.000233  1
  Si  Si16  1  0.330334  0.165167  0.499806  1
  Si  Si17  1  0.834709  0.165291  0.999912  1
  Si  Si18  1  0.669107  0.834554  0.500301  1
  Si  Si19  1  0.834833  0.165167  0.499806  1
  Si  Si20  1  0.165446  0.834554  0.500301  1
  Pd  Pd21  1  0.666667  0.333333  0.000112  1
  Pd  Pd22  1  0.666667  0.333333  0.499685  1
  Pd  Pd23  1  0.333333  0.666667  0.500498  1
