# generated using pymatgen
data_Pu6OsAu7
_symmetry_space_group_name_H-M   'P 1'
_cell_length_a   8.13727671
_cell_length_b   8.13727714
_cell_length_c   8.13727854
_cell_angle_alpha   114.47721902
_cell_angle_beta   114.47721699
_cell_angle_gamma   114.47720516
_symmetry_Int_Tables_number   1
_chemical_formula_structural   Pu6OsAu7
_chemical_formula_sum   'Pu6 Os1 Au7'
_cell_volume   315.43840155
_cell_formula_units_Z   1
loop_
 _symmetry_equiv_pos_site_id
 _symmetry_equiv_pos_as_xyz
  1  'x, y, z'
loop_
 _atom_site_type_symbol
 _atom_site_label
 _atom_site_symmetry_multiplicity
 _atom_site_fract_x
 _atom_site_fract_y
 _atom_site_fract_z
 _atom_site_occupancy
  Pu  Pu0  1  0.008525  0.368802  0.256524  1
  Pu  Pu1  1  0.368802  0.256524  0.008525  1
  Pu  Pu2  1  0.743476  0.991475  0.631198  1
  Pu  Pu3  1  0.256524  0.008525  0.368802  1
  Pu  Pu4  1  0.631198  0.743476  0.991475  1
  Pu  Pu5  1  0.991475  0.631198  0.743476  1
  Os  Os6  1  0.000000  0.000000  0.000000  1
  Au  Au7  1  0.500000  0.500000  0.500000  1
  Au  Au8  1  0.423338  0.922495  0.757114  1
  Au  Au9  1  0.922495  0.757114  0.423338  1
  Au  Au10  1  0.242886  0.576662  0.077505  1
  Au  Au11  1  0.757114  0.423338  0.922495  1
  Au  Au12  1  0.077505  0.242886  0.576662  1
  Au  Au13  1  0.576662  0.077505  0.242886  1
