# generated using pymatgen
data_Tb2Zr(ScGa2)2
_symmetry_space_group_name_H-M   'P 1'
_cell_length_a   7.25341401
_cell_length_b   7.58847203
_cell_length_c   14.47087207
_cell_angle_alpha   90.00987217
_cell_angle_beta   90.00476927
_cell_angle_gamma   89.99510195
_symmetry_Int_Tables_number   1
_chemical_formula_structural   Tb2Zr(ScGa2)2
_chemical_formula_sum   'Tb8 Zr4 Sc8 Ga16'
_cell_volume   796.51048942
_cell_formula_units_Z   4
loop_
 _symmetry_equiv_pos_site_id
 _symmetry_equiv_pos_as_xyz
  1  'x, y, z'
loop_
 _atom_site_type_symbol
 _atom_site_label
 _atom_site_symmetry_multiplicity
 _atom_site_fract_x
 _atom_site_fract_y
 _atom_site_fract_z
 _atom_site_occupancy
  Tb  Tb0  1  0.011613  0.177796  0.093564  1
  Tb  Tb1  1  0.988755  0.822226  0.906029  1
  Tb  Tb2  1  0.488846  0.676316  0.905211  1
  Tb  Tb3  1  0.988079  0.823641  0.594315  1
  Tb  Tb4  1  0.510072  0.323551  0.093979  1
  Tb  Tb5  1  0.011066  0.176432  0.406446  1
  Tb  Tb6  1  0.510695  0.324937  0.405473  1
  Tb  Tb7  1  0.489518  0.676471  0.594565  1
  Zr  Zr8  1  0.328751  0.175007  0.624697  1
  Zr  Zr9  1  0.671519  0.823774  0.376938  1
  Zr  Zr10  1  0.171178  0.674580  0.377660  1
  Zr  Zr11  1  0.670476  0.827477  0.123048  1
  Sc  Sc12  1  0.162383  0.503871  0.750573  1
  Sc  Sc13  1  0.838504  0.495514  0.249484  1
  Sc  Sc14  1  0.337964  0.003379  0.249666  1
  Sc  Sc15  1  0.662566  0.996988  0.750606  1
  Sc  Sc16  1  0.828301  0.325042  0.623389  1
  Sc  Sc17  1  0.328873  0.173543  0.875797  1
  Sc  Sc18  1  0.828711  0.327022  0.876401  1
  Sc  Sc19  1  0.171594  0.673379  0.122210  1
  Ga  Ga20  1  0.031872  0.118278  0.748962  1
  Ga  Ga21  1  0.967596  0.879878  0.250900  1
  Ga  Ga22  1  0.468593  0.620249  0.250956  1
  Ga  Ga23  1  0.530863  0.381733  0.749172  1
  Ga  Ga24  1  0.284943  0.874797  0.748752  1
  Ga  Ga25  1  0.715305  0.123966  0.250476  1
  Ga  Ga26  1  0.215104  0.374453  0.251423  1
  Ga  Ga27  1  0.784662  0.626684  0.749586  1
  Ga  Ga28  1  0.161646  0.462777  0.540095  1
  Ga  Ga29  1  0.840145  0.538753  0.458540  1
  Ga  Ga30  1  0.340179  0.962826  0.459495  1
  Ga  Ga31  1  0.838793  0.537403  0.041364  1
  Ga  Ga32  1  0.658909  0.036172  0.540143  1
  Ga  Ga33  1  0.160589  0.463577  0.959054  1
  Ga  Ga34  1  0.659814  0.034653  0.959685  1
  Ga  Ga35  1  0.341525  0.962854  0.041345  1
