# generated using pymatgen
data_NaSr3(SnPt)4
_symmetry_space_group_name_H-M   'P 1'
_cell_length_a   4.69768200
_cell_length_b   7.71165446
_cell_length_c   8.05007603
_cell_angle_alpha   89.10721722
_cell_angle_beta   90.00000000
_cell_angle_gamma   90.00000000
_symmetry_Int_Tables_number   1
_chemical_formula_structural   NaSr3(SnPt)4
_chemical_formula_sum   'Na1 Sr3 Sn4 Pt4'
_cell_volume   291.59389931
_cell_formula_units_Z   1
loop_
 _symmetry_equiv_pos_site_id
 _symmetry_equiv_pos_as_xyz
  1  'x, y, z'
loop_
 _atom_site_type_symbol
 _atom_site_label
 _atom_site_symmetry_multiplicity
 _atom_site_fract_x
 _atom_site_fract_y
 _atom_site_fract_z
 _atom_site_occupancy
  Na  Na0  1  0.750000  0.981580  0.683069  1
  Sr  Sr1  1  0.250000  0.019291  0.329281  1
  Sr  Sr2  1  0.750000  0.479063  0.817472  1
  Sr  Sr3  1  0.250000  0.520085  0.181506  1
  Sn  Sn4  1  0.750000  0.336811  0.427443  1
  Sn  Sn5  1  0.250000  0.150947  0.918301  1
  Sn  Sn6  1  0.250000  0.664921  0.576166  1
  Sn  Sn7  1  0.750000  0.845307  0.067766  1
  Pt  Pt8  1  0.250000  0.796164  0.887805  1
  Pt  Pt9  1  0.250000  0.301364  0.607087  1
  Pt  Pt10  1  0.750000  0.701987  0.392174  1
  Pt  Pt11  1  0.750000  0.202480  0.111929  1
