# generated using pymatgen
data_Mn8Nb7Si14W
_symmetry_space_group_name_H-M   'P 1'
_cell_length_a   9.35021236
_cell_length_b   9.35021232
_cell_length_c   9.36911103
_cell_angle_alpha   94.07941334
_cell_angle_beta   94.07941220
_cell_angle_gamma   149.02971513
_symmetry_Int_Tables_number   1
_chemical_formula_structural   Mn8Nb7Si14W
_chemical_formula_sum   'Mn8 Nb7 Si14 W1'
_cell_volume   406.26975679
_cell_formula_units_Z   1
loop_
 _symmetry_equiv_pos_site_id
 _symmetry_equiv_pos_as_xyz
  1  'x, y, z'
loop_
 _atom_site_type_symbol
 _atom_site_label
 _atom_site_symmetry_multiplicity
 _atom_site_fract_x
 _atom_site_fract_y
 _atom_site_fract_z
 _atom_site_occupancy
  Mn  Mn0  1  0.399768  0.899768  0.799535  1
  Mn  Mn1  1  0.100758  0.600758  0.201518  1
  Mn  Mn2  1  0.100004  0.899955  0.498681  1
  Mn  Mn3  1  0.398677  0.598726  0.498681  1
  Mn  Mn4  1  0.598726  0.398677  0.498681  1
  Mn  Mn5  1  0.899955  0.100004  0.498681  1
  Mn  Mn6  1  0.899768  0.399768  0.799535  1
  Mn  Mn7  1  0.600758  0.100758  0.201518  1
  Nb  Nb8  1  0.865257  0.865257  0.730514  1
  Nb  Nb9  1  0.864142  0.134856  0.998998  1
  Nb  Nb10  1  0.134856  0.864142  0.998998  1
  Nb  Nb11  1  0.501095  0.690677  0.191771  1
  Nb  Nb12  1  0.500125  0.309707  0.809832  1
  Nb  Nb13  1  0.309707  0.500125  0.809832  1
  Nb  Nb14  1  0.690677  0.501095  0.191771  1
  Si  Si15  1  0.293880  0.293880  0.587761  1
  Si  Si16  1  0.705568  0.705568  0.411135  1
  Si  Si17  1  0.706234  0.294436  0.000671  1
  Si  Si18  1  0.294436  0.706234  0.000671  1
  Si  Si19  1  0.001296  0.289822  0.291116  1
  Si  Si20  1  0.999587  0.706902  0.706489  1
  Si  Si21  1  0.706902  0.999587  0.706489  1
  Si  Si22  1  0.289822  0.001296  0.291116  1
  Si  Si23  1  0.499973  0.906854  0.406827  1
  Si  Si24  1  0.499695  0.094084  0.593779  1
  Si  Si25  1  0.094084  0.499695  0.593779  1
  Si  Si26  1  0.906854  0.499973  0.406827  1
  Si  Si27  1  0.753081  0.753081  0.002398  1
  Si  Si28  1  0.249317  0.249317  0.002398  1
  W  W29  1  0.134998  0.134998  0.269994  1
