# generated using pymatgen
data_Th8Ni18P11
_symmetry_space_group_name_H-M   'P 1'
_cell_length_a   18.29738000
_cell_length_b   18.29738008
_cell_length_c   3.95137700
_cell_angle_alpha   90.00000000
_cell_angle_beta   90.00000000
_cell_angle_gamma   119.99999985
_symmetry_Int_Tables_number   1
_chemical_formula_structural   Th8Ni18P11
_chemical_formula_sum   'Th16 Ni36 P22'
_cell_volume   1145.66307832
_cell_formula_units_Z   2
loop_
 _symmetry_equiv_pos_site_id
 _symmetry_equiv_pos_as_xyz
  1  'x, y, z'
loop_
 _atom_site_type_symbol
 _atom_site_label
 _atom_site_symmetry_multiplicity
 _atom_site_fract_x
 _atom_site_fract_y
 _atom_site_fract_z
 _atom_site_occupancy
  Th  Th0  1  0.477188  0.522812  0.500000  1
  Th  Th1  1  0.477188  0.954375  0.500000  1
  Th  Th2  1  0.045625  0.522812  0.500000  1
  Th  Th3  1  0.259778  0.740222  0.500000  1
  Th  Th4  1  0.259778  0.519556  0.500000  1
  Th  Th5  1  0.480444  0.740222  0.500000  1
  Th  Th6  1  0.777167  0.222833  0.000000  1
  Th  Th7  1  0.777167  0.554335  0.000000  1
  Th  Th8  1  0.445665  0.222833  0.000000  1
  Th  Th9  1  0.000420  0.218996  0.000000  1
  Th  Th10  1  0.781004  0.781424  0.000000  1
  Th  Th11  1  0.781004  0.999580  0.000000  1
  Th  Th12  1  0.218576  0.999580  0.000000  1
  Th  Th13  1  0.218576  0.218996  0.000000  1
  Th  Th14  1  0.000420  0.781424  0.000000  1
  Th  Th15  1  0.000000  0.000000  0.000000  1
  Ni  Ni16  1  0.710304  0.289696  0.500000  1
  Ni  Ni17  1  0.710304  0.420609  0.500000  1
  Ni  Ni18  1  0.579391  0.289696  0.500000  1
  Ni  Ni19  1  0.076990  0.369937  0.500000  1
  Ni  Ni20  1  0.630063  0.707053  0.500000  1
  Ni  Ni21  1  0.630063  0.923010  0.500000  1
  Ni  Ni22  1  0.292947  0.923010  0.500000  1
  Ni  Ni23  1  0.292947  0.369937  0.500000  1
  Ni  Ni24  1  0.076990  0.707053  0.500000  1
  Ni  Ni25  1  0.401005  0.030902  0.000000  1
  Ni  Ni26  1  0.969098  0.370102  0.000000  1
  Ni  Ni27  1  0.969098  0.598995  0.000000  1
  Ni  Ni28  1  0.629898  0.598995  0.000000  1
  Ni  Ni29  1  0.629898  0.030902  0.000000  1
  Ni  Ni30  1  0.401005  0.370102  0.000000  1
  Ni  Ni31  1  0.184546  0.815454  0.000000  1
  Ni  Ni32  1  0.184546  0.369093  0.000000  1
  Ni  Ni33  1  0.630907  0.815454  0.000000  1
  Ni  Ni34  1  0.406292  0.593708  0.000000  1
  Ni  Ni35  1  0.406292  0.812583  0.000000  1
  Ni  Ni36  1  0.187417  0.593708  0.000000  1
  Ni  Ni37  1  0.073440  0.926560  0.500000  1
  Ni  Ni38  1  0.073440  0.146879  0.500000  1
  Ni  Ni39  1  0.853121  0.926560  0.500000  1
  Ni  Ni40  1  0.500213  0.132227  0.500000  1
  Ni  Ni41  1  0.867773  0.367986  0.500000  1
  Ni  Ni42  1  0.867773  0.499787  0.500000  1
  Ni  Ni43  1  0.632014  0.499787  0.500000  1
  Ni  Ni44  1  0.632014  0.132227  0.500000  1
  Ni  Ni45  1  0.500213  0.367986  0.500000  1
  Ni  Ni46  1  0.616373  0.383627  0.000000  1
  Ni  Ni47  1  0.616373  0.232747  0.000000  1
  Ni  Ni48  1  0.767253  0.383627  0.000000  1
  Ni  Ni49  1  0.854460  0.145540  0.500000  1
  Ni  Ni50  1  0.854460  0.708922  0.500000  1
  Ni  Ni51  1  0.291078  0.145540  0.500000  1
  P  P52  1  0.333333  0.666667  0.000000  1
  P  P53  1  0.145339  0.854661  0.500000  1
  P  P54  1  0.145339  0.290679  0.500000  1
  P  P55  1  0.709321  0.854661  0.500000  1
  P  P56  1  0.116254  0.448127  0.000000  1
  P  P57  1  0.551873  0.668128  0.000000  1
  P  P58  1  0.551873  0.883746  0.000000  1
  P  P59  1  0.331872  0.883746  0.000000  1
  P  P60  1  0.331872  0.448127  0.000000  1
  P  P61  1  0.116254  0.668128  0.000000  1
  P  P62  1  0.547831  0.452169  0.000000  1
  P  P63  1  0.547831  0.095662  0.000000  1
  P  P64  1  0.904338  0.452169  0.000000  1
  P  P65  1  0.360209  0.070957  0.500000  1
  P  P66  1  0.929043  0.289251  0.500000  1
  P  P67  1  0.929043  0.639791  0.500000  1
  P  P68  1  0.710749  0.639791  0.500000  1
  P  P69  1  0.710749  0.070957  0.500000  1
  P  P70  1  0.360209  0.289251  0.500000  1
  P  P71  1  0.927629  0.072371  0.500000  1
  P  P72  1  0.927629  0.855258  0.500000  1
  P  P73  1  0.144742  0.072371  0.500000  1
