# generated using pymatgen
data_Ho10Tl7InPdRh3
_symmetry_space_group_name_H-M   'P 1'
_cell_length_a   3.62366100
_cell_length_b   8.14856446
_cell_length_c   18.39343591
_cell_angle_alpha   89.91392541
_cell_angle_beta   90.00000000
_cell_angle_gamma   90.00000000
_symmetry_Int_Tables_number   1
_chemical_formula_structural   Ho10Tl7InPdRh3
_chemical_formula_sum   'Ho10 Tl7 In1 Pd1 Rh3'
_cell_volume   543.11405370
_cell_formula_units_Z   1
loop_
 _symmetry_equiv_pos_site_id
 _symmetry_equiv_pos_as_xyz
  1  'x, y, z'
loop_
 _atom_site_type_symbol
 _atom_site_label
 _atom_site_symmetry_multiplicity
 _atom_site_fract_x
 _atom_site_fract_y
 _atom_site_fract_z
 _atom_site_occupancy
  Ho  Ho0  1  0.000000  0.500561  0.500838  1
  Ho  Ho1  1  0.000000  0.001889  0.998833  1
  Ho  Ho2  1  0.000000  0.733084  0.279182  1
  Ho  Ho3  1  0.000000  0.254376  0.720982  1
  Ho  Ho4  1  0.000000  0.753371  0.779658  1
  Ho  Ho5  1  0.000000  0.256090  0.218027  1
  Ho  Ho6  1  0.000000  0.615944  0.088904  1
  Ho  Ho7  1  0.000000  0.385167  0.908761  1
  Ho  Ho8  1  0.000000  0.885940  0.593045  1
  Ho  Ho9  1  0.000000  0.115469  0.412300  1
  Tl  Tl10  1  0.500000  0.707443  0.934036  1
  Tl  Tl11  1  0.500000  0.296252  0.064216  1
  Tl  Tl12  1  0.500000  0.795068  0.436244  1
  Tl  Tl13  1  0.500000  0.204594  0.565329  1
  Tl  Tl14  1  0.500000  0.575067  0.649777  1
  Tl  Tl15  1  0.500000  0.421137  0.350833  1
  Tl  Tl16  1  0.500000  0.921545  0.149344  1
  In  In17  1  0.500000  0.075581  0.849223  1
  Pd  Pd18  1  0.500000  0.024728  0.302932  1
  Rh  Rh19  1  0.500000  0.525192  0.195324  1
  Rh  Rh20  1  0.500000  0.473517  0.804039  1
  Rh  Rh21  1  0.500000  0.977988  0.698171  1
