# generated using pymatgen
data_Ho4Cd2Cu3Pd
_symmetry_space_group_name_H-M   'P 1'
_cell_length_a   7.59908033
_cell_length_b   7.59907917
_cell_length_c   3.71660100
_cell_angle_alpha   90.00000000
_cell_angle_beta   90.00000000
_cell_angle_gamma   90.35978021
_symmetry_Int_Tables_number   1
_chemical_formula_structural   Ho4Cd2Cu3Pd
_chemical_formula_sum   'Ho4 Cd2 Cu3 Pd1'
_cell_volume   214.61465851
_cell_formula_units_Z   1
loop_
 _symmetry_equiv_pos_site_id
 _symmetry_equiv_pos_as_xyz
  1  'x, y, z'
loop_
 _atom_site_type_symbol
 _atom_site_label
 _atom_site_symmetry_multiplicity
 _atom_site_fract_x
 _atom_site_fract_y
 _atom_site_fract_z
 _atom_site_occupancy
  Ho  Ho0  1  0.670832  0.170832  0.500000  1
  Ho  Ho1  1  0.326224  0.826224  0.500000  1
  Ho  Ho2  1  0.175449  0.329583  0.500000  1
  Ho  Ho3  1  0.829583  0.675449  0.500000  1
  Cd  Cd4  1  0.998144  0.005320  0.000000  1
  Cd  Cd5  1  0.505320  0.498144  0.000000  1
  Cu  Cu6  1  0.874386  0.374386  0.000000  1
  Cu  Cu7  1  0.618535  0.880378  0.000000  1
  Cu  Cu8  1  0.380378  0.118535  0.000000  1
  Pd  Pd9  1  0.121148  0.621148  0.000000  1
