# generated using pymatgen
data_Ce2Zr3Sn4
_symmetry_space_group_name_H-M   'P 1'
_cell_length_a   7.90879200
_cell_length_b   7.96079300
_cell_length_c   14.94844900
_cell_angle_alpha   90.00000000
_cell_angle_beta   90.00000000
_cell_angle_gamma   90.00000000
_symmetry_Int_Tables_number   1
_chemical_formula_structural   Ce2Zr3Sn4
_chemical_formula_sum   'Ce8 Zr12 Sn16'
_cell_volume   941.15817572
_cell_formula_units_Z   4
loop_
 _symmetry_equiv_pos_site_id
 _symmetry_equiv_pos_as_xyz
  1  'x, y, z'
loop_
 _atom_site_type_symbol
 _atom_site_label
 _atom_site_symmetry_multiplicity
 _atom_site_fract_x
 _atom_site_fract_y
 _atom_site_fract_z
 _atom_site_occupancy
  Ce  Ce0  1  0.508471  0.325944  0.906897  1
  Ce  Ce1  1  0.008471  0.174056  0.593103  1
  Ce  Ce2  1  0.491529  0.674056  0.406897  1
  Ce  Ce3  1  0.991529  0.825944  0.093103  1
  Ce  Ce4  1  0.491529  0.674056  0.093103  1
  Ce  Ce5  1  0.991529  0.825944  0.406897  1
  Ce  Ce6  1  0.508471  0.325944  0.593103  1
  Ce  Ce7  1  0.008471  0.174056  0.906897  1
  Zr  Zr8  1  0.344337  0.837385  0.871915  1
  Zr  Zr9  1  0.844337  0.662615  0.628085  1
  Zr  Zr10  1  0.655663  0.162615  0.371915  1
  Zr  Zr11  1  0.155663  0.337385  0.128085  1
  Zr  Zr12  1  0.655663  0.162615  0.128085  1
  Zr  Zr13  1  0.155663  0.337385  0.371915  1
  Zr  Zr14  1  0.344337  0.837385  0.628085  1
  Zr  Zr15  1  0.844337  0.662615  0.871915  1
  Zr  Zr16  1  0.168588  0.507074  0.750000  1
  Zr  Zr17  1  0.668588  0.992926  0.750000  1
  Zr  Zr18  1  0.831412  0.492926  0.250000  1
  Zr  Zr19  1  0.331412  0.007074  0.250000  1
  Sn  Sn20  1  0.319583  0.042622  0.043947  1
  Sn  Sn21  1  0.819583  0.457378  0.456053  1
  Sn  Sn22  1  0.680417  0.957378  0.543947  1
  Sn  Sn23  1  0.180417  0.542622  0.956053  1
  Sn  Sn24  1  0.680417  0.957378  0.956053  1
  Sn  Sn25  1  0.180417  0.542622  0.543947  1
  Sn  Sn26  1  0.319583  0.042622  0.456053  1
  Sn  Sn27  1  0.819583  0.457378  0.043947  1
  Sn  Sn28  1  0.539640  0.623273  0.750000  1
  Sn  Sn29  1  0.039640  0.876727  0.750000  1
  Sn  Sn30  1  0.460360  0.376727  0.250000  1
  Sn  Sn31  1  0.960360  0.123273  0.250000  1
  Sn  Sn32  1  0.312942  0.147814  0.750000  1
  Sn  Sn33  1  0.812942  0.352186  0.750000  1
  Sn  Sn34  1  0.687058  0.852186  0.250000  1
  Sn  Sn35  1  0.187058  0.647814  0.250000  1
