# generated using pymatgen
data_NdTmFe3Re14C3
_symmetry_space_group_name_H-M   'P 1'
_cell_length_a   6.93278626
_cell_length_b   6.93278742
_cell_length_c   6.93278657
_cell_angle_alpha   82.56517609
_cell_angle_beta   82.56517847
_cell_angle_gamma   82.56517276
_symmetry_Int_Tables_number   1
_chemical_formula_structural   NdTmFe3Re14C3
_chemical_formula_sum   'Nd1 Tm1 Fe3 Re14 C3'
_cell_volume   325.47738232
_cell_formula_units_Z   1
loop_
 _symmetry_equiv_pos_site_id
 _symmetry_equiv_pos_as_xyz
  1  'x, y, z'
loop_
 _atom_site_type_symbol
 _atom_site_label
 _atom_site_symmetry_multiplicity
 _atom_site_fract_x
 _atom_site_fract_y
 _atom_site_fract_z
 _atom_site_occupancy
  Nd  Nd0  1  0.648098  0.648098  0.648098  1
  Tm  Tm1  1  0.350573  0.350573  0.350573  1
  Fe  Fe2  1  0.998221  0.998221  0.500936  1
  Fe  Fe3  1  0.500936  0.998221  0.998221  1
  Fe  Fe4  1  0.998221  0.500936  0.998221  1
  Re  Re5  1  0.721864  0.277401  0.000587  1
  Re  Re6  1  0.000587  0.721864  0.277401  1
  Re  Re7  1  0.277401  0.000587  0.721864  1
  Re  Re8  1  0.000587  0.277401  0.721864  1
  Re  Re9  1  0.721864  0.000587  0.277401  1
  Re  Re10  1  0.277401  0.721864  0.000587  1
  Re  Re11  1  0.345029  0.345029  0.864507  1
  Re  Re12  1  0.864507  0.345029  0.345029  1
  Re  Re13  1  0.345029  0.864507  0.345029  1
  Re  Re14  1  0.653103  0.653103  0.141141  1
  Re  Re15  1  0.141141  0.653103  0.653103  1
  Re  Re16  1  0.653103  0.141141  0.653103  1
  Re  Re17  1  0.898370  0.898370  0.898370  1
  Re  Re18  1  0.102386  0.102386  0.102386  1
  C  C19  1  0.495390  0.495390  0.010798  1
  C  C20  1  0.010798  0.495390  0.495390  1
  C  C21  1  0.495390  0.010798  0.495390  1
