# generated using pymatgen
data_Ga3Co2RhO8
_symmetry_space_group_name_H-M   'P 1'
_cell_length_a   6.03947646
_cell_length_b   5.98687978
_cell_length_c   5.98688000
_cell_angle_alpha   60.00000982
_cell_angle_beta   60.28767924
_cell_angle_gamma   60.28767644
_symmetry_Int_Tables_number   1
_chemical_formula_structural   Ga3Co2RhO8
_chemical_formula_sum   'Ga3 Co2 Rh1 O8'
_cell_volume   153.73056232
_cell_formula_units_Z   1
loop_
 _symmetry_equiv_pos_site_id
 _symmetry_equiv_pos_as_xyz
  1  'x, y, z'
loop_
 _atom_site_type_symbol
 _atom_site_label
 _atom_site_symmetry_multiplicity
 _atom_site_fract_x
 _atom_site_fract_y
 _atom_site_fract_z
 _atom_site_occupancy
  Ga  Ga0  1  0.125000  0.125000  0.125000  1
  Ga  Ga1  1  0.125000  0.625000  0.125000  1
  Ga  Ga2  1  0.125000  0.125000  0.625000  1
  Co  Co3  1  0.504053  0.498649  0.498649  1
  Co  Co4  1  0.745947  0.751351  0.751351  1
  Rh  Rh5  1  0.625000  0.125000  0.125000  1
  O  O6  1  0.355697  0.367598  0.367598  1
  O  O7  1  0.341264  0.886245  0.886245  1
  O  O8  1  0.894303  0.882402  0.340894  1
  O  O9  1  0.894303  0.340894  0.882402  1
  O  O10  1  0.355697  0.367598  0.909106  1
  O  O11  1  0.355697  0.909106  0.367598  1
  O  O12  1  0.894303  0.882402  0.882402  1
  O  O13  1  0.908736  0.363755  0.363755  1
