# generated using pymatgen
data_Dy2U2Cu3Sb8
_symmetry_space_group_name_H-M   'P 1'
_cell_length_a   10.45148344
_cell_length_b   10.45148376
_cell_length_c   10.45634483
_cell_angle_alpha   145.93975017
_cell_angle_beta   145.93975314
_cell_angle_gamma   48.87767137
_symmetry_Int_Tables_number   1
_chemical_formula_structural   Dy2U2Cu3Sb8
_chemical_formula_sum   'Dy2 U2 Cu3 Sb8'
_cell_volume   356.77247250
_cell_formula_units_Z   1
loop_
 _symmetry_equiv_pos_site_id
 _symmetry_equiv_pos_as_xyz
  1  'x, y, z'
loop_
 _atom_site_type_symbol
 _atom_site_label
 _atom_site_symmetry_multiplicity
 _atom_site_fract_x
 _atom_site_fract_y
 _atom_site_fract_z
 _atom_site_occupancy
  Dy  Dy0  1  0.367824  0.880241  0.000000  1
  Dy  Dy1  1  0.880241  0.367824  0.000000  1
  U  U2  1  0.633754  0.633754  0.508461  1
  U  U3  1  0.125293  0.125293  0.491539  1
  Cu  Cu4  1  0.999197  0.999197  0.000000  1
  Cu  Cu5  1  0.998021  0.498021  0.500000  1
  Cu  Cu6  1  0.498021  0.998021  0.500000  1
  Sb  Sb7  1  0.333490  0.333490  0.517109  1
  Sb  Sb8  1  0.816382  0.816382  0.482891  1
  Sb  Sb9  1  0.660207  0.172520  0.000000  1
  Sb  Sb10  1  0.172520  0.660207  0.000000  1
  Sb  Sb11  1  0.254354  0.254354  0.000000  1
  Sb  Sb12  1  0.753299  0.753299  0.000000  1
  Sb  Sb13  1  0.753699  0.253699  0.500000  1
  Sb  Sb14  1  0.253699  0.753699  0.500000  1
