# generated using pymatgen
data_TbY(Sn2Ru)2
_symmetry_space_group_name_H-M   'P 1'
_cell_length_a   5.81578223
_cell_length_b   5.81578113
_cell_length_c   7.60842400
_cell_angle_alpha   90.00000000
_cell_angle_beta   90.00000000
_cell_angle_gamma   136.41287055
_symmetry_Int_Tables_number   1
_chemical_formula_structural   TbY(Sn2Ru)2
_chemical_formula_sum   'Tb1 Y1 Sn4 Ru2'
_cell_volume   177.42629730
_cell_formula_units_Z   1
loop_
 _symmetry_equiv_pos_site_id
 _symmetry_equiv_pos_as_xyz
  1  'x, y, z'
loop_
 _atom_site_type_symbol
 _atom_site_label
 _atom_site_symmetry_multiplicity
 _atom_site_fract_x
 _atom_site_fract_y
 _atom_site_fract_z
 _atom_site_occupancy
  Tb  Tb0  1  0.069867  0.930131  0.250000  1
  Y  Y1  1  0.930082  0.069916  0.750000  1
  Sn  Sn2  1  0.358634  0.641365  0.044578  1
  Sn  Sn3  1  0.358634  0.641365  0.455422  1
  Sn  Sn4  1  0.641428  0.358571  0.544904  1
  Sn  Sn5  1  0.641428  0.358571  0.955096  1
  Ru  Ru6  1  0.789054  0.210945  0.250000  1
  Ru  Ru7  1  0.210868  0.789131  0.750000  1
