# generated using pymatgen
data_Nd8InHgIr2
_symmetry_space_group_name_H-M   'P 1'
_cell_length_a   9.95865907
_cell_length_b   9.95865943
_cell_length_c   9.96522900
_cell_angle_alpha   59.97817212
_cell_angle_beta   59.97817090
_cell_angle_gamma   60.03247747
_symmetry_Int_Tables_number   1
_chemical_formula_structural   Nd8InHgIr2
_chemical_formula_sum   'Nd16 In2 Hg2 Ir4'
_cell_volume   698.77454311
_cell_formula_units_Z   2
loop_
 _symmetry_equiv_pos_site_id
 _symmetry_equiv_pos_as_xyz
  1  'x, y, z'
loop_
 _atom_site_type_symbol
 _atom_site_label
 _atom_site_symmetry_multiplicity
 _atom_site_fract_x
 _atom_site_fract_y
 _atom_site_fract_z
 _atom_site_occupancy
  Nd  Nd0  1  0.348779  0.348779  0.348098  1
  Nd  Nd1  1  0.348779  0.348779  0.954344  1
  Nd  Nd2  1  0.349353  0.952160  0.349243  1
  Nd  Nd3  1  0.952160  0.349353  0.349243  1
  Nd  Nd4  1  0.808994  0.189289  0.192250  1
  Nd  Nd5  1  0.189289  0.808994  0.809467  1
  Nd  Nd6  1  0.189289  0.808994  0.192250  1
  Nd  Nd7  1  0.808994  0.189289  0.809467  1
  Nd  Nd8  1  0.190676  0.190676  0.809324  1
  Nd  Nd9  1  0.808748  0.808748  0.191252  1
  Nd  Nd10  1  0.939219  0.559572  0.561374  1
  Nd  Nd11  1  0.559572  0.939219  0.939835  1
  Nd  Nd12  1  0.559572  0.939219  0.561374  1
  Nd  Nd13  1  0.939219  0.559572  0.939835  1
  Nd  Nd14  1  0.560266  0.560266  0.939734  1
  Nd  Nd15  1  0.939374  0.939374  0.560626  1
  In  In16  1  0.580007  0.259812  0.580090  1
  In  In17  1  0.259812  0.580007  0.580090  1
  Hg  Hg18  1  0.583303  0.583303  0.584883  1
  Hg  Hg19  1  0.583303  0.583303  0.248510  1
  Ir  Ir20  1  0.142042  0.142042  0.141552  1
  Ir  Ir21  1  0.142042  0.142042  0.574363  1
  Ir  Ir22  1  0.141848  0.575359  0.141396  1
  Ir  Ir23  1  0.575359  0.141848  0.141396  1
