# generated using pymatgen
data_Y2FeCoI2
_symmetry_space_group_name_H-M   'P 1'
_cell_length_a   3.97330500
_cell_length_b   3.97330469
_cell_length_c   12.46364500
_cell_angle_alpha   90.00000000
_cell_angle_beta   90.00000000
_cell_angle_gamma   119.99999424
_symmetry_Int_Tables_number   1
_chemical_formula_structural   Y2FeCoI2
_chemical_formula_sum   'Y2 Fe1 Co1 I2'
_cell_volume   170.40388870
_cell_formula_units_Z   1
loop_
 _symmetry_equiv_pos_site_id
 _symmetry_equiv_pos_as_xyz
  1  'x, y, z'
loop_
 _atom_site_type_symbol
 _atom_site_label
 _atom_site_symmetry_multiplicity
 _atom_site_fract_x
 _atom_site_fract_y
 _atom_site_fract_z
 _atom_site_occupancy
  Y  Y0  1  0.000000  0.000000  0.347145  1
  Y  Y1  1  0.000000  0.000000  0.652205  1
  Fe  Fe2  1  0.333333  0.666666  0.495512  1
  Co  Co3  1  0.666666  0.333333  0.505316  1
  I  I4  1  0.666666  0.333333  0.173719  1
  I  I5  1  0.333333  0.666666  0.826102  1
