# generated using pymatgen
data_Li2Tb13Y5(Cd3Ru)2
_symmetry_space_group_name_H-M   'P 1'
_cell_length_a   9.51682907
_cell_length_b   9.51682889
_cell_length_c   9.73046100
_cell_angle_alpha   90.00000000
_cell_angle_beta   90.00000000
_cell_angle_gamma   120.01352227
_symmetry_Int_Tables_number   1
_chemical_formula_structural   Li2Tb13Y5(Cd3Ru)2
_chemical_formula_sum   'Li2 Tb13 Y5 Cd6 Ru2'
_cell_volume   763.11393649
_cell_formula_units_Z   1
loop_
 _symmetry_equiv_pos_site_id
 _symmetry_equiv_pos_as_xyz
  1  'x, y, z'
loop_
 _atom_site_type_symbol
 _atom_site_label
 _atom_site_symmetry_multiplicity
 _atom_site_fract_x
 _atom_site_fract_y
 _atom_site_fract_z
 _atom_site_occupancy
  Li  Li0  1  0.999992  0.000008  0.500008  1
  Li  Li1  1  0.999992  0.000008  0.999992  1
  Tb  Tb2  1  0.208174  0.791826  0.441264  1
  Tb  Tb3  1  0.208161  0.416331  0.441264  1
  Tb  Tb4  1  0.583669  0.791839  0.441264  1
  Tb  Tb5  1  0.791879  0.208121  0.558631  1
  Tb  Tb6  1  0.791806  0.583645  0.558681  1
  Tb  Tb7  1  0.416355  0.208194  0.558681  1
  Tb  Tb8  1  0.791879  0.208121  0.941369  1
  Tb  Tb9  1  0.791806  0.583645  0.941319  1
  Tb  Tb10  1  0.416355  0.208194  0.941319  1
  Tb  Tb11  1  0.208174  0.791826  0.058736  1
  Tb  Tb12  1  0.208161  0.416331  0.058736  1
  Tb  Tb13  1  0.583669  0.791839  0.058736  1
  Tb  Tb14  1  0.542368  0.457632  0.250000  1
  Y  Y15  1  0.542450  0.084806  0.250000  1
  Y  Y16  1  0.915194  0.457550  0.250000  1
  Y  Y17  1  0.457628  0.542372  0.750000  1
  Y  Y18  1  0.457656  0.915339  0.750000  1
  Y  Y19  1  0.084661  0.542344  0.750000  1
  Cd  Cd20  1  0.891693  0.108307  0.250000  1
  Cd  Cd21  1  0.891706  0.783383  0.250000  1
  Cd  Cd22  1  0.216617  0.108294  0.250000  1
  Cd  Cd23  1  0.108314  0.891686  0.750000  1
  Cd  Cd24  1  0.108335  0.216676  0.750000  1
  Cd  Cd25  1  0.783324  0.891665  0.750000  1
  Ru  Ru26  1  0.333350  0.666650  0.250000  1
  Ru  Ru27  1  0.666631  0.333369  0.750000  1
