# generated using pymatgen
data_TmLu9Si5P
_symmetry_space_group_name_H-M   'P 1'
_cell_length_a   8.20522800
_cell_length_b   8.21634480
_cell_length_c   6.12751400
_cell_angle_alpha   90.00000000
_cell_angle_beta   90.00000000
_cell_angle_gamma   119.95526090
_symmetry_Int_Tables_number   1
_chemical_formula_structural   TmLu9Si5P
_chemical_formula_sum   'Tm1 Lu9 Si5 P1'
_cell_volume   357.91497225
_cell_formula_units_Z   1
loop_
 _symmetry_equiv_pos_site_id
 _symmetry_equiv_pos_as_xyz
  1  'x, y, z'
loop_
 _atom_site_type_symbol
 _atom_site_label
 _atom_site_symmetry_multiplicity
 _atom_site_fract_x
 _atom_site_fract_y
 _atom_site_fract_z
 _atom_site_occupancy
  Tm  Tm0  1  0.756444  0.000000  0.750000  1
  Lu  Lu1  1  0.666197  0.332626  0.999571  1
  Lu  Lu2  1  0.333570  0.667374  0.500429  1
  Lu  Lu3  1  0.333570  0.667374  0.999571  1
  Lu  Lu4  1  0.666197  0.332626  0.500429  1
  Lu  Lu5  1  0.757954  0.756756  0.250000  1
  Lu  Lu6  1  0.001198  0.243244  0.250000  1
  Lu  Lu7  1  0.000803  0.757808  0.750000  1
  Lu  Lu8  1  0.242994  0.242192  0.750000  1
  Lu  Lu9  1  0.242346  0.000000  0.250000  1
  Si  Si10  1  0.395026  0.394161  0.250000  1
  Si  Si11  1  0.000865  0.605839  0.250000  1
  Si  Si12  1  0.000566  0.395136  0.750000  1
  Si  Si13  1  0.605430  0.604864  0.750000  1
  Si  Si14  1  0.606630  0.000000  0.250000  1
  P  P15  1  0.390206  0.000000  0.750000  1
