# generated using pymatgen
data_Dy5In4CuRh
_symmetry_space_group_name_H-M   'P 1'
_cell_length_a   3.63523500
_cell_length_b   8.08242800
_cell_length_c   18.19012700
_cell_angle_alpha   90.00000000
_cell_angle_beta   90.00000000
_cell_angle_gamma   90.00000000
_symmetry_Int_Tables_number   1
_chemical_formula_structural   Dy5In4CuRh
_chemical_formula_sum   'Dy10 In8 Cu2 Rh2'
_cell_volume   534.45367394
_cell_formula_units_Z   2
loop_
 _symmetry_equiv_pos_site_id
 _symmetry_equiv_pos_as_xyz
  1  'x, y, z'
loop_
 _atom_site_type_symbol
 _atom_site_label
 _atom_site_symmetry_multiplicity
 _atom_site_fract_x
 _atom_site_fract_y
 _atom_site_fract_z
 _atom_site_occupancy
  Dy  Dy0  1  0.500000  0.383724  0.585906  1
  Dy  Dy1  1  0.500000  0.879405  0.915168  1
  Dy  Dy2  1  0.500000  0.116276  0.085906  1
  Dy  Dy3  1  0.500000  0.742821  0.719988  1
  Dy  Dy4  1  0.500000  0.268164  0.778848  1
  Dy  Dy5  1  0.500000  0.499019  0.000152  1
  Dy  Dy6  1  0.500000  0.757179  0.219988  1
  Dy  Dy7  1  0.500000  0.231836  0.278848  1
  Dy  Dy8  1  0.500000  0.000981  0.500152  1
  Dy  Dy9  1  0.500000  0.620595  0.415168  1
  In  In10  1  0.000000  0.791481  0.068362  1
  In  In11  1  0.000000  0.925984  0.350997  1
  In  In12  1  0.000000  0.076307  0.652026  1
  In  In13  1  0.000000  0.574016  0.850997  1
  In  In14  1  0.000000  0.708519  0.568362  1
  In  In15  1  0.000000  0.205392  0.931276  1
  In  In16  1  0.000000  0.294608  0.431276  1
  In  In17  1  0.000000  0.423693  0.152026  1
  Cu  Cu18  1  0.000000  0.975193  0.801762  1
  Cu  Cu19  1  0.000000  0.524807  0.301762  1
  Rh  Rh20  1  0.000000  0.474622  0.695515  1
  Rh  Rh21  1  0.000000  0.025378  0.195515  1
