# generated using pymatgen
data_Sc4FeNiOs6
_symmetry_space_group_name_H-M   'P 1'
_cell_length_a   5.15439084
_cell_length_b   5.06594379
_cell_length_c   8.55980600
_cell_angle_alpha   90.00000000
_cell_angle_beta   90.00000000
_cell_angle_gamma   120.27992464
_symmetry_Int_Tables_number   1
_chemical_formula_structural   Sc4FeNiOs6
_chemical_formula_sum   'Sc4 Fe1 Ni1 Os6'
_cell_volume   193.01911763
_cell_formula_units_Z   1
loop_
 _symmetry_equiv_pos_site_id
 _symmetry_equiv_pos_as_xyz
  1  'x, y, z'
loop_
 _atom_site_type_symbol
 _atom_site_label
 _atom_site_symmetry_multiplicity
 _atom_site_fract_x
 _atom_site_fract_y
 _atom_site_fract_z
 _atom_site_occupancy
  Sc  Sc0  1  0.329791  0.662931  0.435761  1
  Sc  Sc1  1  0.663899  0.331905  0.564039  1
  Sc  Sc2  1  0.663899  0.331905  0.935961  1
  Sc  Sc3  1  0.329791  0.662931  0.064239  1
  Fe  Fe4  1  0.170522  0.338903  0.750000  1
  Ni  Ni5  1  0.343144  0.175610  0.250000  1
  Os  Os6  1  0.176514  0.826971  0.750000  1
  Os  Os7  1  0.836235  0.663950  0.250000  1
  Os  Os8  1  0.661021  0.830731  0.750000  1
  Os  Os9  1  0.995439  0.997228  0.000671  1
  Os  Os10  1  0.834301  0.179708  0.250000  1
  Os  Os11  1  0.995439  0.997228  0.499329  1
