# generated using pymatgen
data_Er8Tc(B8Ru)3
_symmetry_space_group_name_H-M   'P 1'
_cell_length_a   3.64350300
_cell_length_b   9.09835565
_cell_length_c   11.47922233
_cell_angle_alpha   89.91259226
_cell_angle_beta   90.00000000
_cell_angle_gamma   90.00000000
_symmetry_Int_Tables_number   1
_chemical_formula_structural   Er8Tc(B8Ru)3
_chemical_formula_sum   'Er8 Tc1 B24 Ru3'
_cell_volume   380.53447019
_cell_formula_units_Z   1
loop_
 _symmetry_equiv_pos_site_id
 _symmetry_equiv_pos_as_xyz
  1  'x, y, z'
loop_
 _atom_site_type_symbol
 _atom_site_label
 _atom_site_symmetry_multiplicity
 _atom_site_fract_x
 _atom_site_fract_y
 _atom_site_fract_z
 _atom_site_occupancy
  Er  Er0  1  0.000000  0.323825  0.413333  1
  Er  Er1  1  0.000000  0.677503  0.583314  1
  Er  Er2  1  0.000000  0.819842  0.087994  1
  Er  Er3  1  0.000000  0.177306  0.915080  1
  Er  Er4  1  0.000000  0.943113  0.372305  1
  Er  Er5  1  0.000000  0.057535  0.628292  1
  Er  Er6  1  0.000000  0.443709  0.128194  1
  Er  Er7  1  0.000000  0.557019  0.871343  1
  Tc  Tc8  1  0.000000  0.637380  0.321158  1
  B  B9  1  0.500000  0.552740  0.433410  1
  B  B10  1  0.500000  0.446670  0.567112  1
  B  B11  1  0.500000  0.053306  0.066830  1
  B  B12  1  0.500000  0.946258  0.933535  1
  B  B13  1  0.500000  0.748521  0.419620  1
  B  B14  1  0.500000  0.252000  0.580384  1
  B  B15  1  0.500000  0.248147  0.080078  1
  B  B16  1  0.500000  0.751566  0.919744  1
  B  B17  1  0.500000  0.791546  0.265703  1
  B  B18  1  0.500000  0.209131  0.734327  1
  B  B19  1  0.500000  0.290740  0.233488  1
  B  B20  1  0.500000  0.709566  0.765707  1
  B  B21  1  0.500000  0.630953  0.185178  1
  B  B22  1  0.500000  0.368685  0.815154  1
  B  B23  1  0.500000  0.131216  0.314609  1
  B  B24  1  0.500000  0.869349  0.685009  1
  B  B25  1  0.500000  0.982360  0.212616  1
  B  B26  1  0.500000  0.017659  0.787923  1
  B  B27  1  0.500000  0.481535  0.287367  1
  B  B28  1  0.500000  0.517472  0.712534  1
  B  B29  1  0.500000  0.606220  0.028830  1
  B  B30  1  0.500000  0.393083  0.970107  1
  B  B31  1  0.500000  0.107345  0.470672  1
  B  B32  1  0.500000  0.894414  0.529931  1
  Ru  Ru33  1  0.000000  0.362224  0.679536  1
  Ru  Ru34  1  0.000000  0.137185  0.178360  1
  Ru  Ru35  1  0.000000  0.862877  0.821222  1
