# generated using pymatgen
data_Nd2Ho6Cd2RuPt
_symmetry_space_group_name_H-M   'P 1'
_cell_length_a   9.69732546
_cell_length_b   9.69529397
_cell_length_c   9.71881221
_cell_angle_alpha   59.93355909
_cell_angle_beta   59.91282686
_cell_angle_gamma   59.96651221
_symmetry_Int_Tables_number   1
_chemical_formula_structural   Nd2Ho6Cd2RuPt
_chemical_formula_sum   'Nd4 Ho12 Cd4 Ru2 Pt2'
_cell_volume   645.20269754
_cell_formula_units_Z   2
loop_
 _symmetry_equiv_pos_site_id
 _symmetry_equiv_pos_as_xyz
  1  'x, y, z'
loop_
 _atom_site_type_symbol
 _atom_site_label
 _atom_site_symmetry_multiplicity
 _atom_site_fract_x
 _atom_site_fract_y
 _atom_site_fract_z
 _atom_site_occupancy
  Nd  Nd0  1  0.558278  0.938020  0.565532  1
  Nd  Nd1  1  0.938020  0.558278  0.938170  1
  Nd  Nd2  1  0.563468  0.563468  0.936532  1
  Nd  Nd3  1  0.937889  0.937889  0.562111  1
  Ho  Ho4  1  0.349550  0.348247  0.350712  1
  Ho  Ho5  1  0.348247  0.349550  0.951491  1
  Ho  Ho6  1  0.344593  0.956754  0.349857  1
  Ho  Ho7  1  0.956754  0.344593  0.348796  1
  Ho  Ho8  1  0.818687  0.184689  0.187361  1
  Ho  Ho9  1  0.184689  0.818687  0.809263  1
  Ho  Ho10  1  0.186619  0.816737  0.188742  1
  Ho  Ho11  1  0.816737  0.186619  0.807903  1
  Ho  Ho12  1  0.187377  0.187377  0.812623  1
  Ho  Ho13  1  0.809687  0.809687  0.190313  1
  Ho  Ho14  1  0.942676  0.552090  0.561007  1
  Ho  Ho15  1  0.552090  0.942676  0.944227  1
  Cd  Cd16  1  0.582512  0.577800  0.578996  1
  Cd  Cd17  1  0.577800  0.582512  0.260693  1
  Cd  Cd18  1  0.579787  0.258613  0.582345  1
  Cd  Cd19  1  0.258613  0.579787  0.579255  1
  Ru  Ru20  1  0.148041  0.141880  0.135558  1
  Ru  Ru21  1  0.141880  0.148041  0.574521  1
  Pt  Pt22  1  0.141815  0.574193  0.143352  1
  Pt  Pt23  1  0.574193  0.141815  0.140641  1
