# generated using pymatgen
data_Pr16AlHg3Ir4
_symmetry_space_group_name_H-M   'P 1'
_cell_length_a   9.99928475
_cell_length_b   9.99717538
_cell_length_c   9.99881988
_cell_angle_alpha   60.10286146
_cell_angle_beta   59.96235370
_cell_angle_gamma   60.09060330
_symmetry_Int_Tables_number   1
_chemical_formula_structural   Pr16AlHg3Ir4
_chemical_formula_sum   'Pr16 Al1 Hg3 Ir4'
_cell_volume   707.60248839
_cell_formula_units_Z   1
loop_
 _symmetry_equiv_pos_site_id
 _symmetry_equiv_pos_as_xyz
  1  'x, y, z'
loop_
 _atom_site_type_symbol
 _atom_site_label
 _atom_site_symmetry_multiplicity
 _atom_site_fract_x
 _atom_site_fract_y
 _atom_site_fract_z
 _atom_site_occupancy
  Pr  Pr0  1  0.348705  0.348846  0.348767  1
  Pr  Pr1  1  0.350439  0.350401  0.951837  1
  Pr  Pr2  1  0.350404  0.951932  0.350374  1
  Pr  Pr3  1  0.951760  0.350440  0.350469  1
  Pr  Pr4  1  0.809064  0.190391  0.190569  1
  Pr  Pr5  1  0.191816  0.806093  0.806167  1
  Pr  Pr6  1  0.190440  0.809193  0.190332  1
  Pr  Pr7  1  0.806195  0.191581  0.806147  1
  Pr  Pr8  1  0.190576  0.190325  0.809109  1
  Pr  Pr9  1  0.806181  0.806090  0.191732  1
  Pr  Pr10  1  0.938754  0.561887  0.561747  1
  Pr  Pr11  1  0.560208  0.939306  0.939308  1
  Pr  Pr12  1  0.561803  0.938593  0.561890  1
  Pr  Pr13  1  0.939195  0.560455  0.939166  1
  Pr  Pr14  1  0.561734  0.561904  0.938665  1
  Pr  Pr15  1  0.939262  0.939221  0.560329  1
  Al  Al16  1  0.578980  0.579036  0.579000  1
  Hg  Hg17  1  0.583611  0.583559  0.254666  1
  Hg  Hg18  1  0.583588  0.254678  0.583552  1
  Hg  Hg19  1  0.254646  0.583595  0.583598  1
  Ir  Ir20  1  0.141970  0.141746  0.141872  1
  Ir  Ir21  1  0.142327  0.142360  0.576000  1
  Ir  Ir22  1  0.142338  0.576008  0.142391  1
  Ir  Ir23  1  0.576000  0.142359  0.142311  1
