# generated using pymatgen
data_Y7ErGa12CoPd3
_symmetry_space_group_name_H-M   'P 1'
_cell_length_a   7.04936700
_cell_length_b   8.88267145
_cell_length_c   8.86767126
_cell_angle_alpha   120.05625906
_cell_angle_beta   90.00351843
_cell_angle_gamma   90.00014984
_symmetry_Int_Tables_number   1
_chemical_formula_structural   Y7ErGa12CoPd3
_chemical_formula_sum   'Y7 Er1 Ga12 Co1 Pd3'
_cell_volume   480.60407959
_cell_formula_units_Z   1
loop_
 _symmetry_equiv_pos_site_id
 _symmetry_equiv_pos_as_xyz
  1  'x, y, z'
loop_
 _atom_site_type_symbol
 _atom_site_label
 _atom_site_symmetry_multiplicity
 _atom_site_fract_x
 _atom_site_fract_y
 _atom_site_fract_z
 _atom_site_occupancy
  Y  Y0  1  0.743686  0.000069  0.000133  1
  Y  Y1  1  0.247762  0.999925  0.999850  1
  Y  Y2  1  0.750970  0.481955  0.518018  1
  Y  Y3  1  0.255097  0.523206  0.476604  1
  Y  Y4  1  0.750971  0.036067  0.518022  1
  Y  Y5  1  0.255099  0.953391  0.476598  1
  Y  Y6  1  0.750941  0.482107  0.964217  1
  Er  Er7  1  0.255687  0.523791  0.047581  1
  Ga  Ga8  1  0.956218  0.833343  0.166257  1
  Ga  Ga9  1  0.047627  0.168577  0.832454  1
  Ga  Ga10  1  0.956227  0.332917  0.166257  1
  Ga  Ga11  1  0.454420  0.167779  0.833296  1
  Ga  Ga12  1  0.047625  0.663877  0.832455  1
  Ga  Ga13  1  0.544995  0.825991  0.173253  1
  Ga  Ga14  1  0.955662  0.833359  0.666718  1
  Ga  Ga15  1  0.454423  0.665518  0.833296  1
  Ga  Ga16  1  0.046881  0.168081  0.336164  1
  Ga  Ga17  1  0.544984  0.347265  0.173255  1
  Ga  Ga18  1  0.455100  0.167271  0.334545  1
  Ga  Ga19  1  0.545748  0.826194  0.652388  1
  Co  Co20  1  0.517305  0.665982  0.331963  1
  Pd  Pd21  1  0.960871  0.665999  0.331996  1
  Pd  Pd22  1  0.035148  0.333649  0.667297  1
  Pd  Pd23  1  0.466558  0.333690  0.667381  1
