# generated using pymatgen
data_Sc4FeOs7
_symmetry_space_group_name_H-M   'P 1'
_cell_length_a   5.22228000
_cell_length_b   5.13621315
_cell_length_c   8.58598300
_cell_angle_alpha   90.00000000
_cell_angle_beta   90.00000000
_cell_angle_gamma   120.55589125
_symmetry_Int_Tables_number   1
_chemical_formula_structural   Sc4FeOs7
_chemical_formula_sum   'Sc4 Fe1 Os7'
_cell_volume   198.31875099
_cell_formula_units_Z   1
loop_
 _symmetry_equiv_pos_site_id
 _symmetry_equiv_pos_as_xyz
  1  'x, y, z'
loop_
 _atom_site_type_symbol
 _atom_site_label
 _atom_site_symmetry_multiplicity
 _atom_site_fract_x
 _atom_site_fract_y
 _atom_site_fract_z
 _atom_site_occupancy
  Sc  Sc0  1  0.331071  0.662144  0.435765  1
  Sc  Sc1  1  0.667585  0.335170  0.567028  1
  Sc  Sc2  1  0.667585  0.335170  0.932972  1
  Sc  Sc3  1  0.331071  0.662144  0.064235  1
  Fe  Fe4  1  0.169332  0.338664  0.750000  1
  Os  Os5  1  0.176063  0.829202  0.750000  1
  Os  Os6  1  0.345730  0.172805  0.250000  1
  Os  Os7  1  0.830378  0.660757  0.250000  1
  Os  Os8  1  0.653140  0.829202  0.750000  1
  Os  Os9  1  0.000484  0.000969  0.997381  1
  Os  Os10  1  0.827074  0.172805  0.250000  1
  Os  Os11  1  0.000484  0.000969  0.502619  1
