# generated using pymatgen
data_PrLu2RuO7
_symmetry_space_group_name_H-M   'P 1'
_cell_length_a   6.36714873
_cell_length_b   6.36714790
_cell_length_c   7.45493400
_cell_angle_alpha   90.00000000
_cell_angle_beta   90.00000000
_cell_angle_gamma   109.79240749
_symmetry_Int_Tables_number   1
_chemical_formula_structural   PrLu2RuO7
_chemical_formula_sum   'Pr2 Lu4 Ru2 O14'
_cell_volume   284.37344730
_cell_formula_units_Z   2
loop_
 _symmetry_equiv_pos_site_id
 _symmetry_equiv_pos_as_xyz
  1  'x, y, z'
loop_
 _atom_site_type_symbol
 _atom_site_label
 _atom_site_symmetry_multiplicity
 _atom_site_fract_x
 _atom_site_fract_y
 _atom_site_fract_z
 _atom_site_occupancy
  Pr  Pr0  1  0.000000  0.000000  0.500000  1
  Pr  Pr1  1  0.000000  0.000000  0.000000  1
  Lu  Lu2  1  0.485079  0.937828  0.750000  1
  Lu  Lu3  1  0.514921  0.062172  0.250000  1
  Lu  Lu4  1  0.937828  0.485079  0.750000  1
  Lu  Lu5  1  0.062172  0.514921  0.250000  1
  Ru  Ru6  1  0.500000  0.500000  0.500000  1
  Ru  Ru7  1  0.500000  0.500000  0.000000  1
  O  O8  1  0.594324  0.594324  0.750000  1
  O  O9  1  0.405676  0.405676  0.250000  1
  O  O10  1  0.833593  0.124086  0.750000  1
  O  O11  1  0.166407  0.875914  0.250000  1
  O  O12  1  0.124086  0.833593  0.750000  1
  O  O13  1  0.875914  0.166407  0.250000  1
  O  O14  1  0.440643  0.178001  0.963339  1
  O  O15  1  0.559357  0.821999  0.463339  1
  O  O16  1  0.178001  0.440643  0.963339  1
  O  O17  1  0.821999  0.559357  0.463339  1
  O  O18  1  0.440643  0.178001  0.536661  1
  O  O19  1  0.559357  0.821999  0.036661  1
  O  O20  1  0.821999  0.559357  0.036661  1
  O  O21  1  0.178001  0.440643  0.536661  1
