# generated using pymatgen
data_Yb2Ho3Lu3(B6Os)4
_symmetry_space_group_name_H-M   'P 1'
_cell_length_a   3.61722900
_cell_length_b   9.09348494
_cell_length_c   11.48806200
_cell_angle_alpha   89.87196908
_cell_angle_beta   90.00000000
_cell_angle_gamma   90.00000000
_symmetry_Int_Tables_number   1
_chemical_formula_structural   Yb2Ho3Lu3(B6Os)4
_chemical_formula_sum   'Yb2 Ho3 Lu3 B24 Os4'
_cell_volume   377.87837791
_cell_formula_units_Z   1
loop_
 _symmetry_equiv_pos_site_id
 _symmetry_equiv_pos_as_xyz
  1  'x, y, z'
loop_
 _atom_site_type_symbol
 _atom_site_label
 _atom_site_symmetry_multiplicity
 _atom_site_fract_x
 _atom_site_fract_y
 _atom_site_fract_z
 _atom_site_occupancy
  Yb  Yb0  1  0.000000  0.324076  0.414563  1
  Yb  Yb1  1  0.000000  0.675880  0.585722  1
  Ho  Ho2  1  0.000000  0.821261  0.085999  1
  Ho  Ho3  1  0.000000  0.178706  0.913607  1
  Ho  Ho4  1  0.000000  0.942456  0.370776  1
  Lu  Lu5  1  0.000000  0.057946  0.630193  1
  Lu  Lu6  1  0.000000  0.443053  0.129483  1
  Lu  Lu7  1  0.000000  0.556959  0.870276  1
  B  B8  1  0.500000  0.553588  0.432314  1
  B  B9  1  0.500000  0.445824  0.567858  1
  B  B10  1  0.500000  0.053879  0.066390  1
  B  B11  1  0.500000  0.946224  0.933256  1
  B  B12  1  0.500000  0.747842  0.417689  1
  B  B13  1  0.500000  0.250869  0.582366  1
  B  B14  1  0.500000  0.249703  0.080993  1
  B  B15  1  0.500000  0.750523  0.918847  1
  B  B16  1  0.500000  0.790737  0.264117  1
  B  B17  1  0.500000  0.208237  0.735588  1
  B  B18  1  0.500000  0.291403  0.233947  1
  B  B19  1  0.500000  0.709092  0.765865  1
  B  B20  1  0.500000  0.630190  0.184247  1
  B  B21  1  0.500000  0.369502  0.815530  1
  B  B22  1  0.500000  0.131126  0.313665  1
  B  B23  1  0.500000  0.869884  0.685834  1
  B  B24  1  0.500000  0.982972  0.211215  1
  B  B25  1  0.500000  0.017618  0.788005  1
  B  B26  1  0.500000  0.482583  0.287106  1
  B  B27  1  0.500000  0.517124  0.712773  1
  B  B28  1  0.500000  0.601468  0.027834  1
  B  B29  1  0.500000  0.398520  0.972036  1
  B  B30  1  0.500000  0.099581  0.473946  1
  B  B31  1  0.500000  0.901619  0.528535  1
  Os  Os32  1  0.000000  0.638721  0.318129  1
  Os  Os33  1  0.000000  0.360064  0.681900  1
  Os  Os34  1  0.000000  0.137991  0.177551  1
  Os  Os35  1  0.000000  0.862779  0.821843  1
