# generated using pymatgen
data_Ca16Tl5Ga
_symmetry_space_group_name_H-M   'P 1'
_cell_length_a   9.59132252
_cell_length_b   9.63270608
_cell_length_c   9.71566360
_cell_angle_alpha   99.00961628
_cell_angle_beta   101.17335502
_cell_angle_gamma   119.80569686
_symmetry_Int_Tables_number   1
_chemical_formula_structural   Ca16Tl5Ga
_chemical_formula_sum   'Ca16 Tl5 Ga1'
_cell_volume   729.62249593
_cell_formula_units_Z   1
loop_
 _symmetry_equiv_pos_site_id
 _symmetry_equiv_pos_as_xyz
  1  'x, y, z'
loop_
 _atom_site_type_symbol
 _atom_site_label
 _atom_site_symmetry_multiplicity
 _atom_site_fract_x
 _atom_site_fract_y
 _atom_site_fract_z
 _atom_site_occupancy
  Ca  Ca0  1  0.922620  0.764800  0.395924  1
  Ca  Ca1  1  0.708146  0.498277  0.607769  1
  Ca  Ca2  1  0.468268  0.297973  0.848255  1
  Ca  Ca3  1  0.531732  0.702027  0.151745  1
  Ca  Ca4  1  0.117863  0.596467  0.843182  1
  Ca  Ca5  1  0.291854  0.501723  0.392231  1
  Ca  Ca6  1  0.324671  0.869790  0.607994  1
  Ca  Ca7  1  0.077380  0.235200  0.604076  1
  Ca  Ca8  1  0.675329  0.130210  0.392006  1
  Ca  Ca9  1  0.882137  0.403533  0.156818  1
  Ca  Ca10  1  0.457864  0.293091  0.204283  1
  Ca  Ca11  1  0.771213  0.153349  0.799826  1
  Ca  Ca12  1  0.040709  0.940420  0.829294  1
  Ca  Ca13  1  0.959291  0.059580  0.170706  1
  Ca  Ca14  1  0.542136  0.706909  0.795717  1
  Ca  Ca15  1  0.228787  0.846651  0.200174  1
  Tl  Tl16  1  0.826186  0.660802  0.001005  1
  Tl  Tl17  1  0.676438  0.839894  0.524735  1
  Tl  Tl18  1  0.173814  0.339198  0.998995  1
  Tl  Tl19  1  0.500000  0.000000  0.000000  1
  Tl  Tl20  1  0.323562  0.160106  0.475265  1
  Ga  Ga21  1  0.000000  0.500000  0.500000  1
