# generated using pymatgen
data_Hf2Zr2Mn4SiAs3
_symmetry_space_group_name_H-M   'P 1'
_cell_length_a   3.72229700
_cell_length_b   6.60945267
_cell_length_c   7.74656519
_cell_angle_alpha   90.28126253
_cell_angle_beta   90.00000000
_cell_angle_gamma   90.00000000
_symmetry_Int_Tables_number   1
_chemical_formula_structural   Hf2Zr2Mn4SiAs3
_chemical_formula_sum   'Hf2 Zr2 Mn4 Si1 As3'
_cell_volume   190.58137968
_cell_formula_units_Z   1
loop_
 _symmetry_equiv_pos_site_id
 _symmetry_equiv_pos_as_xyz
  1  'x, y, z'
loop_
 _atom_site_type_symbol
 _atom_site_label
 _atom_site_symmetry_multiplicity
 _atom_site_fract_x
 _atom_site_fract_y
 _atom_site_fract_z
 _atom_site_occupancy
  Hf  Hf0  1  0.250000  0.527193  0.675532  1
  Hf  Hf1  1  0.250000  0.038575  0.819248  1
  Zr  Zr2  1  0.750000  0.965940  0.176589  1
  Zr  Zr3  1  0.750000  0.465005  0.327521  1
  Mn  Mn4  1  0.750000  0.361612  0.932381  1
  Mn  Mn5  1  0.250000  0.137388  0.445112  1
  Mn  Mn6  1  0.750000  0.869562  0.564836  1
  Mn  Mn7  1  0.250000  0.634437  0.059917  1
  Si  Si8  1  0.750000  0.234660  0.626293  1
  As  As9  1  0.250000  0.263434  0.127135  1
  As  As10  1  0.250000  0.765145  0.375725  1
  As  As11  1  0.750000  0.737048  0.869709  1
