# generated using pymatgen
data_Tm4LuIrRu
_symmetry_space_group_name_H-M   'P 1'
_cell_length_a   6.30597647
_cell_length_b   7.22159347
_cell_length_c   8.34443080
_cell_angle_alpha   96.91658479
_cell_angle_beta   112.55422554
_cell_angle_gamma   89.83878593
_symmetry_Int_Tables_number   1
_chemical_formula_structural   Tm4LuIrRu
_chemical_formula_sum   'Tm8 Lu2 Ir2 Ru2'
_cell_volume   347.99116676
_cell_formula_units_Z   2
loop_
 _symmetry_equiv_pos_site_id
 _symmetry_equiv_pos_as_xyz
  1  'x, y, z'
loop_
 _atom_site_type_symbol
 _atom_site_label
 _atom_site_symmetry_multiplicity
 _atom_site_fract_x
 _atom_site_fract_y
 _atom_site_fract_z
 _atom_site_occupancy
  Tm  Tm0  1  0.523791  0.081252  0.816059  1
  Tm  Tm1  1  0.476209  0.918748  0.183941  1
  Tm  Tm2  1  0.709764  0.415327  0.184493  1
  Tm  Tm3  1  0.290236  0.584673  0.815507  1
  Tm  Tm4  1  0.291799  0.314911  0.436824  1
  Tm  Tm5  1  0.708201  0.685089  0.563176  1
  Tm  Tm6  1  0.858704  0.183858  0.564131  1
  Tm  Tm7  1  0.141296  0.816142  0.435869  1
  Lu  Lu8  1  0.076397  0.249113  0.999279  1
  Lu  Lu9  1  0.923603  0.750887  0.000721  1
  Ir  Ir10  1  0.323251  0.575844  0.220472  1
  Ir  Ir11  1  0.676749  0.424156  0.779528  1
  Ru  Ru12  1  0.104532  0.923232  0.782478  1
  Ru  Ru13  1  0.895468  0.076768  0.217522  1
