# generated using pymatgen
data_NaMo2(PO4)3
_symmetry_space_group_name_H-M   'P 1'
_cell_length_a   8.71830953
_cell_length_b   8.71830816
_cell_length_c   9.25796337
_cell_angle_alpha   61.71174932
_cell_angle_beta   61.71174366
_cell_angle_gamma   60.32722391
_symmetry_Int_Tables_number   1
_chemical_formula_structural   NaMo2(PO4)3
_chemical_formula_sum   'Na2 Mo4 P6 O24'
_cell_volume   511.38094106
_cell_formula_units_Z   2
loop_
 _symmetry_equiv_pos_site_id
 _symmetry_equiv_pos_as_xyz
  1  'x, y, z'
loop_
 _atom_site_type_symbol
 _atom_site_label
 _atom_site_symmetry_multiplicity
 _atom_site_fract_x
 _atom_site_fract_y
 _atom_site_fract_z
 _atom_site_occupancy
  Na  Na0  1  0.008964  0.491976  0.749179  1
  Na  Na1  1  0.508024  0.991036  0.250821  1
  Mo  Mo2  1  0.650563  0.140322  0.812678  1
  Mo  Mo3  1  0.859678  0.349437  0.187322  1
  Mo  Mo4  1  0.150522  0.641512  0.311596  1
  Mo  Mo5  1  0.358488  0.849478  0.688404  1
  P  P6  1  0.256370  0.454567  0.002764  1
  P  P7  1  0.464320  0.245535  0.504416  1
  P  P8  1  0.042366  0.957634  0.500000  1
  P  P9  1  0.965624  0.034376  0.000000  1
  P  P10  1  0.545433  0.743630  0.997236  1
  P  P11  1  0.754465  0.535680  0.495584  1
  O  O12  1  0.021443  0.124073  0.336068  1
  O  O13  1  0.788071  0.508600  0.327513  1
  O  O14  1  0.425039  0.274722  0.990247  1
  O  O15  1  0.292798  0.617790  0.837315  1
  O  O16  1  0.223002  0.926303  0.522207  1
  O  O17  1  0.629542  0.277447  0.340773  1
  O  O18  1  0.491400  0.211929  0.672487  1
  O  O19  1  0.082503  0.437202  0.013624  1
  O  O20  1  0.445083  0.070750  0.518148  1
  O  O21  1  0.284866  0.414120  0.490942  1
  O  O22  1  0.875927  0.978557  0.663932  1
  O  O23  1  0.073697  0.776998  0.477793  1
  O  O24  1  0.935917  0.217017  0.018626  1
  O  O25  1  0.129649  0.011160  0.835787  1
  O  O26  1  0.562798  0.917497  0.986376  1
  O  O27  1  0.725278  0.574961  0.009753  1
  O  O28  1  0.929250  0.554917  0.481852  1
  O  O29  1  0.516278  0.776545  0.831117  1
  O  O30  1  0.382210  0.707202  0.162685  1
  O  O31  1  0.782983  0.064083  0.981374  1
  O  O32  1  0.722553  0.370458  0.659227  1
  O  O33  1  0.585880  0.715134  0.509058  1
  O  O34  1  0.223455  0.483722  0.168883  1
  O  O35  1  0.988840  0.870351  0.164213  1
