# generated using pymatgen
data_LaSm(Si2Rh3)2
_symmetry_space_group_name_H-M   'P 1'
_cell_length_a   5.62384453
_cell_length_b   6.69722981
_cell_length_c   6.69722971
_cell_angle_alpha   65.21177990
_cell_angle_beta   65.17402911
_cell_angle_gamma   65.17403040
_symmetry_Int_Tables_number   1
_chemical_formula_structural   LaSm(Si2Rh3)2
_chemical_formula_sum   'La1 Sm1 Si4 Rh6'
_cell_volume   198.53295716
_cell_formula_units_Z   1
loop_
 _symmetry_equiv_pos_site_id
 _symmetry_equiv_pos_as_xyz
  1  'x, y, z'
loop_
 _atom_site_type_symbol
 _atom_site_label
 _atom_site_symmetry_multiplicity
 _atom_site_fract_x
 _atom_site_fract_y
 _atom_site_fract_z
 _atom_site_occupancy
  La  La0  1  0.463321  0.250000  0.250000  1
  Sm  Sm1  1  0.543938  0.750000  0.750000  1
  Si  Si2  1  0.223054  0.579631  0.579631  1
  Si  Si3  1  0.775854  0.422570  0.422570  1
  Si  Si4  1  0.120992  0.077430  0.077430  1
  Si  Si5  1  0.882316  0.920369  0.920369  1
  Rh  Rh6  1  0.499394  0.214241  0.781634  1
  Rh  Rh7  1  0.995269  0.718366  0.285759  1
  Rh  Rh8  1  0.499394  0.781634  0.214241  1
  Rh  Rh9  1  0.995269  0.285759  0.718366  1
  Rh  Rh10  1  0.000600  0.501690  0.998310  1
  Rh  Rh11  1  0.000600  0.998310  0.501690  1
