# generated using pymatgen
data_CdTe28
_symmetry_space_group_name_H-M   'P 1'
_cell_length_a   8.26257262
_cell_length_b   14.45966497
_cell_length_c   14.25710635
_cell_angle_alpha   130.45357398
_cell_angle_beta   113.90621665
_cell_angle_gamma   86.17739607
_symmetry_Int_Tables_number   1
_chemical_formula_structural   CdTe28
_chemical_formula_sum   'Cd1 Te28'
_cell_volume   1136.80342483
_cell_formula_units_Z   1
loop_
 _symmetry_equiv_pos_site_id
 _symmetry_equiv_pos_as_xyz
  1  'x, y, z'
loop_
 _atom_site_type_symbol
 _atom_site_label
 _atom_site_symmetry_multiplicity
 _atom_site_fract_x
 _atom_site_fract_y
 _atom_site_fract_z
 _atom_site_occupancy
  Cd  Cd0  1  0.500000  0.000000  0.000000  1
  Te  Te1  1  0.028921  0.108613  0.361468  1
  Te  Te2  1  0.534919  0.106043  0.383972  1
  Te  Te3  1  0.271350  0.328422  0.807899  1
  Te  Te4  1  0.772433  0.328874  0.817889  1
  Te  Te5  1  0.228100  0.537631  0.683532  1
  Te  Te6  1  0.727547  0.519854  0.678671  1
  Te  Te7  1  0.465081  0.893957  0.616028  1
  Te  Te8  1  0.971079  0.891387  0.638532  1
  Te  Te9  1  0.227567  0.671126  0.182111  1
  Te  Te10  1  0.728650  0.671578  0.192101  1
  Te  Te11  1  0.272453  0.480146  0.321329  1
  Te  Te12  1  0.771900  0.462369  0.316468  1
  Te  Te13  1  0.818929  0.084396  0.802164  1
  Te  Te14  1  0.345183  0.059734  0.837714  1
  Te  Te15  1  0.814334  0.619601  0.989995  1
  Te  Te16  1  0.356816  0.668581  0.025592  1
  Te  Te17  1  0.530631  0.296705  0.275332  1
  Te  Te18  1  0.036269  0.325889  0.300226  1
  Te  Te19  1  0.654817  0.940266  0.162286  1
  Te  Te20  1  0.181071  0.915604  0.197836  1
  Te  Te21  1  0.643184  0.331419  0.974408  1
  Te  Te22  1  0.185666  0.380399  0.010005  1
  Te  Te23  1  0.963731  0.674111  0.699774  1
  Te  Te24  1  0.469369  0.703295  0.724668  1
  Te  Te25  1  0.923831  0.323365  0.608744  1
  Te  Te26  1  0.423840  0.303316  0.610373  1
  Te  Te27  1  0.576160  0.696684  0.389627  1
  Te  Te28  1  0.076169  0.676635  0.391256  1
