# generated using pymatgen
data_TmSc11In2Tc3
_symmetry_space_group_name_H-M   'P 1'
_cell_length_a   7.97566726
_cell_length_b   7.97566700
_cell_length_c   7.91584627
_cell_angle_alpha   109.56499118
_cell_angle_beta   109.56499097
_cell_angle_gamma   109.58905606
_symmetry_Int_Tables_number   1
_chemical_formula_structural   TmSc11In2Tc3
_chemical_formula_sum   'Tm1 Sc11 In2 Tc3'
_cell_volume   386.15518664
_cell_formula_units_Z   1
loop_
 _symmetry_equiv_pos_site_id
 _symmetry_equiv_pos_as_xyz
  1  'x, y, z'
loop_
 _atom_site_type_symbol
 _atom_site_label
 _atom_site_symmetry_multiplicity
 _atom_site_fract_x
 _atom_site_fract_y
 _atom_site_fract_z
 _atom_site_occupancy
  Tm  Tm0  1  0.309331  0.690669  0.000000  1
  Sc  Sc1  1  0.188211  0.426992  0.243985  1
  Sc  Sc2  1  0.808411  0.567841  0.755525  1
  Sc  Sc3  1  0.187683  0.947115  0.755525  1
  Sc  Sc4  1  0.944227  0.183007  0.756015  1
  Sc  Sc5  1  0.816993  0.055773  0.243985  1
  Sc  Sc6  1  0.052885  0.812317  0.244475  1
  Sc  Sc7  1  0.432159  0.191589  0.244475  1
  Sc  Sc8  1  0.573008  0.811789  0.756015  1
  Sc  Sc9  1  0.314450  0.313133  0.627583  1
  Sc  Sc10  1  0.686867  0.685550  0.372417  1
  Sc  Sc11  1  0.687908  0.312092  0.000000  1
  In  In12  1  0.993326  0.499644  0.492969  1
  In  In13  1  0.500356  0.006674  0.507031  1
  Tc  Tc14  1  0.343602  0.340817  0.000000  1
  Tc  Tc15  1  0.659183  0.656398  0.000000  1
  Tc  Tc16  1  0.001400  0.998600  0.000000  1
