# generated using pymatgen
data_CeY3Al4OsPd3
_symmetry_space_group_name_H-M   'P 1'
_cell_length_a   4.39908000
_cell_length_b   6.89280302
_cell_length_c   7.93281347
_cell_angle_alpha   89.97621350
_cell_angle_beta   90.00000000
_cell_angle_gamma   90.00000000
_symmetry_Int_Tables_number   1
_chemical_formula_structural   CeY3Al4OsPd3
_chemical_formula_sum   'Ce1 Y3 Al4 Os1 Pd3'
_cell_volume   240.53868506
_cell_formula_units_Z   1
loop_
 _symmetry_equiv_pos_site_id
 _symmetry_equiv_pos_as_xyz
  1  'x, y, z'
loop_
 _atom_site_type_symbol
 _atom_site_label
 _atom_site_symmetry_multiplicity
 _atom_site_fract_x
 _atom_site_fract_y
 _atom_site_fract_z
 _atom_site_occupancy
  Ce  Ce0  1  0.750000  0.984103  0.675456  1
  Y  Y1  1  0.250000  0.036848  0.317516  1
  Y  Y2  1  0.250000  0.531763  0.182339  1
  Y  Y3  1  0.750000  0.465125  0.815591  1
  Al  Al4  1  0.250000  0.148366  0.939749  1
  Al  Al5  1  0.250000  0.633323  0.560445  1
  Al  Al6  1  0.750000  0.855865  0.060921  1
  Al  Al7  1  0.750000  0.356443  0.439433  1
  Os  Os8  1  0.250000  0.260022  0.625306  1
  Pd  Pd9  1  0.250000  0.772461  0.882297  1
  Pd  Pd10  1  0.750000  0.727794  0.380789  1
  Pd  Pd11  1  0.750000  0.227885  0.120159  1
