# generated using pymatgen
data_SmHo7(HgRh)2
_symmetry_space_group_name_H-M   'P 1'
_cell_length_a   9.57999315
_cell_length_b   9.57999223
_cell_length_c   9.57664300
_cell_angle_alpha   60.01155388
_cell_angle_beta   60.01155704
_cell_angle_gamma   59.97687319
_symmetry_Int_Tables_number   1
_chemical_formula_structural   SmHo7(HgRh)2
_chemical_formula_sum   'Sm2 Ho14 Hg4 Rh4'
_cell_volume   621.48191814
_cell_formula_units_Z   2
loop_
 _symmetry_equiv_pos_site_id
 _symmetry_equiv_pos_as_xyz
  1  'x, y, z'
loop_
 _atom_site_type_symbol
 _atom_site_label
 _atom_site_symmetry_multiplicity
 _atom_site_fract_x
 _atom_site_fract_y
 _atom_site_fract_z
 _atom_site_occupancy
  Sm  Sm0  1  0.936295  0.936295  0.563705  1
  Sm  Sm1  1  0.563705  0.563705  0.936295  1
  Ho  Ho2  1  0.688970  0.688970  0.311030  1
  Ho  Ho3  1  0.148336  0.553643  0.149009  1
  Ho  Ho4  1  0.688628  0.311372  0.688628  1
  Ho  Ho5  1  0.149009  0.149009  0.148336  1
  Ho  Ho6  1  0.553643  0.148336  0.149009  1
  Ho  Ho7  1  0.688628  0.311372  0.311372  1
  Ho  Ho8  1  0.149009  0.149009  0.553643  1
  Ho  Ho9  1  0.311372  0.688628  0.311372  1
  Ho  Ho10  1  0.311372  0.688628  0.688628  1
  Ho  Ho11  1  0.938055  0.561945  0.561945  1
  Ho  Ho12  1  0.938055  0.561945  0.938055  1
  Ho  Ho13  1  0.561945  0.938055  0.561945  1
  Ho  Ho14  1  0.561945  0.938055  0.938055  1
  Ho  Ho15  1  0.311030  0.311030  0.688970  1
  Hg  Hg16  1  0.914537  0.914537  0.253819  1
  Hg  Hg17  1  0.253819  0.917107  0.914537  1
  Hg  Hg18  1  0.914537  0.914537  0.917107  1
  Hg  Hg19  1  0.917107  0.253819  0.914537  1
  Rh  Rh20  1  0.356864  0.356864  0.928610  1
  Rh  Rh21  1  0.357660  0.928610  0.356864  1
  Rh  Rh22  1  0.928610  0.357660  0.356864  1
  Rh  Rh23  1  0.356864  0.356864  0.357660  1
