# generated using pymatgen
data_Nb12Al7Cr4SiC4
_symmetry_space_group_name_H-M   'P 1'
_cell_length_a   8.30851871
_cell_length_b   8.30851858
_cell_length_c   8.30851908
_cell_angle_alpha   59.94494099
_cell_angle_beta   59.94494613
_cell_angle_gamma   59.94493636
_symmetry_Int_Tables_number   1
_chemical_formula_structural   Nb12Al7Cr4SiC4
_chemical_formula_sum   'Nb12 Al7 Cr4 Si1 C4'
_cell_volume   405.05421483
_cell_formula_units_Z   1
loop_
 _symmetry_equiv_pos_site_id
 _symmetry_equiv_pos_as_xyz
  1  'x, y, z'
loop_
 _atom_site_type_symbol
 _atom_site_label
 _atom_site_symmetry_multiplicity
 _atom_site_fract_x
 _atom_site_fract_y
 _atom_site_fract_z
 _atom_site_occupancy
  Nb  Nb0  1  0.695490  0.304949  0.695490  1
  Nb  Nb1  1  0.946780  0.553321  0.553321  1
  Nb  Nb2  1  0.554220  0.946029  0.946029  1
  Nb  Nb3  1  0.946029  0.554220  0.946029  1
  Nb  Nb4  1  0.553321  0.553321  0.946780  1
  Nb  Nb5  1  0.946029  0.946029  0.554220  1
  Nb  Nb6  1  0.695490  0.695490  0.304949  1
  Nb  Nb7  1  0.304949  0.695490  0.695490  1
  Nb  Nb8  1  0.691728  0.304922  0.304922  1
  Nb  Nb9  1  0.304922  0.304922  0.691728  1
  Nb  Nb10  1  0.553321  0.946780  0.553321  1
  Nb  Nb11  1  0.304922  0.691728  0.304922  1
  Al  Al12  1  0.253546  0.915156  0.915156  1
  Al  Al13  1  0.915156  0.253546  0.915156  1
  Al  Al14  1  0.915156  0.915156  0.253546  1
  Al  Al15  1  0.334013  0.994843  0.334013  1
  Al  Al16  1  0.334013  0.334013  0.994843  1
  Al  Al17  1  0.994843  0.334013  0.334013  1
  Al  Al18  1  0.916183  0.916183  0.916183  1
  Cr  Cr19  1  0.125063  0.125063  0.125063  1
  Cr  Cr20  1  0.620680  0.128800  0.128800  1
  Cr  Cr21  1  0.128800  0.620680  0.128800  1
  Cr  Cr22  1  0.128800  0.128800  0.620680  1
  Si  Si23  1  0.335808  0.335808  0.335808  1
  C  C24  1  0.625669  0.625669  0.625669  1
  C  C25  1  0.124436  0.625316  0.625316  1
  C  C26  1  0.625316  0.124436  0.625316  1
  C  C27  1  0.625316  0.625316  0.124436  1
