# generated using pymatgen
data_Er2Ni3Rh3C
_symmetry_space_group_name_H-M   'P 1'
_cell_length_a   5.68843953
_cell_length_b   5.68844010
_cell_length_c   5.60962382
_cell_angle_alpha   59.53412820
_cell_angle_beta   59.53411769
_cell_angle_gamma   60.00000151
_symmetry_Int_Tables_number   1
_chemical_formula_structural   Er2Ni3Rh3C
_chemical_formula_sum   'Er2 Ni3 Rh3 C1'
_cell_volume   127.44145806
_cell_formula_units_Z   1
loop_
 _symmetry_equiv_pos_site_id
 _symmetry_equiv_pos_as_xyz
  1  'x, y, z'
loop_
 _atom_site_type_symbol
 _atom_site_label
 _atom_site_symmetry_multiplicity
 _atom_site_fract_x
 _atom_site_fract_y
 _atom_site_fract_z
 _atom_site_occupancy
  Er  Er0  1  0.250338  0.250338  0.248987  1
  Er  Er1  1  0.750125  0.750125  0.749625  1
  Ni  Ni2  1  0.749444  0.250420  0.250691  1
  Ni  Ni3  1  0.250420  0.749444  0.250691  1
  Ni  Ni4  1  0.749444  0.749444  0.250691  1
  Rh  Rh5  1  0.245677  0.245677  0.755138  1
  Rh  Rh6  1  0.753506  0.245677  0.755138  1
  Rh  Rh7  1  0.245677  0.753506  0.755138  1
  C  C8  1  0.505367  0.505367  0.483896  1
