# generated using pymatgen
data_Ba6Lu2(TeO6)3
_symmetry_space_group_name_H-M   'P 1'
_cell_length_a   10.33715262
_cell_length_b   10.33715241
_cell_length_c   10.33715278
_cell_angle_alpha   146.55639197
_cell_angle_beta   131.97059722
_cell_angle_gamma   59.78953384
_symmetry_Int_Tables_number   1
_chemical_formula_structural   Ba6Lu2(TeO6)3
_chemical_formula_sum   'Ba6 Lu2 Te3 O18'
_cell_volume   448.53264134
_cell_formula_units_Z   1
loop_
 _symmetry_equiv_pos_site_id
 _symmetry_equiv_pos_as_xyz
  1  'x, y, z'
loop_
 _atom_site_type_symbol
 _atom_site_label
 _atom_site_symmetry_multiplicity
 _atom_site_fract_x
 _atom_site_fract_y
 _atom_site_fract_z
 _atom_site_occupancy
  Ba  Ba0  1  0.775107  0.500000  0.275107  1
  Ba  Ba1  1  0.394574  0.157268  0.237306  1
  Ba  Ba2  1  0.080037  0.842732  0.237306  1
  Ba  Ba3  1  0.224893  0.500000  0.724893  1
  Ba  Ba4  1  0.919963  0.157268  0.762694  1
  Ba  Ba5  1  0.605426  0.842732  0.762694  1
  Lu  Lu6  1  0.665541  0.665541  0.000000  1
  Lu  Lu7  1  0.334459  0.334459  0.000000  1
  Te  Te8  1  0.500000  0.000000  0.500000  1
  Te  Te9  1  0.172376  0.672376  0.500000  1
  Te  Te10  1  0.827624  0.327624  0.500000  1
  O  O11  1  0.725310  0.000000  0.725310  1
  O  O12  1  0.410458  0.672436  0.738023  1
  O  O13  1  0.065588  0.327564  0.738023  1
  O  O14  1  0.578972  0.839799  0.260826  1
  O  O15  1  0.250250  0.518128  0.267878  1
  O  O16  1  0.903112  0.174880  0.271767  1
  O  O17  1  0.421028  0.681855  0.260826  1
  O  O18  1  0.096888  0.368655  0.271767  1
  O  O19  1  0.749750  0.017628  0.267878  1
  O  O20  1  0.274690  0.000000  0.274690  1
  O  O21  1  0.934412  0.672436  0.261977  1
  O  O22  1  0.589542  0.327564  0.261977  1
  O  O23  1  0.421028  0.160201  0.739174  1
  O  O24  1  0.096888  0.825120  0.728233  1
  O  O25  1  0.749750  0.481872  0.732122  1
  O  O26  1  0.578972  0.318145  0.739174  1
  O  O27  1  0.250250  0.982372  0.732122  1
  O  O28  1  0.903112  0.631346  0.728233  1
