# generated using pymatgen
data_Sc7Ti6Al9Rh8
_symmetry_space_group_name_H-M   'P 1'
_cell_length_a   8.93974482
_cell_length_b   8.93974452
_cell_length_c   8.93974563
_cell_angle_alpha   59.83099505
_cell_angle_beta   59.83099457
_cell_angle_gamma   59.83101150
_symmetry_Int_Tables_number   1
_chemical_formula_structural   Sc7Ti6Al9Rh8
_chemical_formula_sum   'Sc7 Ti6 Al9 Rh8'
_cell_volume   503.25878906
_cell_formula_units_Z   1
loop_
 _symmetry_equiv_pos_site_id
 _symmetry_equiv_pos_as_xyz
  1  'x, y, z'
loop_
 _atom_site_type_symbol
 _atom_site_label
 _atom_site_symmetry_multiplicity
 _atom_site_fract_x
 _atom_site_fract_y
 _atom_site_fract_z
 _atom_site_occupancy
  Sc  Sc0  1  0.209834  0.209834  0.794170  1
  Sc  Sc1  1  0.794170  0.209834  0.209834  1
  Sc  Sc2  1  0.209834  0.794170  0.209834  1
  Sc  Sc3  1  0.795135  0.795135  0.194075  1
  Sc  Sc4  1  0.194075  0.795135  0.795135  1
  Sc  Sc5  1  0.795135  0.194075  0.795135  1
  Sc  Sc6  1  0.380880  0.380880  0.380880  1
  Ti  Ti7  1  0.380649  0.862220  0.380649  1
  Ti  Ti8  1  0.862220  0.380649  0.380649  1
  Ti  Ti9  1  0.380649  0.380649  0.862220  1
  Ti  Ti10  1  0.834618  0.492971  0.834618  1
  Ti  Ti11  1  0.492971  0.834618  0.834618  1
  Ti  Ti12  1  0.834618  0.834618  0.492971  1
  Al  Al13  1  0.167739  0.167739  0.167739  1
  Al  Al14  1  0.164199  0.506404  0.164199  1
  Al  Al15  1  0.506404  0.164199  0.164199  1
  Al  Al16  1  0.164199  0.164199  0.506404  1
  Al  Al17  1  0.618317  0.618317  0.618317  1
  Al  Al18  1  0.619880  0.144369  0.619880  1
  Al  Al19  1  0.144369  0.619880  0.619880  1
  Al  Al20  1  0.619880  0.619880  0.144369  1
  Al  Al21  1  0.826212  0.826212  0.826212  1
  Rh  Rh22  1  0.001243  0.001243  0.495535  1
  Rh  Rh23  1  0.495535  0.001243  0.001243  1
  Rh  Rh24  1  0.001243  0.495535  0.001243  1
  Rh  Rh25  1  0.503005  0.503005  0.992677  1
  Rh  Rh26  1  0.992677  0.503005  0.503005  1
  Rh  Rh27  1  0.503005  0.992677  0.503005  1
  Rh  Rh28  1  0.503580  0.503580  0.503580  1
  Rh  Rh29  1  0.003723  0.003723  0.003723  1
