# generated using pymatgen
data_Dy16Cd4NiIr3
_symmetry_space_group_name_H-M   'P 1'
_cell_length_a   9.58289259
_cell_length_b   9.58289241
_cell_length_c   9.58289304
_cell_angle_alpha   60.36513599
_cell_angle_beta   60.36513893
_cell_angle_gamma   60.36513668
_symmetry_Int_Tables_number   1
_chemical_formula_structural   Dy16Cd4NiIr3
_chemical_formula_sum   'Dy16 Cd4 Ni1 Ir3'
_cell_volume   627.40375156
_cell_formula_units_Z   1
loop_
 _symmetry_equiv_pos_site_id
 _symmetry_equiv_pos_as_xyz
  1  'x, y, z'
loop_
 _atom_site_type_symbol
 _atom_site_label
 _atom_site_symmetry_multiplicity
 _atom_site_fract_x
 _atom_site_fract_y
 _atom_site_fract_z
 _atom_site_occupancy
  Dy  Dy0  1  0.598583  0.598583  0.598583  1
  Dy  Dy1  1  0.598639  0.598639  0.202559  1
  Dy  Dy2  1  0.598639  0.202559  0.598639  1
  Dy  Dy3  1  0.202559  0.598639  0.598639  1
  Dy  Dy4  1  0.061137  0.439959  0.439959  1
  Dy  Dy5  1  0.438090  0.060017  0.060017  1
  Dy  Dy6  1  0.439959  0.061137  0.439959  1
  Dy  Dy7  1  0.060017  0.438090  0.060017  1
  Dy  Dy8  1  0.439959  0.439959  0.061137  1
  Dy  Dy9  1  0.060017  0.060017  0.438090  1
  Dy  Dy10  1  0.188748  0.812148  0.812148  1
  Dy  Dy11  1  0.813702  0.187353  0.187353  1
  Dy  Dy12  1  0.812148  0.188748  0.812148  1
  Dy  Dy13  1  0.187353  0.813702  0.187353  1
  Dy  Dy14  1  0.812148  0.812148  0.188748  1
  Dy  Dy15  1  0.187353  0.187353  0.813702  1
  Cd  Cd16  1  0.830586  0.830586  0.830586  1
  Cd  Cd17  1  0.831403  0.831403  0.506107  1
  Cd  Cd18  1  0.831403  0.506107  0.831403  1
  Cd  Cd19  1  0.506107  0.831403  0.831403  1
  Ni  Ni20  1  0.392084  0.392084  0.392084  1
  Ir  Ir21  1  0.392388  0.392388  0.824588  1
  Ir  Ir22  1  0.392388  0.824588  0.392388  1
  Ir  Ir23  1  0.824588  0.392388  0.392388  1
