# generated using pymatgen
data_Zr5Fe15(CoP3)4
_symmetry_space_group_name_H-M   'P 1'
_cell_length_a   11.78081400
_cell_length_b   11.78081519
_cell_length_c   3.63151100
_cell_angle_alpha   90.00000000
_cell_angle_beta   90.00000000
_cell_angle_gamma   120.00000227
_symmetry_Int_Tables_number   1
_chemical_formula_structural   Zr5Fe15(CoP3)4
_chemical_formula_sum   'Zr5 Fe15 Co4 P12'
_cell_volume   436.48430108
_cell_formula_units_Z   1
loop_
 _symmetry_equiv_pos_site_id
 _symmetry_equiv_pos_as_xyz
  1  'x, y, z'
loop_
 _atom_site_type_symbol
 _atom_site_label
 _atom_site_symmetry_multiplicity
 _atom_site_fract_x
 _atom_site_fract_y
 _atom_site_fract_z
 _atom_site_occupancy
  Zr  Zr0  1  0.333333  0.666667  0.500000  1
  Zr  Zr1  1  0.666667  0.333333  0.500000  1
  Zr  Zr2  1  0.811134  0.999438  0.000000  1
  Zr  Zr3  1  0.000562  0.811695  0.000000  1
  Zr  Zr4  1  0.188305  0.188866  0.000000  1
  Fe  Fe5  1  0.623440  0.801975  0.500000  1
  Fe  Fe6  1  0.198025  0.821465  0.500000  1
  Fe  Fe7  1  0.178535  0.376560  0.500000  1
  Fe  Fe8  1  0.378917  0.182798  0.500000  1
  Fe  Fe9  1  0.803880  0.621083  0.500000  1
  Fe  Fe10  1  0.817202  0.196120  0.500000  1
  Fe  Fe11  1  0.283614  0.001453  0.000000  1
  Fe  Fe12  1  0.998547  0.282161  0.000000  1
  Fe  Fe13  1  0.717839  0.716386  0.000000  1
  Fe  Fe14  1  0.445316  0.002373  0.500000  1
  Fe  Fe15  1  0.997627  0.442943  0.500000  1
  Fe  Fe16  1  0.557057  0.554684  0.500000  1
  Fe  Fe17  1  0.513875  0.874853  0.000000  1
  Fe  Fe18  1  0.125147  0.639022  0.000000  1
  Fe  Fe19  1  0.360978  0.486125  0.000000  1
  Co  Co20  1  0.487192  0.362588  0.000000  1
  Co  Co21  1  0.875396  0.512808  0.000000  1
  Co  Co22  1  0.637412  0.124604  0.000000  1
  Co  Co23  1  0.000000  0.000000  0.500000  1
  P  P24  1  0.180719  0.001182  0.500000  1
  P  P25  1  0.998818  0.179537  0.500000  1
  P  P26  1  0.820463  0.819281  0.500000  1
  P  P27  1  0.520301  0.687713  0.000000  1
  P  P28  1  0.312287  0.832589  0.000000  1
  P  P29  1  0.167411  0.479699  0.000000  1
  P  P30  1  0.479149  0.167865  0.000000  1
  P  P31  1  0.688716  0.520851  0.000000  1
  P  P32  1  0.832135  0.311284  0.000000  1
  P  P33  1  0.631354  0.996971  0.500000  1
  P  P34  1  0.003029  0.634384  0.500000  1
  P  P35  1  0.365616  0.368646  0.500000  1
