# generated using pymatgen
data_Ho6Er6Tl2Fe2Ir
_symmetry_space_group_name_H-M   'P 1'
_cell_length_a   8.33642579
_cell_length_b   8.34429728
_cell_length_c   8.34429846
_cell_angle_alpha   108.74307620
_cell_angle_beta   108.64623671
_cell_angle_gamma   111.07514072
_symmetry_Int_Tables_number   1
_chemical_formula_structural   Ho6Er6Tl2Fe2Ir
_chemical_formula_sum   'Ho6 Er6 Tl2 Fe2 Ir1'
_cell_volume   446.35066860
_cell_formula_units_Z   1
loop_
 _symmetry_equiv_pos_site_id
 _symmetry_equiv_pos_as_xyz
  1  'x, y, z'
loop_
 _atom_site_type_symbol
 _atom_site_label
 _atom_site_symmetry_multiplicity
 _atom_site_fract_x
 _atom_site_fract_y
 _atom_site_fract_z
 _atom_site_occupancy
  Ho  Ho0  1  0.308381  0.307998  0.617184  1
  Ho  Ho1  1  0.691619  0.692002  0.382816  1
  Ho  Ho2  1  0.308381  0.691196  0.000384  1
  Ho  Ho3  1  0.691619  0.308804  0.999616  1
  Ho  Ho4  1  0.430828  0.192747  0.238080  1
  Ho  Ho5  1  0.569172  0.807253  0.761920  1
  Er  Er6  1  0.954431  0.192313  0.762118  1
  Er  Er7  1  0.191819  0.954422  0.762058  1
  Er  Er8  1  0.045569  0.807687  0.237882  1
  Er  Er9  1  0.808181  0.045578  0.237942  1
  Er  Er10  1  0.191819  0.429764  0.237398  1
  Er  Er11  1  0.808181  0.570236  0.762602  1
  Tl  Tl12  1  0.500000  0.000000  0.500000  1
  Tl  Tl13  1  0.000000  0.500000  0.500000  1
  Fe  Fe14  1  0.387018  0.386772  0.000247  1
  Fe  Fe15  1  0.612982  0.613228  0.999753  1
  Ir  Ir16  1  0.000000  0.000000  0.000000  1
