# generated using pymatgen
data_Ti6AlGa3O2
_symmetry_space_group_name_H-M   'P 1'
_cell_length_a   6.88383011
_cell_length_b   6.88248111
_cell_length_c   6.88284800
_cell_angle_alpha   90.00000000
_cell_angle_beta   90.00000000
_cell_angle_gamma   90.06519402
_symmetry_Int_Tables_number   1
_chemical_formula_structural   Ti6AlGa3O2
_chemical_formula_sum   'Ti12 Al2 Ga6 O4'
_cell_volume   326.09419653
_cell_formula_units_Z   2
loop_
 _symmetry_equiv_pos_site_id
 _symmetry_equiv_pos_as_xyz
  1  'x, y, z'
loop_
 _atom_site_type_symbol
 _atom_site_label
 _atom_site_symmetry_multiplicity
 _atom_site_fract_x
 _atom_site_fract_y
 _atom_site_fract_z
 _atom_site_occupancy
  Ti  Ti0  1  0.793158  0.958115  0.374767  1
  Ti  Ti1  1  0.706842  0.041885  0.874767  1
  Ti  Ti2  1  0.207712  0.458368  0.124491  1
  Ti  Ti3  1  0.292288  0.541632  0.624491  1
  Ti  Ti4  1  0.957972  0.373960  0.793129  1
  Ti  Ti5  1  0.041501  0.876423  0.707697  1
  Ti  Ti6  1  0.458499  0.123577  0.207697  1
  Ti  Ti7  1  0.542028  0.626040  0.293129  1
  Ti  Ti8  1  0.375358  0.792660  0.958309  1
  Ti  Ti9  1  0.875140  0.707214  0.042019  1
  Ti  Ti10  1  0.124642  0.207340  0.458309  1
  Ti  Ti11  1  0.624860  0.292786  0.542019  1
  Al  Al12  1  0.178852  0.821109  0.321153  1
  Al  Al13  1  0.321148  0.178891  0.821153  1
  Ga  Ga14  1  0.819497  0.319718  0.180361  1
  Ga  Ga15  1  0.680503  0.680282  0.680361  1
  Ga  Ga16  1  0.569413  0.429232  0.929676  1
  Ga  Ga17  1  0.429353  0.930678  0.569763  1
  Ga  Ga18  1  0.930587  0.570768  0.429676  1
  Ga  Ga19  1  0.070647  0.069322  0.069763  1
  O  O20  1  0.873393  0.125677  0.624805  1
  O  O21  1  0.626607  0.874323  0.124805  1
  O  O22  1  0.124459  0.625388  0.873832  1
  O  O23  1  0.375541  0.374612  0.373832  1
