# generated using pymatgen
data_Sm7Ho(OsI4)2
_symmetry_space_group_name_H-M   'P 1'
_cell_length_a   11.12396646
_cell_length_b   11.08363751
_cell_length_c   6.32956492
_cell_angle_alpha   90.06830892
_cell_angle_beta   90.15007212
_cell_angle_gamma   89.85524896
_symmetry_Int_Tables_number   1
_chemical_formula_structural   Sm7Ho(OsI4)2
_chemical_formula_sum   'Sm7 Ho1 Os2 I8'
_cell_volume   780.39173793
_cell_formula_units_Z   1
loop_
 _symmetry_equiv_pos_site_id
 _symmetry_equiv_pos_as_xyz
  1  'x, y, z'
loop_
 _atom_site_type_symbol
 _atom_site_label
 _atom_site_symmetry_multiplicity
 _atom_site_fract_x
 _atom_site_fract_y
 _atom_site_fract_z
 _atom_site_occupancy
  Sm  Sm0  1  0.082677  0.790801  0.499516  1
  Sm  Sm1  1  0.083272  0.208146  0.001297  1
  Sm  Sm2  1  0.207457  0.084078  0.501493  1
  Sm  Sm3  1  0.917212  0.792148  0.998527  1
  Sm  Sm4  1  0.914978  0.207835  0.500240  1
  Sm  Sm5  1  0.208839  0.915950  0.000829  1
  Sm  Sm6  1  0.791998  0.917288  0.498358  1
  Ho  Ho7  1  0.802160  0.080658  0.998857  1
  Os  Os8  1  0.000941  0.999632  0.249679  1
  Os  Os9  1  0.001028  0.999587  0.750094  1
  I  I10  1  0.633734  0.156845  0.501272  1
  I  I11  1  0.840859  0.633077  0.500208  1
  I  I12  1  0.365624  0.157961  0.000091  1
  I  I13  1  0.154296  0.368034  0.499855  1
  I  I14  1  0.635307  0.853444  0.999367  1
  I  I15  1  0.365438  0.842148  0.499930  1
  I  I16  1  0.156977  0.631890  0.000107  1
  I  I17  1  0.837203  0.360477  0.000282  1
