# generated using pymatgen
data_Er4TcB8Ru9
_symmetry_space_group_name_H-M   'P 1'
_cell_length_a   3.07593200
_cell_length_b   8.73826770
_cell_length_c   10.19330807
_cell_angle_alpha   90.10389409
_cell_angle_beta   90.00000000
_cell_angle_gamma   90.00000000
_symmetry_Int_Tables_number   1
_chemical_formula_structural   Er4TcB8Ru9
_chemical_formula_sum   'Er4 Tc1 B8 Ru9'
_cell_volume   273.97851762
_cell_formula_units_Z   1
loop_
 _symmetry_equiv_pos_site_id
 _symmetry_equiv_pos_as_xyz
  1  'x, y, z'
loop_
 _atom_site_type_symbol
 _atom_site_label
 _atom_site_symmetry_multiplicity
 _atom_site_fract_x
 _atom_site_fract_y
 _atom_site_fract_z
 _atom_site_occupancy
  Er  Er0  1  0.500000  0.839600  0.180873  1
  Er  Er1  1  0.500000  0.159901  0.818913  1
  Er  Er2  1  0.500000  0.660144  0.683312  1
  Er  Er3  1  0.500000  0.340009  0.316944  1
  Tc  Tc4  1  0.000000  0.656708  0.954743  1
  B  B5  1  0.500000  0.966716  0.588356  1
  B  B6  1  0.500000  0.033071  0.411416  1
  B  B7  1  0.500000  0.849976  0.901462  1
  B  B8  1  0.500000  0.148859  0.098624  1
  B  B9  1  0.500000  0.645355  0.399421  1
  B  B10  1  0.500000  0.352543  0.601062  1
  B  B11  1  0.500000  0.470831  0.911600  1
  B  B12  1  0.500000  0.538138  0.086016  1
  Ru  Ru13  1  0.000000  0.339513  0.046910  1
  Ru  Ru14  1  0.000000  0.842152  0.454456  1
  Ru  Ru15  1  0.000000  0.157577  0.545268  1
  Ru  Ru16  1  0.000000  0.000170  0.000257  1
  Ru  Ru17  1  0.000000  0.406270  0.760474  1
  Ru  Ru18  1  0.000000  0.592944  0.240056  1
  Ru  Ru19  1  0.000000  0.499193  0.500482  1
  Ru  Ru20  1  0.000000  0.908178  0.738535  1
  Ru  Ru21  1  0.000000  0.092154  0.260822  1
