# generated using pymatgen
data_SrMgMn3O8
_symmetry_space_group_name_H-M   'P 1'
_cell_length_a   5.87654000
_cell_length_b   6.90302881
_cell_length_c   10.17819500
_cell_angle_alpha   104.22417102
_cell_angle_beta   90.00086139
_cell_angle_gamma   64.80440472
_symmetry_Int_Tables_number   1
_chemical_formula_structural   SrMgMn3O8
_chemical_formula_sum   'Sr2 Mg2 Mn6 O16'
_cell_volume   359.56772059
_cell_formula_units_Z   2
loop_
 _symmetry_equiv_pos_site_id
 _symmetry_equiv_pos_as_xyz
  1  'x, y, z'
loop_
 _atom_site_type_symbol
 _atom_site_label
 _atom_site_symmetry_multiplicity
 _atom_site_fract_x
 _atom_site_fract_y
 _atom_site_fract_z
 _atom_site_occupancy
  Sr  Sr0  1  0.750003  0.499994  0.750013  1
  Sr  Sr1  1  0.250002  0.500007  0.249991  1
  Mg  Mg2  1  0.500005  0.999999  0.499998  1
  Mg  Mg3  1  0.000000  0.999996  0.000001  1
  Mn  Mn4  1  0.249997  0.999995  0.750010  1
  Mn  Mn5  1  0.750004  0.000008  0.249989  1
  Mn  Mn6  1  0.000005  0.000008  0.500007  1
  Mn  Mn7  1  0.499992  0.999999  0.999993  1
  Mn  Mn8  1  0.750004  0.999999  0.750009  1
  Mn  Mn9  1  0.249981  0.000012  0.249992  1
  O  O10  1  0.083168  0.833697  0.638944  1
  O  O11  1  0.583151  0.833721  0.138969  1
  O  O12  1  0.416841  0.166288  0.861036  1
  O  O13  1  0.916839  0.166287  0.361047  1
  O  O14  1  0.819830  0.830743  0.883534  1
  O  O15  1  0.319838  0.830755  0.383535  1
  O  O16  1  0.915377  0.169248  0.851653  1
  O  O17  1  0.415371  0.169269  0.351670  1
  O  O18  1  0.680169  0.169244  0.616462  1
  O  O19  1  0.180159  0.169261  0.116473  1
  O  O20  1  0.150554  0.169270  0.616458  1
  O  O21  1  0.650544  0.169277  0.116467  1
  O  O22  1  0.584639  0.830716  0.648326  1
  O  O23  1  0.084623  0.830756  0.148347  1
  O  O24  1  0.349458  0.830722  0.883537  1
  O  O25  1  0.849447  0.830730  0.383538  1
