# generated using pymatgen
data_Li2La6Cd21Si
_symmetry_space_group_name_H-M   'P 1'
_cell_length_a   10.17635386
_cell_length_b   10.17973479
_cell_length_c   10.17973500
_cell_angle_alpha   60.21516414
_cell_angle_beta   60.01099261
_cell_angle_gamma   60.01098536
_symmetry_Int_Tables_number   1
_chemical_formula_structural   Li2La6Cd21Si
_chemical_formula_sum   'Li2 La6 Cd21 Si1'
_cell_volume   747.00537023
_cell_formula_units_Z   1
loop_
 _symmetry_equiv_pos_site_id
 _symmetry_equiv_pos_as_xyz
  1  'x, y, z'
loop_
 _atom_site_type_symbol
 _atom_site_label
 _atom_site_symmetry_multiplicity
 _atom_site_fract_x
 _atom_site_fract_y
 _atom_site_fract_z
 _atom_site_occupancy
  Li  Li0  1  0.000000  0.500000  0.500000  1
  Li  Li1  1  0.500000  0.500000  0.500000  1
  La  La2  1  0.790149  0.794946  0.204526  1
  La  La3  1  0.209864  0.795458  0.205045  1
  La  La4  1  0.792721  0.207344  0.207324  1
  La  La5  1  0.209851  0.205054  0.795474  1
  La  La6  1  0.790136  0.204542  0.794955  1
  La  La7  1  0.207279  0.792656  0.792676  1
  Cd  Cd8  1  0.836701  0.820848  0.506159  1
  Cd  Cd9  1  0.836693  0.506151  0.820855  1
  Cd  Cd10  1  0.505884  0.830911  0.830903  1
  Cd  Cd11  1  0.832784  0.830778  0.830779  1
  Cd  Cd12  1  0.163299  0.179152  0.493841  1
  Cd  Cd13  1  0.163307  0.493849  0.179145  1
  Cd  Cd14  1  0.494116  0.169089  0.169097  1
  Cd  Cd15  1  0.167216  0.169222  0.169221  1
  Cd  Cd16  1  0.618473  0.615193  0.148624  1
  Cd  Cd17  1  0.618459  0.148616  0.615205  1
  Cd  Cd18  1  0.147660  0.613278  0.613300  1
  Cd  Cd19  1  0.626040  0.612863  0.612853  1
  Cd  Cd20  1  0.381527  0.384807  0.851376  1
  Cd  Cd21  1  0.381541  0.851384  0.384795  1
  Cd  Cd22  1  0.852340  0.386722  0.386700  1
  Cd  Cd23  1  0.373960  0.387137  0.387147  1
  Cd  Cd24  1  0.000000  0.000000  0.500000  1
  Cd  Cd25  1  0.500000  0.000000  0.500000  1
  Cd  Cd26  1  0.500000  0.500000  0.000000  1
  Cd  Cd27  1  0.000000  0.500000  0.000000  1
  Cd  Cd28  1  0.500000  0.000000  0.000000  1
  Si  Si29  1  0.000000  0.000000  0.000000  1
