# generated using pymatgen
data_DyY(Mn5P3)2
_symmetry_space_group_name_H-M   'P 1'
_cell_length_a   3.59627600
_cell_length_b   10.73517559
_cell_length_c   12.21602295
_cell_angle_alpha   90.07960731
_cell_angle_beta   90.00000000
_cell_angle_gamma   90.00000000
_symmetry_Int_Tables_number   1
_chemical_formula_structural   DyY(Mn5P3)2
_chemical_formula_sum   'Dy2 Y2 Mn20 P12'
_cell_volume   471.61932003
_cell_formula_units_Z   2
loop_
 _symmetry_equiv_pos_site_id
 _symmetry_equiv_pos_as_xyz
  1  'x, y, z'
loop_
 _atom_site_type_symbol
 _atom_site_label
 _atom_site_symmetry_multiplicity
 _atom_site_fract_x
 _atom_site_fract_y
 _atom_site_fract_z
 _atom_site_occupancy
  Dy  Dy0  1  0.750000  0.086926  0.794342  1
  Dy  Dy1  1  0.250000  0.913074  0.205658  1
  Y  Y2  1  0.250000  0.587104  0.705822  1
  Y  Y3  1  0.750000  0.412896  0.294178  1
  Mn  Mn4  1  0.250000  0.409870  0.493787  1
  Mn  Mn5  1  0.750000  0.711799  0.319741  1
  Mn  Mn6  1  0.750000  0.788478  0.819986  1
  Mn  Mn7  1  0.250000  0.288201  0.680259  1
  Mn  Mn8  1  0.250000  0.617847  0.192409  1
  Mn  Mn9  1  0.750000  0.382153  0.807591  1
  Mn  Mn10  1  0.750000  0.117564  0.307429  1
  Mn  Mn11  1  0.250000  0.882436  0.692571  1
  Mn  Mn12  1  0.250000  0.033320  0.434514  1
  Mn  Mn13  1  0.750000  0.966680  0.565486  1
  Mn  Mn14  1  0.750000  0.533495  0.065600  1
  Mn  Mn15  1  0.250000  0.466505  0.934400  1
  Mn  Mn16  1  0.750000  0.910134  0.006312  1
  Mn  Mn17  1  0.250000  0.089866  0.993688  1
  Mn  Mn18  1  0.250000  0.716807  0.982234  1
  Mn  Mn19  1  0.750000  0.283193  0.017766  1
  Mn  Mn20  1  0.750000  0.216606  0.517898  1
  Mn  Mn21  1  0.250000  0.783394  0.482102  1
  Mn  Mn22  1  0.250000  0.211522  0.180014  1
  Mn  Mn23  1  0.750000  0.590130  0.506213  1
  P  P24  1  0.250000  0.591552  0.383508  1
  P  P25  1  0.750000  0.408448  0.616492  1
  P  P26  1  0.750000  0.091183  0.116385  1
  P  P27  1  0.250000  0.908817  0.883615  1
  P  P28  1  0.750000  0.765100  0.624380  1
  P  P29  1  0.250000  0.234900  0.375620  1
  P  P30  1  0.250000  0.410574  0.115252  1
  P  P31  1  0.750000  0.589426  0.884748  1
  P  P32  1  0.750000  0.910635  0.384492  1
  P  P33  1  0.250000  0.089365  0.615508  1
  P  P34  1  0.250000  0.264728  0.875557  1
  P  P35  1  0.750000  0.735272  0.124443  1
