# generated using pymatgen
data_Cs2Ag(SeO4)2
_symmetry_space_group_name_H-M   'P 1'
_cell_length_a   7.13020502
_cell_length_b   7.13020517
_cell_length_c   8.95778102
_cell_angle_alpha   65.89260578
_cell_angle_beta   65.89260333
_cell_angle_gamma   46.22362170
_symmetry_Int_Tables_number   1
_chemical_formula_structural   Cs2Ag(SeO4)2
_chemical_formula_sum   'Cs2 Ag1 Se2 O8'
_cell_volume   294.62409489
_cell_formula_units_Z   1
loop_
 _symmetry_equiv_pos_site_id
 _symmetry_equiv_pos_as_xyz
  1  'x, y, z'
loop_
 _atom_site_type_symbol
 _atom_site_label
 _atom_site_symmetry_multiplicity
 _atom_site_fract_x
 _atom_site_fract_y
 _atom_site_fract_z
 _atom_site_occupancy
  Cs  Cs0  1  0.987274  0.987274  0.022525  1
  Cs  Cs1  1  0.748946  0.748946  0.611869  1
  Ag  Ag2  1  0.037320  0.037320  0.480405  1
  Se  Se3  1  0.430206  0.430206  0.749977  1
  Se  Se4  1  0.614930  0.614930  0.225523  1
  O  O5  1  0.274819  0.761812  0.674104  1
  O  O6  1  0.772048  0.284708  0.306673  1
  O  O7  1  0.284708  0.772048  0.306673  1
  O  O8  1  0.761812  0.274819  0.674104  1
  O  O9  1  0.389866  0.389866  0.952630  1
  O  O10  1  0.651417  0.651417  0.023342  1
  O  O11  1  0.326115  0.326115  0.693063  1
  O  O12  1  0.720537  0.720537  0.279112  1
