# generated using pymatgen
data_HfTi(NbSe2)8
_symmetry_space_group_name_H-M   'P 1'
_cell_length_a   7.01113100
_cell_length_b   7.01113027
_cell_length_c   13.16364900
_cell_angle_alpha   90.00000000
_cell_angle_beta   90.00000000
_cell_angle_gamma   119.99999873
_symmetry_Int_Tables_number   1
_chemical_formula_structural   HfTi(NbSe2)8
_chemical_formula_sum   'Hf1 Ti1 Nb8 Se16'
_cell_volume   560.38054488
_cell_formula_units_Z   1
loop_
 _symmetry_equiv_pos_site_id
 _symmetry_equiv_pos_as_xyz
  1  'x, y, z'
loop_
 _atom_site_type_symbol
 _atom_site_label
 _atom_site_symmetry_multiplicity
 _atom_site_fract_x
 _atom_site_fract_y
 _atom_site_fract_z
 _atom_site_occupancy
  Hf  Hf0  1  0.000000  0.000000  0.500000  1
  Ti  Ti1  1  0.000000  0.000000  0.000000  1
  Nb  Nb2  1  0.000000  0.000000  0.246260  1
  Nb  Nb3  1  0.000000  0.000000  0.753740  1
  Nb  Nb4  1  0.506789  0.013577  0.245350  1
  Nb  Nb5  1  0.986423  0.493211  0.245350  1
  Nb  Nb6  1  0.506789  0.493211  0.245350  1
  Nb  Nb7  1  0.493211  0.986423  0.754650  1
  Nb  Nb8  1  0.013577  0.506789  0.754650  1
  Nb  Nb9  1  0.493211  0.506789  0.754650  1
  Se  Se10  1  0.333333  0.666667  0.884924  1
  Se  Se11  1  0.666667  0.333333  0.115076  1
  Se  Se12  1  0.666667  0.333333  0.376077  1
  Se  Se13  1  0.333333  0.666667  0.623923  1
  Se  Se14  1  0.169718  0.830282  0.373330  1
  Se  Se15  1  0.169718  0.339435  0.373330  1
  Se  Se16  1  0.660565  0.830282  0.373330  1
  Se  Se17  1  0.830282  0.169718  0.626670  1
  Se  Se18  1  0.830282  0.660565  0.626670  1
  Se  Se19  1  0.339435  0.169718  0.626670  1
  Se  Se20  1  0.832008  0.167992  0.880866  1
  Se  Se21  1  0.832008  0.664018  0.880866  1
  Se  Se22  1  0.335982  0.167992  0.880866  1
  Se  Se23  1  0.167992  0.832008  0.119134  1
  Se  Se24  1  0.167992  0.335982  0.119134  1
  Se  Se25  1  0.664018  0.832008  0.119134  1
