# generated using pymatgen
data_GdY3(ZnSn)4
_symmetry_space_group_name_H-M   'P 1'
_cell_length_a   4.54438900
_cell_length_b   4.54438984
_cell_length_c   16.03503300
_cell_angle_alpha   90.00000000
_cell_angle_beta   90.00000000
_cell_angle_gamma   120.00000116
_symmetry_Int_Tables_number   1
_chemical_formula_structural   GdY3(ZnSn)4
_chemical_formula_sum   'Gd1 Y3 Zn4 Sn4'
_cell_volume   286.78178580
_cell_formula_units_Z   1
loop_
 _symmetry_equiv_pos_site_id
 _symmetry_equiv_pos_as_xyz
  1  'x, y, z'
loop_
 _atom_site_type_symbol
 _atom_site_label
 _atom_site_symmetry_multiplicity
 _atom_site_fract_x
 _atom_site_fract_y
 _atom_site_fract_z
 _atom_site_occupancy
  Gd  Gd0  1  0.000000  0.000000  0.000000  1
  Y  Y1  1  0.000000  0.000000  0.252594  1
  Y  Y2  1  0.000000  0.000000  0.500000  1
  Y  Y3  1  0.000000  0.000000  0.747406  1
  Zn  Zn4  1  0.666667  0.333333  0.836350  1
  Zn  Zn5  1  0.333333  0.666667  0.341590  1
  Zn  Zn6  1  0.666667  0.333333  0.658410  1
  Zn  Zn7  1  0.333333  0.666667  0.163650  1
  Sn  Sn8  1  0.333333  0.666667  0.611751  1
  Sn  Sn9  1  0.666667  0.333333  0.116369  1
  Sn  Sn10  1  0.666667  0.333333  0.388249  1
  Sn  Sn11  1  0.333333  0.666667  0.883631  1
