# generated using pymatgen
data_Tm2V2Ni10P7
_symmetry_space_group_name_H-M   'P 1'
_cell_length_a   9.08520138
_cell_length_b   9.09357308
_cell_length_c   3.63983100
_cell_angle_alpha   90.00000000
_cell_angle_beta   90.00000000
_cell_angle_gamma   119.85086986
_symmetry_Int_Tables_number   1
_chemical_formula_structural   Tm2V2Ni10P7
_chemical_formula_sum   'Tm2 V2 Ni10 P7'
_cell_volume   260.81444475
_cell_formula_units_Z   1
loop_
 _symmetry_equiv_pos_site_id
 _symmetry_equiv_pos_as_xyz
  1  'x, y, z'
loop_
 _atom_site_type_symbol
 _atom_site_label
 _atom_site_symmetry_multiplicity
 _atom_site_fract_x
 _atom_site_fract_y
 _atom_site_fract_z
 _atom_site_occupancy
  Tm  Tm0  1  0.336252  0.671230  0.000000  1
  Tm  Tm1  1  0.999545  0.998221  0.500000  1
  V  V2  1  0.450605  0.236056  0.500000  1
  V  V3  1  0.784190  0.547852  0.500000  1
  Ni  Ni4  1  0.732098  0.961355  0.000000  1
  Ni  Ni5  1  0.230800  0.271703  0.000000  1
  Ni  Ni6  1  0.038535  0.766148  0.000000  1
  Ni  Ni7  1  0.947763  0.455109  0.000000  1
  Ni  Ni8  1  0.513477  0.054870  0.000000  1
  Ni  Ni9  1  0.539380  0.490637  0.000000  1
  Ni  Ni10  1  0.100956  0.383500  0.500000  1
  Ni  Ni11  1  0.282548  0.896262  0.500000  1
  Ni  Ni12  1  0.613446  0.718294  0.500000  1
  Ni  Ni13  1  0.764218  0.211192  0.500000  1
  P  P14  1  0.959209  0.217164  0.000000  1
  P  P15  1  0.257453  0.038923  0.000000  1
  P  P16  1  0.780427  0.741346  0.000000  1
  P  P17  1  0.073512  0.625868  0.500000  1
  P  P18  1  0.553164  0.930540  0.500000  1
  P  P19  1  0.375074  0.449634  0.500000  1
  P  P20  1  0.667350  0.334087  0.000000  1
