# generated using pymatgen
data_Nd2Ta3As7Rh9
_symmetry_space_group_name_H-M   'P 1'
_cell_length_a   4.04382400
_cell_length_b   9.98692167
_cell_length_c   9.99092428
_cell_angle_alpha   119.98885092
_cell_angle_beta   90.00053508
_cell_angle_gamma   89.99976680
_symmetry_Int_Tables_number   1
_chemical_formula_structural   Nd2Ta3As7Rh9
_chemical_formula_sum   'Nd2 Ta3 As7 Rh9'
_cell_volume   349.46925011
_cell_formula_units_Z   1
loop_
 _symmetry_equiv_pos_site_id
 _symmetry_equiv_pos_as_xyz
  1  'x, y, z'
loop_
 _atom_site_type_symbol
 _atom_site_label
 _atom_site_symmetry_multiplicity
 _atom_site_fract_x
 _atom_site_fract_y
 _atom_site_fract_z
 _atom_site_occupancy
  Nd  Nd0  1  0.261777  0.666653  0.333319  1
  Nd  Nd1  1  0.761944  0.333317  0.666672  1
  Ta  Ta2  1  0.762005  0.096311  0.877496  1
  Ta  Ta3  1  0.762000  0.122440  0.218811  1
  Ta  Ta4  1  0.762004  0.781116  0.903687  1
  As  As5  1  0.262055  0.000005  0.000052  1
  As  As6  1  0.761720  0.881642  0.590430  1
  As  As7  1  0.761735  0.409612  0.291231  1
  As  As8  1  0.761710  0.708720  0.118363  1
  As  As9  1  0.261904  0.115843  0.414416  1
  As  As10  1  0.261914  0.585605  0.701343  1
  As  As11  1  0.261881  0.298671  0.884240  1
  Rh  Rh12  1  0.261905  0.883175  0.158786  1
  Rh  Rh13  1  0.261919  0.841355  0.724483  1
  Rh  Rh14  1  0.261904  0.275581  0.116896  1
  Rh  Rh15  1  0.761939  0.614790  0.565303  1
  Rh  Rh16  1  0.761929  0.434614  0.049418  1
  Rh  Rh17  1  0.761931  0.950345  0.385122  1
  Rh  Rh18  1  0.261954  0.367803  0.434177  1
  Rh  Rh19  1  0.261927  0.565889  0.933512  1
  Rh  Rh20  1  0.261943  0.066515  0.632241  1
