# generated using pymatgen
data_TmTiGa4Mo
_symmetry_space_group_name_H-M   'P 1'
_cell_length_a   5.43461337
_cell_length_b   5.43461436
_cell_length_c   5.43461446
_cell_angle_alpha   104.24411195
_cell_angle_beta   104.24410898
_cell_angle_gamma   120.52357122
_symmetry_Int_Tables_number   1
_chemical_formula_structural   TmTiGa4Mo
_chemical_formula_sum   'Tm1 Ti1 Ga4 Mo1'
_cell_volume   120.05808808
_cell_formula_units_Z   1
loop_
 _symmetry_equiv_pos_site_id
 _symmetry_equiv_pos_as_xyz
  1  'x, y, z'
loop_
 _atom_site_type_symbol
 _atom_site_label
 _atom_site_symmetry_multiplicity
 _atom_site_fract_x
 _atom_site_fract_y
 _atom_site_fract_z
 _atom_site_occupancy
  Tm  Tm0  1  0.000000  0.000000  0.000000  1
  Ti  Ti1  1  0.750000  0.250000  0.500000  1
  Ga  Ga2  1  0.304509  0.304509  0.609016  1
  Ga  Ga3  1  0.695491  0.695491  0.390984  1
  Ga  Ga4  1  0.695491  0.304509  0.000000  1
  Ga  Ga5  1  0.304509  0.695491  0.000000  1
  Mo  Mo6  1  0.250000  0.750000  0.500000  1
