# generated using pymatgen
data_ZnGa3Co4
_symmetry_space_group_name_H-M   'P 1'
_cell_length_a   7.06196203
_cell_length_b   7.06196288
_cell_length_c   7.06196284
_cell_angle_alpha   33.51364917
_cell_angle_beta   33.51363956
_cell_angle_gamma   33.51364206
_symmetry_Int_Tables_number   1
_chemical_formula_structural   ZnGa3Co4
_chemical_formula_sum   'Zn1 Ga3 Co4'
_cell_volume   95.62675201
_cell_formula_units_Z   1
loop_
 _symmetry_equiv_pos_site_id
 _symmetry_equiv_pos_as_xyz
  1  'x, y, z'
loop_
 _atom_site_type_symbol
 _atom_site_label
 _atom_site_symmetry_multiplicity
 _atom_site_fract_x
 _atom_site_fract_y
 _atom_site_fract_z
 _atom_site_occupancy
  Zn  Zn0  1  0.000000  0.000000  0.000000  1
  Ga  Ga1  1  0.500000  0.500000  0.500000  1
  Ga  Ga2  1  0.252306  0.252306  0.252306  1
  Ga  Ga3  1  0.747694  0.747694  0.747694  1
  Co  Co4  1  0.623245  0.623245  0.623245  1
  Co  Co5  1  0.126487  0.126487  0.126487  1
  Co  Co6  1  0.873513  0.873513  0.873513  1
  Co  Co7  1  0.376755  0.376755  0.376755  1
