# generated using pymatgen
data_AcLa8Yb11Sn16
_symmetry_space_group_name_H-M   'P 1'
_cell_length_a   8.05603216
_cell_length_b   8.58474021
_cell_length_c   16.18953500
_cell_angle_alpha   90.00122804
_cell_angle_beta   90.01136523
_cell_angle_gamma   90.06892364
_symmetry_Int_Tables_number   1
_chemical_formula_structural   AcLa8Yb11Sn16
_chemical_formula_sum   'Ac1 La8 Yb11 Sn16'
_cell_volume   1119.65029961
_cell_formula_units_Z   1
loop_
 _symmetry_equiv_pos_site_id
 _symmetry_equiv_pos_as_xyz
  1  'x, y, z'
loop_
 _atom_site_type_symbol
 _atom_site_label
 _atom_site_symmetry_multiplicity
 _atom_site_fract_x
 _atom_site_fract_y
 _atom_site_fract_z
 _atom_site_occupancy
  Ac  Ac0  1  0.992521  0.180672  0.905850  1
  La  La1  1  0.829450  0.673471  0.875618  1
  La  La2  1  0.488815  0.314269  0.904647  1
  La  La3  1  0.991172  0.185053  0.594004  1
  La  La4  1  0.509740  0.685490  0.404006  1
  La  La5  1  0.011515  0.814039  0.100866  1
  La  La6  1  0.507930  0.684608  0.098646  1
  La  La7  1  0.009049  0.814383  0.403401  1
  La  La8  1  0.489767  0.315059  0.592232  1
  Yb  Yb9  1  0.327521  0.829134  0.876257  1
  Yb  Yb10  1  0.827036  0.669830  0.621266  1
  Yb  Yb11  1  0.672793  0.170502  0.376425  1
  Yb  Yb12  1  0.175311  0.330367  0.125861  1
  Yb  Yb13  1  0.670932  0.171135  0.125061  1
  Yb  Yb14  1  0.172837  0.329073  0.376543  1
  Yb  Yb15  1  0.327856  0.828218  0.621305  1
  Yb  Yb16  1  0.156616  0.501701  0.747439  1
  Yb  Yb17  1  0.655188  0.996488  0.746737  1
  Yb  Yb18  1  0.844338  0.494899  0.251556  1
  Yb  Yb19  1  0.343981  0.005907  0.251188  1
  Sn  Sn20  1  0.331543  0.036129  0.041460  1
  Sn  Sn21  1  0.833543  0.464281  0.459457  1
  Sn  Sn22  1  0.666789  0.964720  0.538914  1
  Sn  Sn23  1  0.170315  0.538267  0.962768  1
  Sn  Sn24  1  0.658668  0.962631  0.962386  1
  Sn  Sn25  1  0.165228  0.534674  0.538860  1
  Sn  Sn26  1  0.333433  0.035388  0.459894  1
  Sn  Sn27  1  0.834073  0.466595  0.043586  1
  Sn  Sn28  1  0.526205  0.606349  0.748273  1
  Sn  Sn29  1  0.030419  0.894191  0.746966  1
  Sn  Sn30  1  0.472843  0.395246  0.251395  1
  Sn  Sn31  1  0.972580  0.105918  0.250361  1
  Sn  Sn32  1  0.285364  0.139089  0.746894  1
  Sn  Sn33  1  0.777761  0.361158  0.747873  1
  Sn  Sn34  1  0.717331  0.861498  0.250603  1
  Sn  Sn35  1  0.219538  0.639564  0.251398  1
