# generated using pymatgen
data_Zr9(PaNi4)5
_symmetry_space_group_name_H-M   'P 1'
_cell_length_a   7.82271685
_cell_length_b   7.82271676
_cell_length_c   9.28902305
_cell_angle_alpha   90.04836798
_cell_angle_beta   90.04836983
_cell_angle_gamma   106.51536964
_symmetry_Int_Tables_number   1
_chemical_formula_structural   Zr9(PaNi4)5
_chemical_formula_sum   'Zr9 Pa5 Ni20'
_cell_volume   544.98840562
_cell_formula_units_Z   1
loop_
 _symmetry_equiv_pos_site_id
 _symmetry_equiv_pos_as_xyz
  1  'x, y, z'
loop_
 _atom_site_type_symbol
 _atom_site_label
 _atom_site_symmetry_multiplicity
 _atom_site_fract_x
 _atom_site_fract_y
 _atom_site_fract_z
 _atom_site_occupancy
  Zr  Zr0  1  0.187359  0.812641  0.500000  1
  Zr  Zr1  1  0.006029  0.506271  0.253502  1
  Zr  Zr2  1  0.999433  0.500112  0.747038  1
  Zr  Zr3  1  0.493729  0.993971  0.746498  1
  Zr  Zr4  1  0.499888  0.000567  0.252962  1
  Zr  Zr5  1  0.306446  0.306011  0.193963  1
  Zr  Zr6  1  0.693989  0.693554  0.806037  1
  Zr  Zr7  1  0.190180  0.186923  0.689972  1
  Zr  Zr8  1  0.813077  0.809820  0.310028  1
  Pa  Pa9  1  0.687692  0.312308  0.000000  1
  Pa  Pa10  1  0.311976  0.688024  0.000000  1
  Pa  Pa11  1  0.812796  0.187204  0.500000  1
  Pa  Pa12  1  0.999094  0.000906  0.000000  1
  Pa  Pa13  1  0.498161  0.501839  0.500000  1
  Ni  Ni14  1  0.862485  0.153158  0.205356  1
  Ni  Ni15  1  0.135885  0.847239  0.795638  1
  Ni  Ni16  1  0.637184  0.347538  0.705404  1
  Ni  Ni17  1  0.652462  0.362816  0.294596  1
  Ni  Ni18  1  0.364624  0.652634  0.293570  1
  Ni  Ni19  1  0.347366  0.635376  0.706430  1
  Ni  Ni20  1  0.846842  0.137515  0.794644  1
  Ni  Ni21  1  0.152761  0.864115  0.204362  1
  Ni  Ni22  1  0.940216  0.650567  0.006829  1
  Ni  Ni23  1  0.058787  0.350898  0.993606  1
  Ni  Ni24  1  0.560622  0.849551  0.506251  1
  Ni  Ni25  1  0.150449  0.439378  0.493749  1
  Ni  Ni26  1  0.442681  0.151240  0.493885  1
  Ni  Ni27  1  0.848760  0.557319  0.506115  1
  Ni  Ni28  1  0.349433  0.059784  0.993171  1
  Ni  Ni29  1  0.649102  0.941213  0.006394  1
  Ni  Ni30  1  0.103328  0.104040  0.397905  1
  Ni  Ni31  1  0.895960  0.896672  0.602095  1
  Ni  Ni32  1  0.396797  0.395595  0.896143  1
  Ni  Ni33  1  0.604405  0.603203  0.103857  1
