# generated using pymatgen
data_Tb10Sn6SCl
_symmetry_space_group_name_H-M   'P 1'
_cell_length_a   9.08762200
_cell_length_b   9.08762192
_cell_length_c   6.64251500
_cell_angle_alpha   90.00000000
_cell_angle_beta   90.00000000
_cell_angle_gamma   119.99999300
_symmetry_Int_Tables_number   1
_chemical_formula_structural   Tb10Sn6SCl
_chemical_formula_sum   'Tb10 Sn6 S1 Cl1'
_cell_volume   475.07667793
_cell_formula_units_Z   1
loop_
 _symmetry_equiv_pos_site_id
 _symmetry_equiv_pos_as_xyz
  1  'x, y, z'
loop_
 _atom_site_type_symbol
 _atom_site_label
 _atom_site_symmetry_multiplicity
 _atom_site_fract_x
 _atom_site_fract_y
 _atom_site_fract_z
 _atom_site_occupancy
  Tb  Tb0  1  0.666667  0.333333  0.000000  1
  Tb  Tb1  1  0.333333  0.666667  0.000000  1
  Tb  Tb2  1  0.333333  0.666667  0.500000  1
  Tb  Tb3  1  0.666667  0.333333  0.500000  1
  Tb  Tb4  1  0.747639  0.747639  0.741691  1
  Tb  Tb5  1  0.252361  0.000000  0.741691  1
  Tb  Tb6  1  0.000000  0.252361  0.741691  1
  Tb  Tb7  1  0.252361  0.252361  0.258309  1
  Tb  Tb8  1  0.747639  0.000000  0.258309  1
  Tb  Tb9  1  0.000000  0.747639  0.258309  1
  Sn  Sn10  1  0.394747  0.394747  0.750115  1
  Sn  Sn11  1  0.605253  0.000000  0.750115  1
  Sn  Sn12  1  0.000000  0.605253  0.750115  1
  Sn  Sn13  1  0.605253  0.605253  0.249885  1
  Sn  Sn14  1  0.394747  0.000000  0.249885  1
  Sn  Sn15  1  0.000000  0.394747  0.249885  1
  S  S16  1  0.000000  0.000000  0.500000  1
  Cl  Cl17  1  0.000000  0.000000  0.000000  1
