# generated using pymatgen
data_Tb5Ho3(Sc3Sn4)4
_symmetry_space_group_name_H-M   'P 1'
_cell_length_a   7.71034975
_cell_length_b   7.91287106
_cell_length_c   14.83985800
_cell_angle_alpha   89.99942797
_cell_angle_beta   89.97469737
_cell_angle_gamma   90.00714645
_symmetry_Int_Tables_number   1
_chemical_formula_structural   Tb5Ho3(Sc3Sn4)4
_chemical_formula_sum   'Tb5 Ho3 Sc12 Sn16'
_cell_volume   905.39453195
_cell_formula_units_Z   1
loop_
 _symmetry_equiv_pos_site_id
 _symmetry_equiv_pos_as_xyz
  1  'x, y, z'
loop_
 _atom_site_type_symbol
 _atom_site_label
 _atom_site_symmetry_multiplicity
 _atom_site_fract_x
 _atom_site_fract_y
 _atom_site_fract_z
 _atom_site_occupancy
  Tb  Tb0  1  0.994488  0.176802  0.094147  1
  Tb  Tb1  1  0.005569  0.823189  0.905807  1
  Tb  Tb2  1  0.505496  0.676805  0.906041  1
  Tb  Tb3  1  0.005559  0.823115  0.593841  1
  Tb  Tb4  1  0.494518  0.323181  0.094145  1
  Ho  Ho5  1  0.994461  0.177070  0.405925  1
  Ho  Ho6  1  0.494302  0.323055  0.405925  1
  Ho  Ho7  1  0.505703  0.676958  0.593911  1
  Sc  Sc8  1  0.166341  0.495850  0.749883  1
  Sc  Sc9  1  0.833658  0.504140  0.250140  1
  Sc  Sc10  1  0.333699  0.995888  0.250143  1
  Sc  Sc11  1  0.666268  0.004163  0.749902  1
  Sc  Sc12  1  0.337067  0.161457  0.627031  1
  Sc  Sc13  1  0.663024  0.838597  0.372879  1
  Sc  Sc14  1  0.163156  0.661270  0.372896  1
  Sc  Sc15  1  0.663176  0.838750  0.127318  1
  Sc  Sc16  1  0.836999  0.338675  0.626981  1
  Sc  Sc17  1  0.336903  0.161255  0.872793  1
  Sc  Sc18  1  0.836841  0.338720  0.872832  1
  Sc  Sc19  1  0.163176  0.661320  0.127303  1
  Sn  Sn20  1  0.028941  0.124549  0.749862  1
  Sn  Sn21  1  0.971053  0.875679  0.250214  1
  Sn  Sn22  1  0.471025  0.624310  0.250167  1
  Sn  Sn23  1  0.529071  0.375753  0.749803  1
  Sn  Sn24  1  0.309004  0.849438  0.749571  1
  Sn  Sn25  1  0.691335  0.150583  0.250685  1
  Sn  Sn26  1  0.191258  0.349437  0.250681  1
  Sn  Sn27  1  0.808230  0.650094  0.749711  1
  Sn  Sn28  1  0.182418  0.457260  0.542232  1
  Sn  Sn29  1  0.817586  0.541899  0.457420  1
  Sn  Sn30  1  0.318512  0.957931  0.457338  1
  Sn  Sn31  1  0.819199  0.542801  0.042601  1
  Sn  Sn32  1  0.681141  0.042745  0.542229  1
  Sn  Sn33  1  0.180743  0.457229  0.957542  1
  Sn  Sn34  1  0.680848  0.042713  0.957508  1
  Sn  Sn35  1  0.319232  0.957323  0.042595  1
