# generated using pymatgen
data_Ta12Al3C8
_symmetry_space_group_name_H-M   'P 1'
_cell_length_a   5.44263900
_cell_length_b   5.44263906
_cell_length_c   24.37683700
_cell_angle_alpha   90.00000000
_cell_angle_beta   90.00000000
_cell_angle_gamma   119.99999353
_symmetry_Int_Tables_number   1
_chemical_formula_structural   Ta12Al3C8
_chemical_formula_sum   'Ta24 Al6 C16'
_cell_volume   625.35564873
_cell_formula_units_Z   2
loop_
 _symmetry_equiv_pos_site_id
 _symmetry_equiv_pos_as_xyz
  1  'x, y, z'
loop_
 _atom_site_type_symbol
 _atom_site_label
 _atom_site_symmetry_multiplicity
 _atom_site_fract_x
 _atom_site_fract_y
 _atom_site_fract_z
 _atom_site_occupancy
  Ta  Ta0  1  0.345796  0.000000  0.554120  1
  Ta  Ta1  1  0.654204  0.000000  0.445880  1
  Ta  Ta2  1  0.000000  0.345796  0.554120  1
  Ta  Ta3  1  0.654204  0.000000  0.054120  1
  Ta  Ta4  1  0.000000  0.345796  0.945880  1
  Ta  Ta5  1  0.000000  0.654204  0.445880  1
  Ta  Ta6  1  0.345796  0.000000  0.945880  1
  Ta  Ta7  1  0.000000  0.654204  0.054120  1
  Ta  Ta8  1  0.654204  0.654204  0.554120  1
  Ta  Ta9  1  0.345796  0.345796  0.445880  1
  Ta  Ta10  1  0.345796  0.345796  0.054120  1
  Ta  Ta11  1  0.654204  0.654204  0.945880  1
  Ta  Ta12  1  0.000000  0.000000  0.656126  1
  Ta  Ta13  1  0.000000  0.000000  0.343874  1
  Ta  Ta14  1  0.000000  0.000000  0.156126  1
  Ta  Ta15  1  0.000000  0.000000  0.843874  1
  Ta  Ta16  1  0.333333  0.666667  0.658611  1
  Ta  Ta17  1  0.666667  0.333333  0.341389  1
  Ta  Ta18  1  0.666667  0.333333  0.158611  1
  Ta  Ta19  1  0.666667  0.333333  0.841389  1
  Ta  Ta20  1  0.333333  0.666667  0.841389  1
  Ta  Ta21  1  0.333333  0.666667  0.158611  1
  Ta  Ta22  1  0.333333  0.666667  0.341389  1
  Ta  Ta23  1  0.666667  0.333333  0.658611  1
  Al  Al24  1  0.327676  0.000000  0.750000  1
  Al  Al25  1  0.672324  0.000000  0.250000  1
  Al  Al26  1  0.000000  0.327676  0.750000  1
  Al  Al27  1  0.000000  0.672324  0.250000  1
  Al  Al28  1  0.672324  0.672324  0.750000  1
  Al  Al29  1  0.327676  0.327676  0.250000  1
  C  C30  1  0.663729  0.000000  0.607075  1
  C  C31  1  0.336271  0.000000  0.392925  1
  C  C32  1  0.000000  0.663729  0.607075  1
  C  C33  1  0.336271  0.000000  0.107075  1
  C  C34  1  0.000000  0.663729  0.892925  1
  C  C35  1  0.000000  0.336271  0.392925  1
  C  C36  1  0.663729  0.000000  0.892925  1
  C  C37  1  0.000000  0.336271  0.107075  1
  C  C38  1  0.336271  0.336271  0.607075  1
  C  C39  1  0.663729  0.663729  0.392925  1
  C  C40  1  0.663729  0.663729  0.107075  1
  C  C41  1  0.336271  0.336271  0.892925  1
  C  C42  1  0.333333  0.666667  0.500000  1
  C  C43  1  0.666667  0.333333  0.500000  1
  C  C44  1  0.666667  0.333333  0.000000  1
  C  C45  1  0.333333  0.666667  0.000000  1
