# generated using pymatgen
data_Ba2EuWN4
_symmetry_space_group_name_H-M   'P 1'
_cell_length_a   11.00825405
_cell_length_b   10.68648099
_cell_length_c   8.22853498
_cell_angle_alpha   69.79963383
_cell_angle_beta   65.65204951
_cell_angle_gamma   44.54830750
_symmetry_Int_Tables_number   1
_chemical_formula_structural   Ba2EuWN4
_chemical_formula_sum   'Ba8 Eu4 W4 N16'
_cell_volume   616.65463064
_cell_formula_units_Z   4
loop_
 _symmetry_equiv_pos_site_id
 _symmetry_equiv_pos_as_xyz
  1  'x, y, z'
loop_
 _atom_site_type_symbol
 _atom_site_label
 _atom_site_symmetry_multiplicity
 _atom_site_fract_x
 _atom_site_fract_y
 _atom_site_fract_z
 _atom_site_occupancy
  Ba  Ba0  1  0.568130  0.931870  0.931870  1
  Ba  Ba1  1  0.931870  0.568130  0.568130  1
  Ba  Ba2  1  0.318130  0.681870  0.681870  1
  Ba  Ba3  1  0.112637  0.112637  0.887363  1
  Ba  Ba4  1  0.137363  0.137363  0.362637  1
  Ba  Ba5  1  0.362637  0.362637  0.137363  1
  Ba  Ba6  1  0.681870  0.318130  0.318130  1
  Ba  Ba7  1  0.887363  0.887363  0.112637  1
  Eu  Eu8  1  0.340697  0.340697  0.659303  1
  Eu  Eu9  1  0.909303  0.909303  0.590697  1
  Eu  Eu10  1  0.659303  0.659303  0.340697  1
  Eu  Eu11  1  0.590697  0.590697  0.909303  1
  W  W12  1  0.491153  0.008847  0.491153  1
  W  W13  1  0.008847  0.491153  0.008847  1
  W  W14  1  0.758847  0.241153  0.758847  1
  W  W15  1  0.241153  0.758847  0.241153  1
  N  N16  1  0.014623  0.652883  0.823499  1
  N  N17  1  0.701065  0.281212  0.997350  1
  N  N18  1  0.652883  0.014623  0.508996  1
  N  N19  1  0.508996  0.823499  0.652883  1
  N  N20  1  0.235377  0.597117  0.426501  1
  N  N21  1  0.741004  0.426501  0.597117  1
  N  N22  1  0.997350  0.020372  0.701065  1
  N  N23  1  0.548935  0.968788  0.252650  1
  N  N24  1  0.426501  0.741004  0.235377  1
  N  N25  1  0.968788  0.548935  0.229628  1
  N  N26  1  0.281212  0.701065  0.020372  1
  N  N27  1  0.823499  0.508996  0.014623  1
  N  N28  1  0.229628  0.252650  0.968788  1
  N  N29  1  0.597117  0.235377  0.741004  1
  N  N30  1  0.252650  0.229628  0.548935  1
  N  N31  1  0.020372  0.997350  0.281212  1
