# generated using pymatgen
data_Ca20Zn8SnHg3
_symmetry_space_group_name_H-M   'P 1'
_cell_length_a   8.03196800
_cell_length_b   8.03196800
_cell_length_c   15.10578000
_cell_angle_alpha   90.00000000
_cell_angle_beta   90.00000000
_cell_angle_gamma   90.00000000
_symmetry_Int_Tables_number   1
_chemical_formula_structural   Ca20Zn8SnHg3
_chemical_formula_sum   'Ca20 Zn8 Sn1 Hg3'
_cell_volume   974.51178260
_cell_formula_units_Z   1
loop_
 _symmetry_equiv_pos_site_id
 _symmetry_equiv_pos_as_xyz
  1  'x, y, z'
loop_
 _atom_site_type_symbol
 _atom_site_label
 _atom_site_symmetry_multiplicity
 _atom_site_fract_x
 _atom_site_fract_y
 _atom_site_fract_z
 _atom_site_occupancy
  Ca  Ca0  1  0.671467  0.168572  0.102394  1
  Ca  Ca1  1  0.169307  0.670997  0.605431  1
  Ca  Ca2  1  0.328533  0.831428  0.102394  1
  Ca  Ca3  1  0.830693  0.329003  0.605431  1
  Ca  Ca4  1  0.831428  0.671467  0.102394  1
  Ca  Ca5  1  0.329003  0.169307  0.605431  1
  Ca  Ca6  1  0.168572  0.328533  0.102394  1
  Ca  Ca7  1  0.670997  0.830693  0.605431  1
  Ca  Ca8  1  0.831428  0.328533  0.897606  1
  Ca  Ca9  1  0.329003  0.830693  0.394569  1
  Ca  Ca10  1  0.168572  0.671467  0.897606  1
  Ca  Ca11  1  0.670997  0.169307  0.394569  1
  Ca  Ca12  1  0.671467  0.831428  0.897606  1
  Ca  Ca13  1  0.169307  0.329003  0.394569  1
  Ca  Ca14  1  0.328533  0.168572  0.897606  1
  Ca  Ca15  1  0.830693  0.670997  0.394569  1
  Ca  Ca16  1  0.500000  0.500000  0.754966  1
  Ca  Ca17  1  0.000000  0.000000  0.247601  1
  Ca  Ca18  1  0.000000  0.000000  0.752399  1
  Ca  Ca19  1  0.500000  0.500000  0.245034  1
  Zn  Zn20  1  0.617153  0.117553  0.750784  1
  Zn  Zn21  1  0.117553  0.617153  0.249216  1
  Zn  Zn22  1  0.882447  0.382847  0.249216  1
  Zn  Zn23  1  0.382847  0.882447  0.750784  1
  Zn  Zn24  1  0.882447  0.617153  0.750784  1
  Zn  Zn25  1  0.382847  0.117553  0.249216  1
  Zn  Zn26  1  0.117553  0.382847  0.750784  1
  Zn  Zn27  1  0.617153  0.882447  0.249216  1
  Sn  Sn28  1  0.000000  0.000000  0.000000  1
  Hg  Hg29  1  0.500000  0.500000  0.500000  1
  Hg  Hg30  1  0.500000  0.500000  0.000000  1
  Hg  Hg31  1  0.000000  0.000000  0.500000  1
