# generated using pymatgen
data_Ac4Ho5ScPt8
_symmetry_space_group_name_H-M   'P 1'
_cell_length_a   7.95702800
_cell_length_b   7.87181000
_cell_length_c   14.80818600
_cell_angle_alpha   90.00000000
_cell_angle_beta   90.00000000
_cell_angle_gamma   90.00000000
_symmetry_Int_Tables_number   1
_chemical_formula_structural   Ac4Ho5ScPt8
_chemical_formula_sum   'Ac8 Ho10 Sc2 Pt16'
_cell_volume   927.52868623
_cell_formula_units_Z   2
loop_
 _symmetry_equiv_pos_site_id
 _symmetry_equiv_pos_as_xyz
  1  'x, y, z'
loop_
 _atom_site_type_symbol
 _atom_site_label
 _atom_site_symmetry_multiplicity
 _atom_site_fract_x
 _atom_site_fract_y
 _atom_site_fract_z
 _atom_site_occupancy
  Ac  Ac0  1  0.019201  0.173370  0.398719  1
  Ac  Ac1  1  0.514194  0.320088  0.398903  1
  Ac  Ac2  1  0.480799  0.673370  0.898719  1
  Ac  Ac3  1  0.480799  0.673370  0.601281  1
  Ac  Ac4  1  0.985806  0.820088  0.601097  1
  Ac  Ac5  1  0.985806  0.820088  0.898903  1
  Ac  Ac6  1  0.514194  0.320088  0.101097  1
  Ac  Ac7  1  0.019201  0.173370  0.101281  1
  Ho  Ho8  1  0.329825  0.168320  0.624377  1
  Ho  Ho9  1  0.663499  0.837281  0.376140  1
  Ho  Ho10  1  0.662329  0.007425  0.750000  1
  Ho  Ho11  1  0.170175  0.668320  0.375623  1
  Ho  Ho12  1  0.836501  0.337281  0.876140  1
  Ho  Ho13  1  0.836501  0.337281  0.623860  1
  Ho  Ho14  1  0.837671  0.507425  0.250000  1
  Ho  Ho15  1  0.329825  0.168320  0.875623  1
  Ho  Ho16  1  0.170175  0.668320  0.124377  1
  Ho  Ho17  1  0.663499  0.837281  0.123860  1
  Sc  Sc18  1  0.337972  0.991381  0.250000  1
  Sc  Sc19  1  0.162028  0.491381  0.750000  1
  Pt  Pt20  1  0.288823  0.865600  0.750000  1
  Pt  Pt21  1  0.464285  0.640305  0.250000  1
  Pt  Pt22  1  0.035715  0.140305  0.750000  1
  Pt  Pt23  1  0.531204  0.364878  0.750000  1
  Pt  Pt24  1  0.162404  0.460934  0.549860  1
  Pt  Pt25  1  0.968796  0.864878  0.250000  1
  Pt  Pt26  1  0.706377  0.128929  0.250000  1
  Pt  Pt27  1  0.836784  0.540748  0.049282  1
  Pt  Pt28  1  0.337596  0.960934  0.049860  1
  Pt  Pt29  1  0.162404  0.460934  0.950140  1
  Pt  Pt30  1  0.663216  0.040748  0.549282  1
  Pt  Pt31  1  0.337596  0.960934  0.450140  1
  Pt  Pt32  1  0.836784  0.540748  0.450718  1
  Pt  Pt33  1  0.793623  0.628929  0.750000  1
  Pt  Pt34  1  0.211177  0.365600  0.250000  1
  Pt  Pt35  1  0.663216  0.040748  0.950718  1
