# generated using pymatgen
data_VBi2PtF14
_symmetry_space_group_name_H-M   'P 1'
_cell_length_a   5.61831490
_cell_length_b   9.19899992
_cell_length_c   12.14010488
_cell_angle_alpha   62.00910562
_cell_angle_beta   90.21100886
_cell_angle_gamma   90.34418620
_symmetry_Int_Tables_number   1
_chemical_formula_structural   VBi2PtF14
_chemical_formula_sum   'V2 Bi4 Pt2 F28'
_cell_volume   554.02926512
_cell_formula_units_Z   2
loop_
 _symmetry_equiv_pos_site_id
 _symmetry_equiv_pos_as_xyz
  1  'x, y, z'
loop_
 _atom_site_type_symbol
 _atom_site_label
 _atom_site_symmetry_multiplicity
 _atom_site_fract_x
 _atom_site_fract_y
 _atom_site_fract_z
 _atom_site_occupancy
  V  V0  1  0.752705  0.728463  0.041329  1
  V  V1  1  0.247295  0.271537  0.958671  1
  Bi  Bi2  1  0.257737  0.808212  0.264141  1
  Bi  Bi3  1  0.742263  0.191788  0.735859  1
  Bi  Bi4  1  0.763751  0.179976  0.236126  1
  Bi  Bi5  1  0.236249  0.820024  0.763874  1
  Pt  Pt6  1  0.259322  0.272717  0.456398  1
  Pt  Pt7  1  0.740678  0.727283  0.543602  1
  F  F8  1  0.924659  0.702417  0.414822  1
  F  F9  1  0.075341  0.297583  0.585178  1
  F  F10  1  0.449460  0.284841  0.078844  1
  F  F11  1  0.550540  0.715159  0.921156  1
  F  F12  1  0.483181  0.740127  0.130472  1
  F  F13  1  0.516819  0.259873  0.869528  1
  F  F14  1  0.964857  0.275841  0.366746  1
  F  F15  1  0.035143  0.724159  0.633254  1
  F  F16  1  0.951738  0.750842  0.161611  1
  F  F17  1  0.048262  0.249158  0.838389  1
  F  F18  1  0.437785  0.256844  0.322603  1
  F  F19  1  0.562215  0.743156  0.677397  1
  F  F20  1  0.764844  0.506358  0.131157  1
  F  F21  1  0.235156  0.493642  0.868843  1
  F  F22  1  0.274130  0.514123  0.357607  1
  F  F23  1  0.725870  0.485877  0.642393  1
  F  F24  1  0.966580  0.278221  0.048133  1
  F  F25  1  0.033420  0.721779  0.951867  1
  F  F26  1  0.438251  0.720943  0.461487  1
  F  F27  1  0.561749  0.279057  0.538513  1
  F  F28  1  0.744274  0.970982  0.450576  1
  F  F29  1  0.255726  0.029018  0.549424  1
  F  F30  1  0.239433  0.043420  0.051082  1
  F  F31  1  0.760567  0.956580  0.948918  1
  F  F32  1  0.596520  0.966044  0.229579  1
  F  F33  1  0.403480  0.033956  0.770421  1
  F  F34  1  0.092197  0.024210  0.274129  1
  F  F35  1  0.907803  0.975790  0.725871  1
