# generated using pymatgen
data_Pr10Mg4IrRu5
_symmetry_space_group_name_H-M   'P 1'
_cell_length_a   8.71844917
_cell_length_b   8.75399036
_cell_length_c   8.75398899
_cell_angle_alpha   109.66206377
_cell_angle_beta   109.55996616
_cell_angle_gamma   109.35618688
_symmetry_Int_Tables_number   1
_chemical_formula_structural   Pr10Mg4IrRu5
_chemical_formula_sum   'Pr10 Mg4 Ir1 Ru5'
_cell_volume   513.26527521
_cell_formula_units_Z   1
loop_
 _symmetry_equiv_pos_site_id
 _symmetry_equiv_pos_as_xyz
  1  'x, y, z'
loop_
 _atom_site_type_symbol
 _atom_site_label
 _atom_site_symmetry_multiplicity
 _atom_site_fract_x
 _atom_site_fract_y
 _atom_site_fract_z
 _atom_site_occupancy
  Pr  Pr0  1  0.250000  0.678402  0.428402  1
  Pr  Pr1  1  0.750000  0.820505  0.070505  1
  Pr  Pr2  1  0.430908  0.251424  0.677189  1
  Pr  Pr3  1  0.678276  0.428540  0.249642  1
  Pr  Pr4  1  0.069092  0.746281  0.820516  1
  Pr  Pr5  1  0.821724  0.071366  0.750264  1
  Pr  Pr6  1  0.210787  0.212587  0.213972  1
  Pr  Pr7  1  0.500671  0.999865  0.288563  1
  Pr  Pr8  1  0.289213  0.503186  0.001800  1
  Pr  Pr9  1  0.999329  0.287891  0.499194  1
  Mg  Mg10  1  0.594611  0.595204  0.594520  1
  Mg  Mg11  1  0.498954  0.998908  0.904697  1
  Mg  Mg12  1  0.905389  0.499910  0.000593  1
  Mg  Mg13  1  0.001046  0.905744  0.499953  1
  Ir  Ir14  1  0.250000  0.130931  0.880931  1
  Ru  Ru15  1  0.750000  0.368025  0.618025  1
  Ru  Ru16  1  0.881635  0.250353  0.131504  1
  Ru  Ru17  1  0.133003  0.883295  0.250720  1
  Ru  Ru18  1  0.618364  0.749868  0.368718  1
  Ru  Ru19  1  0.366997  0.617716  0.750292  1
