# generated using pymatgen
data_TbNd2ThPd4
_symmetry_space_group_name_H-M   'P 1'
_cell_length_a   4.72030000
_cell_length_b   5.68726214
_cell_length_c   7.22332511
_cell_angle_alpha   90.23106559
_cell_angle_beta   90.00000000
_cell_angle_gamma   90.00000000
_symmetry_Int_Tables_number   1
_chemical_formula_structural   TbNd2ThPd4
_chemical_formula_sum   'Tb1 Nd2 Th1 Pd4'
_cell_volume   193.91280039
_cell_formula_units_Z   1
loop_
 _symmetry_equiv_pos_site_id
 _symmetry_equiv_pos_as_xyz
  1  'x, y, z'
loop_
 _atom_site_type_symbol
 _atom_site_label
 _atom_site_symmetry_multiplicity
 _atom_site_fract_x
 _atom_site_fract_y
 _atom_site_fract_z
 _atom_site_occupancy
  Tb  Tb0  1  0.750000  0.857021  0.817602  1
  Nd  Nd1  1  0.250000  0.142848  0.183359  1
  Nd  Nd2  1  0.750000  0.641555  0.315107  1
  Th  Th3  1  0.250000  0.356864  0.685102  1
  Pd  Pd4  1  0.250000  0.846924  0.557838  1
  Pd  Pd5  1  0.250000  0.653514  0.023650  1
  Pd  Pd6  1  0.750000  0.151735  0.474023  1
  Pd  Pd7  1  0.750000  0.349540  0.943320  1
