# generated using pymatgen
data_Ca9Sm(TaN5)2
_symmetry_space_group_name_H-M   'P 1'
_cell_length_a   6.96561010
_cell_length_b   6.94301813
_cell_length_c   8.92734301
_cell_angle_alpha   80.67519681
_cell_angle_beta   80.42633870
_cell_angle_gamma   59.82908622
_symmetry_Int_Tables_number   1
_chemical_formula_structural   Ca9Sm(TaN5)2
_chemical_formula_sum   'Ca9 Sm1 Ta2 N10'
_cell_volume   366.49849910
_cell_formula_units_Z   1
loop_
 _symmetry_equiv_pos_site_id
 _symmetry_equiv_pos_as_xyz
  1  'x, y, z'
loop_
 _atom_site_type_symbol
 _atom_site_label
 _atom_site_symmetry_multiplicity
 _atom_site_fract_x
 _atom_site_fract_y
 _atom_site_fract_z
 _atom_site_occupancy
  Ca  Ca0  1  0.870670  0.870010  0.827539  1
  Ca  Ca1  1  0.740278  0.743291  0.520458  1
  Ca  Ca2  1  0.754450  0.248213  0.503156  1
  Ca  Ca3  1  0.622538  0.138545  0.155766  1
  Ca  Ca4  1  0.363118  0.871813  0.837887  1
  Ca  Ca5  1  0.250218  0.755778  0.507669  1
  Ca  Ca6  1  0.244136  0.244319  0.489437  1
  Ca  Ca7  1  0.142185  0.139747  0.166827  1
  Ca  Ca8  1  0.136034  0.628248  0.153689  1
  Sm  Sm9  1  0.879438  0.349391  0.834366  1
  Ta  Ta10  1  0.631247  0.630009  0.221338  1
  Ta  Ta11  1  0.372546  0.366631  0.773768  1
  N  N12  1  0.914186  0.466581  0.320517  1
  N  N13  1  0.988655  0.011918  0.013921  1
  N  N14  1  0.681921  0.675920  0.999274  1
  N  N15  1  0.542099  0.531612  0.696308  1
  N  N16  1  0.465943  0.913628  0.323033  1
  N  N17  1  0.539665  0.084409  0.675676  1
  N  N18  1  0.463559  0.467418  0.300896  1
  N  N19  1  0.318152  0.317871  0.993122  1
  N  N20  1  0.054872  0.072689  0.651909  1
  N  N21  1  0.086374  0.534246  0.679248  1
