# generated using pymatgen
data_LiPr6OsBr12
_symmetry_space_group_name_H-M   'P 1'
_cell_length_a   9.67256663
_cell_length_b   9.67491493
_cell_length_c   9.67125153
_cell_angle_alpha   108.02727098
_cell_angle_beta   108.04839235
_cell_angle_gamma   108.10161754
_symmetry_Int_Tables_number   1
_chemical_formula_structural   LiPr6OsBr12
_chemical_formula_sum   'Li1 Pr6 Os1 Br12'
_cell_volume   730.86363304
_cell_formula_units_Z   1
loop_
 _symmetry_equiv_pos_site_id
 _symmetry_equiv_pos_as_xyz
  1  'x, y, z'
loop_
 _atom_site_type_symbol
 _atom_site_label
 _atom_site_symmetry_multiplicity
 _atom_site_fract_x
 _atom_site_fract_y
 _atom_site_fract_z
 _atom_site_occupancy
  Li  Li0  1  0.500000  0.500000  0.500000  1
  Pr  Pr1  1  0.118889  0.324359  0.038192  1
  Pr  Pr2  1  0.323815  0.038168  0.118486  1
  Pr  Pr3  1  0.038304  0.118786  0.324282  1
  Pr  Pr4  1  0.961696  0.881215  0.675718  1
  Pr  Pr5  1  0.676185  0.961833  0.881514  1
  Pr  Pr6  1  0.881111  0.675641  0.961808  1
  Os  Os7  1  0.000000  0.000000  0.000000  1
  Br  Br8  1  0.214514  0.687807  0.070697  1
  Br  Br9  1  0.466151  0.386390  0.180489  1
  Br  Br10  1  0.687575  0.070473  0.214277  1
  Br  Br11  1  0.929328  0.785533  0.312240  1
  Br  Br12  1  0.180708  0.465740  0.386576  1
  Br  Br13  1  0.386738  0.180503  0.466054  1
  Br  Br14  1  0.613262  0.819497  0.533947  1
  Br  Br15  1  0.819292  0.534260  0.613424  1
  Br  Br16  1  0.070672  0.214467  0.687761  1
  Br  Br17  1  0.312425  0.929527  0.785723  1
  Br  Br18  1  0.533849  0.613610  0.819512  1
  Br  Br19  1  0.785486  0.312194  0.929303  1
