# generated using pymatgen
data_CrRe(Ir2Ru)2
_symmetry_space_group_name_H-M   'P 1'
_cell_length_a   5.45689400
_cell_length_b   5.48240833
_cell_length_c   4.34342800
_cell_angle_alpha   90.00000000
_cell_angle_beta   90.00000000
_cell_angle_gamma   119.84615872
_symmetry_Int_Tables_number   1
_chemical_formula_structural   CrRe(Ir2Ru)2
_chemical_formula_sum   'Cr1 Re1 Ir4 Ru2'
_cell_volume   112.70711055
_cell_formula_units_Z   1
loop_
 _symmetry_equiv_pos_site_id
 _symmetry_equiv_pos_as_xyz
  1  'x, y, z'
loop_
 _atom_site_type_symbol
 _atom_site_label
 _atom_site_symmetry_multiplicity
 _atom_site_fract_x
 _atom_site_fract_y
 _atom_site_fract_z
 _atom_site_occupancy
  Cr  Cr0  1  0.667363  0.334724  0.250000  1
  Re  Re1  1  0.332334  0.664669  0.750000  1
  Ir  Ir2  1  0.666486  0.832150  0.250000  1
  Ir  Ir3  1  0.165666  0.832150  0.250000  1
  Ir  Ir4  1  0.338285  0.170197  0.750000  1
  Ir  Ir5  1  0.831911  0.170197  0.750000  1
  Ru  Ru6  1  0.167374  0.334746  0.250000  1
  Ru  Ru7  1  0.830582  0.661165  0.750000  1
