# generated using pymatgen
data_Nd8GaSi12Pt2Rh
_symmetry_space_group_name_H-M   'P 1'
_cell_length_a   8.23320100
_cell_length_b   8.23319796
_cell_length_c   8.55399400
_cell_angle_alpha   90.00017256
_cell_angle_beta   89.99985673
_cell_angle_gamma   120.00000123
_symmetry_Int_Tables_number   1
_chemical_formula_structural   Nd8GaSi12Pt2Rh
_chemical_formula_sum   'Nd8 Ga1 Si12 Pt2 Rh1'
_cell_volume   502.15390408
_cell_formula_units_Z   1
loop_
 _symmetry_equiv_pos_site_id
 _symmetry_equiv_pos_as_xyz
  1  'x, y, z'
loop_
 _atom_site_type_symbol
 _atom_site_label
 _atom_site_symmetry_multiplicity
 _atom_site_fract_x
 _atom_site_fract_y
 _atom_site_fract_z
 _atom_site_occupancy
  Nd  Nd0  1  0.000000  0.000000  0.748990  1
  Nd  Nd1  1  0.000000  0.000001  0.251460  1
  Nd  Nd2  1  0.498298  0.501704  0.750085  1
  Nd  Nd3  1  0.498297  0.996593  0.750084  1
  Nd  Nd4  1  0.003407  0.501704  0.750085  1
  Nd  Nd5  1  0.499754  0.500245  0.249779  1
  Nd  Nd6  1  0.000491  0.500243  0.249779  1
  Nd  Nd7  1  0.499757  0.999510  0.249778  1
  Ga  Ga8  1  0.666667  0.333333  0.995763  1
  Si  Si9  1  0.838476  0.161524  0.000231  1
  Si  Si10  1  0.838475  0.676950  0.000232  1
  Si  Si11  1  0.323050  0.161525  0.000232  1
  Si  Si12  1  0.833564  0.166436  0.501052  1
  Si  Si13  1  0.833563  0.667127  0.501052  1
  Si  Si14  1  0.332872  0.166436  0.501052  1
  Si  Si15  1  0.166217  0.833782  0.499033  1
  Si  Si16  1  0.667565  0.833782  0.499034  1
  Si  Si17  1  0.166218  0.332435  0.499034  1
  Si  Si18  1  0.170185  0.829815  0.000404  1
  Si  Si19  1  0.659631  0.829815  0.000405  1
  Si  Si20  1  0.170185  0.340368  0.000404  1
  Pt  Pt21  1  0.666666  0.333333  0.501732  1
  Pt  Pt22  1  0.333333  0.666667  0.498159  1
  Rh  Rh23  1  0.333333  0.666668  0.002142  1
