# generated using pymatgen
data_Yb2AlPt3
_symmetry_space_group_name_H-M   'P 1'
_cell_length_a   5.62531775
_cell_length_b   5.62531955
_cell_length_c   5.18644179
_cell_angle_alpha   57.15897428
_cell_angle_beta   57.15897996
_cell_angle_gamma   59.99999695
_symmetry_Int_Tables_number   1
_chemical_formula_structural   Yb2AlPt3
_chemical_formula_sum   'Yb2 Al1 Pt3'
_cell_volume   110.81499633
_cell_formula_units_Z   1
loop_
 _symmetry_equiv_pos_site_id
 _symmetry_equiv_pos_as_xyz
  1  'x, y, z'
loop_
 _atom_site_type_symbol
 _atom_site_label
 _atom_site_symmetry_multiplicity
 _atom_site_fract_x
 _atom_site_fract_y
 _atom_site_fract_z
 _atom_site_occupancy
  Yb  Yb0  1  0.749600  0.749600  0.751199  1
  Yb  Yb1  1  0.500400  0.500400  0.498801  1
  Al  Al2  1  0.125000  0.125000  0.625000  1
  Pt  Pt3  1  0.125000  0.625000  0.125000  1
  Pt  Pt4  1  0.625000  0.125000  0.125000  1
  Pt  Pt5  1  0.125000  0.125000  0.125000  1
