# generated using pymatgen
data_Li4La2YErSi8
_symmetry_space_group_name_H-M   'P 1'
_cell_length_a   3.86581300
_cell_length_b   7.71893171
_cell_length_c   10.42571971
_cell_angle_alpha   90.44517335
_cell_angle_beta   90.00000000
_cell_angle_gamma   90.00000000
_symmetry_Int_Tables_number   1
_chemical_formula_structural   Li4La2YErSi8
_chemical_formula_sum   'Li4 La2 Y1 Er1 Si8'
_cell_volume   311.09352845
_cell_formula_units_Z   1
loop_
 _symmetry_equiv_pos_site_id
 _symmetry_equiv_pos_as_xyz
  1  'x, y, z'
loop_
 _atom_site_type_symbol
 _atom_site_label
 _atom_site_symmetry_multiplicity
 _atom_site_fract_x
 _atom_site_fract_y
 _atom_site_fract_z
 _atom_site_occupancy
  Li  Li0  1  0.250000  0.989920  0.393973  1
  Li  Li1  1  0.750000  0.010146  0.605679  1
  Li  Li2  1  0.250000  0.493282  0.110984  1
  Li  Li3  1  0.750000  0.506384  0.889475  1
  La  La4  1  0.250000  0.143271  0.863165  1
  La  La5  1  0.750000  0.856923  0.137041  1
  Y  Y6  1  0.250000  0.634987  0.633828  1
  Er  Er7  1  0.750000  0.366035  0.365819  1
  Si  Si8  1  0.750000  0.278799  0.079379  1
  Si  Si9  1  0.250000  0.721755  0.922047  1
  Si  Si10  1  0.750000  0.762297  0.435407  1
  Si  Si11  1  0.250000  0.237621  0.562492  1
  Si  Si12  1  0.750000  0.833700  0.815772  1
  Si  Si13  1  0.250000  0.167100  0.185729  1
  Si  Si14  1  0.750000  0.345528  0.671870  1
  Si  Si15  1  0.250000  0.652250  0.327337  1
