# generated using pymatgen
data_Eu(PaN2)2
_symmetry_space_group_name_H-M   'P 1'
_cell_length_a   7.13041111
_cell_length_b   7.13056260
_cell_length_c   7.13064700
_cell_angle_alpha   119.99549388
_cell_angle_beta   90.00805155
_cell_angle_gamma   119.99475556
_symmetry_Int_Tables_number   1
_chemical_formula_structural   Eu(PaN2)2
_chemical_formula_sum   'Eu2 Pa4 N8'
_cell_volume   256.38097406
_cell_formula_units_Z   2
loop_
 _symmetry_equiv_pos_site_id
 _symmetry_equiv_pos_as_xyz
  1  'x, y, z'
loop_
 _atom_site_type_symbol
 _atom_site_label
 _atom_site_symmetry_multiplicity
 _atom_site_fract_x
 _atom_site_fract_y
 _atom_site_fract_z
 _atom_site_occupancy
  Eu  Eu0  1  0.999993  0.999998  0.999996  1
  Eu  Eu1  1  0.750000  0.499994  0.249996  1
  Pa  Pa2  1  0.374994  0.749987  0.124982  1
  Pa  Pa3  1  0.374994  0.749985  0.625005  1
  Pa  Pa4  1  0.374994  0.250018  0.625010  1
  Pa  Pa5  1  0.875021  0.250013  0.625006  1
  N  N6  1  0.602990  0.206028  0.396986  1
  N  N7  1  0.190949  0.793997  0.396972  1
  N  N8  1  0.603054  0.794006  0.397036  1
  N  N9  1  0.146959  0.293989  0.440970  1
  N  N10  1  0.603044  0.206021  0.809039  1
  N  N11  1  0.146952  0.705985  0.852959  1
  N  N12  1  0.147015  0.293981  0.853015  1
  N  N13  1  0.559041  0.705998  0.853025  1
