# generated using pymatgen
data_Dy5Ta3P12Ir7Rh9
_symmetry_space_group_name_H-M   'P 1'
_cell_length_a   12.79095700
_cell_length_b   12.79095701
_cell_length_c   3.94334600
_cell_angle_alpha   90.00000000
_cell_angle_beta   90.00000000
_cell_angle_gamma   119.99999739
_symmetry_Int_Tables_number   1
_chemical_formula_structural   Dy5Ta3P12Ir7Rh9
_chemical_formula_sum   'Dy5 Ta3 P12 Ir7 Rh9'
_cell_volume   558.72950548
_cell_formula_units_Z   1
loop_
 _symmetry_equiv_pos_site_id
 _symmetry_equiv_pos_as_xyz
  1  'x, y, z'
loop_
 _atom_site_type_symbol
 _atom_site_label
 _atom_site_symmetry_multiplicity
 _atom_site_fract_x
 _atom_site_fract_y
 _atom_site_fract_z
 _atom_site_occupancy
  Dy  Dy0  1  0.333333  0.666667  0.500000  1
  Dy  Dy1  1  0.666667  0.333333  0.500000  1
  Dy  Dy2  1  0.000105  0.813068  0.000000  1
  Dy  Dy3  1  0.186932  0.187037  0.000000  1
  Dy  Dy4  1  0.812963  0.999895  0.000000  1
  Ta  Ta5  1  0.000082  0.450806  0.500000  1
  Ta  Ta6  1  0.549194  0.549276  0.500000  1
  Ta  Ta7  1  0.450724  0.999918  0.500000  1
  P  P8  1  0.999906  0.641858  0.500000  1
  P  P9  1  0.358142  0.358048  0.500000  1
  P  P10  1  0.641952  0.000094  0.500000  1
  P  P11  1  0.516742  0.683031  0.000000  1
  P  P12  1  0.316969  0.833712  0.000000  1
  P  P13  1  0.166288  0.483258  0.000000  1
  P  P14  1  0.482792  0.166154  0.000000  1
  P  P15  1  0.683362  0.517208  0.000000  1
  P  P16  1  0.833846  0.316638  0.000000  1
  P  P17  1  0.000137  0.176462  0.500000  1
  P  P18  1  0.823538  0.823675  0.500000  1
  P  P19  1  0.176325  0.999863  0.500000  1
  Ir  Ir20  1  0.490244  0.355737  0.000000  1
  Ir  Ir21  1  0.865495  0.509756  0.000000  1
  Ir  Ir22  1  0.644263  0.134505  0.000000  1
  Ir  Ir23  1  0.000064  0.281729  0.000000  1
  Ir  Ir24  1  0.718271  0.718336  0.000000  1
  Ir  Ir25  1  0.281664  0.999936  0.000000  1
  Ir  Ir26  1  0.000000  0.000000  0.500000  1
  Rh  Rh27  1  0.511486  0.866902  0.000000  1
  Rh  Rh28  1  0.133098  0.644586  0.000000  1
  Rh  Rh29  1  0.355414  0.488514  0.000000  1
  Rh  Rh30  1  0.625045  0.802765  0.500000  1
  Rh  Rh31  1  0.197235  0.822280  0.500000  1
  Rh  Rh32  1  0.177720  0.374955  0.500000  1
  Rh  Rh33  1  0.373936  0.177470  0.500000  1
  Rh  Rh34  1  0.803534  0.626064  0.500000  1
  Rh  Rh35  1  0.822530  0.196466  0.500000  1
