# generated using pymatgen
data_Lu20CdIn5Ru2
_symmetry_space_group_name_H-M   'P 1'
_cell_length_a   9.54480997
_cell_length_b   9.60433211
_cell_length_c   9.44538500
_cell_angle_alpha   90.00000000
_cell_angle_beta   90.00000000
_cell_angle_gamma   120.20650437
_symmetry_Int_Tables_number   1
_chemical_formula_structural   Lu20CdIn5Ru2
_chemical_formula_sum   'Lu20 Cd1 In5 Ru2'
_cell_volume   748.30263223
_cell_formula_units_Z   1
loop_
 _symmetry_equiv_pos_site_id
 _symmetry_equiv_pos_as_xyz
  1  'x, y, z'
loop_
 _atom_site_type_symbol
 _atom_site_label
 _atom_site_symmetry_multiplicity
 _atom_site_fract_x
 _atom_site_fract_y
 _atom_site_fract_z
 _atom_site_occupancy
  Lu  Lu0  1  0.996216  0.998108  0.501849  1
  Lu  Lu1  1  0.996216  0.998108  0.998151  1
  Lu  Lu2  1  0.211696  0.789582  0.440973  1
  Lu  Lu3  1  0.211696  0.422115  0.440973  1
  Lu  Lu4  1  0.578465  0.789233  0.439036  1
  Lu  Lu5  1  0.789484  0.212080  0.559290  1
  Lu  Lu6  1  0.789484  0.577403  0.559290  1
  Lu  Lu7  1  0.420536  0.210268  0.560634  1
  Lu  Lu8  1  0.789484  0.212080  0.940710  1
  Lu  Lu9  1  0.789484  0.577403  0.940710  1
  Lu  Lu10  1  0.420536  0.210268  0.939366  1
  Lu  Lu11  1  0.211696  0.789582  0.059027  1
  Lu  Lu12  1  0.211696  0.422115  0.059027  1
  Lu  Lu13  1  0.578465  0.789233  0.060964  1
  Lu  Lu14  1  0.540298  0.460261  0.250000  1
  Lu  Lu15  1  0.540298  0.080038  0.250000  1
  Lu  Lu16  1  0.924293  0.462147  0.250000  1
  Lu  Lu17  1  0.463236  0.541413  0.750000  1
  Lu  Lu18  1  0.463236  0.921822  0.750000  1
  Lu  Lu19  1  0.080698  0.540348  0.750000  1
  Cd  Cd20  1  0.765908  0.882954  0.750000  1
  In  In21  1  0.884539  0.120125  0.250000  1
  In  In22  1  0.884539  0.764414  0.250000  1
  In  In23  1  0.232349  0.116175  0.250000  1
  In  In24  1  0.113818  0.878674  0.750000  1
  In  In25  1  0.113818  0.235143  0.750000  1
  Ru  Ru26  1  0.330924  0.665462  0.250000  1
  Ru  Ru27  1  0.666891  0.333446  0.750000  1
