# generated using pymatgen
data_Tb13Ho3(TmSn4)4
_symmetry_space_group_name_H-M   'P 1'
_cell_length_a   8.01900718
_cell_length_b   8.16932218
_cell_length_c   15.46416502
_cell_angle_alpha   90.00372238
_cell_angle_beta   89.99487012
_cell_angle_gamma   90.02398239
_symmetry_Int_Tables_number   1
_chemical_formula_structural   Tb13Ho3(TmSn4)4
_chemical_formula_sum   'Tb13 Ho3 Tm4 Sn16'
_cell_volume   1013.05508674
_cell_formula_units_Z   1
loop_
 _symmetry_equiv_pos_site_id
 _symmetry_equiv_pos_as_xyz
  1  'x, y, z'
loop_
 _atom_site_type_symbol
 _atom_site_label
 _atom_site_symmetry_multiplicity
 _atom_site_fract_x
 _atom_site_fract_y
 _atom_site_fract_z
 _atom_site_occupancy
  Tb  Tb0  1  0.134250  0.337298  0.122093  1
  Tb  Tb1  1  0.633865  0.162813  0.122515  1
  Tb  Tb2  1  0.133732  0.337264  0.377824  1
  Tb  Tb3  1  0.366330  0.837362  0.622384  1
  Tb  Tb4  1  0.866407  0.662650  0.877696  1
  Tb  Tb5  1  0.519126  0.320535  0.903005  1
  Tb  Tb6  1  0.019349  0.179538  0.597056  1
  Tb  Tb7  1  0.480776  0.679731  0.403232  1
  Tb  Tb8  1  0.980628  0.820536  0.097025  1
  Tb  Tb9  1  0.480972  0.679492  0.096702  1
  Tb  Tb10  1  0.980946  0.820672  0.403442  1
  Tb  Tb11  1  0.519085  0.320851  0.596833  1
  Tb  Tb12  1  0.019154  0.178956  0.902703  1
  Ho  Ho13  1  0.365706  0.837806  0.876844  1
  Ho  Ho14  1  0.865345  0.662320  0.622620  1
  Ho  Ho15  1  0.634394  0.162234  0.377668  1
  Tm  Tm16  1  0.197324  0.503314  0.750135  1
  Tm  Tm17  1  0.697393  0.996842  0.749690  1
  Tm  Tm18  1  0.802594  0.496905  0.250481  1
  Tm  Tm19  1  0.302859  0.003002  0.249921  1
  Sn  Sn20  1  0.294112  0.035902  0.041583  1
  Sn  Sn21  1  0.793275  0.462725  0.458211  1
  Sn  Sn22  1  0.706678  0.962745  0.541912  1
  Sn  Sn23  1  0.207098  0.537999  0.957426  1
  Sn  Sn24  1  0.704341  0.962985  0.957358  1
  Sn  Sn25  1  0.204280  0.537042  0.542613  1
  Sn  Sn26  1  0.295520  0.036981  0.457493  1
  Sn  Sn27  1  0.794070  0.463435  0.042459  1
  Sn  Sn28  1  0.562776  0.618276  0.749928  1
  Sn  Sn29  1  0.062598  0.881631  0.749950  1
  Sn  Sn30  1  0.437757  0.381871  0.250402  1
  Sn  Sn31  1  0.937066  0.117626  0.250353  1
  Sn  Sn32  1  0.328759  0.149224  0.750120  1
  Sn  Sn33  1  0.828728  0.351094  0.749828  1
  Sn  Sn34  1  0.671297  0.851188  0.250322  1
  Sn  Sn35  1  0.171409  0.649157  0.250170  1
