# generated using pymatgen
data_Pr3Nd(Al8Pt3)3
_symmetry_space_group_name_H-M   'P 1'
_cell_length_a   7.55383244
_cell_length_b   7.57804350
_cell_length_c   13.37680683
_cell_angle_alpha   84.83068970
_cell_angle_beta   100.60900070
_cell_angle_gamma   119.67790358
_symmetry_Int_Tables_number   1
_chemical_formula_structural   Pr3Nd(Al8Pt3)3
_chemical_formula_sum   'Pr3 Nd1 Al24 Pt9'
_cell_volume   653.91276823
_cell_formula_units_Z   1
loop_
 _symmetry_equiv_pos_site_id
 _symmetry_equiv_pos_as_xyz
  1  'x, y, z'
loop_
 _atom_site_type_symbol
 _atom_site_label
 _atom_site_symmetry_multiplicity
 _atom_site_fract_x
 _atom_site_fract_y
 _atom_site_fract_z
 _atom_site_occupancy
  Pr  Pr0  1  0.437062  0.830879  0.808215  1
  Pr  Pr1  1  0.562611  0.168977  0.191894  1
  Pr  Pr2  1  0.768610  0.502145  0.808487  1
  Nd  Nd3  1  0.231956  0.497901  0.192242  1
  Al  Al4  1  0.479163  0.165983  0.946023  1
  Al  Al5  1  0.520279  0.833497  0.054663  1
  Al  Al6  1  0.021278  0.167795  0.559257  1
  Al  Al7  1  0.978565  0.832127  0.440137  1
  Al  Al8  1  0.354011  0.833318  0.557296  1
  Al  Al9  1  0.645874  0.166678  0.442437  1
  Al  Al10  1  0.619743  0.834260  0.332683  1
  Al  Al11  1  0.380191  0.165709  0.666718  1
  Al  Al12  1  0.055303  0.493482  0.665892  1
  Al  Al13  1  0.944651  0.506909  0.333045  1
  Al  Al14  1  0.730742  0.840948  0.664964  1
  Al  Al15  1  0.268857  0.159096  0.334525  1
  Al  Al16  1  0.148147  0.497334  0.947427  1
  Al  Al17  1  0.852791  0.502084  0.054042  1
  Al  Al18  1  0.819760  0.834622  0.956589  1
  Al  Al19  1  0.180585  0.165445  0.044362  1
  Al  Al20  1  0.313605  0.500637  0.441562  1
  Al  Al21  1  0.686104  0.499513  0.557852  1
  Al  Al22  1  0.100728  0.835423  0.184159  1
  Al  Al23  1  0.899408  0.164323  0.815980  1
  Al  Al24  1  0.304166  0.366951  0.814658  1
  Al  Al25  1  0.695276  0.633398  0.185265  1
  Al  Al26  1  0.102185  0.961845  0.815218  1
  Al  Al27  1  0.898376  0.038928  0.184671  1
  Pt  Pt28  1  0.384987  0.505213  0.635947  1
  Pt  Pt29  1  0.614754  0.494643  0.363633  1
  Pt  Pt30  1  0.171286  0.829207  0.999955  1
  Pt  Pt31  1  0.828677  0.170432  0.000618  1
  Pt  Pt32  1  0.293407  0.833608  0.363262  1
  Pt  Pt33  1  0.706816  0.166560  0.636422  1
  Pt  Pt34  1  0.046867  0.828289  0.634649  1
  Pt  Pt35  1  0.953017  0.172090  0.364857  1
  Pt  Pt36  1  0.500160  0.499753  0.000398  1
