# generated using pymatgen
data_Tb5FeCoO12
_symmetry_space_group_name_H-M   'P 1'
_cell_length_a   6.76898151
_cell_length_b   6.76898274
_cell_length_c   7.27745864
_cell_angle_alpha   74.41801094
_cell_angle_beta   74.41800776
_cell_angle_gamma   51.11808529
_symmetry_Int_Tables_number   1
_chemical_formula_structural   Tb5FeCoO12
_chemical_formula_sum   'Tb5 Fe1 Co1 O12'
_cell_volume   247.79528816
_cell_formula_units_Z   1
loop_
 _symmetry_equiv_pos_site_id
 _symmetry_equiv_pos_as_xyz
  1  'x, y, z'
loop_
 _atom_site_type_symbol
 _atom_site_label
 _atom_site_symmetry_multiplicity
 _atom_site_fract_x
 _atom_site_fract_y
 _atom_site_fract_z
 _atom_site_occupancy
  Tb  Tb0  1  0.688849  0.693738  0.667608  1
  Tb  Tb1  1  0.687896  0.698622  0.142355  1
  Tb  Tb2  1  0.005096  0.994904  0.000000  1
  Tb  Tb3  1  0.301378  0.312104  0.857645  1
  Tb  Tb4  1  0.306262  0.311151  0.332392  1
  Fe  Fe5  1  0.759140  0.240860  0.500000  1
  Co  Co6  1  0.243730  0.756270  0.500000  1
  O  O7  1  0.402483  0.908944  0.921156  1
  O  O8  1  0.584376  0.098303  0.577102  1
  O  O9  1  0.901697  0.415624  0.422898  1
  O  O10  1  0.091056  0.597517  0.078844  1
  O  O11  1  0.018601  0.984184  0.321812  1
  O  O12  1  0.487926  0.512212  0.680327  1
  O  O13  1  0.899346  0.404748  0.922692  1
  O  O14  1  0.103562  0.580253  0.577647  1
  O  O15  1  0.419747  0.896438  0.422353  1
  O  O16  1  0.595252  0.100654  0.077308  1
  O  O17  1  0.487788  0.512074  0.319673  1
  O  O18  1  0.015816  0.981399  0.678188  1
