# generated using pymatgen
data_Tm7(TcSe)2
_symmetry_space_group_name_H-M   'P 1'
_cell_length_a   8.95915383
_cell_length_b   8.95915511
_cell_length_c   8.95915495
_cell_angle_alpha   154.88846620
_cell_angle_beta   66.81072565
_cell_angle_gamma   119.22802153
_symmetry_Int_Tables_number   1
_chemical_formula_structural   Tm7(TcSe)2
_chemical_formula_sum   'Tm7 Tc2 Se2'
_cell_volume   264.04571751
_cell_formula_units_Z   1
loop_
 _symmetry_equiv_pos_site_id
 _symmetry_equiv_pos_as_xyz
  1  'x, y, z'
loop_
 _atom_site_type_symbol
 _atom_site_label
 _atom_site_symmetry_multiplicity
 _atom_site_fract_x
 _atom_site_fract_y
 _atom_site_fract_z
 _atom_site_occupancy
  Tm  Tm0  1  0.319294  0.319294  0.000000  1
  Tm  Tm1  1  0.864180  0.737745  0.126435  1
  Tm  Tm2  1  0.266580  0.950393  0.316189  1
  Tm  Tm3  1  0.931584  0.573713  0.357870  1
  Tm  Tm4  1  0.215842  0.573715  0.642131  1
  Tm  Tm5  1  0.634205  0.950393  0.683814  1
  Tm  Tm6  1  0.611311  0.737746  0.873566  1
  Tc  Tc7  1  0.487289  0.250235  0.237055  1
  Tc  Tc8  1  0.013180  0.250236  0.762946  1
  Se  Se9  1  0.983744  0.983744  0.000000  1
  Se  Se10  1  0.578142  0.078142  0.500000  1
