# generated using pymatgen
data_Fe6Re7
_symmetry_space_group_name_H-M   'P 1'
_cell_length_a   4.71438617
_cell_length_b   4.71425580
_cell_length_c   9.07085649
_cell_angle_alpha   74.93814341
_cell_angle_beta   74.93105774
_cell_angle_gamma   59.98948094
_symmetry_Int_Tables_number   1
_chemical_formula_structural   Fe6Re7
_chemical_formula_sum   'Fe6 Re7'
_cell_volume   166.52342523
_cell_formula_units_Z   1
loop_
 _symmetry_equiv_pos_site_id
 _symmetry_equiv_pos_as_xyz
  1  'x, y, z'
loop_
 _atom_site_type_symbol
 _atom_site_label
 _atom_site_symmetry_multiplicity
 _atom_site_fract_x
 _atom_site_fract_y
 _atom_site_fract_z
 _atom_site_occupancy
  Fe  Fe0  1  0.907968  0.907574  0.764721  1
  Fe  Fe1  1  0.419809  0.907714  0.764584  1
  Fe  Fe2  1  0.907876  0.419595  0.764678  1
  Fe  Fe3  1  0.092032  0.092426  0.235279  1
  Fe  Fe4  1  0.580191  0.092286  0.235416  1
  Fe  Fe5  1  0.092124  0.580405  0.235322  1
  Re  Re6  1  0.000000  0.000000  0.000000  1
  Re  Re7  1  0.837675  0.837672  0.487193  1
  Re  Re8  1  0.162325  0.162328  0.512807  1
  Re  Re9  1  0.650430  0.650587  0.048576  1
  Re  Re10  1  0.349570  0.349413  0.951424  1
  Re  Re11  1  0.547999  0.548430  0.355587  1
  Re  Re12  1  0.452001  0.451570  0.644413  1
