# generated using pymatgen
data_PrDy3(Ho4Bi3)4
_symmetry_space_group_name_H-M   'P 1'
_cell_length_a   8.27966001
_cell_length_b   9.51365200
_cell_length_c   12.06423502
_cell_angle_alpha   90.00000000
_cell_angle_beta   90.00648923
_cell_angle_gamma   90.00000000
_symmetry_Int_Tables_number   1
_chemical_formula_structural   PrDy3(Ho4Bi3)4
_chemical_formula_sum   'Pr1 Dy3 Ho16 Bi12'
_cell_volume   950.29742233
_cell_formula_units_Z   1
loop_
 _symmetry_equiv_pos_site_id
 _symmetry_equiv_pos_as_xyz
  1  'x, y, z'
loop_
 _atom_site_type_symbol
 _atom_site_label
 _atom_site_symmetry_multiplicity
 _atom_site_fract_x
 _atom_site_fract_y
 _atom_site_fract_z
 _atom_site_occupancy
  Pr  Pr0  1  0.314296  0.250000  0.219730  1
  Dy  Dy1  1  0.813207  0.250000  0.281646  1
  Dy  Dy2  1  0.687273  0.750000  0.782107  1
  Dy  Dy3  1  0.187440  0.750000  0.718010  1
  Ho  Ho4  1  0.352598  0.750000  0.216101  1
  Ho  Ho5  1  0.852266  0.750000  0.284401  1
  Ho  Ho6  1  0.647410  0.250000  0.782989  1
  Ho  Ho7  1  0.147021  0.250000  0.716462  1
  Ho  Ho8  1  0.691903  0.565141  0.059205  1
  Ho  Ho9  1  0.192718  0.934950  0.441098  1
  Ho  Ho10  1  0.307820  0.065028  0.940246  1
  Ho  Ho11  1  0.806819  0.435269  0.559547  1
  Ho  Ho12  1  0.307820  0.434972  0.940246  1
  Ho  Ho13  1  0.806819  0.064731  0.559547  1
  Ho  Ho14  1  0.691903  0.934859  0.059205  1
  Ho  Ho15  1  0.192718  0.565050  0.441098  1
  Ho  Ho16  1  0.475181  0.250000  0.488326  1
  Ho  Ho17  1  0.975601  0.250000  0.011163  1
  Ho  Ho18  1  0.525164  0.750000  0.512394  1
  Ho  Ho19  1  0.024387  0.750000  0.987278  1
  Bi  Bi20  1  0.406568  0.750000  0.957775  1
  Bi  Bi21  1  0.907024  0.750000  0.542564  1
  Bi  Bi22  1  0.597198  0.250000  0.039377  1
  Bi  Bi23  1  0.090839  0.250000  0.459550  1
  Bi  Bi24  1  0.568164  0.992860  0.326786  1
  Bi  Bi25  1  0.061428  0.507652  0.173718  1
  Bi  Bi26  1  0.434517  0.495102  0.674300  1
  Bi  Bi27  1  0.934894  0.004594  0.825163  1
  Bi  Bi28  1  0.434517  0.004898  0.674300  1
  Bi  Bi29  1  0.934894  0.495406  0.825163  1
  Bi  Bi30  1  0.568164  0.507140  0.326786  1
  Bi  Bi31  1  0.061428  0.992348  0.173718  1
