# generated using pymatgen
data_Yb2Co2I
_symmetry_space_group_name_H-M   'P 1'
_cell_length_a   3.95068100
_cell_length_b   3.95068202
_cell_length_c   17.26401700
_cell_angle_alpha   90.00000000
_cell_angle_beta   90.00000000
_cell_angle_gamma   119.99999981
_symmetry_Int_Tables_number   1
_chemical_formula_structural   Yb2Co2I
_chemical_formula_sum   'Yb4 Co4 I2'
_cell_volume   233.35468653
_cell_formula_units_Z   2
loop_
 _symmetry_equiv_pos_site_id
 _symmetry_equiv_pos_as_xyz
  1  'x, y, z'
loop_
 _atom_site_type_symbol
 _atom_site_label
 _atom_site_symmetry_multiplicity
 _atom_site_fract_x
 _atom_site_fract_y
 _atom_site_fract_z
 _atom_site_occupancy
  Yb  Yb0  1  0.000000  0.000000  0.108631  1
  Yb  Yb1  1  0.000000  0.000000  0.391369  1
  Yb  Yb2  1  0.000000  0.000000  0.891369  1
  Yb  Yb3  1  0.000000  0.000000  0.608631  1
  Co  Co4  1  0.333333  0.666667  0.000936  1
  Co  Co5  1  0.666667  0.333333  0.999064  1
  Co  Co6  1  0.333333  0.666667  0.499064  1
  Co  Co7  1  0.666667  0.333333  0.500936  1
  I  I8  1  0.333333  0.666667  0.750000  1
  I  I9  1  0.666667  0.333333  0.250000  1
