# generated using pymatgen
data_Li3VReNi9P7
_symmetry_space_group_name_H-M   'P 1'
_cell_length_a   9.05293949
_cell_length_b   9.01074975
_cell_length_c   3.58704900
_cell_angle_alpha   90.00000000
_cell_angle_beta   90.00000000
_cell_angle_gamma   119.49623389
_symmetry_Int_Tables_number   1
_chemical_formula_structural   Li3VReNi9P7
_chemical_formula_sum   'Li3 V1 Re1 Ni9 P7'
_cell_volume   254.68348325
_cell_formula_units_Z   1
loop_
 _symmetry_equiv_pos_site_id
 _symmetry_equiv_pos_as_xyz
  1  'x, y, z'
loop_
 _atom_site_type_symbol
 _atom_site_label
 _atom_site_symmetry_multiplicity
 _atom_site_fract_x
 _atom_site_fract_y
 _atom_site_fract_z
 _atom_site_occupancy
  Li  Li0  1  0.225916  0.101342  0.500000  1
  Li  Li1  1  0.329933  0.664176  0.000000  1
  Li  Li2  1  0.666051  0.332773  0.500000  1
  V  V3  1  0.898936  0.122082  0.500000  1
  Re  Re4  1  0.874414  0.786994  0.500000  1
  Ni  Ni5  1  0.711057  0.877753  0.000000  1
  Ni  Ni6  1  0.164860  0.279229  0.000000  1
  Ni  Ni7  1  0.126273  0.844875  0.000000  1
  Ni  Ni8  1  0.627705  0.566453  0.000000  1
  Ni  Ni9  1  0.939334  0.372551  0.000000  1
  Ni  Ni10  1  0.435237  0.061191  0.000000  1
  Ni  Ni11  1  0.560299  0.947460  0.500000  1
  Ni  Ni12  1  0.387618  0.434631  0.500000  1
  Ni  Ni13  1  0.053047  0.612345  0.500000  1
  P  P14  1  0.581983  0.707998  0.500000  1
  P  P15  1  0.121219  0.408962  0.500000  1
  P  P16  1  0.290851  0.870220  0.500000  1
  P  P17  1  0.995017  0.998830  0.000000  1
  P  P18  1  0.881034  0.586743  0.000000  1
  P  P19  1  0.704241  0.123368  0.000000  1
  P  P20  1  0.424974  0.300025  0.000000  1
