# generated using pymatgen
data_SmMg4(Sn3Ir)6
_symmetry_space_group_name_H-M   'P 1'
_cell_length_a   9.78955087
_cell_length_b   9.78955083
_cell_length_c   9.78955100
_cell_angle_alpha   60.00000280
_cell_angle_beta   60.00000295
_cell_angle_gamma   60.00000182
_symmetry_Int_Tables_number   1
_chemical_formula_structural   SmMg4(Sn3Ir)6
_chemical_formula_sum   'Sm1 Mg4 Sn18 Ir6'
_cell_volume   663.39674077
_cell_formula_units_Z   1
loop_
 _symmetry_equiv_pos_site_id
 _symmetry_equiv_pos_as_xyz
  1  'x, y, z'
loop_
 _atom_site_type_symbol
 _atom_site_label
 _atom_site_symmetry_multiplicity
 _atom_site_fract_x
 _atom_site_fract_y
 _atom_site_fract_z
 _atom_site_occupancy
  Sm  Sm0  1  0.500000  0.500000  0.500000  1
  Mg  Mg1  1  0.871542  0.871542  0.385375  1
  Mg  Mg2  1  0.871542  0.385375  0.871542  1
  Mg  Mg3  1  0.385375  0.871542  0.871542  1
  Mg  Mg4  1  0.871542  0.871542  0.871542  1
  Sn  Sn5  1  0.083996  0.083996  0.748012  1
  Sn  Sn6  1  0.083996  0.748012  0.083996  1
  Sn  Sn7  1  0.748012  0.083996  0.083996  1
  Sn  Sn8  1  0.083996  0.083996  0.083996  1
  Sn  Sn9  1  0.250000  0.250000  0.250000  1
  Sn  Sn10  1  0.493154  0.861609  0.152079  1
  Sn  Sn11  1  0.493154  0.493154  0.152079  1
  Sn  Sn12  1  0.861609  0.493154  0.152079  1
  Sn  Sn13  1  0.493154  0.152079  0.861609  1
  Sn  Sn14  1  0.861609  0.152079  0.493154  1
  Sn  Sn15  1  0.493154  0.152079  0.493154  1
  Sn  Sn16  1  0.152079  0.493154  0.493154  1
  Sn  Sn17  1  0.152079  0.861609  0.493154  1
  Sn  Sn18  1  0.152079  0.493154  0.861609  1
  Sn  Sn19  1  0.861609  0.493154  0.493154  1
  Sn  Sn20  1  0.493154  0.493154  0.861609  1
  Sn  Sn21  1  0.493154  0.861609  0.493154  1
  Sn  Sn22  1  0.750000  0.750000  0.750000  1
  Ir  Ir23  1  0.754385  0.754385  0.245615  1
  Ir  Ir24  1  0.245615  0.754385  0.245615  1
  Ir  Ir25  1  0.754385  0.245615  0.245615  1
  Ir  Ir26  1  0.245615  0.245615  0.754385  1
  Ir  Ir27  1  0.754385  0.245615  0.754385  1
  Ir  Ir28  1  0.245615  0.754385  0.754385  1
