# generated using pymatgen
data_RbYbHfF7
_symmetry_space_group_name_H-M   'P 1'
_cell_length_a   6.55086830
_cell_length_b   6.55086870
_cell_length_c   8.51853000
_cell_angle_alpha   90.00000000
_cell_angle_beta   90.00000000
_cell_angle_gamma   116.84280329
_symmetry_Int_Tables_number   1
_chemical_formula_structural   RbYbHfF7
_chemical_formula_sum   'Rb2 Yb2 Hf2 F14'
_cell_volume   326.17326613
_cell_formula_units_Z   2
loop_
 _symmetry_equiv_pos_site_id
 _symmetry_equiv_pos_as_xyz
  1  'x, y, z'
loop_
 _atom_site_type_symbol
 _atom_site_label
 _atom_site_symmetry_multiplicity
 _atom_site_fract_x
 _atom_site_fract_y
 _atom_site_fract_z
 _atom_site_occupancy
  Rb  Rb0  1  0.000000  0.000000  0.000000  1
  Rb  Rb1  1  0.000000  0.000000  0.500000  1
  Yb  Yb2  1  0.308208  0.691792  0.750000  1
  Yb  Yb3  1  0.691792  0.308208  0.250000  1
  Hf  Hf4  1  0.693384  0.306616  0.750000  1
  Hf  Hf5  1  0.306616  0.693384  0.250000  1
  F  F6  1  0.348689  0.062325  0.750000  1
  F  F7  1  0.651311  0.937675  0.250000  1
  F  F8  1  0.937675  0.651311  0.750000  1
  F  F9  1  0.062325  0.348689  0.250000  1
  F  F10  1  0.510067  0.489933  0.750000  1
  F  F11  1  0.489933  0.510067  0.250000  1
  F  F12  1  0.702355  0.297645  0.987083  1
  F  F13  1  0.297645  0.702355  0.012917  1
  F  F14  1  0.297645  0.702355  0.487083  1
  F  F15  1  0.702355  0.297645  0.512917  1
  F  F16  1  0.670177  0.975719  0.750000  1
  F  F17  1  0.329823  0.024281  0.250000  1
  F  F18  1  0.024281  0.329823  0.750000  1
  F  F19  1  0.975719  0.670177  0.250000  1
