# generated using pymatgen
data_Pr4Co4HgI
_symmetry_space_group_name_H-M   'P 1'
_cell_length_a   4.01083700
_cell_length_b   4.01083748
_cell_length_c   17.57753100
_cell_angle_alpha   90.00000000
_cell_angle_beta   90.00000000
_cell_angle_gamma   120.00000427
_symmetry_Int_Tables_number   1
_chemical_formula_structural   Pr4Co4HgI
_chemical_formula_sum   'Pr4 Co4 Hg1 I1'
_cell_volume   244.88295824
_cell_formula_units_Z   1
loop_
 _symmetry_equiv_pos_site_id
 _symmetry_equiv_pos_as_xyz
  1  'x, y, z'
loop_
 _atom_site_type_symbol
 _atom_site_label
 _atom_site_symmetry_multiplicity
 _atom_site_fract_x
 _atom_site_fract_y
 _atom_site_fract_z
 _atom_site_occupancy
  Pr  Pr0  1  0.000000  0.000000  0.103138  1
  Pr  Pr1  1  0.000000  0.000000  0.396862  1
  Pr  Pr2  1  0.000000  0.000000  0.886523  1
  Pr  Pr3  1  0.000000  0.000000  0.613477  1
  Co  Co4  1  0.333333  0.666667  0.997923  1
  Co  Co5  1  0.666667  0.333333  0.997172  1
  Co  Co6  1  0.333333  0.666667  0.502077  1
  Co  Co7  1  0.666667  0.333333  0.502828  1
  Hg  Hg8  1  0.333333  0.666667  0.750000  1
  I  I9  1  0.666667  0.333333  0.250000  1
