# generated using pymatgen
data_Cd2NiRh3O8
_symmetry_space_group_name_H-M   'P 1'
_cell_length_a   6.22155421
_cell_length_b   6.22155497
_cell_length_c   6.22155441
_cell_angle_alpha   61.19549167
_cell_angle_beta   61.19549198
_cell_angle_gamma   61.19549689
_symmetry_Int_Tables_number   1
_chemical_formula_structural   Cd2NiRh3O8
_chemical_formula_sum   'Cd2 Ni1 Rh3 O8'
_cell_volume   174.86653932
_cell_formula_units_Z   1
loop_
 _symmetry_equiv_pos_site_id
 _symmetry_equiv_pos_as_xyz
  1  'x, y, z'
loop_
 _atom_site_type_symbol
 _atom_site_label
 _atom_site_symmetry_multiplicity
 _atom_site_fract_x
 _atom_site_fract_y
 _atom_site_fract_z
 _atom_site_occupancy
  Cd  Cd0  1  0.244689  0.244689  0.244689  1
  Cd  Cd1  1  0.005311  0.005311  0.005311  1
  Ni  Ni2  1  0.625000  0.625000  0.625000  1
  Rh  Rh3  1  0.625000  0.625000  0.125000  1
  Rh  Rh4  1  0.625000  0.125000  0.625000  1
  Rh  Rh5  1  0.125000  0.625000  0.625000  1
  O  O6  1  0.861050  0.861050  0.429122  1
  O  O7  1  0.861050  0.429122  0.861050  1
  O  O8  1  0.429122  0.861050  0.861050  1
  O  O9  1  0.857529  0.857529  0.857529  1
  O  O10  1  0.388950  0.388950  0.820878  1
  O  O11  1  0.388950  0.820878  0.388950  1
  O  O12  1  0.820878  0.388950  0.388950  1
  O  O13  1  0.392471  0.392471  0.392471  1
