# generated using pymatgen
data_KOs2F11
_symmetry_space_group_name_H-M   'P 1'
_cell_length_a   5.36005700
_cell_length_b   5.71142773
_cell_length_c   15.69101900
_cell_angle_alpha   74.02022235
_cell_angle_beta   90.00000000
_cell_angle_gamma   90.00000000
_symmetry_Int_Tables_number   1
_chemical_formula_structural   KOs2F11
_chemical_formula_sum   'K2 Os4 F22'
_cell_volume   461.79667637
_cell_formula_units_Z   2
loop_
 _symmetry_equiv_pos_site_id
 _symmetry_equiv_pos_as_xyz
  1  'x, y, z'
loop_
 _atom_site_type_symbol
 _atom_site_label
 _atom_site_symmetry_multiplicity
 _atom_site_fract_x
 _atom_site_fract_y
 _atom_site_fract_z
 _atom_site_occupancy
  K  K0  1  0.301990  0.500000  0.250000  1
  K  K1  1  0.698010  0.500000  0.750000  1
  Os  Os2  1  0.753985  0.870061  0.376520  1
  Os  Os3  1  0.753985  0.129939  0.123480  1
  Os  Os4  1  0.246015  0.870061  0.876520  1
  Os  Os5  1  0.246015  0.129939  0.623480  1
  F  F6  1  0.409665  0.859203  0.600161  1
  F  F7  1  0.130076  0.249930  0.508115  1
  F  F8  1  0.590335  0.140797  0.399839  1
  F  F9  1  0.869924  0.249930  0.008115  1
  F  F10  1  0.409665  0.140797  0.899839  1
  F  F11  1  0.869924  0.750070  0.491885  1
  F  F12  1  0.590335  0.859203  0.100161  1
  F  F13  1  0.130076  0.750070  0.991885  1
  F  F14  1  0.455871  0.682145  0.398667  1
  F  F15  1  0.611408  0.000000  0.250000  1
  F  F16  1  0.044383  0.934961  0.160424  1
  F  F17  1  0.388592  0.000000  0.750000  1
  F  F18  1  0.903939  0.612330  0.338180  1
  F  F19  1  0.544129  0.682145  0.898667  1
  F  F20  1  0.096061  0.387670  0.661820  1
  F  F21  1  0.044383  0.065039  0.339576  1
  F  F22  1  0.096061  0.612330  0.838180  1
  F  F23  1  0.544129  0.317855  0.601333  1
  F  F24  1  0.955617  0.065039  0.839576  1
  F  F25  1  0.903939  0.387670  0.161820  1
  F  F26  1  0.955617  0.934961  0.660424  1
  F  F27  1  0.455871  0.317855  0.101333  1
