# generated using pymatgen
data_Zn22NiIr2Rh
_symmetry_space_group_name_H-M   'P 1'
_cell_length_a   7.88447493
_cell_length_b   7.88447360
_cell_length_c   7.85734927
_cell_angle_alpha   109.38539450
_cell_angle_beta   109.38538651
_cell_angle_gamma   109.58115626
_symmetry_Int_Tables_number   1
_chemical_formula_structural   Zn22NiIr2Rh
_chemical_formula_sum   'Zn22 Ni1 Ir2 Rh1'
_cell_volume   376.29527854
_cell_formula_units_Z   1
loop_
 _symmetry_equiv_pos_site_id
 _symmetry_equiv_pos_as_xyz
  1  'x, y, z'
loop_
 _atom_site_type_symbol
 _atom_site_label
 _atom_site_symmetry_multiplicity
 _atom_site_fract_x
 _atom_site_fract_y
 _atom_site_fract_z
 _atom_site_occupancy
  Zn  Zn0  1  0.214736  0.003640  0.002930  1
  Zn  Zn1  1  0.003640  0.214736  0.002930  1
  Zn  Zn2  1  0.003197  0.003197  0.214880  1
  Zn  Zn3  1  0.796617  0.796617  0.796355  1
  Zn  Zn4  1  0.991216  0.639277  0.637822  1
  Zn  Zn5  1  0.355753  0.003658  0.359066  1
  Zn  Zn6  1  0.356181  0.356181  0.001882  1
  Zn  Zn7  1  0.003658  0.355753  0.359066  1
  Zn  Zn8  1  0.639277  0.991216  0.637822  1
  Zn  Zn9  1  0.639315  0.639315  0.994131  1
  Zn  Zn10  1  0.349330  0.733985  0.998234  1
  Zn  Zn11  1  0.613861  0.269471  0.268663  1
  Zn  Zn12  1  0.349355  0.999476  0.734190  1
  Zn  Zn13  1  0.733985  0.349330  0.998234  1
  Zn  Zn14  1  0.999476  0.349355  0.734190  1
  Zn  Zn15  1  0.269471  0.613861  0.268663  1
  Zn  Zn16  1  0.269692  0.269692  0.615180  1
  Zn  Zn17  1  0.999396  0.734872  0.350881  1
  Zn  Zn18  1  0.734872  0.999396  0.350881  1
  Zn  Zn19  1  0.643835  0.643835  0.388264  1
  Zn  Zn20  1  0.389519  0.643981  0.643460  1
  Zn  Zn21  1  0.643981  0.389519  0.643460  1
  Ni  Ni22  1  0.342761  0.342761  0.342883  1
  Ir  Ir23  1  0.653046  0.002196  0.001651  1
  Ir  Ir24  1  0.002196  0.653046  0.001651  1
  Rh  Rh25  1  0.001635  0.001635  0.652629  1
