# generated using pymatgen
data_Ho2P4Ru5Rh
_symmetry_space_group_name_H-M   'P 1'
_cell_length_a   3.96828700
_cell_length_b   11.14539483
_cell_length_c   12.58566052
_cell_angle_alpha   89.81976079
_cell_angle_beta   90.00000000
_cell_angle_gamma   90.00000000
_symmetry_Int_Tables_number   1
_chemical_formula_structural   Ho2P4Ru5Rh
_chemical_formula_sum   'Ho6 P12 Ru15 Rh3'
_cell_volume   556.63741765
_cell_formula_units_Z   3
loop_
 _symmetry_equiv_pos_site_id
 _symmetry_equiv_pos_as_xyz
  1  'x, y, z'
loop_
 _atom_site_type_symbol
 _atom_site_label
 _atom_site_symmetry_multiplicity
 _atom_site_fract_x
 _atom_site_fract_y
 _atom_site_fract_z
 _atom_site_occupancy
  Ho  Ho0  1  0.000000  0.499087  0.524997  1
  Ho  Ho1  1  0.500000  0.000749  0.474923  1
  Ho  Ho2  1  0.500000  0.816851  0.205540  1
  Ho  Ho3  1  0.500000  0.183715  0.204238  1
  Ho  Ho4  1  0.000000  0.683017  0.796050  1
  Ho  Ho5  1  0.000000  0.317319  0.795644  1
  P  P6  1  0.500000  0.302335  0.616169  1
  P  P7  1  0.500000  0.697191  0.616100  1
  P  P8  1  0.000000  0.197703  0.383878  1
  P  P9  1  0.000000  0.802019  0.383979  1
  P  P10  1  0.500000  0.501431  0.880402  1
  P  P11  1  0.000000  0.002595  0.121106  1
  P  P12  1  0.500000  0.848214  0.891099  1
  P  P13  1  0.500000  0.153917  0.895702  1
  P  P14  1  0.000000  0.651121  0.106092  1
  P  P15  1  0.000000  0.345242  0.104087  1
  P  P16  1  0.500000  0.500212  0.339160  1
  P  P17  1  0.000000  0.999563  0.660320  1
  Ru  Ru18  1  0.000000  0.501002  0.985228  1
  Ru  Ru19  1  0.500000  0.997678  0.014363  1
  Ru  Ru20  1  0.500000  0.300381  0.429414  1
  Ru  Ru21  1  0.500000  0.699559  0.429621  1
  Ru  Ru22  1  0.000000  0.199469  0.570753  1
  Ru  Ru23  1  0.000000  0.799047  0.569944  1
  Ru  Ru24  1  0.500000  0.878869  0.711425  1
  Ru  Ru25  1  0.500000  0.121847  0.714878  1
  Ru  Ru26  1  0.000000  0.621601  0.286656  1
  Ru  Ru27  1  0.000000  0.378117  0.285004  1
  Ru  Ru28  1  0.500000  0.332026  0.989247  1
  Ru  Ru29  1  0.500000  0.671702  0.986316  1
  Ru  Ru30  1  0.000000  0.167170  0.010262  1
  Ru  Ru31  1  0.500000  0.502423  0.154626  1
  Ru  Ru32  1  0.000000  0.996060  0.844869  1
  Rh  Rh33  1  0.000000  0.831158  0.017649  1
  Rh  Rh34  1  0.500000  0.499791  0.692818  1
  Rh  Rh35  1  0.000000  0.999818  0.307439  1
