# generated using pymatgen
data_Hf12MnTc5Ir6
_symmetry_space_group_name_H-M   'P 1'
_cell_length_a   4.59621500
_cell_length_b   6.47394200
_cell_length_c   13.89550300
_cell_angle_alpha   90.00000000
_cell_angle_beta   90.00048013
_cell_angle_gamma   90.00000000
_symmetry_Int_Tables_number   1
_chemical_formula_structural   Hf12MnTc5Ir6
_chemical_formula_sum   'Hf12 Mn1 Tc5 Ir6'
_cell_volume   413.46943661
_cell_formula_units_Z   1
loop_
 _symmetry_equiv_pos_site_id
 _symmetry_equiv_pos_as_xyz
  1  'x, y, z'
loop_
 _atom_site_type_symbol
 _atom_site_label
 _atom_site_symmetry_multiplicity
 _atom_site_fract_x
 _atom_site_fract_y
 _atom_site_fract_z
 _atom_site_occupancy
  Hf  Hf0  1  0.500011  0.251132  0.998089  1
  Hf  Hf1  1  0.500011  0.748868  0.998089  1
  Hf  Hf2  1  0.999933  0.249541  0.166501  1
  Hf  Hf3  1  0.999933  0.750459  0.166501  1
  Hf  Hf4  1  0.499939  0.249880  0.333333  1
  Hf  Hf5  1  0.499939  0.750120  0.333333  1
  Hf  Hf6  1  0.000011  0.249541  0.500166  1
  Hf  Hf7  1  0.000011  0.750459  0.500166  1
  Hf  Hf8  1  0.500096  0.251130  0.668575  1
  Hf  Hf9  1  0.500096  0.748870  0.668575  1
  Hf  Hf10  1  0.000088  0.253023  0.833332  1
  Hf  Hf11  1  0.000088  0.746977  0.833332  1
  Mn  Mn12  1  0.499794  0.499999  0.833348  1
  Tc  Tc13  1  0.000013  0.000000  0.999535  1
  Tc  Tc14  1  0.499930  0.499999  0.166231  1
  Tc  Tc15  1  0.999931  0.000000  0.333332  1
  Tc  Tc16  1  0.500012  0.499999  0.500436  1
  Tc  Tc17  1  0.000095  0.000000  0.667131  1
  Ir  Ir18  1  0.000007  0.499999  0.999174  1
  Ir  Ir19  1  0.499934  0.000000  0.166265  1
  Ir  Ir20  1  0.999939  0.499999  0.333334  1
  Ir  Ir21  1  0.500011  0.000000  0.500401  1
  Ir  Ir22  1  0.000094  0.499999  0.667491  1
  Ir  Ir23  1  0.500083  0.000000  0.833331  1
