# generated using pymatgen
data_Sr(RhO3)2
_symmetry_space_group_name_H-M   'P 1'
_cell_length_a   5.29113501
_cell_length_b   5.29143605
_cell_length_c   10.54258631
_cell_angle_alpha   89.97519203
_cell_angle_beta   90.00144896
_cell_angle_gamma   120.00586699
_symmetry_Int_Tables_number   1
_chemical_formula_structural   Sr(RhO3)2
_chemical_formula_sum   'Sr2 Rh4 O12'
_cell_volume   255.60801209
_cell_formula_units_Z   2
loop_
 _symmetry_equiv_pos_site_id
 _symmetry_equiv_pos_as_xyz
  1  'x, y, z'
loop_
 _atom_site_type_symbol
 _atom_site_label
 _atom_site_symmetry_multiplicity
 _atom_site_fract_x
 _atom_site_fract_y
 _atom_site_fract_z
 _atom_site_occupancy
  Sr  Sr0  1  0.000002  0.000027  0.999979  1
  Sr  Sr1  1  0.999978  0.999996  0.500046  1
  Rh  Rh2  1  0.666498  0.333256  0.750060  1
  Rh  Rh3  1  0.333411  0.666816  0.250046  1
  Rh  Rh4  1  0.666451  0.333416  0.250054  1
  Rh  Rh5  1  0.333576  0.666589  0.750053  1
  O  O6  1  0.619081  0.619177  0.351822  1
  O  O7  1  0.619253  0.619113  0.851769  1
  O  O8  1  0.000138  0.380862  0.351850  1
  O  O9  1  0.999836  0.380732  0.851793  1
  O  O10  1  0.380855  0.999887  0.351821  1
  O  O11  1  0.380909  0.000251  0.851788  1
  O  O12  1  0.619104  0.999805  0.148098  1
  O  O13  1  0.619265  0.000155  0.648210  1
  O  O14  1  0.380818  0.380869  0.148102  1
  O  O15  1  0.380923  0.380726  0.648224  1
  O  O16  1  0.000114  0.619180  0.148098  1
  O  O17  1  0.999787  0.619144  0.648186  1
