# generated using pymatgen
data_Np2Fe9MoP6
_symmetry_space_group_name_H-M   'P 1'
_cell_length_a   3.66236300
_cell_length_b   10.33020800
_cell_length_c   11.83463000
_cell_angle_alpha   90.00000000
_cell_angle_beta   90.00000000
_cell_angle_gamma   90.00000000
_symmetry_Int_Tables_number   1
_chemical_formula_structural   Np2Fe9MoP6
_chemical_formula_sum   'Np4 Fe18 Mo2 P12'
_cell_volume   447.73922023
_cell_formula_units_Z   2
loop_
 _symmetry_equiv_pos_site_id
 _symmetry_equiv_pos_as_xyz
  1  'x, y, z'
loop_
 _atom_site_type_symbol
 _atom_site_label
 _atom_site_symmetry_multiplicity
 _atom_site_fract_x
 _atom_site_fract_y
 _atom_site_fract_z
 _atom_site_occupancy
  Np  Np0  1  0.250000  0.578517  0.701962  1
  Np  Np1  1  0.250000  0.921483  0.201962  1
  Np  Np2  1  0.750000  0.417999  0.292094  1
  Np  Np3  1  0.750000  0.082001  0.792094  1
  Fe  Fe4  1  0.750000  0.294778  0.009136  1
  Fe  Fe5  1  0.750000  0.205222  0.509136  1
  Fe  Fe6  1  0.250000  0.401978  0.486739  1
  Fe  Fe7  1  0.250000  0.098022  0.986739  1
  Fe  Fe8  1  0.750000  0.589517  0.520815  1
  Fe  Fe9  1  0.750000  0.910483  0.020815  1
  Fe  Fe10  1  0.250000  0.222940  0.172524  1
  Fe  Fe11  1  0.250000  0.277060  0.672524  1
  Fe  Fe12  1  0.750000  0.783779  0.828387  1
  Fe  Fe13  1  0.750000  0.716221  0.328387  1
  Fe  Fe14  1  0.250000  0.887044  0.703202  1
  Fe  Fe15  1  0.250000  0.612956  0.203202  1
  Fe  Fe16  1  0.750000  0.121662  0.299391  1
  Fe  Fe17  1  0.750000  0.378338  0.799391  1
  Fe  Fe18  1  0.250000  0.461073  0.929916  1
  Fe  Fe19  1  0.250000  0.038927  0.429916  1
  Fe  Fe20  1  0.750000  0.531567  0.065844  1
  Fe  Fe21  1  0.750000  0.968433  0.565844  1
  Mo  Mo22  1  0.250000  0.706366  0.990586  1
  Mo  Mo23  1  0.250000  0.793634  0.490586  1
  P  P24  1  0.250000  0.419723  0.109809  1
  P  P25  1  0.250000  0.080277  0.609809  1
  P  P26  1  0.750000  0.577855  0.883779  1
  P  P27  1  0.750000  0.922145  0.383779  1
  P  P28  1  0.250000  0.266783  0.864136  1
  P  P29  1  0.250000  0.233217  0.364136  1
  P  P30  1  0.750000  0.725853  0.141346  1
  P  P31  1  0.750000  0.774147  0.641346  1
  P  P32  1  0.250000  0.593628  0.393304  1
  P  P33  1  0.250000  0.906372  0.893304  1
  P  P34  1  0.750000  0.389295  0.607030  1
  P  P35  1  0.750000  0.110705  0.107030  1
