# generated using pymatgen
data_Na4MgTeO6
_symmetry_space_group_name_H-M   'P 1'
_cell_length_a   7.32057499
_cell_length_b   7.32057528
_cell_length_c   5.52264900
_cell_angle_alpha   83.31126153
_cell_angle_beta   83.31125814
_cell_angle_gamma   82.46079937
_symmetry_Int_Tables_number   1
_chemical_formula_structural   Na4MgTeO6
_chemical_formula_sum   'Na8 Mg2 Te2 O12'
_cell_volume   289.86461783
_cell_formula_units_Z   2
loop_
 _symmetry_equiv_pos_site_id
 _symmetry_equiv_pos_as_xyz
  1  'x, y, z'
loop_
 _atom_site_type_symbol
 _atom_site_label
 _atom_site_symmetry_multiplicity
 _atom_site_fract_x
 _atom_site_fract_y
 _atom_site_fract_z
 _atom_site_occupancy
  Na  Na0  1  0.418770  0.581230  0.750000  1
  Na  Na1  1  0.336566  0.174110  0.013596  1
  Na  Na2  1  0.581230  0.418770  0.250000  1
  Na  Na3  1  0.174110  0.336566  0.513596  1
  Na  Na4  1  0.825890  0.663434  0.486404  1
  Na  Na5  1  0.663434  0.825890  0.986404  1
  Na  Na6  1  0.500000  0.000000  0.500000  1
  Na  Na7  1  0.000000  0.500000  0.000000  1
  Mg  Mg8  1  0.082914  0.917086  0.750000  1
  Mg  Mg9  1  0.917086  0.082914  0.250000  1
  Te  Te10  1  0.756142  0.243858  0.750000  1
  Te  Te11  1  0.243858  0.756142  0.250000  1
  O  O12  1  0.493419  0.725565  0.349512  1
  O  O13  1  0.725565  0.493419  0.849512  1
  O  O14  1  0.990040  0.810020  0.127115  1
  O  O15  1  0.506581  0.274435  0.650488  1
  O  O16  1  0.274435  0.506581  0.150488  1
  O  O17  1  0.867600  0.332222  0.421612  1
  O  O18  1  0.332222  0.867600  0.921612  1
  O  O19  1  0.667778  0.132400  0.078388  1
  O  O20  1  0.189980  0.009960  0.372885  1
  O  O21  1  0.810020  0.990040  0.627115  1
  O  O22  1  0.132400  0.667778  0.578388  1
  O  O23  1  0.009960  0.189980  0.872885  1
