# generated using pymatgen
data_TbNd3MgAl17Pd6
_symmetry_space_group_name_H-M   'P 1'
_cell_length_a   7.72364249
_cell_length_b   7.73908532
_cell_length_c   9.59275472
_cell_angle_alpha   90.07475891
_cell_angle_beta   89.95637777
_cell_angle_gamma   119.59316413
_symmetry_Int_Tables_number   1
_chemical_formula_structural   TbNd3MgAl17Pd6
_chemical_formula_sum   'Tb1 Nd3 Mg1 Al17 Pd6'
_cell_volume   498.59882267
_cell_formula_units_Z   1
loop_
 _symmetry_equiv_pos_site_id
 _symmetry_equiv_pos_as_xyz
  1  'x, y, z'
loop_
 _atom_site_type_symbol
 _atom_site_label
 _atom_site_symmetry_multiplicity
 _atom_site_fract_x
 _atom_site_fract_y
 _atom_site_fract_z
 _atom_site_occupancy
  Tb  Tb0  1  0.330397  0.005907  0.749634  1
  Nd  Nd1  1  0.995306  0.674087  0.251872  1
  Nd  Nd2  1  0.005234  0.330817  0.748414  1
  Nd  Nd3  1  0.665756  0.988898  0.251769  1
  Mg  Mg4  1  0.997674  0.334377  0.077465  1
  Al  Al5  1  0.133258  0.129545  0.250854  1
  Al  Al6  1  0.869678  0.868259  0.750925  1
  Al  Al7  1  0.000153  0.665672  0.923767  1
  Al  Al8  1  0.999368  0.667248  0.577125  1
  Al  Al9  1  0.335134  0.003139  0.427608  1
  Al  Al10  1  0.003171  0.334664  0.421072  1
  Al  Al11  1  0.663723  0.997549  0.577392  1
  Al  Al12  1  0.665530  0.999488  0.923802  1
  Al  Al13  1  0.334904  0.002805  0.072068  1
  Al  Al14  1  0.334672  0.333412  0.557102  1
  Al  Al15  1  0.664910  0.664564  0.447258  1
  Al  Al16  1  0.665207  0.664561  0.051190  1
  Al  Al17  1  0.332207  0.333373  0.942650  1
  Al  Al18  1  0.341957  0.544916  0.250653  1
  Al  Al19  1  0.658747  0.454874  0.749100  1
  Al  Al20  1  0.547846  0.337490  0.249042  1
  Al  Al21  1  0.455153  0.663729  0.750882  1
  Pd  Pd22  1  0.660165  0.326938  0.994789  1
  Pd  Pd23  1  0.335842  0.678689  0.999036  1
  Pd  Pd24  1  0.329661  0.672052  0.502118  1
  Pd  Pd25  1  0.670938  0.328662  0.501472  1
  Pd  Pd26  1  0.002216  0.994107  0.997849  1
  Pd  Pd27  1  0.001191  0.000180  0.503094  1
