# generated using pymatgen
data_SmErPuO6
_symmetry_space_group_name_H-M   'P 1'
_cell_length_a   5.59437700
_cell_length_b   7.88424335
_cell_length_c   11.82884700
_cell_angle_alpha   74.29135474
_cell_angle_beta   90.00000000
_cell_angle_gamma   90.00000000
_symmetry_Int_Tables_number   1
_chemical_formula_structural   SmErPuO6
_chemical_formula_sum   'Sm4 Er4 Pu4 O24'
_cell_volume   502.25351906
_cell_formula_units_Z   4
loop_
 _symmetry_equiv_pos_site_id
 _symmetry_equiv_pos_as_xyz
  1  'x, y, z'
loop_
 _atom_site_type_symbol
 _atom_site_label
 _atom_site_symmetry_multiplicity
 _atom_site_fract_x
 _atom_site_fract_y
 _atom_site_fract_z
 _atom_site_occupancy
  Sm  Sm0  1  0.746699  0.000000  0.750000  1
  Sm  Sm1  1  0.253301  0.000000  0.250000  1
  Sm  Sm2  1  0.691949  0.500000  0.750000  1
  Sm  Sm3  1  0.308051  0.500000  0.250000  1
  Er  Er4  1  0.181812  0.792551  0.580134  1
  Er  Er5  1  0.818188  0.792551  0.080134  1
  Er  Er6  1  0.181812  0.207449  0.919866  1
  Er  Er7  1  0.818188  0.207449  0.419866  1
  Pu  Pu8  1  0.256099  0.723394  0.886502  1
  Pu  Pu9  1  0.743901  0.723394  0.386502  1
  Pu  Pu10  1  0.256099  0.276606  0.613498  1
  Pu  Pu11  1  0.743901  0.276606  0.113498  1
  O  O12  1  0.050598  0.944591  0.900203  1
  O  O13  1  0.556077  0.843245  0.935404  1
  O  O14  1  0.949402  0.944591  0.400203  1
  O  O15  1  0.446417  0.797003  0.725727  1
  O  O16  1  0.443923  0.843245  0.435404  1
  O  O17  1  0.968924  0.715824  0.765465  1
  O  O18  1  0.553583  0.797003  0.225727  1
  O  O19  1  0.870172  0.631192  0.553497  1
  O  O20  1  0.373311  0.482776  0.884215  1
  O  O21  1  0.031076  0.715824  0.265465  1
  O  O22  1  0.373311  0.517224  0.615785  1
  O  O23  1  0.870172  0.368808  0.946503  1
  O  O24  1  0.129828  0.631192  0.053497  1
  O  O25  1  0.626689  0.482776  0.384215  1
  O  O26  1  0.968924  0.284176  0.734535  1
  O  O27  1  0.626689  0.517224  0.115785  1
  O  O28  1  0.129828  0.368808  0.446503  1
  O  O29  1  0.446417  0.202997  0.774273  1
  O  O30  1  0.031076  0.284176  0.234535  1
  O  O31  1  0.556077  0.156755  0.564596  1
  O  O32  1  0.553583  0.202997  0.274273  1
  O  O33  1  0.050598  0.055409  0.599797  1
  O  O34  1  0.443923  0.156755  0.064596  1
  O  O35  1  0.949402  0.055409  0.099797  1
