# generated using pymatgen
data_Tb4MgNi2Au
_symmetry_space_group_name_H-M   'P 1'
_cell_length_a   8.57194612
_cell_length_b   8.57194528
_cell_length_c   8.57194570
_cell_angle_alpha   129.24589681
_cell_angle_beta   129.24590202
_cell_angle_gamma   74.61523035
_symmetry_Int_Tables_number   1
_chemical_formula_structural   Tb4MgNi2Au
_chemical_formula_sum   'Tb8 Mg2 Ni4 Au2'
_cell_volume   368.06973955
_cell_formula_units_Z   2
loop_
 _symmetry_equiv_pos_site_id
 _symmetry_equiv_pos_as_xyz
  1  'x, y, z'
loop_
 _atom_site_type_symbol
 _atom_site_label
 _atom_site_symmetry_multiplicity
 _atom_site_fract_x
 _atom_site_fract_y
 _atom_site_fract_z
 _atom_site_occupancy
  Tb  Tb0  1  0.804616  0.304616  0.847222  1
  Tb  Tb1  1  0.195384  0.695384  0.152778  1
  Tb  Tb2  1  0.457394  0.957394  0.152778  1
  Tb  Tb3  1  0.304616  0.457394  0.500000  1
  Tb  Tb4  1  0.042606  0.195384  0.500000  1
  Tb  Tb5  1  0.542606  0.042606  0.847222  1
  Tb  Tb6  1  0.695384  0.542606  0.500000  1
  Tb  Tb7  1  0.957394  0.804616  0.500000  1
  Mg  Mg8  1  0.000000  0.000000  0.000000  1
  Mg  Mg9  1  0.500000  0.500000  0.000000  1
  Ni  Ni10  1  0.124481  0.624481  0.748963  1
  Ni  Ni11  1  0.875519  0.375519  0.251037  1
  Ni  Ni12  1  0.624481  0.875519  0.500000  1
  Ni  Ni13  1  0.375519  0.124481  0.500000  1
  Au  Au14  1  0.250000  0.250000  0.000000  1
  Au  Au15  1  0.750000  0.750000  0.000000  1
