# generated using pymatgen
data_ErPa3(CoGe)4
_symmetry_space_group_name_H-M   'P 1'
_cell_length_a   4.23438200
_cell_length_b   6.88253383
_cell_length_c   7.21133369
_cell_angle_alpha   90.24621609
_cell_angle_beta   90.00000000
_cell_angle_gamma   90.00000000
_symmetry_Int_Tables_number   1
_chemical_formula_structural   ErPa3(CoGe)4
_chemical_formula_sum   'Er1 Pa3 Co4 Ge4'
_cell_volume   210.15995731
_cell_formula_units_Z   1
loop_
 _symmetry_equiv_pos_site_id
 _symmetry_equiv_pos_as_xyz
  1  'x, y, z'
loop_
 _atom_site_type_symbol
 _atom_site_label
 _atom_site_symmetry_multiplicity
 _atom_site_fract_x
 _atom_site_fract_y
 _atom_site_fract_z
 _atom_site_occupancy
  Er  Er0  1  0.750000  0.486906  0.292076  1
  Pa  Pa1  1  0.250000  0.011531  0.797971  1
  Pa  Pa2  1  0.250000  0.514168  0.711703  1
  Pa  Pa3  1  0.750000  0.989654  0.200887  1
  Co  Co4  1  0.250000  0.801795  0.421371  1
  Co  Co5  1  0.250000  0.261756  0.070471  1
  Co  Co6  1  0.750000  0.205483  0.585542  1
  Co  Co7  1  0.750000  0.722803  0.915931  1
  Ge  Ge8  1  0.250000  0.197484  0.412133  1
  Ge  Ge9  1  0.250000  0.690958  0.095059  1
  Ge  Ge10  1  0.750000  0.804000  0.581320  1
  Ge  Ge11  1  0.750000  0.313463  0.915536  1
