# generated using pymatgen
data_InSn7Pd4
_symmetry_space_group_name_H-M   'P 1'
_cell_length_a   6.59259450
_cell_length_b   6.61415714
_cell_length_c   13.16885625
_cell_angle_alpha   104.54431838
_cell_angle_beta   104.31866094
_cell_angle_gamma   89.99999518
_symmetry_Int_Tables_number   1
_chemical_formula_structural   InSn7Pd4
_chemical_formula_sum   'In2 Sn14 Pd8'
_cell_volume   537.37062005
_cell_formula_units_Z   2
loop_
 _symmetry_equiv_pos_site_id
 _symmetry_equiv_pos_as_xyz
  1  'x, y, z'
loop_
 _atom_site_type_symbol
 _atom_site_label
 _atom_site_symmetry_multiplicity
 _atom_site_fract_x
 _atom_site_fract_y
 _atom_site_fract_z
 _atom_site_occupancy
  In  In0  1  0.339731  0.161254  0.999988  1
  In  In1  1  0.839731  0.338734  0.999988  1
  Sn  Sn2  1  0.158645  0.659671  0.999867  1
  Sn  Sn3  1  0.658645  0.840196  0.999867  1
  Sn  Sn4  1  0.875511  0.369512  0.249418  1
  Sn  Sn5  1  0.375510  0.379907  0.249418  1
  Sn  Sn6  1  0.875579  0.869006  0.250401  1
  Sn  Sn7  1  0.375578  0.881395  0.250401  1
  Sn  Sn8  1  0.090916  0.090445  0.500147  1
  Sn  Sn9  1  0.409600  0.410000  0.499881  1
  Sn  Sn10  1  0.909599  0.589883  0.499881  1
  Sn  Sn11  1  0.590917  0.909702  0.500147  1
  Sn  Sn12  1  0.119116  0.125904  0.750617  1
  Sn  Sn13  1  0.619117  0.124713  0.750617  1
  Sn  Sn14  1  0.130513  0.624730  0.749729  1
  Sn  Sn15  1  0.630514  0.624999  0.749729  1
  Pd  Pd16  1  0.059066  0.057033  0.118806  1
  Pd  Pd17  1  0.559065  0.561773  0.118806  1
  Pd  Pd18  1  0.691655  0.190729  0.381140  1
  Pd  Pd19  1  0.191656  0.690410  0.381140  1
  Pd  Pd20  1  0.808893  0.309287  0.618891  1
  Pd  Pd21  1  0.308894  0.809603  0.618891  1
  Pd  Pd22  1  0.440775  0.442375  0.881114  1
  Pd  Pd23  1  0.940774  0.938738  0.881114  1
