# generated using pymatgen
data_LiSm8Sc11Si15As
_symmetry_space_group_name_H-M   'P 1'
_cell_length_a   7.17813081
_cell_length_b   7.46234527
_cell_length_c   14.13210252
_cell_angle_alpha   90.13632282
_cell_angle_beta   89.23142805
_cell_angle_gamma   90.16354820
_symmetry_Int_Tables_number   1
_chemical_formula_structural   LiSm8Sc11Si15As
_chemical_formula_sum   'Li1 Sm8 Sc11 Si15 As1'
_cell_volume   756.92256680
_cell_formula_units_Z   1
loop_
 _symmetry_equiv_pos_site_id
 _symmetry_equiv_pos_as_xyz
  1  'x, y, z'
loop_
 _atom_site_type_symbol
 _atom_site_label
 _atom_site_symmetry_multiplicity
 _atom_site_fract_x
 _atom_site_fract_y
 _atom_site_fract_z
 _atom_site_occupancy
  Li  Li0  1  0.162098  0.499743  0.751879  1
  Sm  Sm1  1  0.011695  0.173547  0.097795  1
  Sm  Sm2  1  0.989118  0.818187  0.899495  1
  Sm  Sm3  1  0.483036  0.673671  0.899712  1
  Sm  Sm4  1  0.993585  0.815257  0.598697  1
  Sm  Sm5  1  0.511674  0.326683  0.097891  1
  Sm  Sm6  1  0.007006  0.176985  0.403430  1
  Sm  Sm7  1  0.506301  0.324564  0.401680  1
  Sm  Sm8  1  0.490612  0.673240  0.600801  1
  Sc  Sc9  1  0.835252  0.499420  0.252247  1
  Sc  Sc10  1  0.336770  0.999323  0.250908  1
  Sc  Sc11  1  0.662920  0.000224  0.749336  1
  Sc  Sc12  1  0.334610  0.178632  0.627353  1
  Sc  Sc13  1  0.664112  0.826517  0.373651  1
  Sc  Sc14  1  0.160582  0.673650  0.376631  1
  Sc  Sc15  1  0.669401  0.823741  0.125146  1
  Sc  Sc16  1  0.843907  0.330461  0.623808  1
  Sc  Sc17  1  0.328615  0.182046  0.873916  1
  Sc  Sc18  1  0.836377  0.325806  0.873594  1
  Sc  Sc19  1  0.169783  0.678515  0.125194  1
  Si  Si20  1  0.033862  0.110525  0.748490  1
  Si  Si21  1  0.966189  0.880710  0.250215  1
  Si  Si22  1  0.460051  0.622586  0.248930  1
  Si  Si23  1  0.545041  0.378807  0.750563  1
  Si  Si24  1  0.290872  0.889293  0.750022  1
  Si  Si25  1  0.710738  0.122898  0.249569  1
  Si  Si26  1  0.208907  0.379146  0.249915  1
  Si  Si27  1  0.781211  0.621787  0.749768  1
  Si  Si28  1  0.819313  0.541982  0.457473  1
  Si  Si29  1  0.342348  0.962312  0.462837  1
  Si  Si30  1  0.846710  0.536410  0.039350  1
  Si  Si31  1  0.659220  0.036487  0.540267  1
  Si  Si32  1  0.154520  0.461097  0.965431  1
  Si  Si33  1  0.654153  0.035079  0.959323  1
  Si  Si34  1  0.348619  0.965309  0.038443  1
  As  As35  1  0.180791  0.455361  0.536239  1
