# generated using pymatgen
data_Ho2Lu2Si4RuRh3
_symmetry_space_group_name_H-M   'P 1'
_cell_length_a   4.25713100
_cell_length_b   6.84766728
_cell_length_c   7.26470443
_cell_angle_alpha   90.03618574
_cell_angle_beta   90.00000000
_cell_angle_gamma   90.00000000
_symmetry_Int_Tables_number   1
_chemical_formula_structural   Ho2Lu2Si4RuRh3
_chemical_formula_sum   'Ho2 Lu2 Si4 Ru1 Rh3'
_cell_volume   211.77638357
_cell_formula_units_Z   1
loop_
 _symmetry_equiv_pos_site_id
 _symmetry_equiv_pos_as_xyz
  1  'x, y, z'
loop_
 _atom_site_type_symbol
 _atom_site_label
 _atom_site_symmetry_multiplicity
 _atom_site_fract_x
 _atom_site_fract_y
 _atom_site_fract_z
 _atom_site_occupancy
  Ho  Ho0  1  0.750000  0.001380  0.814193  1
  Ho  Ho1  1  0.750000  0.505646  0.687264  1
  Lu  Lu2  1  0.250000  0.494788  0.307818  1
  Lu  Lu3  1  0.250000  0.995980  0.190104  1
  Si  Si4  1  0.750000  0.201135  0.392072  1
  Si  Si5  1  0.250000  0.295592  0.894530  1
  Si  Si6  1  0.750000  0.703765  0.115137  1
  Si  Si7  1  0.250000  0.796885  0.597706  1
  Ru  Ru8  1  0.750000  0.846604  0.431342  1
  Rh  Rh9  1  0.250000  0.157601  0.564085  1
  Rh  Rh10  1  0.750000  0.343464  0.070872  1
  Rh  Rh11  1  0.250000  0.657160  0.934877  1
