# generated using pymatgen
data_SmDy3MnCo13B6
_symmetry_space_group_name_H-M   'P 1'
_cell_length_a   5.06034400
_cell_length_b   5.05999901
_cell_length_c   12.69132700
_cell_angle_alpha   89.99981032
_cell_angle_beta   89.99922678
_cell_angle_gamma   120.00078548
_symmetry_Int_Tables_number   1
_chemical_formula_structural   SmDy3MnCo13B6
_chemical_formula_sum   'Sm1 Dy3 Mn1 Co13 B6'
_cell_volume   281.42631300
_cell_formula_units_Z   1
loop_
 _symmetry_equiv_pos_site_id
 _symmetry_equiv_pos_as_xyz
  1  'x, y, z'
loop_
 _atom_site_type_symbol
 _atom_site_label
 _atom_site_symmetry_multiplicity
 _atom_site_fract_x
 _atom_site_fract_y
 _atom_site_fract_z
 _atom_site_occupancy
  Sm  Sm0  1  0.999985  0.999971  0.000093  1
  Dy  Dy1  1  0.999991  0.000001  0.261310  1
  Dy  Dy2  1  0.999991  0.999993  0.499873  1
  Dy  Dy3  1  0.999990  0.999990  0.738586  1
  Mn  Mn4  1  0.333589  0.666862  0.000096  1
  Co  Co5  1  0.499930  0.999872  0.614513  1
  Co  Co6  1  0.501064  0.002152  0.842050  1
  Co  Co7  1  0.501067  0.498894  0.842052  1
  Co  Co8  1  0.499933  0.500052  0.385465  1
  Co  Co9  1  0.000108  0.500051  0.614534  1
  Co  Co10  1  0.997779  0.498903  0.158031  1
  Co  Co11  1  0.997807  0.498895  0.842048  1
  Co  Co12  1  0.501113  0.498900  0.158036  1
  Co  Co13  1  0.499932  0.999876  0.385462  1
  Co  Co14  1  0.501106  0.002223  0.158044  1
  Co  Co15  1  0.499930  0.500051  0.614524  1
  Co  Co16  1  0.666624  0.333294  0.999994  1
  Co  Co17  1  0.000109  0.500053  0.385462  1
  B  B18  1  0.666650  0.333309  0.729979  1
  B  B19  1  0.333334  0.666675  0.730804  1
  B  B20  1  0.333265  0.666614  0.269156  1
  B  B21  1  0.666713  0.333385  0.499933  1
  B  B22  1  0.666725  0.333388  0.270023  1
  B  B23  1  0.333265  0.666596  0.499931  1
