# generated using pymatgen
data_Tm2Lu2ReTcB12
_symmetry_space_group_name_H-M   'P 1'
_cell_length_a   3.62826000
_cell_length_b   9.07616440
_cell_length_c   11.43655200
_cell_angle_alpha   90.04992271
_cell_angle_beta   90.00000000
_cell_angle_gamma   90.00000000
_symmetry_Int_Tables_number   1
_chemical_formula_structural   Tm2Lu2ReTcB12
_chemical_formula_sum   'Tm4 Lu4 Re2 Tc2 B24'
_cell_volume   376.61333992
_cell_formula_units_Z   2
loop_
 _symmetry_equiv_pos_site_id
 _symmetry_equiv_pos_as_xyz
  1  'x, y, z'
loop_
 _atom_site_type_symbol
 _atom_site_label
 _atom_site_symmetry_multiplicity
 _atom_site_fract_x
 _atom_site_fract_y
 _atom_site_fract_z
 _atom_site_occupancy
  Tm  Tm0  1  0.000000  0.323558  0.414111  1
  Tm  Tm1  1  0.000000  0.676442  0.585889  1
  Tm  Tm2  1  0.000000  0.823001  0.086073  1
  Tm  Tm3  1  0.000000  0.176999  0.913927  1
  Lu  Lu4  1  0.000000  0.942436  0.370353  1
  Lu  Lu5  1  0.000000  0.057564  0.629647  1
  Lu  Lu6  1  0.000000  0.444071  0.130203  1
  Lu  Lu7  1  0.000000  0.555929  0.869797  1
  Re  Re8  1  0.000000  0.139156  0.179790  1
  Re  Re9  1  0.000000  0.860844  0.820210  1
  Tc  Tc10  1  0.000000  0.639349  0.320277  1
  Tc  Tc11  1  0.000000  0.360651  0.679723  1
  B  B12  1  0.500000  0.553402  0.433304  1
  B  B13  1  0.500000  0.446598  0.566696  1
  B  B14  1  0.500000  0.053306  0.066628  1
  B  B15  1  0.500000  0.946694  0.933372  1
  B  B16  1  0.500000  0.750379  0.419197  1
  B  B17  1  0.500000  0.249621  0.580803  1
  B  B18  1  0.500000  0.250890  0.080768  1
  B  B19  1  0.500000  0.749110  0.919232  1
  B  B20  1  0.500000  0.793043  0.265030  1
  B  B21  1  0.500000  0.206957  0.734970  1
  B  B22  1  0.500000  0.293473  0.235221  1
  B  B23  1  0.500000  0.706527  0.764779  1
  B  B24  1  0.500000  0.630601  0.184610  1
  B  B25  1  0.500000  0.369399  0.815390  1
  B  B26  1  0.500000  0.130327  0.315771  1
  B  B27  1  0.500000  0.869673  0.684229  1
  B  B28  1  0.500000  0.980976  0.212251  1
  B  B29  1  0.500000  0.019024  0.787749  1
  B  B30  1  0.500000  0.481529  0.287938  1
  B  B31  1  0.500000  0.518471  0.712062  1
  B  B32  1  0.500000  0.598982  0.027457  1
  B  B33  1  0.500000  0.401018  0.972543  1
  B  B34  1  0.500000  0.098903  0.472396  1
  B  B35  1  0.500000  0.901097  0.527604  1
