# generated using pymatgen
data_VNi2PdSe4
_symmetry_space_group_name_H-M   'P 1'
_cell_length_a   5.53045216
_cell_length_b   5.53045131
_cell_length_c   5.69884300
_cell_angle_alpha   90.00000000
_cell_angle_beta   90.00000000
_cell_angle_gamma   90.38292339
_symmetry_Int_Tables_number   1
_chemical_formula_structural   VNi2PdSe4
_chemical_formula_sum   'V1 Ni2 Pd1 Se4'
_cell_volume   174.30032881
_cell_formula_units_Z   1
loop_
 _symmetry_equiv_pos_site_id
 _symmetry_equiv_pos_as_xyz
  1  'x, y, z'
loop_
 _atom_site_type_symbol
 _atom_site_label
 _atom_site_symmetry_multiplicity
 _atom_site_fract_x
 _atom_site_fract_y
 _atom_site_fract_z
 _atom_site_occupancy
  V  V0  1  0.000000  0.000000  0.001408  1
  Ni  Ni1  1  0.500000  0.000000  0.998100  1
  Ni  Ni2  1  0.000000  0.500000  0.998100  1
  Pd  Pd3  1  0.000000  0.000000  0.500729  1
  Se  Se4  1  0.745084  0.745084  0.774902  1
  Se  Se5  1  0.254916  0.254916  0.774902  1
  Se  Se6  1  0.253780  0.746220  0.225929  1
  Se  Se7  1  0.746220  0.253780  0.225929  1
