# generated using pymatgen
data_Ho3(FeOs2)2
_symmetry_space_group_name_H-M   'P 1'
_cell_length_a   5.25982447
_cell_length_b   5.25041920
_cell_length_c   13.00776712
_cell_angle_alpha   90.50322952
_cell_angle_beta   89.77361016
_cell_angle_gamma   119.11565602
_symmetry_Int_Tables_number   1
_chemical_formula_structural   Ho3(FeOs2)2
_chemical_formula_sum   'Ho6 Fe4 Os8'
_cell_volume   313.82198476
_cell_formula_units_Z   2
loop_
 _symmetry_equiv_pos_site_id
 _symmetry_equiv_pos_as_xyz
  1  'x, y, z'
loop_
 _atom_site_type_symbol
 _atom_site_label
 _atom_site_symmetry_multiplicity
 _atom_site_fract_x
 _atom_site_fract_y
 _atom_site_fract_z
 _atom_site_occupancy
  Ho  Ho0  1  0.331101  0.666833  0.917095  1
  Ho  Ho1  1  0.997056  0.999060  0.250279  1
  Ho  Ho2  1  0.665697  0.334338  0.583377  1
  Ho  Ho3  1  0.334303  0.665662  0.666623  1
  Ho  Ho4  1  0.002944  0.000940  0.999721  1
  Ho  Ho5  1  0.668899  0.333167  0.332905  1
  Fe  Fe6  1  0.500000  0.500000  0.125000  1
  Fe  Fe7  1  0.167111  0.836359  0.458161  1
  Fe  Fe8  1  0.832889  0.163641  0.791839  1
  Fe  Fe9  1  0.500000  0.000000  0.125000  1
  Os  Os10  1  0.170490  0.338893  0.456782  1
  Os  Os11  1  0.829510  0.661107  0.793218  1
  Os  Os12  1  0.332998  0.670488  0.287312  1
  Os  Os13  1  0.000000  0.000000  0.625000  1
  Os  Os14  1  0.667002  0.329512  0.962688  1
  Os  Os15  1  0.000000  0.500000  0.125000  1
  Os  Os16  1  0.666535  0.833249  0.457614  1
  Os  Os17  1  0.333465  0.166751  0.792386  1
