# generated using pymatgen
data_YPu7H24
_symmetry_space_group_name_H-M   'P 1'
_cell_length_a   6.66730300
_cell_length_b   6.66730300
_cell_length_c   6.66730300
_cell_angle_alpha   90.00000000
_cell_angle_beta   90.00000000
_cell_angle_gamma   90.00000000
_symmetry_Int_Tables_number   1
_chemical_formula_structural   YPu7H24
_chemical_formula_sum   'Y1 Pu7 H24'
_cell_volume   296.38114884
_cell_formula_units_Z   1
loop_
 _symmetry_equiv_pos_site_id
 _symmetry_equiv_pos_as_xyz
  1  'x, y, z'
loop_
 _atom_site_type_symbol
 _atom_site_label
 _atom_site_symmetry_multiplicity
 _atom_site_fract_x
 _atom_site_fract_y
 _atom_site_fract_z
 _atom_site_occupancy
  Y  Y0  1  0.500000  0.500000  0.500000  1
  Pu  Pu1  1  0.000000  0.000000  0.000000  1
  Pu  Pu2  1  0.252311  0.000000  0.500000  1
  Pu  Pu3  1  0.747689  0.000000  0.500000  1
  Pu  Pu4  1  0.000000  0.500000  0.252311  1
  Pu  Pu5  1  0.000000  0.500000  0.747689  1
  Pu  Pu6  1  0.500000  0.747689  0.000000  1
  Pu  Pu7  1  0.500000  0.252311  0.000000  1
  H  H8  1  0.000000  0.154835  0.300631  1
  H  H9  1  0.500000  0.193197  0.655849  1
  H  H10  1  0.500000  0.806803  0.344151  1
  H  H11  1  0.806803  0.655849  0.500000  1
  H  H12  1  0.193197  0.655849  0.500000  1
  H  H13  1  0.344151  0.500000  0.806803  1
  H  H14  1  0.655849  0.500000  0.806803  1
  H  H15  1  0.300631  0.000000  0.154835  1
  H  H16  1  0.154835  0.300631  0.000000  1
  H  H17  1  0.845165  0.699369  0.000000  1
  H  H18  1  0.300631  0.000000  0.845165  1
  H  H19  1  0.845165  0.300631  0.000000  1
  H  H20  1  0.699369  0.000000  0.154835  1
  H  H21  1  0.699369  0.000000  0.845165  1
  H  H22  1  0.154835  0.699369  0.000000  1
  H  H23  1  0.000000  0.845165  0.699369  1
  H  H24  1  0.000000  0.154835  0.699369  1
  H  H25  1  0.000000  0.845165  0.300631  1
  H  H26  1  0.655849  0.500000  0.193197  1
  H  H27  1  0.344151  0.500000  0.193197  1
  H  H28  1  0.806803  0.344151  0.500000  1
  H  H29  1  0.193197  0.344151  0.500000  1
  H  H30  1  0.500000  0.806803  0.655849  1
  H  H31  1  0.500000  0.193197  0.344151  1
