# generated using pymatgen
data_Sm6OsRuBr6
_symmetry_space_group_name_H-M   'P 1'
_cell_length_a   4.22062700
_cell_length_b   8.72064934
_cell_length_c   12.09365377
_cell_angle_alpha   87.13741274
_cell_angle_beta   90.00000000
_cell_angle_gamma   90.00000000
_symmetry_Int_Tables_number   1
_chemical_formula_structural   Sm6OsRuBr6
_chemical_formula_sum   'Sm6 Os1 Ru1 Br6'
_cell_volume   444.57093707
_cell_formula_units_Z   1
loop_
 _symmetry_equiv_pos_site_id
 _symmetry_equiv_pos_as_xyz
  1  'x, y, z'
loop_
 _atom_site_type_symbol
 _atom_site_label
 _atom_site_symmetry_multiplicity
 _atom_site_fract_x
 _atom_site_fract_y
 _atom_site_fract_z
 _atom_site_occupancy
  Sm  Sm0  1  0.250000  0.284653  0.895269  1
  Sm  Sm1  1  0.750000  0.717270  0.103507  1
  Sm  Sm2  1  0.750000  0.112064  0.672496  1
  Sm  Sm3  1  0.250000  0.887237  0.327821  1
  Sm  Sm4  1  0.750000  0.132132  0.131770  1
  Sm  Sm5  1  0.250000  0.867765  0.867644  1
  Os  Os6  1  0.750000  0.066453  0.901045  1
  Ru  Ru7  1  0.250000  0.934985  0.098990  1
  Br  Br8  1  0.750000  0.117933  0.394523  1
  Br  Br9  1  0.250000  0.881113  0.606575  1
  Br  Br10  1  0.250000  0.348129  0.642557  1
  Br  Br11  1  0.750000  0.651031  0.357521  1
  Br  Br12  1  0.750000  0.573043  0.871353  1
  Br  Br13  1  0.250000  0.426193  0.128930  1
