# generated using pymatgen
data_Be9V2Mo
_symmetry_space_group_name_H-M   'P 1'
_cell_length_a   7.26276999
_cell_length_b   7.26277017
_cell_length_c   7.26277014
_cell_angle_alpha   34.85714516
_cell_angle_beta   34.85713847
_cell_angle_gamma   34.85714030
_symmetry_Int_Tables_number   1
_chemical_formula_structural   Be9V2Mo
_chemical_formula_sum   'Be9 V2 Mo1'
_cell_volume   111.70585641
_cell_formula_units_Z   1
loop_
 _symmetry_equiv_pos_site_id
 _symmetry_equiv_pos_as_xyz
  1  'x, y, z'
loop_
 _atom_site_type_symbol
 _atom_site_label
 _atom_site_symmetry_multiplicity
 _atom_site_fract_x
 _atom_site_fract_y
 _atom_site_fract_z
 _atom_site_occupancy
  Be  Be0  1  0.585422  0.585422  0.077817  1
  Be  Be1  1  0.334142  0.334142  0.334142  1
  Be  Be2  1  0.922182  0.414578  0.414580  1
  Be  Be3  1  0.414578  0.922182  0.414580  1
  Be  Be4  1  0.500000  0.500000  0.500000  1
  Be  Be5  1  0.585422  0.077818  0.585420  1
  Be  Be6  1  0.077818  0.585422  0.585420  1
  Be  Be7  1  0.665858  0.665858  0.665858  1
  Be  Be8  1  0.414578  0.414578  0.922183  1
  V  V9  1  0.142937  0.142937  0.142937  1
  V  V10  1  0.857063  0.857063  0.857063  1
  Mo  Mo11  1  0.000000  0.000000  0.000000  1
