# generated using pymatgen
data_KInH6Ru
_symmetry_space_group_name_H-M   'P 1'
_cell_length_a   6.56334503
_cell_length_b   6.57317589
_cell_length_c   6.58507877
_cell_angle_alpha   42.62789311
_cell_angle_beta   42.63584822
_cell_angle_gamma   42.65664474
_symmetry_Int_Tables_number   1
_chemical_formula_structural   KInH6Ru
_chemical_formula_sum   'K1 In1 H6 Ru1'
_cell_volume   118.07100246
_cell_formula_units_Z   1
loop_
 _symmetry_equiv_pos_site_id
 _symmetry_equiv_pos_as_xyz
  1  'x, y, z'
loop_
 _atom_site_type_symbol
 _atom_site_label
 _atom_site_symmetry_multiplicity
 _atom_site_fract_x
 _atom_site_fract_y
 _atom_site_fract_z
 _atom_site_occupancy
  K  K0  1  0.787404  0.786851  0.786182  1
  In  In1  1  0.304293  0.305805  0.307742  1
  H  H2  1  0.763037  0.762919  0.247158  1
  H  H3  1  0.193691  0.759736  0.195885  1
  H  H4  1  0.758890  0.194123  0.195424  1
  H  H5  1  0.194286  0.195238  0.760737  1
  H  H6  1  0.763099  0.250950  0.762611  1
  H  H7  1  0.253998  0.762926  0.762666  1
  Ru  Ru8  1  0.981300  0.981449  0.981594  1
