# generated using pymatgen
data_Y2SnAs2(PRh3)4
_symmetry_space_group_name_H-M   'P 1'
_cell_length_a   9.79982753
_cell_length_b   9.94160023
_cell_length_c   3.90531672
_cell_angle_alpha   90.16414005
_cell_angle_beta   90.60468960
_cell_angle_gamma   119.81394626
_symmetry_Int_Tables_number   1
_chemical_formula_structural   Y2SnAs2(PRh3)4
_chemical_formula_sum   'Y2 Sn1 As2 P4 Rh12'
_cell_volume   330.08790870
_cell_formula_units_Z   1
loop_
 _symmetry_equiv_pos_site_id
 _symmetry_equiv_pos_as_xyz
  1  'x, y, z'
loop_
 _atom_site_type_symbol
 _atom_site_label
 _atom_site_symmetry_multiplicity
 _atom_site_fract_x
 _atom_site_fract_y
 _atom_site_fract_z
 _atom_site_occupancy
  Y  Y0  1  0.332148  0.668370  0.752563  1
  Y  Y1  1  0.671122  0.335418  0.241910  1
  Sn  Sn2  1  0.999027  0.003779  0.554777  1
  As  As3  1  0.405206  0.284514  0.740139  1
  As  As4  1  0.714480  0.116023  0.740070  1
  P  P5  1  0.881315  0.595844  0.750184  1
  P  P6  1  0.593612  0.708246  0.258172  1
  P  P7  1  0.286932  0.882006  0.249746  1
  P  P8  1  0.122396  0.414133  0.249068  1
  Rh  Rh9  1  0.441609  0.051724  0.739219  1
  Rh  Rh10  1  0.937063  0.396080  0.740379  1
  Rh  Rh11  1  0.620504  0.550748  0.747308  1
  Rh  Rh12  1  0.544045  0.923987  0.250441  1
  Rh  Rh13  1  0.069823  0.617610  0.249696  1
  Rh  Rh14  1  0.386402  0.456856  0.248719  1
  Rh  Rh15  1  0.157980  0.296924  0.752996  1
  Rh  Rh16  1  0.706772  0.861122  0.767412  1
  Rh  Rh17  1  0.119855  0.832384  0.754665  1
  Rh  Rh18  1  0.843100  0.718445  0.247121  1
  Rh  Rh19  1  0.273854  0.112253  0.229801  1
  Rh  Rh20  1  0.892753  0.173532  0.235615  1
