# generated using pymatgen
data_ZrU2(AlIr)3
_symmetry_space_group_name_H-M   'P 1'
_cell_length_a   6.97248869
_cell_length_b   6.97248826
_cell_length_c   4.01985000
_cell_angle_alpha   90.00000000
_cell_angle_beta   90.00000000
_cell_angle_gamma   121.72795539
_symmetry_Int_Tables_number   1
_chemical_formula_structural   ZrU2(AlIr)3
_chemical_formula_sum   'Zr1 U2 Al3 Ir3'
_cell_volume   166.22168001
_cell_formula_units_Z   1
loop_
 _symmetry_equiv_pos_site_id
 _symmetry_equiv_pos_as_xyz
  1  'x, y, z'
loop_
 _atom_site_type_symbol
 _atom_site_label
 _atom_site_symmetry_multiplicity
 _atom_site_fract_x
 _atom_site_fract_y
 _atom_site_fract_z
 _atom_site_occupancy
  Zr  Zr0  1  0.414954  0.414954  0.500000  1
  U  U1  1  0.578920  0.999319  0.500000  1
  U  U2  1  0.999319  0.578920  0.500000  1
  Al  Al3  1  0.748070  0.748070  0.000000  1
  Al  Al4  1  0.239790  0.012003  0.000000  1
  Al  Al5  1  0.012003  0.239790  0.000000  1
  Ir  Ir6  1  0.682424  0.331177  0.000000  1
  Ir  Ir7  1  0.331177  0.682424  0.000000  1
  Ir  Ir8  1  0.993343  0.993343  0.500000  1
