# generated using pymatgen
data_Np2GaAu3
_symmetry_space_group_name_H-M   'P 1'
_cell_length_a   5.71693754
_cell_length_b   5.71693841
_cell_length_c   5.79190918
_cell_angle_alpha   59.57826869
_cell_angle_beta   59.57825138
_cell_angle_gamma   50.81432869
_symmetry_Int_Tables_number   1
_chemical_formula_structural   Np2GaAu3
_chemical_formula_sum   'Np2 Ga1 Au3'
_cell_volume   121.50412773
_cell_formula_units_Z   1
loop_
 _symmetry_equiv_pos_site_id
 _symmetry_equiv_pos_as_xyz
  1  'x, y, z'
loop_
 _atom_site_type_symbol
 _atom_site_label
 _atom_site_symmetry_multiplicity
 _atom_site_fract_x
 _atom_site_fract_y
 _atom_site_fract_z
 _atom_site_occupancy
  Np  Np0  1  0.500411  0.500411  0.254621  1
  Np  Np1  1  0.500452  0.500452  0.744647  1
  Ga  Ga2  1  0.832682  0.832682  0.167229  1
  Au  Au3  1  0.155258  0.155258  0.844709  1
  Au  Au4  1  0.834742  0.834742  0.665252  1
  Au  Au5  1  0.176455  0.176455  0.323543  1
