# generated using pymatgen
data_Nd16Co3NiHg4
_symmetry_space_group_name_H-M   'P 1'
_cell_length_a   9.78420298
_cell_length_b   9.80482381
_cell_length_c   9.80482200
_cell_angle_alpha   59.99999936
_cell_angle_beta   59.93025719
_cell_angle_gamma   59.93025554
_symmetry_Int_Tables_number   1
_chemical_formula_structural   Nd16Co3NiHg4
_chemical_formula_sum   'Nd16 Co3 Ni1 Hg4'
_cell_volume   664.40261637
_cell_formula_units_Z   1
loop_
 _symmetry_equiv_pos_site_id
 _symmetry_equiv_pos_as_xyz
  1  'x, y, z'
loop_
 _atom_site_type_symbol
 _atom_site_label
 _atom_site_symmetry_multiplicity
 _atom_site_fract_x
 _atom_site_fract_y
 _atom_site_fract_z
 _atom_site_occupancy
  Nd  Nd0  1  0.939682  0.936792  0.561763  1
  Nd  Nd1  1  0.562013  0.938729  0.560529  1
  Nd  Nd2  1  0.562013  0.938729  0.938729  1
  Nd  Nd3  1  0.685880  0.693651  0.310234  1
  Nd  Nd4  1  0.154888  0.151088  0.542935  1
  Nd  Nd5  1  0.310697  0.688999  0.688999  1
  Nd  Nd6  1  0.154888  0.151088  0.151088  1
  Nd  Nd7  1  0.540615  0.153128  0.153128  1
  Nd  Nd8  1  0.310697  0.688999  0.311305  1
  Nd  Nd9  1  0.310697  0.311305  0.688999  1
  Nd  Nd10  1  0.685880  0.310234  0.693651  1
  Nd  Nd11  1  0.939682  0.561763  0.561763  1
  Nd  Nd12  1  0.562013  0.560529  0.938729  1
  Nd  Nd13  1  0.154888  0.542935  0.151088  1
  Nd  Nd14  1  0.685880  0.310234  0.310234  1
  Nd  Nd15  1  0.939682  0.561763  0.936792  1
  Co  Co16  1  0.358555  0.358792  0.923862  1
  Co  Co17  1  0.358555  0.923862  0.358792  1
  Co  Co18  1  0.358555  0.358792  0.358792  1
  Ni  Ni19  1  0.924554  0.358482  0.358482  1
  Hg  Hg20  1  0.247618  0.917460  0.917460  1
  Hg  Hg21  1  0.917355  0.917411  0.917411  1
  Hg  Hg22  1  0.917355  0.917411  0.247822  1
  Hg  Hg23  1  0.917355  0.247822  0.917411  1
