# generated using pymatgen
data_PrIO4
_symmetry_space_group_name_H-M   'P 1'
_cell_length_a   5.14954843
_cell_length_b   5.14954833
_cell_length_c   7.59996700
_cell_angle_alpha   90.00000000
_cell_angle_beta   90.00000000
_cell_angle_gamma   95.25147443
_symmetry_Int_Tables_number   1
_chemical_formula_structural   PrIO4
_chemical_formula_sum   'Pr2 I2 O8'
_cell_volume   200.68884643
_cell_formula_units_Z   2
loop_
 _symmetry_equiv_pos_site_id
 _symmetry_equiv_pos_as_xyz
  1  'x, y, z'
loop_
 _atom_site_type_symbol
 _atom_site_label
 _atom_site_symmetry_multiplicity
 _atom_site_fract_x
 _atom_site_fract_y
 _atom_site_fract_z
 _atom_site_occupancy
  Pr  Pr0  1  0.000000  0.000000  0.000000  1
  Pr  Pr1  1  0.000000  0.000000  0.500000  1
  I  I2  1  0.467749  0.532251  0.750000  1
  I  I3  1  0.532251  0.467749  0.250000  1
  O  O4  1  0.314656  0.685344  0.940630  1
  O  O5  1  0.314656  0.685344  0.559370  1
  O  O6  1  0.685344  0.314656  0.059370  1
  O  O7  1  0.685344  0.314656  0.440630  1
  O  O8  1  0.825194  0.755983  0.250000  1
  O  O9  1  0.244017  0.174806  0.250000  1
  O  O10  1  0.755983  0.825194  0.750000  1
  O  O11  1  0.174806  0.244017  0.750000  1
