# generated using pymatgen
data_Nd(HfSe2)4
_symmetry_space_group_name_H-M   'P 1'
_cell_length_a   8.21154616
_cell_length_b   8.21154454
_cell_length_c   8.21154529
_cell_angle_alpha   54.64234228
_cell_angle_beta   54.64235551
_cell_angle_gamma   54.64234722
_symmetry_Int_Tables_number   1
_chemical_formula_structural   Nd(HfSe2)4
_chemical_formula_sum   'Nd1 Hf4 Se8'
_cell_volume   342.64885324
_cell_formula_units_Z   1
loop_
 _symmetry_equiv_pos_site_id
 _symmetry_equiv_pos_as_xyz
  1  'x, y, z'
loop_
 _atom_site_type_symbol
 _atom_site_label
 _atom_site_symmetry_multiplicity
 _atom_site_fract_x
 _atom_site_fract_y
 _atom_site_fract_z
 _atom_site_occupancy
  Nd  Nd0  1  0.500000  0.500000  0.500000  1
  Hf  Hf1  1  0.000000  0.500000  0.500000  1
  Hf  Hf2  1  0.500000  0.000000  0.500000  1
  Hf  Hf3  1  0.500000  0.500000  0.000000  1
  Hf  Hf4  1  0.000000  0.000000  0.000000  1
  Se  Se5  1  0.245869  0.760558  0.760558  1
  Se  Se6  1  0.239442  0.239442  0.754131  1
  Se  Se7  1  0.754131  0.239442  0.239442  1
  Se  Se8  1  0.239442  0.754131  0.239442  1
  Se  Se9  1  0.258621  0.258621  0.258621  1
  Se  Se10  1  0.741379  0.741379  0.741379  1
  Se  Se11  1  0.760558  0.245869  0.760558  1
  Se  Se12  1  0.760558  0.760558  0.245869  1
