# generated using pymatgen
data_KGePO4
_symmetry_space_group_name_H-M   'P 1'
_cell_length_a   11.52211850
_cell_length_b   11.52211835
_cell_length_c   11.52211807
_cell_angle_alpha   25.17070485
_cell_angle_beta   25.17070613
_cell_angle_gamma   25.17070863
_symmetry_Int_Tables_number   1
_chemical_formula_structural   KGePO4
_chemical_formula_sum   'K2 Ge2 P2 O8'
_cell_volume   243.48746999
_cell_formula_units_Z   2
loop_
 _symmetry_equiv_pos_site_id
 _symmetry_equiv_pos_as_xyz
  1  'x, y, z'
loop_
 _atom_site_type_symbol
 _atom_site_label
 _atom_site_symmetry_multiplicity
 _atom_site_fract_x
 _atom_site_fract_y
 _atom_site_fract_z
 _atom_site_occupancy
  K  K0  1  0.293981  0.293981  0.293981  1
  K  K1  1  0.706020  0.706020  0.706020  1
  Ge  Ge2  1  0.133744  0.133744  0.133744  1
  Ge  Ge3  1  0.866256  0.866256  0.866256  1
  P  P4  1  0.419704  0.419704  0.419704  1
  P  P5  1  0.580297  0.580297  0.580297  1
  O  O6  1  0.747841  0.392942  0.165238  1
  O  O7  1  0.607060  0.834762  0.252159  1
  O  O8  1  0.373919  0.373919  0.373919  1
  O  O9  1  0.165239  0.747840  0.392941  1
  O  O10  1  0.834761  0.252160  0.607059  1
  O  O11  1  0.626082  0.626082  0.626082  1
  O  O12  1  0.392940  0.165238  0.747841  1
  O  O13  1  0.252160  0.607059  0.834762  1
