# generated using pymatgen
data_TbNdEr4(RuI3)2
_symmetry_space_group_name_H-M   'P 1'
_cell_length_a   4.22766500
_cell_length_b   8.94967215
_cell_length_c   12.38834914
_cell_angle_alpha   94.06789706
_cell_angle_beta   90.00000000
_cell_angle_gamma   90.00000000
_symmetry_Int_Tables_number   1
_chemical_formula_structural   TbNdEr4(RuI3)2
_chemical_formula_sum   'Tb1 Nd1 Er4 Ru2 I6'
_cell_volume   467.54737693
_cell_formula_units_Z   1
loop_
 _symmetry_equiv_pos_site_id
 _symmetry_equiv_pos_as_xyz
  1  'x, y, z'
loop_
 _atom_site_type_symbol
 _atom_site_label
 _atom_site_symmetry_multiplicity
 _atom_site_fract_x
 _atom_site_fract_y
 _atom_site_fract_z
 _atom_site_occupancy
  Tb  Tb0  1  0.750000  0.262503  0.602953  1
  Nd  Nd1  1  0.250000  0.731860  0.398095  1
  Er  Er2  1  0.750000  0.876785  0.626805  1
  Er  Er3  1  0.250000  0.127121  0.374415  1
  Er  Er4  1  0.750000  0.901880  0.186726  1
  Er  Er5  1  0.250000  0.100287  0.812165  1
  Ru  Ru6  1  0.750000  0.948414  0.407129  1
  Ru  Ru7  1  0.250000  0.055919  0.593182  1
  I  I8  1  0.750000  0.418787  0.365903  1
  I  I9  1  0.250000  0.575976  0.636922  1
  I  I10  1  0.750000  0.864251  0.889474  1
  I  I11  1  0.250000  0.135528  0.109041  1
  I  I12  1  0.750000  0.349249  0.863631  1
  I  I13  1  0.250000  0.651439  0.133559  1
