# generated using pymatgen
data_Tb3Ta(Ni4P3)2
_symmetry_space_group_name_H-M   'P 1'
_cell_length_a   3.77947300
_cell_length_b   10.70856200
_cell_length_c   12.38692900
_cell_angle_alpha   90.00000000
_cell_angle_beta   90.00000000
_cell_angle_gamma   90.00000000
_symmetry_Int_Tables_number   1
_chemical_formula_structural   Tb3Ta(Ni4P3)2
_chemical_formula_sum   'Tb6 Ta2 Ni16 P12'
_cell_volume   501.33272082
_cell_formula_units_Z   2
loop_
 _symmetry_equiv_pos_site_id
 _symmetry_equiv_pos_as_xyz
  1  'x, y, z'
loop_
 _atom_site_type_symbol
 _atom_site_label
 _atom_site_symmetry_multiplicity
 _atom_site_fract_x
 _atom_site_fract_y
 _atom_site_fract_z
 _atom_site_occupancy
  Tb  Tb0  1  0.000000  0.500000  0.524949  1
  Tb  Tb1  1  0.500000  0.000000  0.475051  1
  Tb  Tb2  1  0.500000  0.819335  0.206774  1
  Tb  Tb3  1  0.500000  0.180665  0.206774  1
  Tb  Tb4  1  0.000000  0.680665  0.793226  1
  Tb  Tb5  1  0.000000  0.319335  0.793226  1
  Ta  Ta6  1  0.500000  0.500000  0.152954  1
  Ta  Ta7  1  0.000000  0.000000  0.847046  1
  Ni  Ni8  1  0.500000  0.500000  0.700501  1
  Ni  Ni9  1  0.000000  0.000000  0.299499  1
  Ni  Ni10  1  0.000000  0.500000  0.983759  1
  Ni  Ni11  1  0.500000  0.000000  0.016241  1
  Ni  Ni12  1  0.500000  0.334362  0.988085  1
  Ni  Ni13  1  0.500000  0.665638  0.988085  1
  Ni  Ni14  1  0.000000  0.165638  0.011915  1
  Ni  Ni15  1  0.000000  0.834362  0.011915  1
  Ni  Ni16  1  0.500000  0.300959  0.428293  1
  Ni  Ni17  1  0.500000  0.699041  0.428293  1
  Ni  Ni18  1  0.000000  0.199041  0.571707  1
  Ni  Ni19  1  0.000000  0.800959  0.571707  1
  Ni  Ni20  1  0.500000  0.879322  0.708711  1
  Ni  Ni21  1  0.500000  0.120678  0.708711  1
  Ni  Ni22  1  0.000000  0.620678  0.291289  1
  Ni  Ni23  1  0.000000  0.379322  0.291289  1
  P  P24  1  0.500000  0.500000  0.878353  1
  P  P25  1  0.000000  0.000000  0.121647  1
  P  P26  1  0.500000  0.500000  0.352335  1
  P  P27  1  0.000000  0.000000  0.647665  1
  P  P28  1  0.500000  0.313428  0.613748  1
  P  P29  1  0.500000  0.686572  0.613748  1
  P  P30  1  0.000000  0.186572  0.386252  1
  P  P31  1  0.000000  0.813428  0.386252  1
  P  P32  1  0.500000  0.842297  0.893681  1
  P  P33  1  0.500000  0.157703  0.893681  1
  P  P34  1  0.000000  0.657703  0.106319  1
  P  P35  1  0.000000  0.342297  0.106319  1
