# generated using pymatgen
data_Sr8Li3Tl4N5
_symmetry_space_group_name_H-M   'P 1'
_cell_length_a   11.46048664
_cell_length_b   11.46048747
_cell_length_c   11.46048600
_cell_angle_alpha   160.32785074
_cell_angle_beta   112.67144896
_cell_angle_gamma   70.90832532
_symmetry_Int_Tables_number   1
_chemical_formula_structural   Sr8Li3Tl4N5
_chemical_formula_sum   'Sr8 Li3 Tl4 N5'
_cell_volume   464.44216179
_cell_formula_units_Z   1
loop_
 _symmetry_equiv_pos_site_id
 _symmetry_equiv_pos_as_xyz
  1  'x, y, z'
loop_
 _atom_site_type_symbol
 _atom_site_label
 _atom_site_symmetry_multiplicity
 _atom_site_fract_x
 _atom_site_fract_y
 _atom_site_fract_z
 _atom_site_occupancy
  Sr  Sr0  1  0.559761  0.710603  0.849158  1
  Sr  Sr1  1  0.746741  0.902160  0.844583  1
  Sr  Sr2  1  0.440239  0.289397  0.150842  1
  Sr  Sr3  1  0.861446  0.710603  0.150842  1
  Sr  Sr4  1  0.138554  0.289397  0.849158  1
  Sr  Sr5  1  0.253259  0.097840  0.155417  1
  Sr  Sr6  1  0.057577  0.902160  0.155417  1
  Sr  Sr7  1  0.942423  0.097840  0.844583  1
  Li  Li8  1  0.192686  0.692686  0.500000  1
  Li  Li9  1  0.807314  0.307314  0.500000  1
  Li  Li10  1  0.000000  0.500000  0.500000  1
  Tl  Tl11  1  0.649089  0.500000  0.149089  1
  Tl  Tl12  1  0.350911  0.500000  0.850911  1
  Tl  Tl13  1  0.410164  0.910164  0.500000  1
  Tl  Tl14  1  0.589836  0.089836  0.500000  1
  N  N15  1  0.343760  0.692189  0.651571  1
  N  N16  1  0.959382  0.307811  0.651571  1
  N  N17  1  0.040618  0.692189  0.348429  1
  N  N18  1  0.000000  0.000000  0.000000  1
  N  N19  1  0.656240  0.307811  0.348429  1
