# generated using pymatgen
data_In2B(PdPt2)2
_symmetry_space_group_name_H-M   'P 1'
_cell_length_a   5.84012814
_cell_length_b   5.84012814
_cell_length_c   5.79842200
_cell_angle_alpha   60.23595266
_cell_angle_beta   60.23595266
_cell_angle_gamma   62.22705495
_symmetry_Int_Tables_number   1
_chemical_formula_structural   In2B(PdPt2)2
_chemical_formula_sum   'In2 B1 Pd2 Pt4'
_cell_volume   142.56508322
_cell_formula_units_Z   1
loop_
 _symmetry_equiv_pos_site_id
 _symmetry_equiv_pos_as_xyz
  1  'x, y, z'
loop_
 _atom_site_type_symbol
 _atom_site_label
 _atom_site_symmetry_multiplicity
 _atom_site_fract_x
 _atom_site_fract_y
 _atom_site_fract_z
 _atom_site_occupancy
  In  In0  1  0.252083  0.252083  0.250850  1
  In  In1  1  0.747917  0.747917  0.755016  1
  B  B2  1  0.499999  0.499999  0.491056  1
  Pd  Pd3  1  0.754832  0.245167  0.752540  1
  Pd  Pd4  1  0.245167  0.754832  0.752540  1
  Pt  Pt5  1  0.760195  0.239804  0.247338  1
  Pt  Pt6  1  0.239804  0.760195  0.247338  1
  Pt  Pt7  1  0.756158  0.756158  0.245500  1
  Pt  Pt8  1  0.243841  0.243841  0.757818  1
