# generated using pymatgen
data_NdTh2(MgIr)3
_symmetry_space_group_name_H-M   'P 1'
_cell_length_a   7.35553000
_cell_length_b   7.52343105
_cell_length_c   4.12648200
_cell_angle_alpha   90.00000000
_cell_angle_beta   90.00000000
_cell_angle_gamma   119.26445360
_symmetry_Int_Tables_number   1
_chemical_formula_structural   NdTh2(MgIr)3
_chemical_formula_sum   'Nd1 Th2 Mg3 Ir3'
_cell_volume   199.21037224
_cell_formula_units_Z   1
loop_
 _symmetry_equiv_pos_site_id
 _symmetry_equiv_pos_as_xyz
  1  'x, y, z'
loop_
 _atom_site_type_symbol
 _atom_site_label
 _atom_site_symmetry_multiplicity
 _atom_site_fract_x
 _atom_site_fract_y
 _atom_site_fract_z
 _atom_site_occupancy
  Nd  Nd0  1  0.409913  0.000000  0.500000  1
  Th  Th1  1  0.000577  0.411632  0.500000  1
  Th  Th2  1  0.588945  0.588368  0.500000  1
  Mg  Mg3  1  0.006359  0.768670  0.000000  1
  Mg  Mg4  1  0.237690  0.231330  0.000000  1
  Mg  Mg5  1  0.749488  0.000000  0.000000  1
  Ir  Ir6  1  0.331574  0.644380  0.000000  1
  Ir  Ir7  1  0.687196  0.355620  0.000000  1
  Ir  Ir8  1  0.988259  0.000000  0.500000  1
