# generated using pymatgen
data_Y4MoRu7
_symmetry_space_group_name_H-M   'P 1'
_cell_length_a   5.47225500
_cell_length_b   5.23551282
_cell_length_c   9.01154700
_cell_angle_alpha   90.00000000
_cell_angle_beta   90.00000000
_cell_angle_gamma   121.50744544
_symmetry_Int_Tables_number   1
_chemical_formula_structural   Y4MoRu7
_chemical_formula_sum   'Y4 Mo1 Ru7'
_cell_volume   220.11827691
_cell_formula_units_Z   1
loop_
 _symmetry_equiv_pos_site_id
 _symmetry_equiv_pos_as_xyz
  1  'x, y, z'
loop_
 _atom_site_type_symbol
 _atom_site_label
 _atom_site_symmetry_multiplicity
 _atom_site_fract_x
 _atom_site_fract_y
 _atom_site_fract_z
 _atom_site_occupancy
  Y  Y0  1  0.336306  0.672612  0.430682  1
  Y  Y1  1  0.672988  0.345975  0.563822  1
  Y  Y2  1  0.672988  0.345975  0.936178  1
  Y  Y3  1  0.336306  0.672612  0.069318  1
  Mo  Mo4  1  0.160490  0.320980  0.750000  1
  Ru  Ru5  1  0.173570  0.821033  0.750000  1
  Ru  Ru6  1  0.326809  0.162187  0.250000  1
  Ru  Ru7  1  0.817271  0.634542  0.250000  1
  Ru  Ru8  1  0.647464  0.821033  0.750000  1
  Ru  Ru9  1  0.010216  0.020432  0.000456  1
  Ru  Ru10  1  0.835378  0.162187  0.250000  1
  Ru  Ru11  1  0.010216  0.020432  0.499544  1
