# generated using pymatgen
data_Mg(PtO3)2
_symmetry_space_group_name_H-M   'P 1'
_cell_length_a   4.59469400
_cell_length_b   4.59469400
_cell_length_c   9.44748500
_cell_angle_alpha   90.00000000
_cell_angle_beta   90.00000000
_cell_angle_gamma   90.00000000
_symmetry_Int_Tables_number   1
_chemical_formula_structural   Mg(PtO3)2
_chemical_formula_sum   'Mg2 Pt4 O12'
_cell_volume   199.44786771
_cell_formula_units_Z   2
loop_
 _symmetry_equiv_pos_site_id
 _symmetry_equiv_pos_as_xyz
  1  'x, y, z'
loop_
 _atom_site_type_symbol
 _atom_site_label
 _atom_site_symmetry_multiplicity
 _atom_site_fract_x
 _atom_site_fract_y
 _atom_site_fract_z
 _atom_site_occupancy
  Mg  Mg0  1  0.000000  0.000000  0.000000  1
  Mg  Mg1  1  0.500000  0.500000  0.500000  1
  Pt  Pt2  1  0.500000  0.500000  0.831525  1
  Pt  Pt3  1  0.000000  0.000000  0.331525  1
  Pt  Pt4  1  0.500000  0.500000  0.168475  1
  Pt  Pt5  1  0.000000  0.000000  0.668475  1
  O  O6  1  0.694928  0.694928  0.666129  1
  O  O7  1  0.305072  0.305072  0.666129  1
  O  O8  1  0.694928  0.694928  0.333871  1
  O  O9  1  0.194928  0.805072  0.166129  1
  O  O10  1  0.805072  0.194928  0.166129  1
  O  O11  1  0.805072  0.194928  0.833871  1
  O  O12  1  0.311082  0.311082  0.000000  1
  O  O13  1  0.188918  0.811082  0.500000  1
  O  O14  1  0.811082  0.188918  0.500000  1
  O  O15  1  0.688918  0.688918  0.000000  1
  O  O16  1  0.305072  0.305072  0.333871  1
  O  O17  1  0.194928  0.805072  0.833871  1
