# generated using pymatgen
data_Y10Zn9Ru11
_symmetry_space_group_name_H-M   'P 1'
_cell_length_a   9.32661251
_cell_length_b   9.27272013
_cell_length_c   9.28444031
_cell_angle_alpha   98.86890550
_cell_angle_beta   99.89300390
_cell_angle_gamma   131.96383932
_symmetry_Int_Tables_number   1
_chemical_formula_structural   Y10Zn9Ru11
_chemical_formula_sum   'Y10 Zn9 Ru11'
_cell_volume   547.05392819
_cell_formula_units_Z   1
loop_
 _symmetry_equiv_pos_site_id
 _symmetry_equiv_pos_as_xyz
  1  'x, y, z'
loop_
 _atom_site_type_symbol
 _atom_site_label
 _atom_site_symmetry_multiplicity
 _atom_site_fract_x
 _atom_site_fract_y
 _atom_site_fract_z
 _atom_site_occupancy
  Y  Y0  1  0.004989  0.017101  0.994235  1
  Y  Y1  1  0.249132  0.750254  0.499352  1
  Y  Y2  1  0.059013  0.158653  0.694892  1
  Y  Y3  1  0.458003  0.358759  0.298917  1
  Y  Y4  1  0.640479  0.944920  0.098979  1
  Y  Y5  1  0.841682  0.536647  0.897091  1
  Y  Y6  1  0.198597  0.599121  0.798957  1
  Y  Y7  1  0.799463  0.396003  0.201615  1
  Y  Y8  1  0.593096  0.795521  0.393507  1
  Y  Y9  1  0.404031  0.199351  0.597896  1
  Zn  Zn10  1  0.726868  0.677393  0.152228  1
  Zn  Zn11  1  0.724386  0.173404  0.649678  1
  Zn  Zn12  1  0.322199  0.975320  0.053163  1
  Zn  Zn13  1  0.027262  0.077224  0.353481  1
  Zn  Zn14  1  0.723475  0.672294  0.649672  1
  Zn  Zn15  1  0.123088  0.373996  0.250661  1
  Zn  Zn16  1  0.128596  0.877711  0.750536  1
  Zn  Zn17  1  0.123192  0.874187  0.253733  1
  Zn  Zn18  1  0.622158  0.871225  0.751652  1
  Ru  Ru19  1  0.521502  0.566589  0.849572  1
  Ru  Ru20  1  0.432398  0.277384  0.946225  1
  Ru  Ru21  1  0.328092  0.484696  0.050551  1
  Ru  Ru22  1  0.521379  0.070032  0.350312  1
  Ru  Ru23  1  0.930983  0.281614  0.456785  1
  Ru  Ru24  1  0.831848  0.478858  0.549005  1
  Ru  Ru25  1  0.919862  0.763638  0.450629  1
  Ru  Ru26  1  0.324528  0.476394  0.556600  1
  Ru  Ru27  1  0.529106  0.078386  0.854030  1
  Ru  Ru28  1  0.221149  0.673532  0.147297  1
  Ru  Ru29  1  0.919441  0.269797  0.948744  1
