# generated using pymatgen
data_Er2P7PdRu11
_symmetry_space_group_name_H-M   'P 1'
_cell_length_a   9.36110624
_cell_length_b   9.46292412
_cell_length_c   3.93387000
_cell_angle_alpha   90.00000000
_cell_angle_beta   90.00000000
_cell_angle_gamma   119.32915003
_symmetry_Int_Tables_number   1
_chemical_formula_structural   Er2P7PdRu11
_chemical_formula_sum   'Er2 P7 Pd1 Ru11'
_cell_volume   303.80817289
_cell_formula_units_Z   1
loop_
 _symmetry_equiv_pos_site_id
 _symmetry_equiv_pos_as_xyz
  1  'x, y, z'
loop_
 _atom_site_type_symbol
 _atom_site_label
 _atom_site_symmetry_multiplicity
 _atom_site_fract_x
 _atom_site_fract_y
 _atom_site_fract_z
 _atom_site_occupancy
  Er  Er0  1  0.670822  0.337074  0.500000  1
  Er  Er1  1  0.328301  0.658072  0.000000  1
  P  P2  1  0.598789  0.705522  0.500000  1
  P  P3  1  0.996058  0.000555  0.000000  1
  P  P4  1  0.272333  0.879528  0.500000  1
  P  P5  1  0.118323  0.401744  0.500000  1
  P  P6  1  0.887321  0.579431  0.000000  1
  P  P7  1  0.426280  0.307840  0.000000  1
  P  P8  1  0.704594  0.126277  0.000000  1
  Pd  Pd9  1  0.547620  0.940870  0.500000  1
  Ru  Ru10  1  0.389804  0.438843  0.500000  1
  Ru  Ru11  1  0.911895  0.128198  0.500000  1
  Ru  Ru12  1  0.211191  0.087509  0.500000  1
  Ru  Ru13  1  0.875712  0.792574  0.500000  1
  Ru  Ru14  1  0.721682  0.890354  0.000000  1
  Ru  Ru15  1  0.110813  0.839820  0.000000  1
  Ru  Ru16  1  0.163266  0.269760  0.000000  1
  Ru  Ru17  1  0.432449  0.067033  0.000000  1
  Ru  Ru18  1  0.938631  0.365865  0.000000  1
  Ru  Ru19  1  0.640255  0.572961  0.000000  1
  Ru  Ru20  1  0.053860  0.610170  0.500000  1
