# generated using pymatgen
data_NbSiRu5W
_symmetry_space_group_name_H-M   'P 1'
_cell_length_a   4.01483200
_cell_length_b   5.41101500
_cell_length_c   10.67329900
_cell_angle_alpha   90.00011185
_cell_angle_beta   90.00000000
_cell_angle_gamma   90.00000000
_symmetry_Int_Tables_number   1
_chemical_formula_structural   NbSiRu5W
_chemical_formula_sum   'Nb2 Si2 Ru10 W2'
_cell_volume   231.87012210
_cell_formula_units_Z   2
loop_
 _symmetry_equiv_pos_site_id
 _symmetry_equiv_pos_as_xyz
  1  'x, y, z'
loop_
 _atom_site_type_symbol
 _atom_site_label
 _atom_site_symmetry_multiplicity
 _atom_site_fract_x
 _atom_site_fract_y
 _atom_site_fract_z
 _atom_site_occupancy
  Nb  Nb0  1  0.500000  0.825379  0.361312  1
  Nb  Nb1  1  0.500000  0.174621  0.638688  1
  Si  Si2  1  0.000000  0.500000  0.500000  1
  Si  Si3  1  0.000000  0.000000  0.000000  1
  Ru  Ru4  1  0.000000  0.500000  0.000000  1
  Ru  Ru5  1  0.000000  0.000000  0.500000  1
  Ru  Ru6  1  0.000000  0.572695  0.245289  1
  Ru  Ru7  1  0.000000  0.427305  0.754711  1
  Ru  Ru8  1  0.000000  0.078067  0.246988  1
  Ru  Ru9  1  0.000000  0.921933  0.753012  1
  Ru  Ru10  1  0.500000  0.817783  0.102079  1
  Ru  Ru11  1  0.500000  0.182217  0.897921  1
  Ru  Ru12  1  0.500000  0.321803  0.391458  1
  Ru  Ru13  1  0.500000  0.678197  0.608542  1
  W  W14  1  0.500000  0.327899  0.142684  1
  W  W15  1  0.500000  0.672101  0.857316  1
