# generated using pymatgen
data_La8SmLu(In3Br)2
_symmetry_space_group_name_H-M   'P 1'
_cell_length_a   9.72457100
_cell_length_b   9.72457079
_cell_length_c   6.88891700
_cell_angle_alpha   90.00000000
_cell_angle_beta   90.00000000
_cell_angle_gamma   120.00000410
_symmetry_Int_Tables_number   1
_chemical_formula_structural   La8SmLu(In3Br)2
_chemical_formula_sum   'La8 Sm1 Lu1 In6 Br2'
_cell_volume   564.18620087
_cell_formula_units_Z   1
loop_
 _symmetry_equiv_pos_site_id
 _symmetry_equiv_pos_as_xyz
  1  'x, y, z'
loop_
 _atom_site_type_symbol
 _atom_site_label
 _atom_site_symmetry_multiplicity
 _atom_site_fract_x
 _atom_site_fract_y
 _atom_site_fract_z
 _atom_site_occupancy
  La  La0  1  0.733063  0.732174  0.254006  1
  La  La1  1  0.999111  0.732174  0.745994  1
  La  La2  1  0.733063  0.000889  0.745994  1
  La  La3  1  0.267826  0.266937  0.745994  1
  La  La4  1  0.999111  0.266937  0.254006  1
  La  La5  1  0.267826  0.000889  0.254006  1
  La  La6  1  0.333333  0.666667  0.000000  1
  La  La7  1  0.666667  0.333333  0.000000  1
  Sm  Sm8  1  0.333333  0.666667  0.500000  1
  Lu  Lu9  1  0.666667  0.333333  0.500000  1
  In  In10  1  0.393512  0.001015  0.744063  1
  In  In11  1  0.998985  0.606488  0.255937  1
  In  In12  1  0.607503  0.001015  0.255937  1
  In  In13  1  0.998985  0.392497  0.744063  1
  In  In14  1  0.393512  0.392497  0.255937  1
  In  In15  1  0.607503  0.606488  0.744063  1
  Br  Br16  1  0.000000  0.000000  0.500000  1
  Br  Br17  1  0.000000  0.000000  0.000000  1
