# generated using pymatgen
data_ZrSc(Co5As3)2
_symmetry_space_group_name_H-M   'P 1'
_cell_length_a   3.71763700
_cell_length_b   12.08649366
_cell_length_c   10.58738981
_cell_angle_alpha   90.26366365
_cell_angle_beta   90.00000000
_cell_angle_gamma   90.00000000
_symmetry_Int_Tables_number   1
_chemical_formula_structural   ZrSc(Co5As3)2
_chemical_formula_sum   'Zr2 Sc2 Co20 As12'
_cell_volume   475.72022495
_cell_formula_units_Z   2
loop_
 _symmetry_equiv_pos_site_id
 _symmetry_equiv_pos_as_xyz
  1  'x, y, z'
loop_
 _atom_site_type_symbol
 _atom_site_label
 _atom_site_symmetry_multiplicity
 _atom_site_fract_x
 _atom_site_fract_y
 _atom_site_fract_z
 _atom_site_occupancy
  Zr  Zr0  1  0.750000  0.701811  0.079438  1
  Zr  Zr1  1  0.250000  0.298189  0.920562  1
  Sc  Sc2  1  0.250000  0.799145  0.579641  1
  Sc  Sc3  1  0.750000  0.200855  0.420359  1
  Co  Co4  1  0.750000  0.697756  0.384451  1
  Co  Co5  1  0.250000  0.302244  0.615549  1
  Co  Co6  1  0.250000  0.801732  0.886375  1
  Co  Co7  1  0.750000  0.198268  0.113625  1
  Co  Co8  1  0.750000  0.992853  0.216177  1
  Co  Co9  1  0.250000  0.007147  0.783823  1
  Co  Co10  1  0.250000  0.507769  0.715570  1
  Co  Co11  1  0.750000  0.492231  0.284430  1
  Co  Co12  1  0.750000  0.678720  0.784332  1
  Co  Co13  1  0.250000  0.321280  0.215668  1
  Co  Co14  1  0.250000  0.820699  0.283013  1
  Co  Co15  1  0.750000  0.179301  0.716987  1
  Co  Co16  1  0.750000  0.930160  0.969062  1
  Co  Co17  1  0.250000  0.069840  0.030938  1
  Co  Co18  1  0.250000  0.568531  0.468496  1
  Co  Co19  1  0.750000  0.431469  0.531504  1
  Co  Co20  1  0.750000  0.986532  0.592071  1
  Co  Co21  1  0.250000  0.013468  0.407929  1
  Co  Co22  1  0.250000  0.513325  0.090316  1
  Co  Co23  1  0.750000  0.486674  0.909684  1
  As  As24  1  0.750000  0.617059  0.584936  1
  As  As25  1  0.250000  0.382941  0.415064  1
  As  As26  1  0.250000  0.884985  0.086115  1
  As  As27  1  0.750000  0.115015  0.913885  1
  As  As28  1  0.750000  0.888509  0.402689  1
  As  As29  1  0.250000  0.111491  0.597311  1
  As  As30  1  0.250000  0.611160  0.900987  1
  As  As31  1  0.750000  0.388840  0.099013  1
  As  As32  1  0.750000  0.869446  0.764793  1
  As  As33  1  0.250000  0.130554  0.235207  1
  As  As34  1  0.250000  0.629389  0.265987  1
  As  As35  1  0.750000  0.370611  0.734013  1
