# generated using pymatgen
data_Ti12Si3S
_symmetry_space_group_name_H-M   'P 1'
_cell_length_a   10.06579354
_cell_length_b   10.09343253
_cell_length_c   5.05358300
_cell_angle_alpha   90.00000000
_cell_angle_beta   90.00000000
_cell_angle_gamma   90.06322697
_symmetry_Int_Tables_number   1
_chemical_formula_structural   Ti12Si3S
_chemical_formula_sum   'Ti24 Si6 S2'
_cell_volume   513.43567459
_cell_formula_units_Z   2
loop_
 _symmetry_equiv_pos_site_id
 _symmetry_equiv_pos_as_xyz
  1  'x, y, z'
loop_
 _atom_site_type_symbol
 _atom_site_label
 _atom_site_symmetry_multiplicity
 _atom_site_fract_x
 _atom_site_fract_y
 _atom_site_fract_z
 _atom_site_occupancy
  Ti  Ti0  1  0.216686  0.677286  0.996279  1
  Ti  Ti1  1  0.783314  0.322714  0.996279  1
  Ti  Ti2  1  0.185130  0.285693  0.493310  1
  Ti  Ti3  1  0.814870  0.714307  0.493310  1
  Ti  Ti4  1  0.283833  0.817384  0.504059  1
  Ti  Ti5  1  0.716167  0.182616  0.504059  1
  Ti  Ti6  1  0.316690  0.218958  0.005168  1
  Ti  Ti7  1  0.683310  0.781042  0.005168  1
  Ti  Ti8  1  0.641954  0.527380  0.718203  1
  Ti  Ti9  1  0.358046  0.472620  0.718203  1
  Ti  Ti10  1  0.028488  0.856708  0.216435  1
  Ti  Ti11  1  0.971512  0.143292  0.216435  1
  Ti  Ti12  1  0.858268  0.971679  0.784562  1
  Ti  Ti13  1  0.141732  0.028321  0.784562  1
  Ti  Ti14  1  0.473135  0.635412  0.280596  1
  Ti  Ti15  1  0.526865  0.364588  0.280596  1
  Ti  Ti16  1  0.108773  0.579702  0.467154  1
  Ti  Ti17  1  0.891227  0.420298  0.467154  1
  Ti  Ti18  1  0.084501  0.395163  0.966538  1
  Ti  Ti19  1  0.915499  0.604837  0.966538  1
  Ti  Ti20  1  0.392781  0.918769  0.030706  1
  Ti  Ti21  1  0.607219  0.081231  0.030706  1
  Ti  Ti22  1  0.418485  0.106665  0.536085  1
  Ti  Ti23  1  0.581515  0.893335  0.536085  1
  Si  Si24  1  0.040997  0.792361  0.711274  1
  Si  Si25  1  0.959003  0.207639  0.711274  1
  Si  Si26  1  0.794923  0.957349  0.289990  1
  Si  Si27  1  0.205077  0.042651  0.289990  1
  Si  Si28  1  0.458853  0.704973  0.786848  1
  Si  Si29  1  0.541147  0.295027  0.786848  1
  S  S30  1  0.707548  0.542584  0.212794  1
  S  S31  1  0.292452  0.457416  0.212794  1
