# generated using pymatgen
data_Ho8Er7Sc5Si15Os
_symmetry_space_group_name_H-M   'P 1'
_cell_length_a   7.18933944
_cell_length_b   7.61886364
_cell_length_c   14.25549354
_cell_angle_alpha   90.11516635
_cell_angle_beta   90.04756809
_cell_angle_gamma   90.29799696
_symmetry_Int_Tables_number   1
_chemical_formula_structural   Ho8Er7Sc5Si15Os
_chemical_formula_sum   'Ho8 Er7 Sc5 Si15 Os1'
_cell_volume   780.82649739
_cell_formula_units_Z   1
loop_
 _symmetry_equiv_pos_site_id
 _symmetry_equiv_pos_as_xyz
  1  'x, y, z'
loop_
 _atom_site_type_symbol
 _atom_site_label
 _atom_site_symmetry_multiplicity
 _atom_site_fract_x
 _atom_site_fract_y
 _atom_site_fract_z
 _atom_site_occupancy
  Ho  Ho0  1  0.018435  0.182556  0.097105  1
  Ho  Ho1  1  0.985602  0.825851  0.905713  1
  Ho  Ho2  1  0.481669  0.682648  0.904221  1
  Ho  Ho3  1  0.984143  0.826214  0.596247  1
  Ho  Ho4  1  0.516471  0.319032  0.096135  1
  Ho  Ho5  1  0.018649  0.184236  0.401219  1
  Ho  Ho6  1  0.517502  0.318879  0.401762  1
  Ho  Ho7  1  0.482745  0.681540  0.595736  1
  Er  Er8  1  0.310330  0.173273  0.628288  1
  Er  Er9  1  0.678435  0.824906  0.372567  1
  Er  Er10  1  0.177654  0.678280  0.372965  1
  Er  Er11  1  0.677480  0.824132  0.125372  1
  Er  Er12  1  0.831845  0.316331  0.628512  1
  Er  Er13  1  0.310749  0.173733  0.873142  1
  Er  Er14  1  0.831893  0.318631  0.873835  1
  Sc  Sc15  1  0.154745  0.514708  0.750537  1
  Sc  Sc16  1  0.844742  0.488512  0.248668  1
  Sc  Sc17  1  0.343606  0.013608  0.248047  1
  Sc  Sc18  1  0.665400  0.986461  0.750707  1
  Sc  Sc19  1  0.177988  0.678488  0.127352  1
  Si  Si20  1  0.982300  0.897316  0.247183  1
  Si  Si21  1  0.477638  0.598494  0.246935  1
  Si  Si22  1  0.519034  0.404575  0.750702  1
  Si  Si23  1  0.280090  0.859364  0.750511  1
  Si  Si24  1  0.718599  0.137392  0.248879  1
  Si  Si25  1  0.220027  0.366896  0.248090  1
  Si  Si26  1  0.773541  0.632079  0.750551  1
  Si  Si27  1  0.155706  0.473068  0.538547  1
  Si  Si28  1  0.845688  0.530634  0.460137  1
  Si  Si29  1  0.346347  0.971254  0.458615  1
  Si  Si30  1  0.854777  0.531273  0.042766  1
  Si  Si31  1  0.649527  0.030718  0.538959  1
  Si  Si32  1  0.159805  0.475209  0.966137  1
  Si  Si33  1  0.648957  0.029915  0.960934  1
  Si  Si34  1  0.341202  0.964689  0.041705  1
  Os  Os35  1  0.016678  0.085104  0.751218  1
