# generated using pymatgen
data_Y6Co16Si9P3Os2
_symmetry_space_group_name_H-M   'P 1'
_cell_length_a   3.76806900
_cell_length_b   10.70814100
_cell_length_c   12.35725200
_cell_angle_alpha   90.00000000
_cell_angle_beta   90.00000000
_cell_angle_gamma   90.00000000
_symmetry_Int_Tables_number   1
_chemical_formula_structural   Y6Co16Si9P3Os2
_chemical_formula_sum   'Y6 Co16 Si9 P3 Os2'
_cell_volume   498.60293580
_cell_formula_units_Z   1
loop_
 _symmetry_equiv_pos_site_id
 _symmetry_equiv_pos_as_xyz
  1  'x, y, z'
loop_
 _atom_site_type_symbol
 _atom_site_label
 _atom_site_symmetry_multiplicity
 _atom_site_fract_x
 _atom_site_fract_y
 _atom_site_fract_z
 _atom_site_occupancy
  Y  Y0  1  0.000000  0.500000  0.524632  1
  Y  Y1  1  0.500000  0.000000  0.474124  1
  Y  Y2  1  0.500000  0.820238  0.204161  1
  Y  Y3  1  0.500000  0.179762  0.204161  1
  Y  Y4  1  0.000000  0.681491  0.795441  1
  Y  Y5  1  0.000000  0.318509  0.795441  1
  Co  Co6  1  0.500000  0.500000  0.697052  1
  Co  Co7  1  0.000000  0.000000  0.297673  1
  Co  Co8  1  0.000000  0.500000  0.984690  1
  Co  Co9  1  0.500000  0.000000  0.018756  1
  Co  Co10  1  0.500000  0.330089  0.993649  1
  Co  Co11  1  0.500000  0.669911  0.993649  1
  Co  Co12  1  0.000000  0.165814  0.009356  1
  Co  Co13  1  0.000000  0.834186  0.009356  1
  Co  Co14  1  0.500000  0.303096  0.428716  1
  Co  Co15  1  0.500000  0.696904  0.428716  1
  Co  Co16  1  0.000000  0.195811  0.570797  1
  Co  Co17  1  0.000000  0.804189  0.570797  1
  Co  Co18  1  0.500000  0.883826  0.705789  1
  Co  Co19  1  0.500000  0.116174  0.705789  1
  Co  Co20  1  0.000000  0.616454  0.294097  1
  Co  Co21  1  0.000000  0.383546  0.294097  1
  Si  Si22  1  0.500000  0.500000  0.883261  1
  Si  Si23  1  0.500000  0.304706  0.614236  1
  Si  Si24  1  0.500000  0.695294  0.614236  1
  Si  Si25  1  0.000000  0.194061  0.385130  1
  Si  Si26  1  0.000000  0.805939  0.385130  1
  Si  Si27  1  0.500000  0.850070  0.893623  1
  Si  Si28  1  0.500000  0.149930  0.893623  1
  Si  Si29  1  0.000000  0.650894  0.106781  1
  Si  Si30  1  0.000000  0.349106  0.106781  1
  P  P31  1  0.000000  0.000000  0.117210  1
  P  P32  1  0.500000  0.500000  0.344281  1
  P  P33  1  0.000000  0.000000  0.655124  1
  Os  Os34  1  0.500000  0.500000  0.154778  1
  Os  Os35  1  0.000000  0.000000  0.844869  1
