# generated using pymatgen
data_Nd12TlNi6
_symmetry_space_group_name_H-M   'P 1'
_cell_length_a   8.71267017
_cell_length_b   8.71267046
_cell_length_c   8.71267000
_cell_angle_alpha   109.47122420
_cell_angle_beta   109.47122488
_cell_angle_gamma   109.47122229
_symmetry_Int_Tables_number   1
_chemical_formula_structural   Nd12TlNi6
_chemical_formula_sum   'Nd12 Tl1 Ni6'
_cell_volume   509.13374822
_cell_formula_units_Z   1
loop_
 _symmetry_equiv_pos_site_id
 _symmetry_equiv_pos_as_xyz
  1  'x, y, z'
loop_
 _atom_site_type_symbol
 _atom_site_label
 _atom_site_symmetry_multiplicity
 _atom_site_fract_x
 _atom_site_fract_y
 _atom_site_fract_z
 _atom_site_occupancy
  Nd  Nd0  1  0.813337  0.693627  0.506964  1
  Nd  Nd1  1  0.186663  0.306373  0.493036  1
  Nd  Nd2  1  0.186663  0.693627  0.880291  1
  Nd  Nd3  1  0.813337  0.306373  0.119709  1
  Nd  Nd4  1  0.693627  0.506964  0.813337  1
  Nd  Nd5  1  0.306373  0.493036  0.186663  1
  Nd  Nd6  1  0.693627  0.880291  0.186663  1
  Nd  Nd7  1  0.306373  0.119709  0.813337  1
  Nd  Nd8  1  0.506964  0.813337  0.693627  1
  Nd  Nd9  1  0.493036  0.186663  0.306373  1
  Nd  Nd10  1  0.119709  0.813337  0.306373  1
  Nd  Nd11  1  0.880291  0.186663  0.693627  1
  Tl  Tl12  1  0.000000  0.000000  0.000000  1
  Ni  Ni13  1  0.878439  0.378439  0.500000  1
  Ni  Ni14  1  0.121561  0.621561  0.500000  1
  Ni  Ni15  1  0.378439  0.500000  0.878439  1
  Ni  Ni16  1  0.621561  0.500000  0.121561  1
  Ni  Ni17  1  0.500000  0.878439  0.378439  1
  Ni  Ni18  1  0.500000  0.121561  0.621561  1
