# generated using pymatgen
data_Ho4ScRe5Si8
_symmetry_space_group_name_H-M   'P 1'
_cell_length_a   6.80851593
_cell_length_b   6.94846407
_cell_length_c   6.77858307
_cell_angle_alpha   69.57276422
_cell_angle_beta   90.70711943
_cell_angle_gamma   88.40049284
_symmetry_Int_Tables_number   1
_chemical_formula_structural   Ho4ScRe5Si8
_chemical_formula_sum   'Ho4 Sc1 Re5 Si8'
_cell_volume   300.31959477
_cell_formula_units_Z   1
loop_
 _symmetry_equiv_pos_site_id
 _symmetry_equiv_pos_as_xyz
  1  'x, y, z'
loop_
 _atom_site_type_symbol
 _atom_site_label
 _atom_site_symmetry_multiplicity
 _atom_site_fract_x
 _atom_site_fract_y
 _atom_site_fract_z
 _atom_site_occupancy
  Ho  Ho0  1  0.672042  0.446188  0.186196  1
  Ho  Ho1  1  0.163523  0.067364  0.811438  1
  Ho  Ho2  1  0.327958  0.553812  0.813804  1
  Ho  Ho3  1  0.836477  0.932636  0.188562  1
  Sc  Sc4  1  0.500000  0.000000  0.500000  1
  Re  Re5  1  0.000000  0.500000  0.500000  1
  Re  Re6  1  0.152529  0.228976  0.238956  1
  Re  Re7  1  0.647727  0.231701  0.737489  1
  Re  Re8  1  0.847471  0.771024  0.761044  1
  Re  Re9  1  0.352273  0.768299  0.262511  1
  Si  Si10  1  0.459934  0.137940  0.078278  1
  Si  Si11  1  0.932992  0.383002  0.888771  1
  Si  Si12  1  0.540066  0.862060  0.921722  1
  Si  Si13  1  0.067008  0.616998  0.111229  1
  Si  Si14  1  0.872397  0.134460  0.493764  1
  Si  Si15  1  0.351078  0.388883  0.467643  1
  Si  Si16  1  0.127603  0.865540  0.506236  1
  Si  Si17  1  0.648922  0.611117  0.532357  1
