# generated using pymatgen
data_La8Si(Pd7Pt)3
_symmetry_space_group_name_H-M   'P 1'
_cell_length_a   8.51865500
_cell_length_b   8.52123300
_cell_length_c   8.52565900
_cell_angle_alpha   90.00000000
_cell_angle_beta   90.00000000
_cell_angle_gamma   90.00000000
_symmetry_Int_Tables_number   1
_chemical_formula_structural   La8Si(Pd7Pt)3
_chemical_formula_sum   'La8 Si1 Pd21 Pt3'
_cell_volume   618.87284741
_cell_formula_units_Z   1
loop_
 _symmetry_equiv_pos_site_id
 _symmetry_equiv_pos_as_xyz
  1  'x, y, z'
loop_
 _atom_site_type_symbol
 _atom_site_label
 _atom_site_symmetry_multiplicity
 _atom_site_fract_x
 _atom_site_fract_y
 _atom_site_fract_z
 _atom_site_occupancy
  La  La0  1  0.252527  0.252445  0.252930  1
  La  La1  1  0.746652  0.746228  0.746116  1
  La  La2  1  0.746652  0.746228  0.253884  1
  La  La3  1  0.747473  0.252445  0.747070  1
  La  La4  1  0.252527  0.252445  0.747070  1
  La  La5  1  0.253348  0.746228  0.253884  1
  La  La6  1  0.253348  0.746228  0.746116  1
  La  La7  1  0.747473  0.252445  0.252930  1
  Si  Si8  1  0.000000  0.008847  0.000000  1
  Pd  Pd9  1  0.258832  0.500315  0.000000  1
  Pd  Pd10  1  0.741168  0.500315  0.000000  1
  Pd  Pd11  1  0.000000  0.258911  0.500000  1
  Pd  Pd12  1  0.500000  0.255241  0.000000  1
  Pd  Pd13  1  0.000000  0.739230  0.500000  1
  Pd  Pd14  1  0.500000  0.741717  0.000000  1
  Pd  Pd15  1  0.500000  0.999688  0.256554  1
  Pd  Pd16  1  0.259894  0.999841  0.500000  1
  Pd  Pd17  1  0.500000  0.999688  0.743446  1
  Pd  Pd18  1  0.740106  0.999841  0.500000  1
  Pd  Pd19  1  0.000000  0.500552  0.258516  1
  Pd  Pd20  1  0.000000  0.500552  0.741484  1
  Pd  Pd21  1  0.253318  0.499456  0.500000  1
  Pd  Pd22  1  0.746682  0.499456  0.500000  1
  Pd  Pd23  1  0.500000  0.253576  0.500000  1
  Pd  Pd24  1  0.500000  0.746226  0.500000  1
  Pd  Pd25  1  0.500000  0.499403  0.253825  1
  Pd  Pd26  1  0.500000  0.499403  0.746175  1
  Pd  Pd27  1  0.000000  0.722641  0.000000  1
  Pd  Pd28  1  0.000000  0.998387  0.285590  1
  Pd  Pd29  1  0.000000  0.998387  0.714410  1
  Pt  Pt30  1  0.278826  0.997647  0.000000  1
  Pt  Pt31  1  0.721174  0.997647  0.000000  1
  Pt  Pt32  1  0.000000  0.288335  0.000000  1
