# generated using pymatgen
data_DyHo5(NiRh8)2
_symmetry_space_group_name_H-M   'P 1'
_cell_length_a   5.27217200
_cell_length_b   5.27217210
_cell_length_c   17.32260100
_cell_angle_alpha   90.00000000
_cell_angle_beta   90.00000000
_cell_angle_gamma   119.99999938
_symmetry_Int_Tables_number   1
_chemical_formula_structural   DyHo5(NiRh8)2
_chemical_formula_sum   'Dy1 Ho5 Ni2 Rh16'
_cell_volume   416.98735505
_cell_formula_units_Z   1
loop_
 _symmetry_equiv_pos_site_id
 _symmetry_equiv_pos_as_xyz
  1  'x, y, z'
loop_
 _atom_site_type_symbol
 _atom_site_label
 _atom_site_symmetry_multiplicity
 _atom_site_fract_x
 _atom_site_fract_y
 _atom_site_fract_z
 _atom_site_occupancy
  Dy  Dy0  1  0.666667  0.333333  0.250000  1
  Ho  Ho1  1  0.333333  0.666667  0.957659  1
  Ho  Ho2  1  0.666667  0.333333  0.041544  1
  Ho  Ho3  1  0.666667  0.333333  0.458456  1
  Ho  Ho4  1  0.333333  0.666667  0.542341  1
  Ho  Ho5  1  0.333333  0.666667  0.750000  1
  Ni  Ni6  1  0.333333  0.666667  0.250000  1
  Ni  Ni7  1  0.666667  0.333333  0.750000  1
  Rh  Rh8  1  0.168831  0.831169  0.373530  1
  Rh  Rh9  1  0.168831  0.337661  0.373530  1
  Rh  Rh10  1  0.662339  0.831169  0.373530  1
  Rh  Rh11  1  0.831104  0.168896  0.627299  1
  Rh  Rh12  1  0.831104  0.662207  0.627299  1
  Rh  Rh13  1  0.337793  0.168896  0.627299  1
  Rh  Rh14  1  0.831104  0.168896  0.872701  1
  Rh  Rh15  1  0.831104  0.662207  0.872701  1
  Rh  Rh16  1  0.337793  0.168896  0.872701  1
  Rh  Rh17  1  0.168831  0.831169  0.126470  1
  Rh  Rh18  1  0.168831  0.337661  0.126470  1
  Rh  Rh19  1  0.662339  0.831169  0.126470  1
  Rh  Rh20  1  0.000000  0.000000  0.250000  1
  Rh  Rh21  1  0.000000  0.000000  0.750000  1
  Rh  Rh22  1  0.000000  0.000000  0.500377  1
  Rh  Rh23  1  0.000000  0.000000  0.999623  1
