# generated using pymatgen
data_Tb4Ho13Tm3(CoSb2)4
_symmetry_space_group_name_H-M   'P 1'
_cell_length_a   7.88761215
_cell_length_b   8.76690420
_cell_length_c   12.19029720
_cell_angle_alpha   89.98393771
_cell_angle_beta   90.01299853
_cell_angle_gamma   90.01805555
_symmetry_Int_Tables_number   1
_chemical_formula_structural   Tb4Ho13Tm3(CoSb2)4
_chemical_formula_sum   'Tb4 Ho13 Tm3 Co4 Sb8'
_cell_volume   842.95822359
_cell_formula_units_Z   1
loop_
 _symmetry_equiv_pos_site_id
 _symmetry_equiv_pos_as_xyz
  1  'x, y, z'
loop_
 _atom_site_type_symbol
 _atom_site_label
 _atom_site_symmetry_multiplicity
 _atom_site_fract_x
 _atom_site_fract_y
 _atom_site_fract_z
 _atom_site_occupancy
  Tb  Tb0  1  0.621943  0.750188  0.307191  1
  Tb  Tb1  1  0.121763  0.250192  0.193290  1
  Tb  Tb2  1  0.377942  0.250082  0.692893  1
  Tb  Tb3  1  0.877563  0.749573  0.806823  1
  Ho  Ho4  1  0.154735  0.749747  0.203261  1
  Ho  Ho5  1  0.654777  0.250161  0.296814  1
  Ho  Ho6  1  0.844983  0.250071  0.796679  1
  Ho  Ho7  1  0.345379  0.750105  0.702846  1
  Ho  Ho8  1  0.452049  0.749794  0.997900  1
  Ho  Ho9  1  0.951343  0.249900  0.502107  1
  Ho  Ho10  1  0.549125  0.250375  0.002177  1
  Ho  Ho11  1  0.048795  0.749840  0.497853  1
  Ho  Ho12  1  0.822333  0.963730  0.065396  1
  Ho  Ho13  1  0.322748  0.035878  0.434861  1
  Ho  Ho14  1  0.177388  0.464155  0.934860  1
  Ho  Ho15  1  0.677201  0.536116  0.565131  1
  Ho  Ho16  1  0.177616  0.035792  0.934833  1
  Tm  Tm17  1  0.675813  0.963899  0.565020  1
  Tm  Tm18  1  0.824083  0.536406  0.065270  1
  Tm  Tm19  1  0.324164  0.464058  0.434913  1
  Co  Co20  1  0.434072  0.750173  0.491198  1
  Co  Co21  1  0.932937  0.250355  0.009078  1
  Co  Co22  1  0.565919  0.250203  0.508736  1
  Co  Co23  1  0.065515  0.749475  0.991230  1
  Sb  Sb24  1  0.929535  0.991483  0.327847  1
  Sb  Sb25  1  0.429252  0.008433  0.172184  1
  Sb  Sb26  1  0.070428  0.491529  0.672194  1
  Sb  Sb27  1  0.570247  0.508424  0.827650  1
  Sb  Sb28  1  0.069732  0.008184  0.672046  1
  Sb  Sb29  1  0.570690  0.991577  0.827463  1
  Sb  Sb30  1  0.929910  0.508366  0.327864  1
  Sb  Sb31  1  0.430020  0.491738  0.172393  1
