# generated using pymatgen
data_Nd16AlHg3Ir4
_symmetry_space_group_name_H-M   'P 1'
_cell_length_a   9.90993966
_cell_length_b   9.90993851
_cell_length_c   9.90993936
_cell_angle_alpha   60.09757160
_cell_angle_beta   60.09756977
_cell_angle_gamma   60.09757397
_symmetry_Int_Tables_number   1
_chemical_formula_structural   Nd16AlHg3Ir4
_chemical_formula_sum   'Nd16 Al1 Hg3 Ir4'
_cell_volume   689.69497413
_cell_formula_units_Z   1
loop_
 _symmetry_equiv_pos_site_id
 _symmetry_equiv_pos_as_xyz
  1  'x, y, z'
loop_
 _atom_site_type_symbol
 _atom_site_label
 _atom_site_symmetry_multiplicity
 _atom_site_fract_x
 _atom_site_fract_y
 _atom_site_fract_z
 _atom_site_occupancy
  Nd  Nd0  1  0.349042  0.349042  0.349042  1
  Nd  Nd1  1  0.350996  0.350996  0.949663  1
  Nd  Nd2  1  0.350996  0.949663  0.350996  1
  Nd  Nd3  1  0.949663  0.350996  0.350996  1
  Nd  Nd4  1  0.808760  0.190796  0.190796  1
  Nd  Nd5  1  0.191950  0.806832  0.806832  1
  Nd  Nd6  1  0.190796  0.808760  0.190796  1
  Nd  Nd7  1  0.806832  0.191950  0.806832  1
  Nd  Nd8  1  0.190796  0.190796  0.808760  1
  Nd  Nd9  1  0.806832  0.806832  0.191950  1
  Nd  Nd10  1  0.938484  0.561626  0.561626  1
  Nd  Nd11  1  0.560621  0.939547  0.939547  1
  Nd  Nd12  1  0.561626  0.938484  0.561626  1
  Nd  Nd13  1  0.939547  0.560621  0.939547  1
  Nd  Nd14  1  0.561626  0.561626  0.938484  1
  Nd  Nd15  1  0.939547  0.939547  0.560621  1
  Al  Al16  1  0.578294  0.578294  0.578294  1
  Hg  Hg17  1  0.584336  0.584336  0.252809  1
  Hg  Hg18  1  0.584336  0.252809  0.584336  1
  Hg  Hg19  1  0.252809  0.584336  0.584336  1
  Ir  Ir20  1  0.141960  0.141960  0.141960  1
  Ir  Ir21  1  0.142426  0.142426  0.575297  1
  Ir  Ir22  1  0.142426  0.575297  0.142426  1
  Ir  Ir23  1  0.575297  0.142426  0.142426  1
