# generated using pymatgen
data_Tb2Tc14(GeC)3
_symmetry_space_group_name_H-M   'P 1'
_cell_length_a   6.94643066
_cell_length_b   6.94643006
_cell_length_c   6.94642966
_cell_angle_alpha   82.29479109
_cell_angle_beta   82.29479051
_cell_angle_gamma   82.29478800
_symmetry_Int_Tables_number   1
_chemical_formula_structural   Tb2Tc14(GeC)3
_chemical_formula_sum   'Tb2 Tc14 Ge3 C3'
_cell_volume   326.85143759
_cell_formula_units_Z   1
loop_
 _symmetry_equiv_pos_site_id
 _symmetry_equiv_pos_as_xyz
  1  'x, y, z'
loop_
 _atom_site_type_symbol
 _atom_site_label
 _atom_site_symmetry_multiplicity
 _atom_site_fract_x
 _atom_site_fract_y
 _atom_site_fract_z
 _atom_site_occupancy
  Tb  Tb0  1  0.651769  0.651769  0.651769  1
  Tb  Tb1  1  0.348231  0.348231  0.348231  1
  Tc  Tc2  1  0.722487  0.277513  0.000000  1
  Tc  Tc3  1  0.000000  0.722487  0.277513  1
  Tc  Tc4  1  0.277513  0.000000  0.722487  1
  Tc  Tc5  1  0.000000  0.277513  0.722487  1
  Tc  Tc6  1  0.722487  0.000000  0.277513  1
  Tc  Tc7  1  0.277513  0.722487  0.000000  1
  Tc  Tc8  1  0.349444  0.349444  0.853731  1
  Tc  Tc9  1  0.853731  0.349444  0.349444  1
  Tc  Tc10  1  0.349444  0.853731  0.349444  1
  Tc  Tc11  1  0.650556  0.650556  0.146269  1
  Tc  Tc12  1  0.146269  0.650556  0.650556  1
  Tc  Tc13  1  0.650556  0.146269  0.650556  1
  Tc  Tc14  1  0.902973  0.902973  0.902973  1
  Tc  Tc15  1  0.097027  0.097027  0.097027  1
  Ge  Ge16  1  0.000000  0.000000  0.500000  1
  Ge  Ge17  1  0.500000  0.000000  0.000000  1
  Ge  Ge18  1  0.000000  0.500000  0.000000  1
  C  C19  1  0.500000  0.500000  0.000000  1
  C  C20  1  0.000000  0.500000  0.500000  1
  C  C21  1  0.500000  0.000000  0.500000  1
