# generated using pymatgen
data_HoEr3(GaCo)4
_symmetry_space_group_name_H-M   'P 1'
_cell_length_a   4.39186700
_cell_length_b   6.84318493
_cell_length_c   6.96505594
_cell_angle_alpha   89.89428701
_cell_angle_beta   90.00000000
_cell_angle_gamma   90.00000000
_symmetry_Int_Tables_number   1
_chemical_formula_structural   HoEr3(GaCo)4
_chemical_formula_sum   'Ho1 Er3 Ga4 Co4'
_cell_volume   209.32992906
_cell_formula_units_Z   1
loop_
 _symmetry_equiv_pos_site_id
 _symmetry_equiv_pos_as_xyz
  1  'x, y, z'
loop_
 _atom_site_type_symbol
 _atom_site_label
 _atom_site_symmetry_multiplicity
 _atom_site_fract_x
 _atom_site_fract_y
 _atom_site_fract_z
 _atom_site_occupancy
  Ho  Ho0  1  0.750000  0.804515  0.978013  1
  Er  Er1  1  0.250000  0.303851  0.522446  1
  Er  Er2  1  0.250000  0.196352  0.022212  1
  Er  Er3  1  0.750000  0.695745  0.478011  1
  Ga  Ga4  1  0.250000  0.894198  0.694633  1
  Ga  Ga5  1  0.250000  0.605535  0.196065  1
  Ga  Ga6  1  0.750000  0.106021  0.304357  1
  Ga  Ga7  1  0.750000  0.393730  0.805055  1
  Co  Co8  1  0.250000  0.937942  0.343297  1
  Co  Co9  1  0.250000  0.561892  0.843346  1
  Co  Co10  1  0.750000  0.062684  0.655602  1
  Co  Co11  1  0.750000  0.437537  0.156965  1
