# generated using pymatgen
data_CeHo9ZnSi3B16
_symmetry_space_group_name_H-M   'P 1'
_cell_length_a   7.21763919
_cell_length_b   7.21763939
_cell_length_c   8.13275601
_cell_angle_alpha   90.00047143
_cell_angle_beta   90.00047273
_cell_angle_gamma   89.52477230
_symmetry_Int_Tables_number   1
_chemical_formula_structural   CeHo9ZnSi3B16
_chemical_formula_sum   'Ce1 Ho9 Zn1 Si3 B16'
_cell_volume   423.65579574
_cell_formula_units_Z   1
loop_
 _symmetry_equiv_pos_site_id
 _symmetry_equiv_pos_as_xyz
  1  'x, y, z'
loop_
 _atom_site_type_symbol
 _atom_site_label
 _atom_site_symmetry_multiplicity
 _atom_site_fract_x
 _atom_site_fract_y
 _atom_site_fract_z
 _atom_site_occupancy
  Ce  Ce0  1  0.682309  0.182309  0.232823  1
  Ho  Ho1  1  0.321273  0.821273  0.777657  1
  Ho  Ho2  1  0.321562  0.821562  0.222098  1
  Ho  Ho3  1  0.815477  0.682402  0.216794  1
  Ho  Ho4  1  0.815353  0.682218  0.782525  1
  Ho  Ho5  1  0.681272  0.181272  0.775955  1
  Ho  Ho6  1  0.182218  0.315353  0.782525  1
  Ho  Ho7  1  0.182402  0.315477  0.216794  1
  Ho  Ho8  1  0.001586  0.003358  0.500272  1
  Ho  Ho9  1  0.503358  0.501586  0.500272  1
  Zn  Zn10  1  0.116106  0.616106  0.500487  1
  Si  Si11  1  0.885966  0.385966  0.503293  1
  Si  Si12  1  0.383188  0.116038  0.500828  1
  Si  Si13  1  0.616038  0.883188  0.500828  1
  B  B14  1  0.172061  0.038529  0.998802  1
  B  B15  1  0.827469  0.961126  0.999493  1
  B  B16  1  0.959319  0.171496  0.999452  1
  B  B17  1  0.327009  0.540461  0.998669  1
  B  B18  1  0.040461  0.827009  0.998669  1
  B  B19  1  0.671496  0.459319  0.999452  1
  B  B20  1  0.538529  0.672061  0.998802  1
  B  B21  1  0.461126  0.327469  0.999493  1
  B  B22  1  0.089835  0.589835  0.998577  1
  B  B23  1  0.909012  0.409012  0.000962  1
  B  B24  1  0.409098  0.090422  0.998952  1
  B  B25  1  0.590422  0.909098  0.998952  1
  B  B26  1  0.999814  0.997912  0.161828  1
  B  B27  1  0.000050  0.998278  0.836458  1
  B  B28  1  0.498278  0.500050  0.836458  1
  B  B29  1  0.497912  0.499814  0.161828  1
