# generated using pymatgen
data_Mg2Co8P7Ru4
_symmetry_space_group_name_H-M   'P 1'
_cell_length_a   9.01872521
_cell_length_b   9.10524665
_cell_length_c   3.63980000
_cell_angle_alpha   90.00000000
_cell_angle_beta   90.00000000
_cell_angle_gamma   120.45968364
_symmetry_Int_Tables_number   1
_chemical_formula_structural   Mg2Co8P7Ru4
_chemical_formula_sum   'Mg2 Co8 P7 Ru4'
_cell_volume   257.64080184
_cell_formula_units_Z   1
loop_
 _symmetry_equiv_pos_site_id
 _symmetry_equiv_pos_as_xyz
  1  'x, y, z'
loop_
 _atom_site_type_symbol
 _atom_site_label
 _atom_site_symmetry_multiplicity
 _atom_site_fract_x
 _atom_site_fract_y
 _atom_site_fract_z
 _atom_site_occupancy
  Mg  Mg0  1  0.665049  0.329515  0.500000  1
  Mg  Mg1  1  0.335282  0.666407  0.000000  1
  Co  Co2  1  0.557098  0.945837  0.500000  1
  Co  Co3  1  0.391076  0.440390  0.500000  1
  Co  Co4  1  0.709868  0.874282  0.000000  1
  Co  Co5  1  0.123447  0.847618  0.000000  1
  Co  Co6  1  0.161585  0.280492  0.000000  1
  Co  Co7  1  0.440834  0.068168  0.000000  1
  Co  Co8  1  0.931007  0.365892  0.000000  1
  Co  Co9  1  0.626514  0.561527  0.000000  1
  P  P10  1  0.585720  0.709516  0.500000  1
  P  P11  1  0.997180  0.999767  0.000000  1
  P  P12  1  0.293412  0.885152  0.500000  1
  P  P13  1  0.125583  0.404584  0.500000  1
  P  P14  1  0.881063  0.587014  0.000000  1
  P  P15  1  0.414746  0.297516  0.000000  1
  P  P16  1  0.701448  0.112684  0.000000  1
  Ru  Ru17  1  0.901468  0.124578  0.500000  1
  Ru  Ru18  1  0.229202  0.101520  0.500000  1
  Ru  Ru19  1  0.873361  0.786616  0.500000  1
  Ru  Ru20  1  0.055059  0.610922  0.500000  1
