# generated using pymatgen
data_Ho3ErFeOs7
_symmetry_space_group_name_H-M   'P 1'
_cell_length_a   5.25375771
_cell_length_b   5.25500642
_cell_length_c   8.83513102
_cell_angle_alpha   89.98672470
_cell_angle_beta   89.99083885
_cell_angle_gamma   60.74639485
_symmetry_Int_Tables_number   1
_chemical_formula_structural   Ho3ErFeOs7
_chemical_formula_sum   'Ho3 Er1 Fe1 Os7'
_cell_volume   212.81606872
_cell_formula_units_Z   1
loop_
 _symmetry_equiv_pos_site_id
 _symmetry_equiv_pos_as_xyz
  1  'x, y, z'
loop_
 _atom_site_type_symbol
 _atom_site_label
 _atom_site_symmetry_multiplicity
 _atom_site_fract_x
 _atom_site_fract_y
 _atom_site_fract_z
 _atom_site_occupancy
  Ho  Ho0  1  0.667425  0.667689  0.433983  1
  Ho  Ho1  1  0.667404  0.667549  0.066119  1
  Ho  Ho2  1  0.330991  0.331251  0.936707  1
  Er  Er3  1  0.331026  0.331505  0.563388  1
  Fe  Fe4  1  0.167208  0.166835  0.250221  1
  Os  Os5  1  0.996920  0.997435  0.498613  1
  Os  Os6  1  0.996856  0.997242  0.001496  1
  Os  Os7  1  0.826633  0.347173  0.749640  1
  Os  Os8  1  0.348159  0.826144  0.749637  1
  Os  Os9  1  0.832770  0.832783  0.749716  1
  Os  Os10  1  0.177973  0.656509  0.250232  1
  Os  Os11  1  0.656638  0.177882  0.250245  1
