# generated using pymatgen
data_Ca3La4Nd3Ru4
_symmetry_space_group_name_H-M   'P 1'
_cell_length_a   9.00224515
_cell_length_b   9.07216391
_cell_length_c   7.42095977
_cell_angle_alpha   84.40758905
_cell_angle_beta   83.74907904
_cell_angle_gamma   43.40120349
_symmetry_Int_Tables_number   1
_chemical_formula_structural   Ca3La4Nd3Ru4
_chemical_formula_sum   'Ca3 La4 Nd3 Ru4'
_cell_volume   413.80629912
_cell_formula_units_Z   1
loop_
 _symmetry_equiv_pos_site_id
 _symmetry_equiv_pos_as_xyz
  1  'x, y, z'
loop_
 _atom_site_type_symbol
 _atom_site_label
 _atom_site_symmetry_multiplicity
 _atom_site_fract_x
 _atom_site_fract_y
 _atom_site_fract_z
 _atom_site_occupancy
  Ca  Ca0  1  0.365555  0.208922  0.817164  1
  Ca  Ca1  1  0.791423  0.635758  0.684354  1
  Ca  Ca2  1  0.631942  0.795106  0.183763  1
  La  La3  1  0.012776  0.803759  0.905589  1
  La  La4  1  0.201709  0.985896  0.596160  1
  La  La5  1  0.989630  0.198207  0.096268  1
  La  La6  1  0.803139  0.009215  0.405129  1
  Nd  Nd7  1  0.210973  0.367285  0.319685  1
  Nd  Nd8  1  0.570447  0.429864  0.747651  1
  Nd  Nd9  1  0.432781  0.569747  0.249603  1
  Ru  Ru10  1  0.160125  0.628292  0.581334  1
  Ru  Ru11  1  0.355787  0.838451  0.908799  1
  Ru  Ru12  1  0.850947  0.363124  0.406482  1
  Ru  Ru13  1  0.622766  0.166374  0.098018  1
