# generated using pymatgen
data_Nd2Br5
_symmetry_space_group_name_H-M   'P 1'
_cell_length_a   4.12519800
_cell_length_b   8.63481437
_cell_length_c   13.83523569
_cell_angle_alpha   85.96708571
_cell_angle_beta   90.00000000
_cell_angle_gamma   90.00000000
_symmetry_Int_Tables_number   1
_chemical_formula_structural   Nd2Br5
_chemical_formula_sum   'Nd4 Br10'
_cell_volume   491.59520511
_cell_formula_units_Z   2
loop_
 _symmetry_equiv_pos_site_id
 _symmetry_equiv_pos_as_xyz
  1  'x, y, z'
loop_
 _atom_site_type_symbol
 _atom_site_label
 _atom_site_symmetry_multiplicity
 _atom_site_fract_x
 _atom_site_fract_y
 _atom_site_fract_z
 _atom_site_occupancy
  Nd  Nd0  1  0.750000  0.101019  0.848922  1
  Nd  Nd1  1  0.250000  0.898981  0.151078  1
  Nd  Nd2  1  0.750000  0.582945  0.343452  1
  Nd  Nd3  1  0.250000  0.417055  0.656548  1
  Br  Br4  1  0.750000  0.632917  0.714708  1
  Br  Br5  1  0.250000  0.367083  0.285292  1
  Br  Br6  1  0.750000  0.131988  0.071383  1
  Br  Br7  1  0.250000  0.868012  0.928617  1
  Br  Br8  1  0.250000  0.679987  0.484969  1
  Br  Br9  1  0.750000  0.320013  0.515031  1
  Br  Br10  1  0.250000  0.065678  0.692948  1
  Br  Br11  1  0.750000  0.934322  0.307052  1
  Br  Br12  1  0.250000  0.346206  0.875301  1
  Br  Br13  1  0.750000  0.653794  0.124699  1
