# generated using pymatgen
data_Y2Tm9Lu5(In3Ni)2
_symmetry_space_group_name_H-M   'P 1'
_cell_length_a   10.26619300
_cell_length_b   10.26619467
_cell_length_c   6.91341300
_cell_angle_alpha   90.00000000
_cell_angle_beta   90.00000000
_cell_angle_gamma   120.00000429
_symmetry_Int_Tables_number   1
_chemical_formula_structural   Y2Tm9Lu5(In3Ni)2
_chemical_formula_sum   'Y2 Tm9 Lu5 In6 Ni2'
_cell_volume   631.01841671
_cell_formula_units_Z   1
loop_
 _symmetry_equiv_pos_site_id
 _symmetry_equiv_pos_as_xyz
  1  'x, y, z'
loop_
 _atom_site_type_symbol
 _atom_site_label
 _atom_site_symmetry_multiplicity
 _atom_site_fract_x
 _atom_site_fract_y
 _atom_site_fract_z
 _atom_site_occupancy
  Y  Y0  1  0.000000  0.000000  0.498232  1
  Y  Y1  1  0.000000  0.000000  0.996720  1
  Tm  Tm2  1  0.466058  0.533942  0.480127  1
  Tm  Tm3  1  0.067883  0.533942  0.480127  1
  Tm  Tm4  1  0.466058  0.932117  0.480127  1
  Tm  Tm5  1  0.533597  0.466403  0.979228  1
  Tm  Tm6  1  0.932806  0.466403  0.979228  1
  Tm  Tm7  1  0.533597  0.067194  0.979228  1
  Tm  Tm8  1  0.821191  0.178809  0.277179  1
  Tm  Tm9  1  0.357618  0.178809  0.277179  1
  Tm  Tm10  1  0.821191  0.642382  0.277179  1
  Lu  Lu11  1  0.178866  0.821134  0.777155  1
  Lu  Lu12  1  0.642266  0.821134  0.777155  1
  Lu  Lu13  1  0.178866  0.357734  0.777155  1
  Lu  Lu14  1  0.333333  0.666667  0.091136  1
  Lu  Lu15  1  0.666667  0.333333  0.592016  1
  In  In16  1  0.163323  0.836677  0.234752  1
  In  In17  1  0.673353  0.836677  0.234752  1
  In  In18  1  0.163323  0.326647  0.234752  1
  In  In19  1  0.837027  0.162973  0.735409  1
  In  In20  1  0.325947  0.162973  0.735409  1
  In  In21  1  0.837027  0.674053  0.735409  1
  Ni  Ni22  1  0.333333  0.666667  0.707597  1
  Ni  Ni23  1  0.666667  0.333333  0.207299  1
