# generated using pymatgen
data_Tb3MgPd8
_symmetry_space_group_name_H-M   'P 1'
_cell_length_a   4.21250300
_cell_length_b   5.87287906
_cell_length_c   17.58004100
_cell_angle_alpha   89.99645857
_cell_angle_beta   90.00027203
_cell_angle_gamma   90.00759994
_symmetry_Int_Tables_number   1
_chemical_formula_structural   Tb3MgPd8
_chemical_formula_sum   'Tb6 Mg2 Pd16'
_cell_volume   434.92178306
_cell_formula_units_Z   2
loop_
 _symmetry_equiv_pos_site_id
 _symmetry_equiv_pos_as_xyz
  1  'x, y, z'
loop_
 _atom_site_type_symbol
 _atom_site_label
 _atom_site_symmetry_multiplicity
 _atom_site_fract_x
 _atom_site_fract_y
 _atom_site_fract_z
 _atom_site_occupancy
  Tb  Tb0  1  0.524810  0.343935  0.047424  1
  Tb  Tb1  1  0.524611  0.840244  0.206155  1
  Tb  Tb2  1  0.525852  0.344157  0.364912  1
  Tb  Tb3  1  0.527236  0.735599  0.547402  1
  Tb  Tb4  1  0.527414  0.238299  0.706145  1
  Tb  Tb5  1  0.526163  0.733919  0.864882  1
  Mg  Mg6  1  0.026618  0.040048  0.456158  1
  Mg  Mg7  1  0.025312  0.039087  0.956077  1
  Pd  Pd8  1  0.524839  0.835642  0.034291  1
  Pd  Pd9  1  0.024535  0.088494  0.121385  1
  Pd  Pd10  1  0.024569  0.592249  0.122463  1
  Pd  Pd11  1  0.524617  0.338976  0.206205  1
  Pd  Pd12  1  0.025200  0.592032  0.289904  1
  Pd  Pd13  1  0.025108  0.088379  0.290990  1
  Pd  Pd14  1  0.525897  0.835852  0.378067  1
  Pd  Pd15  1  0.026632  0.540013  0.456163  1
  Pd  Pd16  1  0.527226  0.243969  0.534252  1
  Pd  Pd17  1  0.027516  0.990959  0.621294  1
  Pd  Pd18  1  0.027492  0.487293  0.622437  1
  Pd  Pd19  1  0.527445  0.739511  0.706112  1
  Pd  Pd20  1  0.026829  0.485673  0.789852  1
  Pd  Pd21  1  0.026912  0.989433  0.790844  1
  Pd  Pd22  1  0.526066  0.242149  0.877961  1
  Pd  Pd23  1  0.025437  0.539054  0.956164  1
