# generated using pymatgen
data_Tb7ErGa12CoCu3
_symmetry_space_group_name_H-M   'P 1'
_cell_length_a   7.08529400
_cell_length_b   8.79845341
_cell_length_c   8.79373243
_cell_angle_alpha   120.01776351
_cell_angle_beta   90.00261032
_cell_angle_gamma   89.99999990
_symmetry_Int_Tables_number   1
_chemical_formula_structural   Tb7ErGa12CoCu3
_chemical_formula_sum   'Tb7 Er1 Ga12 Co1 Cu3'
_cell_volume   474.66840754
_cell_formula_units_Z   1
loop_
 _symmetry_equiv_pos_site_id
 _symmetry_equiv_pos_as_xyz
  1  'x, y, z'
loop_
 _atom_site_type_symbol
 _atom_site_label
 _atom_site_symmetry_multiplicity
 _atom_site_fract_x
 _atom_site_fract_y
 _atom_site_fract_z
 _atom_site_occupancy
  Tb  Tb0  1  0.745487  0.000109  0.000217  1
  Tb  Tb1  1  0.253423  0.000113  0.000225  1
  Tb  Tb2  1  0.749776  0.486088  0.513336  1
  Tb  Tb3  1  0.255131  0.520896  0.478783  1
  Tb  Tb4  1  0.749776  0.027247  0.513336  1
  Tb  Tb5  1  0.255131  0.957886  0.478783  1
  Tb  Tb6  1  0.749770  0.486703  0.973407  1
  Er  Er7  1  0.256323  0.521218  0.042436  1
  Ga  Ga8  1  0.965374  0.831339  0.168043  1
  Ga  Ga9  1  0.040288  0.170859  0.830389  1
  Ga  Ga10  1  0.965374  0.336706  0.168043  1
  Ga  Ga11  1  0.462768  0.170508  0.830222  1
  Ga  Ga12  1  0.040288  0.659528  0.830389  1
  Ga  Ga13  1  0.536646  0.826480  0.172700  1
  Ga  Ga14  1  0.963385  0.831558  0.663114  1
  Ga  Ga15  1  0.462768  0.659712  0.830222  1
  Ga  Ga16  1  0.038890  0.170201  0.340403  1
  Ga  Ga17  1  0.536646  0.346221  0.172700  1
  Ga  Ga18  1  0.464458  0.170167  0.340336  1
  Ga  Ga19  1  0.538351  0.826520  0.653040  1
  Co  Co20  1  0.514145  0.666005  0.332009  1
  Cu  Cu21  1  0.950216  0.666204  0.332407  1
  Cu  Cu22  1  0.046095  0.333868  0.667738  1
  Cu  Cu23  1  0.459488  0.333862  0.667725  1
