# generated using pymatgen
data_DyHoErFe9
_symmetry_space_group_name_H-M   'P 1'
_cell_length_a   8.60213029
_cell_length_b   8.60212965
_cell_length_c   8.60213000
_cell_angle_alpha   34.36958091
_cell_angle_beta   34.36957556
_cell_angle_gamma   34.36957720
_symmetry_Int_Tables_number   1
_chemical_formula_structural   DyHoErFe9
_chemical_formula_sum   'Dy1 Ho1 Er1 Fe9'
_cell_volume   180.93378896
_cell_formula_units_Z   1
loop_
 _symmetry_equiv_pos_site_id
 _symmetry_equiv_pos_as_xyz
  1  'x, y, z'
loop_
 _atom_site_type_symbol
 _atom_site_label
 _atom_site_symmetry_multiplicity
 _atom_site_fract_x
 _atom_site_fract_y
 _atom_site_fract_z
 _atom_site_occupancy
  Dy  Dy0  1  0.999998  0.999998  0.999998  1
  Ho  Ho1  1  0.142051  0.142051  0.142051  1
  Er  Er2  1  0.857952  0.857952  0.857952  1
  Fe  Fe3  1  0.418144  0.418144  0.917491  1
  Fe  Fe4  1  0.917491  0.418144  0.418144  1
  Fe  Fe5  1  0.581859  0.082502  0.581859  1
  Fe  Fe6  1  0.581859  0.581859  0.082502  1
  Fe  Fe7  1  0.418144  0.917491  0.418144  1
  Fe  Fe8  1  0.082502  0.581859  0.581859  1
  Fe  Fe9  1  0.332635  0.332635  0.332635  1
  Fe  Fe10  1  0.667366  0.667366  0.667366  1
  Fe  Fe11  1  0.500001  0.500001  0.500001  1
