# generated using pymatgen
data_Tb2DyLu(Mo2O7)2
_symmetry_space_group_name_H-M   'P 1'
_cell_length_a   7.33461227
_cell_length_b   7.33461323
_cell_length_c   7.27164606
_cell_angle_alpha   60.59712860
_cell_angle_beta   60.59712694
_cell_angle_gamma   60.95618975
_symmetry_Int_Tables_number   1
_chemical_formula_structural   Tb2DyLu(Mo2O7)2
_chemical_formula_sum   'Tb2 Dy1 Lu1 Mo4 O14'
_cell_volume   281.08019651
_cell_formula_units_Z   1
loop_
 _symmetry_equiv_pos_site_id
 _symmetry_equiv_pos_as_xyz
  1  'x, y, z'
loop_
 _atom_site_type_symbol
 _atom_site_label
 _atom_site_symmetry_multiplicity
 _atom_site_fract_x
 _atom_site_fract_y
 _atom_site_fract_z
 _atom_site_occupancy
  Tb  Tb0  1  0.625000  0.125000  0.125000  1
  Tb  Tb1  1  0.125000  0.625000  0.125000  1
  Dy  Dy2  1  0.125000  0.125000  0.625000  1
  Lu  Lu3  1  0.125000  0.125000  0.125000  1
  Mo  Mo4  1  0.625000  0.625000  0.625000  1
  Mo  Mo5  1  0.125000  0.625000  0.625000  1
  Mo  Mo6  1  0.625000  0.625000  0.125000  1
  Mo  Mo7  1  0.625000  0.125000  0.625000  1
  O  O8  1  0.999880  0.999880  0.003814  1
  O  O9  1  0.250120  0.250120  0.246186  1
  O  O10  1  0.282360  0.282360  0.724115  1
  O  O11  1  0.536299  0.536299  0.962636  1
  O  O12  1  0.718191  0.285665  0.710680  1
  O  O13  1  0.722365  0.285673  0.283749  1
  O  O14  1  0.285665  0.718191  0.710680  1
  O  O15  1  0.285673  0.722365  0.283749  1
  O  O16  1  0.713701  0.713701  0.287364  1
  O  O17  1  0.964335  0.531809  0.539320  1
  O  O18  1  0.527635  0.964327  0.966251  1
  O  O19  1  0.967640  0.967640  0.525885  1
  O  O20  1  0.964327  0.527635  0.966251  1
  O  O21  1  0.531809  0.964335  0.539320  1
