# generated using pymatgen
data_Ce5Nd(TiAs5)2
_symmetry_space_group_name_H-M   'P 1'
_cell_length_a   8.71921800
_cell_length_b   8.68175882
_cell_length_c   5.96958700
_cell_angle_alpha   90.00000000
_cell_angle_beta   90.00000000
_cell_angle_gamma   120.14283206
_symmetry_Int_Tables_number   1
_chemical_formula_structural   Ce5Nd(TiAs5)2
_chemical_formula_sum   'Ce5 Nd1 Ti2 As10'
_cell_volume   390.78087614
_cell_formula_units_Z   1
loop_
 _symmetry_equiv_pos_site_id
 _symmetry_equiv_pos_as_xyz
  1  'x, y, z'
loop_
 _atom_site_type_symbol
 _atom_site_label
 _atom_site_symmetry_multiplicity
 _atom_site_fract_x
 _atom_site_fract_y
 _atom_site_fract_z
 _atom_site_occupancy
  Ce  Ce0  1  0.383588  0.000000  0.750000  1
  Ce  Ce1  1  0.000458  0.615799  0.250000  1
  Ce  Ce2  1  0.998699  0.381787  0.750000  1
  Ce  Ce3  1  0.384660  0.384201  0.250000  1
  Ce  Ce4  1  0.616912  0.618213  0.750000  1
  Nd  Nd5  1  0.616895  0.000000  0.250000  1
  Ti  Ti6  1  0.999197  0.000000  0.001053  1
  Ti  Ti7  1  0.999197  0.000000  0.498947  1
  As  As8  1  0.252103  0.000000  0.250000  1
  As  As9  1  0.747711  0.000000  0.750000  1
  As  As10  1  0.003235  0.256202  0.250000  1
  As  As11  1  0.000041  0.746836  0.750000  1
  As  As12  1  0.747033  0.743798  0.250000  1
  As  As13  1  0.253205  0.253164  0.750000  1
  As  As14  1  0.331865  0.665199  0.998492  1
  As  As15  1  0.666668  0.334801  0.998492  1
  As  As16  1  0.666668  0.334801  0.501508  1
  As  As17  1  0.331865  0.665199  0.501508  1
