# generated using pymatgen
data_Nd3Ga24Pd8W
_symmetry_space_group_name_H-M   'P 1'
_cell_length_a   8.52809076
_cell_length_b   8.53271853
_cell_length_c   8.52521081
_cell_angle_alpha   89.68095301
_cell_angle_beta   89.58817979
_cell_angle_gamma   89.74557389
_symmetry_Int_Tables_number   1
_chemical_formula_structural   Nd3Ga24Pd8W
_chemical_formula_sum   'Nd3 Ga24 Pd8 W1'
_cell_volume   620.32916958
_cell_formula_units_Z   1
loop_
 _symmetry_equiv_pos_site_id
 _symmetry_equiv_pos_as_xyz
  1  'x, y, z'
loop_
 _atom_site_type_symbol
 _atom_site_label
 _atom_site_symmetry_multiplicity
 _atom_site_fract_x
 _atom_site_fract_y
 _atom_site_fract_z
 _atom_site_occupancy
  Nd  Nd0  1  0.000000  0.500000  0.000000  1
  Nd  Nd1  1  0.500000  0.000000  0.000000  1
  Nd  Nd2  1  0.000000  0.000000  0.500000  1
  Ga  Ga3  1  0.989585  0.642797  0.642848  1
  Ga  Ga4  1  0.642934  0.642897  0.989564  1
  Ga  Ga5  1  0.642702  0.989582  0.642711  1
  Ga  Ga6  1  0.010415  0.357203  0.357152  1
  Ga  Ga7  1  0.357066  0.357103  0.010436  1
  Ga  Ga8  1  0.357298  0.010418  0.357289  1
  Ga  Ga9  1  0.734814  0.499765  0.265367  1
  Ga  Ga10  1  0.265186  0.500235  0.734633  1
  Ga  Ga11  1  0.500563  0.264979  0.734496  1
  Ga  Ga12  1  0.499437  0.735021  0.265504  1
  Ga  Ga13  1  0.265412  0.734931  0.499670  1
  Ga  Ga14  1  0.734588  0.265069  0.500330  1
  Ga  Ga15  1  0.839146  0.142008  0.839020  1
  Ga  Ga16  1  0.141926  0.839436  0.839145  1
  Ga  Ga17  1  0.839377  0.839547  0.141851  1
  Ga  Ga18  1  0.160854  0.857992  0.160980  1
  Ga  Ga19  1  0.858074  0.160564  0.160855  1
  Ga  Ga20  1  0.160623  0.160453  0.858149  1
  Ga  Ga21  1  0.728343  0.489248  0.728092  1
  Ga  Ga22  1  0.489591  0.728600  0.727929  1
  Ga  Ga23  1  0.728075  0.728504  0.489855  1
  Ga  Ga24  1  0.271657  0.510752  0.271908  1
  Ga  Ga25  1  0.510409  0.271400  0.272071  1
  Ga  Ga26  1  0.271925  0.271496  0.510145  1
  Pd  Pd27  1  0.835568  0.835632  0.835420  1
  Pd  Pd28  1  0.164432  0.164368  0.164580  1
  Pd  Pd29  1  0.664070  0.336053  0.000133  1
  Pd  Pd30  1  0.000240  0.335899  0.664247  1
  Pd  Pd31  1  0.335741  0.000096  0.664301  1
  Pd  Pd32  1  0.335930  0.663947  0.999867  1
  Pd  Pd33  1  0.999760  0.664101  0.335753  1
  Pd  Pd34  1  0.664259  0.999904  0.335699  1
  W  W35  1  0.500000  0.500000  0.500000  1
