# generated using pymatgen
data_CuReF6
_symmetry_space_group_name_H-M   'P 1'
_cell_length_a   5.26796068
_cell_length_b   5.31498347
_cell_length_c   5.62693924
_cell_angle_alpha   60.92362086
_cell_angle_beta   62.19112713
_cell_angle_gamma   60.25336458
_symmetry_Int_Tables_number   1
_chemical_formula_structural   CuReF6
_chemical_formula_sum   'Cu1 Re1 F6'
_cell_volume   114.15360699
_cell_formula_units_Z   1
loop_
 _symmetry_equiv_pos_site_id
 _symmetry_equiv_pos_as_xyz
  1  'x, y, z'
loop_
 _atom_site_type_symbol
 _atom_site_label
 _atom_site_symmetry_multiplicity
 _atom_site_fract_x
 _atom_site_fract_y
 _atom_site_fract_z
 _atom_site_occupancy
  Cu  Cu0  1  0.000000  0.000000  0.000000  1
  Re  Re1  1  0.500000  0.500000  0.500000  1
  F  F2  1  0.737309  0.381287  0.744476  1
  F  F3  1  0.262691  0.618713  0.255524  1
  F  F4  1  0.615181  0.865566  0.262514  1
  F  F5  1  0.384819  0.134434  0.737486  1
  F  F6  1  0.139667  0.732196  0.734301  1
  F  F7  1  0.860333  0.267804  0.265699  1
