# generated using pymatgen
data_Th8Si12NiPd3
_symmetry_space_group_name_H-M   'P 1'
_cell_length_a   8.18635100
_cell_length_b   8.18634944
_cell_length_c   8.54381600
_cell_angle_alpha   90.00000000
_cell_angle_beta   90.00000000
_cell_angle_gamma   119.99999416
_symmetry_Int_Tables_number   1
_chemical_formula_structural   Th8Si12NiPd3
_chemical_formula_sum   'Th8 Si12 Ni1 Pd3'
_cell_volume   495.86469116
_cell_formula_units_Z   1
loop_
 _symmetry_equiv_pos_site_id
 _symmetry_equiv_pos_as_xyz
  1  'x, y, z'
loop_
 _atom_site_type_symbol
 _atom_site_label
 _atom_site_symmetry_multiplicity
 _atom_site_fract_x
 _atom_site_fract_y
 _atom_site_fract_z
 _atom_site_occupancy
  Th  Th0  1  0.498152  0.996304  0.247132  1
  Th  Th1  1  0.498278  0.996556  0.752989  1
  Th  Th2  1  0.003696  0.501848  0.247132  1
  Th  Th3  1  0.003444  0.501722  0.752989  1
  Th  Th4  1  0.498152  0.501848  0.247132  1
  Th  Th5  1  0.498278  0.501722  0.752989  1
  Th  Th6  1  0.000000  0.000000  0.248792  1
  Th  Th7  1  0.000000  0.000000  0.751274  1
  Si  Si8  1  0.172284  0.344569  0.000435  1
  Si  Si9  1  0.835473  0.670946  0.999606  1
  Si  Si10  1  0.655431  0.827716  0.000435  1
  Si  Si11  1  0.834213  0.668427  0.499408  1
  Si  Si12  1  0.329054  0.164527  0.999606  1
  Si  Si13  1  0.165322  0.330644  0.500679  1
  Si  Si14  1  0.172284  0.827716  0.000435  1
  Si  Si15  1  0.331573  0.165787  0.499408  1
  Si  Si16  1  0.835473  0.164527  0.999606  1
  Si  Si17  1  0.669356  0.834678  0.500679  1
  Si  Si18  1  0.834213  0.165787  0.499408  1
  Si  Si19  1  0.165322  0.834678  0.500679  1
  Ni  Ni20  1  0.333333  0.666667  0.999110  1
  Pd  Pd21  1  0.666667  0.333333  0.999758  1
  Pd  Pd22  1  0.666667  0.333333  0.499746  1
  Pd  Pd23  1  0.333333  0.666667  0.500575  1
