# generated using pymatgen
data_KRb19(HfAs3)4
_symmetry_space_group_name_H-M   'P 1'
_cell_length_a   8.80491520
_cell_length_b   9.48801676
_cell_length_c   18.38888095
_cell_angle_alpha   60.16131421
_cell_angle_beta   90.41473845
_cell_angle_gamma   90.21859095
_symmetry_Int_Tables_number   1
_chemical_formula_structural   KRb19(HfAs3)4
_chemical_formula_sum   'K1 Rb19 Hf4 As12'
_cell_volume   1332.53559765
_cell_formula_units_Z   1
loop_
 _symmetry_equiv_pos_site_id
 _symmetry_equiv_pos_as_xyz
  1  'x, y, z'
loop_
 _atom_site_type_symbol
 _atom_site_label
 _atom_site_symmetry_multiplicity
 _atom_site_fract_x
 _atom_site_fract_y
 _atom_site_fract_z
 _atom_site_occupancy
  K  K0  1  0.525205  0.546910  0.756035  1
  Rb  Rb1  1  0.171096  0.841277  0.740095  1
  Rb  Rb2  1  0.670856  0.157517  0.760445  1
  Rb  Rb3  1  0.828734  0.157638  0.260200  1
  Rb  Rb4  1  0.328732  0.842403  0.239476  1
  Rb  Rb5  1  0.169563  0.162485  0.419870  1
  Rb  Rb6  1  0.667946  0.837099  0.080616  1
  Rb  Rb7  1  0.829595  0.837274  0.580586  1
  Rb  Rb8  1  0.332394  0.165860  0.918045  1
  Rb  Rb9  1  0.005752  0.085193  0.090586  1
  Rb  Rb10  1  0.506394  0.915961  0.408479  1
  Rb  Rb11  1  0.992822  0.915060  0.907992  1
  Rb  Rb12  1  0.493982  0.082210  0.592543  1
  Rb  Rb13  1  0.516864  0.266378  0.078090  1
  Rb  Rb14  1  0.019026  0.733650  0.422550  1
  Rb  Rb15  1  0.480982  0.733844  0.921092  1
  Rb  Rb16  1  0.982490  0.265915  0.578513  1
  Rb  Rb17  1  0.982741  0.547261  0.257134  1
  Rb  Rb18  1  0.483084  0.453007  0.243130  1
  Rb  Rb19  1  0.018189  0.453125  0.742962  1
  Hf  Hf20  1  0.372824  0.493411  0.580623  1
  Hf  Hf21  1  0.868194  0.506370  0.919764  1
  Hf  Hf22  1  0.629041  0.506440  0.420938  1
  Hf  Hf23  1  0.128291  0.493464  0.079339  1
  As  As24  1  0.327315  0.487125  0.438087  1
  As  As25  1  0.826410  0.513956  0.061787  1
  As  As26  1  0.674183  0.513017  0.563282  1
  As  As27  1  0.170237  0.486307  0.937383  1
  As  As28  1  0.209136  0.222885  0.214250  1
  As  As29  1  0.709412  0.776789  0.286200  1
  As  As30  1  0.787177  0.776351  0.784791  1
  As  As31  1  0.291165  0.222930  0.714357  1
  As  As32  1  0.249721  0.749768  0.076527  1
  As  As33  1  0.749359  0.250564  0.423276  1
  As  As34  1  0.745632  0.251150  0.921948  1
  As  As35  1  0.255455  0.749405  0.579010  1
