# generated using pymatgen
data_LiDy4Pa2Co17P12
_symmetry_space_group_name_H-M   'P 1'
_cell_length_a   3.71365800
_cell_length_b   10.55609700
_cell_length_c   12.14311800
_cell_angle_alpha   90.00000000
_cell_angle_beta   90.00000000
_cell_angle_gamma   90.00000000
_symmetry_Int_Tables_number   1
_chemical_formula_structural   LiDy4Pa2Co17P12
_chemical_formula_sum   'Li1 Dy4 Pa2 Co17 P12'
_cell_volume   476.03128265
_cell_formula_units_Z   1
loop_
 _symmetry_equiv_pos_site_id
 _symmetry_equiv_pos_as_xyz
  1  'x, y, z'
loop_
 _atom_site_type_symbol
 _atom_site_label
 _atom_site_symmetry_multiplicity
 _atom_site_fract_x
 _atom_site_fract_y
 _atom_site_fract_z
 _atom_site_occupancy
  Li  Li0  1  0.500000  0.500000  0.149682  1
  Dy  Dy1  1  0.500000  0.815683  0.205379  1
  Dy  Dy2  1  0.500000  0.184317  0.205379  1
  Dy  Dy3  1  0.000000  0.685389  0.795787  1
  Dy  Dy4  1  0.000000  0.314611  0.795787  1
  Pa  Pa5  1  0.000000  0.500000  0.528029  1
  Pa  Pa6  1  0.500000  0.000000  0.471082  1
  Co  Co7  1  0.000000  0.000000  0.840429  1
  Co  Co8  1  0.500000  0.500000  0.697050  1
  Co  Co9  1  0.000000  0.000000  0.304663  1
  Co  Co10  1  0.000000  0.500000  0.984621  1
  Co  Co11  1  0.500000  0.000000  0.015586  1
  Co  Co12  1  0.500000  0.331435  0.993733  1
  Co  Co13  1  0.500000  0.668565  0.993733  1
  Co  Co14  1  0.000000  0.163988  0.004402  1
  Co  Co15  1  0.000000  0.836012  0.004402  1
  Co  Co16  1  0.500000  0.299675  0.433897  1
  Co  Co17  1  0.500000  0.700325  0.433897  1
  Co  Co18  1  0.000000  0.198645  0.569158  1
  Co  Co19  1  0.000000  0.801355  0.569158  1
  Co  Co20  1  0.500000  0.880593  0.709585  1
  Co  Co21  1  0.500000  0.119407  0.709585  1
  Co  Co22  1  0.000000  0.621586  0.292475  1
  Co  Co23  1  0.000000  0.378414  0.292475  1
  P  P24  1  0.500000  0.500000  0.881004  1
  P  P25  1  0.000000  0.000000  0.120920  1
  P  P26  1  0.500000  0.500000  0.343527  1
  P  P27  1  0.000000  0.000000  0.656421  1
  P  P28  1  0.500000  0.306837  0.617544  1
  P  P29  1  0.500000  0.693163  0.617544  1
  P  P30  1  0.000000  0.193537  0.383819  1
  P  P31  1  0.000000  0.806463  0.383819  1
  P  P32  1  0.500000  0.848878  0.893810  1
  P  P33  1  0.500000  0.151122  0.893810  1
  P  P34  1  0.000000  0.656646  0.103906  1
  P  P35  1  0.000000  0.343354  0.103906  1
