# generated using pymatgen
data_Ti6NbRe12W5
_symmetry_space_group_name_H-M   'P 1'
_cell_length_a   4.43769500
_cell_length_b   6.27305700
_cell_length_c   13.39291000
_cell_angle_alpha   90.00000000
_cell_angle_beta   89.99871258
_cell_angle_gamma   90.00000000
_symmetry_Int_Tables_number   1
_chemical_formula_structural   Ti6NbRe12W5
_chemical_formula_sum   'Ti6 Nb1 Re12 W5'
_cell_volume   372.83067251
_cell_formula_units_Z   1
loop_
 _symmetry_equiv_pos_site_id
 _symmetry_equiv_pos_as_xyz
  1  'x, y, z'
loop_
 _atom_site_type_symbol
 _atom_site_label
 _atom_site_symmetry_multiplicity
 _atom_site_fract_x
 _atom_site_fract_y
 _atom_site_fract_z
 _atom_site_occupancy
  Ti  Ti0  1  0.000000  0.500000  0.000000  1
  Ti  Ti1  1  0.499935  0.000000  0.167102  1
  Ti  Ti2  1  0.999936  0.500000  0.332915  1
  Ti  Ti3  1  0.500000  0.000000  0.500000  1
  Ti  Ti4  1  0.000065  0.500000  0.667085  1
  Ti  Ti5  1  0.500064  0.000000  0.832898  1
  Nb  Nb6  1  0.000000  0.000000  0.000000  1
  Re  Re7  1  0.500001  0.253402  0.000000  1
  Re  Re8  1  0.500001  0.746597  0.000000  1
  Re  Re9  1  0.999932  0.252043  0.168720  1
  Re  Re10  1  0.999932  0.747957  0.168720  1
  Re  Re11  1  0.499938  0.249380  0.333868  1
  Re  Re12  1  0.499938  0.750621  0.333868  1
  Re  Re13  1  0.000000  0.250442  0.500000  1
  Re  Re14  1  0.000000  0.749558  0.500000  1
  Re  Re15  1  0.500063  0.249380  0.666132  1
  Re  Re16  1  0.500063  0.750621  0.666132  1
  Re  Re17  1  0.000069  0.252043  0.831280  1
  Re  Re18  1  0.000069  0.747957  0.831280  1
  W  W19  1  0.499938  0.500000  0.166660  1
  W  W20  1  0.999934  0.000000  0.333567  1
  W  W21  1  0.500000  0.500000  0.500000  1
  W  W22  1  0.000067  0.000000  0.666433  1
  W  W23  1  0.500061  0.500000  0.833341  1
