# generated using pymatgen
data_TbBe4Tl(B5O11)2
_symmetry_space_group_name_H-M   'P 1'
_cell_length_a   4.36601805
_cell_length_b   6.72378000
_cell_length_c   25.82894900
_cell_angle_alpha   90.00000000
_cell_angle_beta   90.00905495
_cell_angle_gamma   90.00000000
_symmetry_Int_Tables_number   1
_chemical_formula_structural   TbBe4Tl(B5O11)2
_chemical_formula_sum   'Tb2 Be8 Tl2 B20 O44'
_cell_volume   758.23835933
_cell_formula_units_Z   2
loop_
 _symmetry_equiv_pos_site_id
 _symmetry_equiv_pos_as_xyz
  1  'x, y, z'
loop_
 _atom_site_type_symbol
 _atom_site_label
 _atom_site_symmetry_multiplicity
 _atom_site_fract_x
 _atom_site_fract_y
 _atom_site_fract_z
 _atom_site_occupancy
  Tb  Tb0  1  0.865332  0.367369  0.919579  1
  Tb  Tb1  1  0.134668  0.867369  0.080421  1
  Be  Be2  1  0.164971  0.452335  0.790875  1
  Be  Be3  1  0.835029  0.952335  0.209125  1
  Be  Be4  1  0.665316  0.950979  0.709495  1
  Be  Be5  1  0.334684  0.450979  0.290505  1
  Be  Be6  1  0.662508  0.228828  0.792827  1
  Be  Be7  1  0.337492  0.728828  0.207173  1
  Be  Be8  1  0.159913  0.728484  0.707590  1
  Be  Be9  1  0.840087  0.228484  0.292410  1
  Tl  Tl10  1  0.346746  0.869975  0.585138  1
  Tl  Tl11  1  0.653254  0.369975  0.414862  1
  B  B12  1  0.374188  0.039386  0.869505  1
  B  B13  1  0.625812  0.539386  0.130495  1
  B  B14  1  0.859678  0.542233  0.629741  1
  B  B15  1  0.140322  0.042233  0.370259  1
  B  B16  1  0.147536  0.709146  0.870623  1
  B  B17  1  0.852464  0.209146  0.129377  1
  B  B18  1  0.644510  0.210541  0.628199  1
  B  B19  1  0.355490  0.710541  0.371801  1
  B  B20  1  0.027421  0.937738  0.943274  1
  B  B21  1  0.972579  0.437738  0.056726  1
  B  B22  1  0.511938  0.436341  0.554978  1
  B  B23  1  0.488062  0.936341  0.445022  1
  B  B24  1  0.538891  0.957484  0.997779  1
  B  B25  1  0.461109  0.457484  0.002221  1
  B  B26  1  0.017324  0.456604  0.500717  1
  B  B27  1  0.982676  0.956604  0.499283  1
  B  B28  1  0.176827  0.088739  0.751542  1
  B  B29  1  0.823173  0.588739  0.248458  1
  B  B30  1  0.675406  0.588233  0.748692  1
  B  B31  1  0.324594  0.088233  0.251308  1
  O  O32  1  0.352237  0.845944  0.849662  1
  O  O33  1  0.647763  0.345944  0.150338  1
  O  O34  1  0.841197  0.349536  0.650100  1
  O  O35  1  0.158803  0.849536  0.349900  1
  O  O36  1  0.630144  0.925413  0.047143  1
  O  O37  1  0.369856  0.425413  0.952857  1
  O  O38  1  0.102788  0.440423  0.449803  1
  O  O39  1  0.897212  0.940423  0.550197  1
  O  O40  1  0.995559  0.744600  0.917179  1
  O  O41  1  0.004441  0.244600  0.082821  1
  O  O42  1  0.493489  0.246380  0.582596  1
  O  O43  1  0.506511  0.746380  0.417404  1
  O  O44  1  0.222666  0.926263  0.990364  1
  O  O45  1  0.777334  0.426263  0.009636  1
  O  O46  1  0.705370  0.424640  0.508450  1
  O  O47  1  0.294630  0.924640  0.491550  1
  O  O48  1  0.157330  0.086628  0.907480  1
  O  O49  1  0.842670  0.586628  0.092520  1
  O  O50  1  0.645169  0.589619  0.591008  1
  O  O51  1  0.354831  0.089619  0.408992  1
  O  O52  1  0.086674  0.527611  0.849514  1
  O  O53  1  0.913326  0.027611  0.150486  1
  O  O54  1  0.591305  0.027975  0.650397  1
  O  O55  1  0.408695  0.527975  0.349603  1
  O  O56  1  0.578243  0.178498  0.853508  1
  O  O57  1  0.421757  0.678498  0.146492  1
  O  O58  1  0.064346  0.677068  0.647873  1
  O  O59  1  0.935654  0.177068  0.352127  1
  O  O60  1  0.724501  0.017525  0.957027  1
  O  O61  1  0.275499  0.517525  0.042973  1
  O  O62  1  0.206279  0.502776  0.541507  1
  O  O63  1  0.793721  0.002776  0.458493  1
  O  O64  1  0.027392  0.224137  0.783013  1
  O  O65  1  0.972608  0.724137  0.216987  1
  O  O66  1  0.525173  0.723995  0.717326  1
  O  O67  1  0.474827  0.223995  0.282674  1
  O  O68  1  0.491527  0.087948  0.751567  1
  O  O69  1  0.508473  0.587948  0.248433  1
  O  O70  1  0.989852  0.588239  0.748870  1
  O  O71  1  0.010148  0.088239  0.251130  1
  O  O72  1  0.025892  0.954002  0.720911  1
  O  O73  1  0.974108  0.454002  0.279089  1
  O  O74  1  0.525526  0.453584  0.779465  1
  O  O75  1  0.474474  0.953584  0.220535  1
