# generated using pymatgen
data_Yb3PrSmRu2
_symmetry_space_group_name_H-M   'P 1'
_cell_length_a   8.62056740
_cell_length_b   8.62056788
_cell_length_c   7.48522987
_cell_angle_alpha   83.40740042
_cell_angle_beta   83.40740022
_cell_angle_gamma   43.95376706
_symmetry_Int_Tables_number   1
_chemical_formula_structural   Yb3PrSmRu2
_chemical_formula_sum   'Yb6 Pr2 Sm2 Ru4'
_cell_volume   383.11646385
_cell_formula_units_Z   2
loop_
 _symmetry_equiv_pos_site_id
 _symmetry_equiv_pos_as_xyz
  1  'x, y, z'
loop_
 _atom_site_type_symbol
 _atom_site_label
 _atom_site_symmetry_multiplicity
 _atom_site_fract_x
 _atom_site_fract_y
 _atom_site_fract_z
 _atom_site_occupancy
  Yb  Yb0  1  0.978256  0.201053  0.083870  1
  Yb  Yb1  1  0.798947  0.021744  0.416130  1
  Yb  Yb2  1  0.366719  0.200819  0.819785  1
  Yb  Yb3  1  0.799181  0.633281  0.680215  1
  Yb  Yb4  1  0.629893  0.802347  0.178604  1
  Yb  Yb5  1  0.197653  0.370107  0.321396  1
  Pr  Pr6  1  0.025011  0.796651  0.921530  1
  Pr  Pr7  1  0.203349  0.974989  0.578470  1
  Sm  Sm8  1  0.577851  0.422149  0.750000  1
  Sm  Sm9  1  0.439258  0.560742  0.250000  1
  Ru  Ru10  1  0.177915  0.616951  0.581198  1
  Ru  Ru11  1  0.383049  0.822085  0.918802  1
  Ru  Ru12  1  0.821649  0.398733  0.423644  1
  Ru  Ru13  1  0.601267  0.178351  0.076356  1
