# generated using pymatgen
data_Rb5(WSe4)2
_symmetry_space_group_name_H-M   'P 1'
_cell_length_a   12.43702759
_cell_length_b   12.43885639
_cell_length_c   12.43724451
_cell_angle_alpha   132.66206828
_cell_angle_beta   127.76172676
_cell_angle_gamma   73.13470878
_symmetry_Int_Tables_number   1
_chemical_formula_structural   Rb5(WSe4)2
_chemical_formula_sum   'Rb10 W4 Se16'
_cell_volume   1092.45522076
_cell_formula_units_Z   2
loop_
 _symmetry_equiv_pos_site_id
 _symmetry_equiv_pos_as_xyz
  1  'x, y, z'
loop_
 _atom_site_type_symbol
 _atom_site_label
 _atom_site_symmetry_multiplicity
 _atom_site_fract_x
 _atom_site_fract_y
 _atom_site_fract_z
 _atom_site_occupancy
  Rb  Rb0  1  0.496060  0.246134  0.250067  1
  Rb  Rb1  1  0.003835  0.753887  0.249935  1
  Rb  Rb2  1  0.571941  0.713745  0.141769  1
  Rb  Rb3  1  0.428050  0.286297  0.858206  1
  Rb  Rb4  1  0.503942  0.753881  0.750048  1
  Rb  Rb5  1  0.071945  0.430088  0.358157  1
  Rb  Rb6  1  0.928072  0.569856  0.641835  1
  Rb  Rb7  1  0.996088  0.246140  0.750083  1
  Rb  Rb8  1  0.250008  0.999987  0.249970  1
  Rb  Rb9  1  0.750018  0.000003  0.749989  1
  W  W10  1  0.137432  0.915912  0.778472  1
  W  W11  1  0.862582  0.084068  0.221434  1
  W  W12  1  0.362629  0.641181  0.278595  1
  W  W13  1  0.637381  0.358854  0.721494  1
  Se  Se14  1  0.584954  0.587140  0.353871  1
  Se  Se15  1  0.744753  0.988569  0.243738  1
  Se  Se16  1  0.887912  0.879299  0.991337  1
  Se  Se17  1  0.766651  0.412852  0.997809  1
  Se  Se18  1  0.733283  0.231074  0.146136  1
  Se  Se19  1  0.755217  0.498870  0.743743  1
  Se  Se20  1  0.255212  0.011485  0.756264  1
  Se  Se21  1  0.233294  0.587127  0.002219  1
  Se  Se22  1  0.244820  0.501190  0.256455  1
  Se  Se23  1  0.266698  0.768913  0.853712  1
  Se  Se24  1  0.112051  0.120558  0.008494  1
  Se  Se25  1  0.915200  0.768921  0.502213  1
  Se  Se26  1  0.084894  0.231054  0.497727  1
  Se  Se27  1  0.612060  0.103454  0.491414  1
  Se  Se28  1  0.415046  0.412841  0.646161  1
  Se  Se29  1  0.387971  0.896620  0.508652  1
