# generated using pymatgen
data_Er4ReB12Rh
_symmetry_space_group_name_H-M   'P 1'
_cell_length_a   3.65551200
_cell_length_b   9.10727603
_cell_length_c   11.49258875
_cell_angle_alpha   90.42963676
_cell_angle_beta   90.00000000
_cell_angle_gamma   90.00000000
_symmetry_Int_Tables_number   1
_chemical_formula_structural   Er4ReB12Rh
_chemical_formula_sum   'Er8 Re2 B24 Rh2'
_cell_volume   382.59771320
_cell_formula_units_Z   2
loop_
 _symmetry_equiv_pos_site_id
 _symmetry_equiv_pos_as_xyz
  1  'x, y, z'
loop_
 _atom_site_type_symbol
 _atom_site_label
 _atom_site_symmetry_multiplicity
 _atom_site_fract_x
 _atom_site_fract_y
 _atom_site_fract_z
 _atom_site_occupancy
  Er  Er0  1  0.000000  0.317930  0.410875  1
  Er  Er1  1  0.000000  0.682070  0.589125  1
  Er  Er2  1  0.000000  0.826041  0.082705  1
  Er  Er3  1  0.000000  0.173959  0.917295  1
  Er  Er4  1  0.000000  0.945243  0.371791  1
  Er  Er5  1  0.000000  0.054757  0.628209  1
  Er  Er6  1  0.000000  0.442339  0.126674  1
  Er  Er7  1  0.000000  0.557661  0.873326  1
  Re  Re8  1  0.000000  0.138788  0.179678  1
  Re  Re9  1  0.000000  0.861212  0.820322  1
  B  B10  1  0.500000  0.554341  0.434508  1
  B  B11  1  0.500000  0.445659  0.565492  1
  B  B12  1  0.500000  0.052922  0.067134  1
  B  B13  1  0.500000  0.947078  0.932866  1
  B  B14  1  0.500000  0.749190  0.421509  1
  B  B15  1  0.500000  0.250810  0.578491  1
  B  B16  1  0.500000  0.248743  0.081046  1
  B  B17  1  0.500000  0.751257  0.918954  1
  B  B18  1  0.500000  0.791529  0.264932  1
  B  B19  1  0.500000  0.208471  0.735068  1
  B  B20  1  0.500000  0.293153  0.235038  1
  B  B21  1  0.500000  0.706847  0.764962  1
  B  B22  1  0.500000  0.632300  0.183329  1
  B  B23  1  0.500000  0.367700  0.816671  1
  B  B24  1  0.500000  0.131820  0.315063  1
  B  B25  1  0.500000  0.868180  0.684937  1
  B  B26  1  0.500000  0.982616  0.212913  1
  B  B27  1  0.500000  0.017384  0.787087  1
  B  B28  1  0.500000  0.483056  0.287949  1
  B  B29  1  0.500000  0.516944  0.712051  1
  B  B30  1  0.500000  0.605426  0.029382  1
  B  B31  1  0.500000  0.394574  0.970618  1
  B  B32  1  0.500000  0.106909  0.471128  1
  B  B33  1  0.500000  0.893091  0.528872  1
  Rh  Rh34  1  0.000000  0.637804  0.321468  1
  Rh  Rh35  1  0.000000  0.362196  0.678532  1
