# generated using pymatgen
data_Ho4AlNi
_symmetry_space_group_name_H-M   'P 1'
_cell_length_a   9.41911126
_cell_length_b   9.41911188
_cell_length_c   9.41911100
_cell_angle_alpha   60.00000659
_cell_angle_beta   60.00000444
_cell_angle_gamma   60.00000105
_symmetry_Int_Tables_number   1
_chemical_formula_structural   Ho4AlNi
_chemical_formula_sum   'Ho16 Al4 Ni4'
_cell_volume   590.90115520
_cell_formula_units_Z   4
loop_
 _symmetry_equiv_pos_site_id
 _symmetry_equiv_pos_as_xyz
  1  'x, y, z'
loop_
 _atom_site_type_symbol
 _atom_site_label
 _atom_site_symmetry_multiplicity
 _atom_site_fract_x
 _atom_site_fract_y
 _atom_site_fract_z
 _atom_site_occupancy
  Ho  Ho0  1  0.350867  0.350867  0.350867  1
  Ho  Ho1  1  0.350867  0.350867  0.947399  1
  Ho  Ho2  1  0.350867  0.947399  0.350867  1
  Ho  Ho3  1  0.947399  0.350867  0.350867  1
  Ho  Ho4  1  0.808871  0.191129  0.191129  1
  Ho  Ho5  1  0.191129  0.808871  0.808871  1
  Ho  Ho6  1  0.191129  0.808871  0.191129  1
  Ho  Ho7  1  0.808871  0.191129  0.808871  1
  Ho  Ho8  1  0.191129  0.191129  0.808871  1
  Ho  Ho9  1  0.808871  0.808871  0.191129  1
  Ho  Ho10  1  0.936311  0.563690  0.563689  1
  Ho  Ho11  1  0.563689  0.936311  0.936310  1
  Ho  Ho12  1  0.563690  0.936311  0.563689  1
  Ho  Ho13  1  0.936311  0.563690  0.936310  1
  Ho  Ho14  1  0.563689  0.563690  0.936310  1
  Ho  Ho15  1  0.936311  0.936311  0.563689  1
  Al  Al16  1  0.577188  0.577188  0.577188  1
  Al  Al17  1  0.577188  0.577188  0.268435  1
  Al  Al18  1  0.577188  0.268435  0.577188  1
  Al  Al19  1  0.268435  0.577188  0.577188  1
  Ni  Ni20  1  0.142903  0.142903  0.142903  1
  Ni  Ni21  1  0.142903  0.142903  0.571291  1
  Ni  Ni22  1  0.142903  0.571291  0.142903  1
  Ni  Ni23  1  0.571291  0.142903  0.142903  1
