# generated using pymatgen
data_Y6ErTmIn8
_symmetry_space_group_name_H-M   'P 1'
_cell_length_a   6.51325873
_cell_length_b   6.51325877
_cell_length_c   10.30858400
_cell_angle_alpha   90.00000000
_cell_angle_beta   90.00000000
_cell_angle_gamma   103.26362272
_symmetry_Int_Tables_number   1
_chemical_formula_structural   Y6ErTmIn8
_chemical_formula_sum   'Y6 Er1 Tm1 In8'
_cell_volume   425.65078406
_cell_formula_units_Z   1
loop_
 _symmetry_equiv_pos_site_id
 _symmetry_equiv_pos_as_xyz
  1  'x, y, z'
loop_
 _atom_site_type_symbol
 _atom_site_label
 _atom_site_symmetry_multiplicity
 _atom_site_fract_x
 _atom_site_fract_y
 _atom_site_fract_z
 _atom_site_occupancy
  Y  Y0  1  0.528593  0.528593  0.250000  1
  Y  Y1  1  0.471669  0.471669  0.750000  1
  Y  Y2  1  0.246527  0.753344  0.499881  1
  Y  Y3  1  0.246527  0.753344  0.000119  1
  Y  Y4  1  0.753344  0.246527  0.499881  1
  Y  Y5  1  0.753344  0.246527  0.000119  1
  Er  Er6  1  0.019151  0.019151  0.750000  1
  Tm  Tm7  1  0.980996  0.980996  0.250000  1
  In  In8  1  0.252503  0.252503  0.016547  1
  In  In9  1  0.747452  0.747452  0.983709  1
  In  In10  1  0.252503  0.252503  0.483453  1
  In  In11  1  0.747452  0.747452  0.516291  1
  In  In12  1  0.487793  0.018551  0.250000  1
  In  In13  1  0.981427  0.512168  0.750000  1
  In  In14  1  0.512168  0.981427  0.750000  1
  In  In15  1  0.018551  0.487793  0.250000  1
