# generated using pymatgen
data_HfZr(PdPt2)2
_symmetry_space_group_name_H-M   'P 1'
_cell_length_a   5.71084666
_cell_length_b   5.69505145
_cell_length_c   9.36167300
_cell_angle_alpha   90.00000000
_cell_angle_beta   90.00000000
_cell_angle_gamma   119.98092241
_symmetry_Int_Tables_number   1
_chemical_formula_structural   HfZr(PdPt2)2
_chemical_formula_sum   'Hf2 Zr2 Pd4 Pt8'
_cell_volume   263.73374768
_cell_formula_units_Z   2
loop_
 _symmetry_equiv_pos_site_id
 _symmetry_equiv_pos_as_xyz
  1  'x, y, z'
loop_
 _atom_site_type_symbol
 _atom_site_label
 _atom_site_symmetry_multiplicity
 _atom_site_fract_x
 _atom_site_fract_y
 _atom_site_fract_z
 _atom_site_occupancy
  Hf  Hf0  1  0.665130  0.334505  0.750000  1
  Hf  Hf1  1  0.334870  0.665495  0.250000  1
  Zr  Zr2  1  0.000000  0.000000  0.500000  1
  Zr  Zr3  1  0.000000  0.000000  0.000000  1
  Pd  Pd4  1  0.166600  0.336713  0.750000  1
  Pd  Pd5  1  0.000000  0.500000  0.000000  1
  Pd  Pd6  1  0.833400  0.663287  0.250000  1
  Pd  Pd7  1  0.000000  0.500000  0.500000  1
  Pt  Pt8  1  0.341716  0.170360  0.250000  1
  Pt  Pt9  1  0.500000  0.500000  0.000000  1
  Pt  Pt10  1  0.832801  0.170831  0.250000  1
  Pt  Pt11  1  0.500000  0.500000  0.500000  1
  Pt  Pt12  1  0.500000  0.000000  0.500000  1
  Pt  Pt13  1  0.167199  0.829169  0.750000  1
  Pt  Pt14  1  0.658284  0.829640  0.750000  1
  Pt  Pt15  1  0.500000  0.000000  0.000000  1
