# generated using pymatgen
data_DyHo4VMoO12
_symmetry_space_group_name_H-M   'P 1'
_cell_length_a   6.78880408
_cell_length_b   6.78903061
_cell_length_c   7.29514539
_cell_angle_alpha   74.35109934
_cell_angle_beta   74.35003232
_cell_angle_gamma   51.74743561
_symmetry_Int_Tables_number   1
_chemical_formula_structural   DyHo4VMoO12
_chemical_formula_sum   'Dy1 Ho4 V1 Mo1 O12'
_cell_volume   251.89145280
_cell_formula_units_Z   1
loop_
 _symmetry_equiv_pos_site_id
 _symmetry_equiv_pos_as_xyz
  1  'x, y, z'
loop_
 _atom_site_type_symbol
 _atom_site_label
 _atom_site_symmetry_multiplicity
 _atom_site_fract_x
 _atom_site_fract_y
 _atom_site_fract_z
 _atom_site_occupancy
  Dy  Dy0  1  0.312860  0.293986  0.361376  1
  Ho  Ho1  1  0.705894  0.686987  0.638994  1
  Ho  Ho2  1  0.313142  0.307476  0.825796  1
  Ho  Ho3  1  0.692545  0.686922  0.174435  1
  Ho  Ho4  1  0.003078  0.996511  0.500250  1
  V  V5  1  0.744676  0.255582  0.999712  1
  Mo  Mo6  1  0.231458  0.768761  0.999771  1
  O  O7  1  0.897464  0.425976  0.918018  1
  O  O8  1  0.429407  0.899099  0.916830  1
  O  O9  1  0.100696  0.571000  0.082430  1
  O  O10  1  0.574516  0.102289  0.081041  1
  O  O11  1  0.102943  0.592003  0.575115  1
  O  O12  1  0.600703  0.089378  0.577237  1
  O  O13  1  0.908834  0.400318  0.423963  1
  O  O14  1  0.408914  0.895366  0.425972  1
  O  O15  1  0.990381  0.010971  0.813080  1
  O  O16  1  0.989240  0.009872  0.186637  1
  O  O17  1  0.496014  0.503159  0.810306  1
  O  O18  1  0.497232  0.504344  0.189036  1
