# generated using pymatgen
data_DyEr15In4OsRh3
_symmetry_space_group_name_H-M   'P 1'
_cell_length_a   9.56349078
_cell_length_b   9.59675112
_cell_length_c   9.57651600
_cell_angle_alpha   60.06973232
_cell_angle_beta   59.95494295
_cell_angle_gamma   60.09639417
_symmetry_Int_Tables_number   1
_chemical_formula_structural   DyEr15In4OsRh3
_chemical_formula_sum   'Dy1 Er15 In4 Os1 Rh3'
_cell_volume   622.05504042
_cell_formula_units_Z   1
loop_
 _symmetry_equiv_pos_site_id
 _symmetry_equiv_pos_as_xyz
  1  'x, y, z'
loop_
 _atom_site_type_symbol
 _atom_site_label
 _atom_site_symmetry_multiplicity
 _atom_site_fract_x
 _atom_site_fract_y
 _atom_site_fract_z
 _atom_site_occupancy
  Dy  Dy0  1  0.188408  0.192171  0.809711  1
  Er  Er1  1  0.438531  0.060889  0.062521  1
  Er  Er2  1  0.438531  0.060889  0.438058  1
  Er  Er3  1  0.058633  0.437418  0.059216  1
  Er  Er4  1  0.649597  0.049561  0.650421  1
  Er  Er5  1  0.190969  0.809580  0.809509  1
  Er  Er6  1  0.061972  0.060919  0.438555  1
  Er  Er7  1  0.809738  0.192749  0.188371  1
  Er  Er8  1  0.810244  0.809540  0.190108  1
  Er  Er9  1  0.650205  0.649957  0.048081  1
  Er  Er10  1  0.650205  0.649957  0.651755  1
  Er  Er11  1  0.058633  0.437418  0.444734  1
  Er  Er12  1  0.049012  0.649804  0.650592  1
  Er  Er13  1  0.809738  0.192749  0.809141  1
  Er  Er14  1  0.444629  0.436993  0.059189  1
  Er  Er15  1  0.190969  0.809580  0.189942  1
  In  In16  1  0.417548  0.748231  0.417110  1
  In  In17  1  0.417398  0.416346  0.749011  1
  In  In18  1  0.749134  0.416285  0.417291  1
  In  In19  1  0.417398  0.416346  0.417245  1
  Os  Os20  1  0.856815  0.426388  0.858399  1
  Rh  Rh21  1  0.858158  0.859203  0.424556  1
  Rh  Rh22  1  0.425375  0.857823  0.858400  1
  Rh  Rh23  1  0.858158  0.859203  0.858082  1
