# generated using pymatgen
data_Ca3LuAl18(Pd2Pt)2
_symmetry_space_group_name_H-M   'P 1'
_cell_length_a   7.64526460
_cell_length_b   7.64180936
_cell_length_c   9.48061801
_cell_angle_alpha   90.02892923
_cell_angle_beta   90.01583636
_cell_angle_gamma   119.54877103
_symmetry_Int_Tables_number   1
_chemical_formula_structural   Ca3LuAl18(Pd2Pt)2
_chemical_formula_sum   'Ca3 Lu1 Al18 Pd4 Pt2'
_cell_volume   481.85087060
_cell_formula_units_Z   1
loop_
 _symmetry_equiv_pos_site_id
 _symmetry_equiv_pos_as_xyz
  1  'x, y, z'
loop_
 _atom_site_type_symbol
 _atom_site_label
 _atom_site_symmetry_multiplicity
 _atom_site_fract_x
 _atom_site_fract_y
 _atom_site_fract_z
 _atom_site_occupancy
  Ca  Ca0  1  0.994250  0.669900  0.250427  1
  Ca  Ca1  1  0.004537  0.329593  0.749772  1
  Ca  Ca2  1  0.672244  0.996977  0.250385  1
  Lu  Lu3  1  0.329371  0.002767  0.749905  1
  Al  Al4  1  0.132833  0.132407  0.250277  1
  Al  Al5  1  0.872695  0.869407  0.749616  1
  Al  Al6  1  0.001417  0.335545  0.075286  1
  Al  Al7  1  0.000435  0.665936  0.920510  1
  Al  Al8  1  0.000754  0.665509  0.579074  1
  Al  Al9  1  0.334912  0.999252  0.425200  1
  Al  Al10  1  0.000550  0.335425  0.425177  1
  Al  Al11  1  0.664259  0.000445  0.579134  1
  Al  Al12  1  0.663767  0.999564  0.920498  1
  Al  Al13  1  0.334747  0.000207  0.074861  1
  Al  Al14  1  0.332123  0.330509  0.558514  1
  Al  Al15  1  0.666996  0.667183  0.446916  1
  Al  Al16  1  0.666567  0.666932  0.054341  1
  Al  Al17  1  0.332951  0.330870  0.940115  1
  Al  Al18  1  0.339986  0.547533  0.250074  1
  Al  Al19  1  0.654557  0.450327  0.750131  1
  Al  Al20  1  0.543953  0.340177  0.250073  1
  Al  Al21  1  0.455811  0.664238  0.750002  1
  Pd  Pd22  1  0.670289  0.327561  0.998925  1
  Pd  Pd23  1  0.328409  0.671905  0.998185  1
  Pd  Pd24  1  0.001362  0.000338  0.998462  1
  Pd  Pd25  1  0.001598  0.000167  0.501430  1
  Pt  Pt26  1  0.328157  0.672011  0.501714  1
  Pt  Pt27  1  0.670467  0.327312  0.500994  1
