# generated using pymatgen
data_Tb3Sb9O26
_symmetry_space_group_name_H-M   'P 1'
_cell_length_a   7.40500000
_cell_length_b   7.35529337
_cell_length_c   10.33692198
_cell_angle_alpha   89.23729832
_cell_angle_beta   90.00000000
_cell_angle_gamma   90.00000000
_symmetry_Int_Tables_number   1
_chemical_formula_structural   Tb3Sb9O26
_chemical_formula_sum   'Tb3 Sb9 O26'
_cell_volume   562.96036642
_cell_formula_units_Z   1
loop_
 _symmetry_equiv_pos_site_id
 _symmetry_equiv_pos_as_xyz
  1  'x, y, z'
loop_
 _atom_site_type_symbol
 _atom_site_label
 _atom_site_symmetry_multiplicity
 _atom_site_fract_x
 _atom_site_fract_y
 _atom_site_fract_z
 _atom_site_occupancy
  Tb  Tb0  1  0.250000  0.741122  0.749395  1
  Tb  Tb1  1  0.498333  0.495436  0.002983  1
  Tb  Tb2  1  0.001667  0.495436  0.002983  1
  Sb  Sb3  1  0.750000  0.273287  0.277646  1
  Sb  Sb4  1  0.500380  0.998668  0.997373  1
  Sb  Sb5  1  0.750000  0.756523  0.745400  1
  Sb  Sb6  1  0.250000  0.749704  0.252597  1
  Sb  Sb7  1  0.496225  0.503945  0.500806  1
  Sb  Sb8  1  0.003775  0.503945  0.500806  1
  Sb  Sb9  1  0.750000  0.253464  0.746602  1
  Sb  Sb10  1  0.250000  0.241809  0.251745  1
  Sb  Sb11  1  0.999620  0.998668  0.997373  1
  O  O12  1  0.450960  0.691516  0.369700  1
  O  O13  1  0.750000  0.452204  0.134734  1
  O  O14  1  0.250000  0.493626  0.165391  1
  O  O15  1  0.456340  0.309664  0.365423  1
  O  O16  1  0.557429  0.214000  0.883870  1
  O  O17  1  0.942571  0.214000  0.883870  1
  O  O18  1  0.442601  0.203965  0.117026  1
  O  O19  1  0.750000  0.990197  0.067469  1
  O  O20  1  0.250000  0.984552  0.914548  1
  O  O21  1  0.750000  0.004563  0.684434  1
  O  O22  1  0.543918  0.793123  0.872096  1
  O  O23  1  0.956082  0.793123  0.872096  1
  O  O24  1  0.440753  0.787177  0.113347  1
  O  O25  1  0.049040  0.691516  0.369700  1
  O  O26  1  0.541539  0.697702  0.632737  1
  O  O27  1  0.958461  0.697702  0.632737  1
  O  O28  1  0.250000  0.521422  0.577080  1
  O  O29  1  0.750000  0.507392  0.838549  1
  O  O30  1  0.750000  0.482184  0.422507  1
  O  O31  1  0.043660  0.309664  0.365423  1
  O  O32  1  0.550839  0.313173  0.627947  1
  O  O33  1  0.949161  0.313173  0.627947  1
  O  O34  1  0.057399  0.203965  0.117026  1
  O  O35  1  0.250000  0.997390  0.318262  1
  O  O36  1  0.059247  0.787177  0.113347  1
  O  O37  1  0.250000  0.533822  0.887025  1
