# generated using pymatgen
data_Hf9CuMo3W
_symmetry_space_group_name_H-M   'P 1'
_cell_length_a   8.70945600
_cell_length_b   8.70945587
_cell_length_c   8.52838700
_cell_angle_alpha   90.00000000
_cell_angle_beta   90.00000000
_cell_angle_gamma   120.00000049
_symmetry_Int_Tables_number   1
_chemical_formula_structural   Hf9CuMo3W
_chemical_formula_sum   'Hf18 Cu2 Mo6 W2'
_cell_volume   560.24705397
_cell_formula_units_Z   2
loop_
 _symmetry_equiv_pos_site_id
 _symmetry_equiv_pos_as_xyz
  1  'x, y, z'
loop_
 _atom_site_type_symbol
 _atom_site_label
 _atom_site_symmetry_multiplicity
 _atom_site_fract_x
 _atom_site_fract_y
 _atom_site_fract_z
 _atom_site_occupancy
  Hf  Hf0  1  0.197893  0.802107  0.446577  1
  Hf  Hf1  1  0.197893  0.395787  0.446577  1
  Hf  Hf2  1  0.604213  0.802107  0.446577  1
  Hf  Hf3  1  0.802107  0.197893  0.553423  1
  Hf  Hf4  1  0.802107  0.604213  0.553423  1
  Hf  Hf5  1  0.395787  0.197893  0.553423  1
  Hf  Hf6  1  0.802107  0.197893  0.946577  1
  Hf  Hf7  1  0.802107  0.604213  0.946577  1
  Hf  Hf8  1  0.395787  0.197893  0.946577  1
  Hf  Hf9  1  0.197893  0.802107  0.053423  1
  Hf  Hf10  1  0.197893  0.395787  0.053423  1
  Hf  Hf11  1  0.604213  0.802107  0.053423  1
  Hf  Hf12  1  0.541579  0.458421  0.250000  1
  Hf  Hf13  1  0.541579  0.083157  0.250000  1
  Hf  Hf14  1  0.916843  0.458421  0.250000  1
  Hf  Hf15  1  0.458421  0.541579  0.750000  1
  Hf  Hf16  1  0.458421  0.916843  0.750000  1
  Hf  Hf17  1  0.083157  0.541579  0.750000  1
  Cu  Cu18  1  0.333333  0.666667  0.250000  1
  Cu  Cu19  1  0.666667  0.333333  0.750000  1
  Mo  Mo20  1  0.888296  0.111704  0.250000  1
  Mo  Mo21  1  0.888296  0.776591  0.250000  1
  Mo  Mo22  1  0.223409  0.111704  0.250000  1
  Mo  Mo23  1  0.111704  0.888296  0.750000  1
  Mo  Mo24  1  0.111704  0.223409  0.750000  1
  Mo  Mo25  1  0.776591  0.888296  0.750000  1
  W  W26  1  0.000000  0.000000  0.500000  1
  W  W27  1  0.000000  0.000000  0.000000  1
