# generated using pymatgen
data_Ba4ErPdO8
_symmetry_space_group_name_H-M   'P 1'
_cell_length_a   7.40255262
_cell_length_b   7.40255163
_cell_length_c   5.93199000
_cell_angle_alpha   90.00000000
_cell_angle_beta   90.00000000
_cell_angle_gamma   132.91229830
_symmetry_Int_Tables_number   1
_chemical_formula_structural   Ba4ErPdO8
_chemical_formula_sum   'Ba4 Er1 Pd1 O8'
_cell_volume   238.07279898
_cell_formula_units_Z   1
loop_
 _symmetry_equiv_pos_site_id
 _symmetry_equiv_pos_as_xyz
  1  'x, y, z'
loop_
 _atom_site_type_symbol
 _atom_site_label
 _atom_site_symmetry_multiplicity
 _atom_site_fract_x
 _atom_site_fract_y
 _atom_site_fract_z
 _atom_site_occupancy
  Ba  Ba0  1  0.357181  0.642819  0.000000  1
  Ba  Ba1  1  0.855562  0.144438  0.500000  1
  Ba  Ba2  1  0.144438  0.855562  0.500000  1
  Ba  Ba3  1  0.642819  0.357181  0.000000  1
  Er  Er4  1  0.000000  0.000000  0.000000  1
  Pd  Pd5  1  0.500000  0.500000  0.500000  1
  O  O6  1  0.258640  0.258640  0.737767  1
  O  O7  1  0.741360  0.741360  0.262233  1
  O  O8  1  0.741360  0.741360  0.737767  1
  O  O9  1  0.258640  0.258640  0.262233  1
  O  O10  1  0.164688  0.835312  0.000000  1
  O  O11  1  0.653093  0.346907  0.500000  1
  O  O12  1  0.346907  0.653093  0.500000  1
  O  O13  1  0.835312  0.164688  0.000000  1
