# generated using pymatgen
data_Er3Ta(Co4P3)2
_symmetry_space_group_name_H-M   'P 1'
_cell_length_a   3.68487300
_cell_length_b   10.59259200
_cell_length_c   12.27782200
_cell_angle_alpha   90.00000000
_cell_angle_beta   90.00000000
_cell_angle_gamma   90.00000000
_symmetry_Int_Tables_number   1
_chemical_formula_structural   Er3Ta(Co4P3)2
_chemical_formula_sum   'Er6 Ta2 Co16 P12'
_cell_volume   479.23232241
_cell_formula_units_Z   2
loop_
 _symmetry_equiv_pos_site_id
 _symmetry_equiv_pos_as_xyz
  1  'x, y, z'
loop_
 _atom_site_type_symbol
 _atom_site_label
 _atom_site_symmetry_multiplicity
 _atom_site_fract_x
 _atom_site_fract_y
 _atom_site_fract_z
 _atom_site_occupancy
  Er  Er0  1  0.000000  0.500000  0.527038  1
  Er  Er1  1  0.500000  0.000000  0.472962  1
  Er  Er2  1  0.500000  0.821015  0.205323  1
  Er  Er3  1  0.500000  0.178985  0.205323  1
  Er  Er4  1  0.000000  0.678985  0.794677  1
  Er  Er5  1  0.000000  0.321015  0.794677  1
  Ta  Ta6  1  0.500000  0.500000  0.157094  1
  Ta  Ta7  1  0.000000  0.000000  0.842906  1
  Co  Co8  1  0.500000  0.500000  0.702205  1
  Co  Co9  1  0.000000  0.000000  0.297795  1
  Co  Co10  1  0.000000  0.500000  0.986805  1
  Co  Co11  1  0.500000  0.000000  0.013195  1
  Co  Co12  1  0.500000  0.332576  0.992305  1
  Co  Co13  1  0.500000  0.667424  0.992305  1
  Co  Co14  1  0.000000  0.167424  0.007695  1
  Co  Co15  1  0.000000  0.832576  0.007695  1
  Co  Co16  1  0.500000  0.295622  0.432383  1
  Co  Co17  1  0.500000  0.704378  0.432383  1
  Co  Co18  1  0.000000  0.204378  0.567617  1
  Co  Co19  1  0.000000  0.795622  0.567617  1
  Co  Co20  1  0.500000  0.877472  0.705240  1
  Co  Co21  1  0.500000  0.122528  0.705240  1
  Co  Co22  1  0.000000  0.622528  0.294760  1
  Co  Co23  1  0.000000  0.377472  0.294760  1
  P  P24  1  0.500000  0.500000  0.881354  1
  P  P25  1  0.000000  0.000000  0.118646  1
  P  P26  1  0.500000  0.500000  0.357680  1
  P  P27  1  0.000000  0.000000  0.642320  1
  P  P28  1  0.500000  0.311785  0.615934  1
  P  P29  1  0.500000  0.688215  0.615934  1
  P  P30  1  0.000000  0.188215  0.384066  1
  P  P31  1  0.000000  0.811785  0.384066  1
  P  P32  1  0.500000  0.840322  0.892196  1
  P  P33  1  0.500000  0.159678  0.892196  1
  P  P34  1  0.000000  0.659678  0.107804  1
  P  P35  1  0.000000  0.340322  0.107804  1
