# generated using pymatgen
data_Tm6AlFe4Os7
_symmetry_space_group_name_H-M   'P 1'
_cell_length_a   5.25116791
_cell_length_b   5.23559117
_cell_length_c   12.97413207
_cell_angle_alpha   90.12812359
_cell_angle_beta   89.61702995
_cell_angle_gamma   119.51455500
_symmetry_Int_Tables_number   1
_chemical_formula_structural   Tm6AlFe4Os7
_chemical_formula_sum   'Tm6 Al1 Fe4 Os7'
_cell_volume   310.40182274
_cell_formula_units_Z   1
loop_
 _symmetry_equiv_pos_site_id
 _symmetry_equiv_pos_as_xyz
  1  'x, y, z'
loop_
 _atom_site_type_symbol
 _atom_site_label
 _atom_site_symmetry_multiplicity
 _atom_site_fract_x
 _atom_site_fract_y
 _atom_site_fract_z
 _atom_site_occupancy
  Tm  Tm0  1  0.338895  0.671380  0.921254  1
  Tm  Tm1  1  0.997505  0.998425  0.250566  1
  Tm  Tm2  1  0.666139  0.334014  0.580619  1
  Tm  Tm3  1  0.326963  0.660725  0.663254  1
  Tm  Tm4  1  0.000063  0.000167  0.002433  1
  Tm  Tm5  1  0.668066  0.332407  0.331450  1
  Al  Al6  1  0.333529  0.165864  0.792852  1
  Fe  Fe7  1  0.497070  0.499691  0.125775  1
  Fe  Fe8  1  0.170144  0.836521  0.457464  1
  Fe  Fe9  1  0.834041  0.165862  0.791850  1
  Fe  Fe10  1  0.497346  0.998753  0.125194  1
  Os  Os11  1  0.170605  0.339424  0.456215  1
  Os  Os12  1  0.832782  0.663644  0.793001  1
  Os  Os13  1  0.332726  0.668030  0.288523  1
  Os  Os14  1  0.999342  0.996562  0.627882  1
  Os  Os15  1  0.665773  0.332556  0.959011  1
  Os  Os16  1  0.994959  0.497974  0.123051  1
  Os  Os17  1  0.674053  0.838002  0.459605  1
