# generated using pymatgen
data_Pr3Er5(AgIr)2
_symmetry_space_group_name_H-M   'P 1'
_cell_length_a   9.62476699
_cell_length_b   9.62476731
_cell_length_c   9.62476800
_cell_angle_alpha   60.00000450
_cell_angle_beta   60.00000339
_cell_angle_gamma   60.00000337
_symmetry_Int_Tables_number   1
_chemical_formula_structural   Pr3Er5(AgIr)2
_chemical_formula_sum   'Pr6 Er10 Ag4 Ir4'
_cell_volume   630.45743649
_cell_formula_units_Z   2
loop_
 _symmetry_equiv_pos_site_id
 _symmetry_equiv_pos_as_xyz
  1  'x, y, z'
loop_
 _atom_site_type_symbol
 _atom_site_label
 _atom_site_symmetry_multiplicity
 _atom_site_fract_x
 _atom_site_fract_y
 _atom_site_fract_z
 _atom_site_occupancy
  Pr  Pr0  1  0.939639  0.560361  0.560361  1
  Pr  Pr1  1  0.560361  0.939639  0.939639  1
  Pr  Pr2  1  0.560361  0.939639  0.560361  1
  Pr  Pr3  1  0.939639  0.560361  0.939639  1
  Pr  Pr4  1  0.560361  0.560361  0.939639  1
  Pr  Pr5  1  0.939639  0.939639  0.560361  1
  Er  Er6  1  0.350177  0.350177  0.350177  1
  Er  Er7  1  0.350177  0.350177  0.949467  1
  Er  Er8  1  0.350177  0.949467  0.350177  1
  Er  Er9  1  0.949467  0.350177  0.350177  1
  Er  Er10  1  0.812396  0.187604  0.187604  1
  Er  Er11  1  0.187604  0.812396  0.812396  1
  Er  Er12  1  0.187604  0.812396  0.187604  1
  Er  Er13  1  0.812396  0.187604  0.812396  1
  Er  Er14  1  0.187604  0.187604  0.812396  1
  Er  Er15  1  0.812396  0.812396  0.187604  1
  Ag  Ag16  1  0.579931  0.579931  0.579931  1
  Ag  Ag17  1  0.579931  0.579931  0.260208  1
  Ag  Ag18  1  0.579931  0.260208  0.579931  1
  Ag  Ag19  1  0.260208  0.579931  0.579931  1
  Ir  Ir20  1  0.141966  0.141966  0.141966  1
  Ir  Ir21  1  0.141966  0.141966  0.574102  1
  Ir  Ir22  1  0.141966  0.574102  0.141966  1
  Ir  Ir23  1  0.574102  0.141966  0.141966  1
