# generated using pymatgen
data_Sm12Ru2I17
_symmetry_space_group_name_H-M   'P 1'
_cell_length_a   9.92353094
_cell_length_b   11.89408440
_cell_length_c   11.91183300
_cell_angle_alpha   93.26583167
_cell_angle_beta   104.91837734
_cell_angle_gamma   114.26203834
_symmetry_Int_Tables_number   1
_chemical_formula_structural   Sm12Ru2I17
_chemical_formula_sum   'Sm12 Ru2 I17'
_cell_volume   1217.26211410
_cell_formula_units_Z   1
loop_
 _symmetry_equiv_pos_site_id
 _symmetry_equiv_pos_as_xyz
  1  'x, y, z'
loop_
 _atom_site_type_symbol
 _atom_site_label
 _atom_site_symmetry_multiplicity
 _atom_site_fract_x
 _atom_site_fract_y
 _atom_site_fract_z
 _atom_site_occupancy
  Sm  Sm0  1  0.057748  0.510322  0.322261  1
  Sm  Sm1  1  0.988825  0.810885  0.582113  1
  Sm  Sm2  1  0.646246  0.239967  0.283326  1
  Sm  Sm3  1  0.011175  0.189115  0.417887  1
  Sm  Sm4  1  0.223780  0.669500  0.990080  1
  Sm  Sm5  1  0.260233  0.986263  0.891785  1
  Sm  Sm6  1  0.353754  0.760033  0.716674  1
  Sm  Sm7  1  0.942252  0.489678  0.677739  1
  Sm  Sm8  1  0.739767  0.013737  0.108215  1
  Sm  Sm9  1  0.150172  0.287998  0.151744  1
  Sm  Sm10  1  0.776220  0.330500  0.009920  1
  Sm  Sm11  1  0.849828  0.712002  0.848256  1
  Ru  Ru12  1  0.104531  0.738545  0.786201  1
  Ru  Ru13  1  0.895469  0.261455  0.213799  1
  I  I14  1  0.784213  0.528608  0.417665  1
  I  I15  1  0.640969  0.418914  0.759069  1
  I  I16  1  0.844061  0.894597  0.326371  1
  I  I17  1  0.328010  0.212547  0.369643  1
  I  I18  1  0.155939  0.105403  0.673629  1
  I  I19  1  0.586712  0.052774  0.842683  1
  I  I20  1  0.756216  0.184091  0.539372  1
  I  I21  1  0.551496  0.708283  0.954503  1
  I  I22  1  0.359031  0.581086  0.240931  1
  I  I23  1  0.215787  0.471392  0.582335  1
  I  I24  1  0.055734  0.367588  0.897170  1
  I  I25  1  0.448504  0.291717  0.045497  1
  I  I26  1  0.000000  0.000000  0.000000  1
  I  I27  1  0.243784  0.815909  0.460628  1
  I  I28  1  0.413288  0.947226  0.157317  1
  I  I29  1  0.671990  0.787453  0.630357  1
  I  I30  1  0.944266  0.632412  0.102830  1
