# generated using pymatgen
data_Ta4Ru
_symmetry_space_group_name_H-M   'P 1'
_cell_length_a   3.25151480
_cell_length_b   5.40715404
_cell_length_c   5.40715463
_cell_angle_alpha   95.18669044
_cell_angle_beta   72.50226369
_cell_angle_gamma   107.49772568
_symmetry_Int_Tables_number   1
_chemical_formula_structural   Ta4Ru
_chemical_formula_sum   'Ta4 Ru1'
_cell_volume   86.47152430
_cell_formula_units_Z   1
loop_
 _symmetry_equiv_pos_site_id
 _symmetry_equiv_pos_as_xyz
  1  'x, y, z'
loop_
 _atom_site_type_symbol
 _atom_site_label
 _atom_site_symmetry_multiplicity
 _atom_site_fract_x
 _atom_site_fract_y
 _atom_site_fract_z
 _atom_site_occupancy
  Ta  Ta0  1  0.596637  0.391721  0.198446  1
  Ta  Ta1  1  0.204917  0.801555  0.391719  1
  Ta  Ta2  1  0.795084  0.198446  0.608282  1
  Ta  Ta3  1  0.403364  0.608280  0.801555  1
  Ru  Ru4  1  0.000000  0.000000  0.000000  1
