# generated using pymatgen
data_KRbDyY5F20
_symmetry_space_group_name_H-M   'P 1'
_cell_length_a   8.29202007
_cell_length_b   8.29202007
_cell_length_c   8.29170000
_cell_angle_alpha   60.00128483
_cell_angle_beta   60.00128486
_cell_angle_gamma   59.99742955
_symmetry_Int_Tables_number   1
_chemical_formula_structural   KRbDyY5F20
_chemical_formula_sum   'K1 Rb1 Dy1 Y5 F20'
_cell_volume   403.13385184
_cell_formula_units_Z   1
loop_
 _symmetry_equiv_pos_site_id
 _symmetry_equiv_pos_as_xyz
  1  'x, y, z'
loop_
 _atom_site_type_symbol
 _atom_site_label
 _atom_site_symmetry_multiplicity
 _atom_site_fract_x
 _atom_site_fract_y
 _atom_site_fract_z
 _atom_site_occupancy
  K  K0  1  0.750000  0.750000  0.750000  1
  Rb  Rb1  1  0.249999  0.249999  0.250001  1
  Dy  Dy2  1  0.759531  0.759531  0.240469  1
  Y  Y3  1  0.759554  0.240424  0.240447  1
  Y  Y4  1  0.240424  0.759554  0.759575  1
  Y  Y5  1  0.240424  0.759554  0.240447  1
  Y  Y6  1  0.759554  0.240424  0.759575  1
  Y  Y7  1  0.240443  0.240443  0.759557  1
  F  F8  1  0.829673  0.500387  0.499810  1
  F  F9  1  0.170038  0.500096  0.500103  1
  F  F10  1  0.500387  0.829673  0.170130  1
  F  F11  1  0.500096  0.170038  0.829763  1
  F  F12  1  0.500387  0.829673  0.499810  1
  F  F13  1  0.170038  0.500096  0.829763  1
  F  F14  1  0.500096  0.170038  0.500103  1
  F  F15  1  0.829673  0.500387  0.170130  1
  F  F16  1  0.500100  0.500100  0.829759  1
  F  F17  1  0.500100  0.500100  0.170041  1
  F  F18  1  0.170043  0.829761  0.500098  1
  F  F19  1  0.829761  0.170043  0.500098  1
  F  F20  1  0.109888  0.109888  0.109887  1
  F  F21  1  0.887722  0.887722  0.888016  1
  F  F22  1  0.109888  0.109888  0.670336  1
  F  F23  1  0.109670  0.670389  0.109970  1
  F  F24  1  0.887722  0.887722  0.336540  1
  F  F25  1  0.887803  0.336595  0.887801  1
  F  F26  1  0.670389  0.109670  0.109970  1
  F  F27  1  0.336595  0.887803  0.887801  1
