# generated using pymatgen
data_Hf3Pa(SnRh5)2
_symmetry_space_group_name_H-M   'P 1'
_cell_length_a   4.16553100
_cell_length_b   5.68036717
_cell_length_c   11.24479376
_cell_angle_alpha   89.93708222
_cell_angle_beta   90.00000000
_cell_angle_gamma   90.00000000
_symmetry_Int_Tables_number   1
_chemical_formula_structural   Hf3Pa(SnRh5)2
_chemical_formula_sum   'Hf3 Pa1 Sn2 Rh10'
_cell_volume   266.07128843
_cell_formula_units_Z   1
loop_
 _symmetry_equiv_pos_site_id
 _symmetry_equiv_pos_as_xyz
  1  'x, y, z'
loop_
 _atom_site_type_symbol
 _atom_site_label
 _atom_site_symmetry_multiplicity
 _atom_site_fract_x
 _atom_site_fract_y
 _atom_site_fract_z
 _atom_site_occupancy
  Hf  Hf0  1  0.500000  0.822458  0.351626  1
  Hf  Hf1  1  0.500000  0.675189  0.862800  1
  Hf  Hf2  1  0.500000  0.322232  0.142597  1
  Pa  Pa3  1  0.500000  0.177738  0.643543  1
  Sn  Sn4  1  0.000000  0.509769  0.493300  1
  Sn  Sn5  1  0.000000  0.999100  0.003252  1
  Rh  Rh6  1  0.500000  0.199944  0.889738  1
  Rh  Rh7  1  0.500000  0.795591  0.113415  1
  Rh  Rh8  1  0.500000  0.700146  0.615013  1
  Rh  Rh9  1  0.500000  0.296724  0.384056  1
  Rh  Rh10  1  0.000000  0.435508  0.748514  1
  Rh  Rh11  1  0.000000  0.565766  0.251400  1
  Rh  Rh12  1  0.000000  0.000877  0.497680  1
  Rh  Rh13  1  0.000000  0.500007  0.001269  1
  Rh  Rh14  1  0.000000  0.066003  0.245772  1
  Rh  Rh15  1  0.000000  0.932949  0.756026  1
