# generated using pymatgen
data_Yb2YHf(Co4P3)2
_symmetry_space_group_name_H-M   'P 1'
_cell_length_a   3.71398800
_cell_length_b   10.68239000
_cell_length_c   12.39630000
_cell_angle_alpha   90.00000000
_cell_angle_beta   90.00000000
_cell_angle_gamma   90.00000000
_symmetry_Int_Tables_number   1
_chemical_formula_structural   Yb2YHf(Co4P3)2
_chemical_formula_sum   'Yb4 Y2 Hf2 Co16 P12'
_cell_volume   491.81413177
_cell_formula_units_Z   2
loop_
 _symmetry_equiv_pos_site_id
 _symmetry_equiv_pos_as_xyz
  1  'x, y, z'
loop_
 _atom_site_type_symbol
 _atom_site_label
 _atom_site_symmetry_multiplicity
 _atom_site_fract_x
 _atom_site_fract_y
 _atom_site_fract_z
 _atom_site_occupancy
  Yb  Yb0  1  0.500000  0.824313  0.205631  1
  Yb  Yb1  1  0.500000  0.175687  0.205631  1
  Yb  Yb2  1  0.000000  0.675687  0.794369  1
  Yb  Yb3  1  0.000000  0.324313  0.794369  1
  Y  Y4  1  0.000000  0.500000  0.530442  1
  Y  Y5  1  0.500000  0.000000  0.469558  1
  Hf  Hf6  1  0.500000  0.500000  0.157665  1
  Hf  Hf7  1  0.000000  0.000000  0.842335  1
  Co  Co8  1  0.500000  0.500000  0.702469  1
  Co  Co9  1  0.000000  0.000000  0.297531  1
  Co  Co10  1  0.000000  0.500000  0.987776  1
  Co  Co11  1  0.500000  0.000000  0.012224  1
  Co  Co12  1  0.500000  0.331554  0.995126  1
  Co  Co13  1  0.500000  0.668446  0.995126  1
  Co  Co14  1  0.000000  0.168446  0.004874  1
  Co  Co15  1  0.000000  0.831554  0.004874  1
  Co  Co16  1  0.500000  0.295783  0.433745  1
  Co  Co17  1  0.500000  0.704217  0.433745  1
  Co  Co18  1  0.000000  0.204217  0.566255  1
  Co  Co19  1  0.000000  0.795783  0.566255  1
  Co  Co20  1  0.500000  0.878946  0.701285  1
  Co  Co21  1  0.500000  0.121054  0.701285  1
  Co  Co22  1  0.000000  0.621054  0.298715  1
  Co  Co23  1  0.000000  0.378946  0.298715  1
  P  P24  1  0.500000  0.500000  0.884731  1
  P  P25  1  0.000000  0.000000  0.115269  1
  P  P26  1  0.500000  0.500000  0.361006  1
  P  P27  1  0.000000  0.000000  0.638994  1
  P  P28  1  0.500000  0.308415  0.616624  1
  P  P29  1  0.500000  0.691585  0.616624  1
  P  P30  1  0.000000  0.191585  0.383376  1
  P  P31  1  0.000000  0.808415  0.383376  1
  P  P32  1  0.500000  0.838088  0.893551  1
  P  P33  1  0.500000  0.161912  0.893551  1
  P  P34  1  0.000000  0.661912  0.106449  1
  P  P35  1  0.000000  0.338088  0.106449  1
