# generated using pymatgen
data_KTbPPt8
_symmetry_space_group_name_H-M   'P 1'
_cell_length_a   9.31546239
_cell_length_b   9.24046523
_cell_length_c   4.26762000
_cell_angle_alpha   90.00000000
_cell_angle_beta   90.00000000
_cell_angle_gamma   145.63324058
_symmetry_Int_Tables_number   1
_chemical_formula_structural   KTbPPt8
_chemical_formula_sum   'K1 Tb1 P1 Pt8'
_cell_volume   207.36663162
_cell_formula_units_Z   1
loop_
 _symmetry_equiv_pos_site_id
 _symmetry_equiv_pos_as_xyz
  1  'x, y, z'
loop_
 _atom_site_type_symbol
 _atom_site_label
 _atom_site_symmetry_multiplicity
 _atom_site_fract_x
 _atom_site_fract_y
 _atom_site_fract_z
 _atom_site_occupancy
  K  K0  1  0.379742  0.614879  0.500000  1
  Tb  Tb1  1  0.629829  0.371657  0.500000  1
  P  P2  1  0.212067  0.219914  0.000000  1
  Pt  Pt3  1  0.110117  0.895890  0.000000  1
  Pt  Pt4  1  0.885030  0.108851  0.000000  1
  Pt  Pt5  1  0.489960  0.999862  0.000000  1
  Pt  Pt6  1  0.980882  0.495478  0.000000  1
  Pt  Pt7  1  0.193605  0.797123  0.500000  1
  Pt  Pt8  1  0.789904  0.197218  0.500000  1
  Pt  Pt9  1  0.010361  0.008809  0.500000  1
  Pt  Pt10  1  0.632103  0.603917  0.000000  1
