# generated using pymatgen
data_Li2SmPt3
_symmetry_space_group_name_H-M   'P 1'
_cell_length_a   5.48770230
_cell_length_b   5.48770264
_cell_length_c   5.10220851
_cell_angle_alpha   57.46754129
_cell_angle_beta   57.46754457
_cell_angle_gamma   59.99999836
_symmetry_Int_Tables_number   1
_chemical_formula_structural   Li2SmPt3
_chemical_formula_sum   'Li2 Sm1 Pt3'
_cell_volume   104.30219956
_cell_formula_units_Z   1
loop_
 _symmetry_equiv_pos_site_id
 _symmetry_equiv_pos_as_xyz
  1  'x, y, z'
loop_
 _atom_site_type_symbol
 _atom_site_label
 _atom_site_symmetry_multiplicity
 _atom_site_fract_x
 _atom_site_fract_y
 _atom_site_fract_z
 _atom_site_occupancy
  Li  Li0  1  0.620949  0.620949  0.137154  1
  Li  Li1  1  0.259389  0.259389  0.221831  1
  Sm  Sm2  1  0.005935  0.005935  0.982194  1
  Pt  Pt3  1  0.620160  0.123405  0.636273  1
  Pt  Pt4  1  0.123405  0.620160  0.636273  1
  Pt  Pt5  1  0.620160  0.620160  0.636273  1
