# generated using pymatgen
data_KCr2GaO8
_symmetry_space_group_name_H-M   'P 1'
_cell_length_a   5.51693200
_cell_length_b   9.08952927
_cell_length_c   8.79215708
_cell_angle_alpha   64.58891519
_cell_angle_beta   89.99547664
_cell_angle_gamma   107.66181411
_symmetry_Int_Tables_number   1
_chemical_formula_structural   KCr2GaO8
_chemical_formula_sum   'K2 Cr4 Ga2 O16'
_cell_volume   375.09551931
_cell_formula_units_Z   2
loop_
 _symmetry_equiv_pos_site_id
 _symmetry_equiv_pos_as_xyz
  1  'x, y, z'
loop_
 _atom_site_type_symbol
 _atom_site_label
 _atom_site_symmetry_multiplicity
 _atom_site_fract_x
 _atom_site_fract_y
 _atom_site_fract_z
 _atom_site_occupancy
  K  K0  1  0.500016  0.999957  0.500086  1
  K  K1  1  0.999999  0.000015  0.999968  1
  Cr  Cr2  1  0.646470  0.292920  0.984510  1
  Cr  Cr3  1  0.146364  0.292804  0.484441  1
  Cr  Cr4  1  0.853550  0.707072  0.515501  1
  Cr  Cr5  1  0.353611  0.707215  0.015528  1
  Ga  Ga6  1  0.750008  0.500010  0.250005  1
  Ga  Ga7  1  0.250006  0.499991  0.749993  1
  O  O8  1  0.549063  0.098169  0.139392  1
  O  O9  1  0.048938  0.097958  0.639176  1
  O  O10  1  0.950954  0.901835  0.360662  1
  O  O11  1  0.451070  0.902083  0.860786  1
  O  O12  1  0.719911  0.439913  0.056347  1
  O  O13  1  0.219718  0.439648  0.556481  1
  O  O14  1  0.780100  0.560088  0.443649  1
  O  O15  1  0.280247  0.560368  0.943469  1
  O  O16  1  0.911158  0.317575  0.865921  1
  O  O17  1  0.411073  0.317580  0.365784  1
  O  O18  1  0.588877  0.682397  0.634101  1
  O  O19  1  0.088877  0.682433  0.134208  1
  O  O20  1  0.406576  0.317613  0.865818  1
  O  O21  1  0.906500  0.317564  0.365733  1
  O  O22  1  0.093433  0.682374  0.634183  1
  O  O23  1  0.593482  0.682418  0.134256  1
