# generated using pymatgen
data_YbPa(Co3Si2)2
_symmetry_space_group_name_H-M   'P 1'
_cell_length_a   6.23411241
_cell_length_b   6.23411082
_cell_length_c   6.23411200
_cell_angle_alpha   130.33760667
_cell_angle_beta   113.87807505
_cell_angle_gamma   87.01457786
_symmetry_Int_Tables_number   1
_chemical_formula_structural   YbPa(Co3Si2)2
_chemical_formula_sum   'Yb1 Pa1 Co6 Si4'
_cell_volume   161.02998374
_cell_formula_units_Z   1
loop_
 _symmetry_equiv_pos_site_id
 _symmetry_equiv_pos_as_xyz
  1  'x, y, z'
loop_
 _atom_site_type_symbol
 _atom_site_label
 _atom_site_symmetry_multiplicity
 _atom_site_fract_x
 _atom_site_fract_y
 _atom_site_fract_z
 _atom_site_occupancy
  Yb  Yb0  1  0.250000  0.544491  0.294491  1
  Pa  Pa1  1  0.750000  0.447435  0.697435  1
  Co  Co2  1  0.981606  0.001305  0.482911  1
  Co  Co3  1  0.518394  0.001305  0.019699  1
  Co  Co4  1  0.720599  0.010722  0.721430  1
  Co  Co5  1  0.210707  0.500831  0.721430  1
  Co  Co6  1  0.289293  0.010722  0.290124  1
  Co  Co7  1  0.779401  0.500831  0.290124  1
  Si  Si8  1  0.093474  0.893763  0.800289  1
  Si  Si9  1  0.930931  0.121821  0.190889  1
  Si  Si10  1  0.569069  0.759960  0.190889  1
  Si  Si11  1  0.406526  0.206814  0.800289  1
