# generated using pymatgen
data_RbLa(NbCl3)6
_symmetry_space_group_name_H-M   'P 1'
_cell_length_a   10.33990931
_cell_length_b   10.33991013
_cell_length_c   10.33991005
_cell_angle_alpha   55.12384659
_cell_angle_beta   55.12384725
_cell_angle_gamma   55.12384892
_symmetry_Int_Tables_number   1
_chemical_formula_structural   RbLa(NbCl3)6
_chemical_formula_sum   'Rb1 La1 Nb6 Cl18'
_cell_volume   693.05096251
_cell_formula_units_Z   1
loop_
 _symmetry_equiv_pos_site_id
 _symmetry_equiv_pos_as_xyz
  1  'x, y, z'
loop_
 _atom_site_type_symbol
 _atom_site_label
 _atom_site_symmetry_multiplicity
 _atom_site_fract_x
 _atom_site_fract_y
 _atom_site_fract_z
 _atom_site_occupancy
  Rb  Rb0  1  0.222090  0.222090  0.222090  1
  La  La1  1  0.498383  0.498383  0.498383  1
  Nb  Nb2  1  0.800498  0.147926  0.915016  1
  Nb  Nb3  1  0.915016  0.800498  0.147926  1
  Nb  Nb4  1  0.147926  0.915016  0.800498  1
  Nb  Nb5  1  0.200776  0.852388  0.083905  1
  Nb  Nb6  1  0.083905  0.200776  0.852388  1
  Nb  Nb7  1  0.852388  0.083905  0.200776  1
  Cl  Cl8  1  0.861994  0.410451  0.728901  1
  Cl  Cl9  1  0.728901  0.861994  0.410451  1
  Cl  Cl10  1  0.410451  0.728901  0.861994  1
  Cl  Cl11  1  0.137659  0.589056  0.272439  1
  Cl  Cl12  1  0.272439  0.137659  0.589056  1
  Cl  Cl13  1  0.589056  0.272439  0.137659  1
  Cl  Cl14  1  0.532571  0.337050  0.815616  1
  Cl  Cl15  1  0.815616  0.532571  0.337050  1
  Cl  Cl16  1  0.337050  0.815616  0.532571  1
  Cl  Cl17  1  0.463452  0.664682  0.186718  1
  Cl  Cl18  1  0.186718  0.463452  0.664682  1
  Cl  Cl19  1  0.664682  0.186718  0.463452  1
  Cl  Cl20  1  0.664726  0.937682  0.073303  1
  Cl  Cl21  1  0.073303  0.664726  0.937682  1
  Cl  Cl22  1  0.937682  0.073303  0.664726  1
  Cl  Cl23  1  0.336488  0.062338  0.925031  1
  Cl  Cl24  1  0.925031  0.336488  0.062338  1
  Cl  Cl25  1  0.062338  0.925031  0.336488  1
