# generated using pymatgen
data_GdNi4Ge
_symmetry_space_group_name_H-M   'P 1'
_cell_length_a   4.90287213
_cell_length_b   4.90287283
_cell_length_c   4.01220900
_cell_angle_alpha   90.00000000
_cell_angle_beta   90.00000000
_cell_angle_gamma   117.86863090
_symmetry_Int_Tables_number   1
_chemical_formula_structural   GdNi4Ge
_chemical_formula_sum   'Gd1 Ni4 Ge1'
_cell_volume   85.26045819
_cell_formula_units_Z   1
loop_
 _symmetry_equiv_pos_site_id
 _symmetry_equiv_pos_as_xyz
  1  'x, y, z'
loop_
 _atom_site_type_symbol
 _atom_site_label
 _atom_site_symmetry_multiplicity
 _atom_site_fract_x
 _atom_site_fract_y
 _atom_site_fract_z
 _atom_site_occupancy
  Gd  Gd0  1  0.000000  0.000000  0.000000  1
  Ni  Ni1  1  0.335434  0.664566  0.000000  1
  Ni  Ni2  1  0.664566  0.335434  0.000000  1
  Ni  Ni3  1  0.500000  0.000000  0.500000  1
  Ni  Ni4  1  0.000000  0.500000  0.500000  1
  Ge  Ge5  1  0.500000  0.500000  0.500000  1
