# generated using pymatgen
data_Y3Ho9(TcRu)2
_symmetry_space_group_name_H-M   'P 1'
_cell_length_a   6.25941898
_cell_length_b   7.40164775
_cell_length_c   9.10536600
_cell_angle_alpha   90.00000000
_cell_angle_beta   90.00000000
_cell_angle_gamma   89.85632400
_symmetry_Int_Tables_number   1
_chemical_formula_structural   Y3Ho9(TcRu)2
_chemical_formula_sum   'Y3 Ho9 Tc2 Ru2'
_cell_volume   421.85041150
_cell_formula_units_Z   1
loop_
 _symmetry_equiv_pos_site_id
 _symmetry_equiv_pos_as_xyz
  1  'x, y, z'
loop_
 _atom_site_type_symbol
 _atom_site_label
 _atom_site_symmetry_multiplicity
 _atom_site_fract_x
 _atom_site_fract_y
 _atom_site_fract_z
 _atom_site_occupancy
  Y  Y0  1  0.877083  0.538899  0.250000  1
  Y  Y1  1  0.623244  0.039105  0.250000  1
  Y  Y2  1  0.130554  0.458412  0.750000  1
  Ho  Ho3  1  0.335849  0.676794  0.063405  1
  Ho  Ho4  1  0.164618  0.175874  0.436707  1
  Ho  Ho5  1  0.663180  0.324068  0.562996  1
  Ho  Ho6  1  0.836207  0.824821  0.937145  1
  Ho  Ho7  1  0.663180  0.324068  0.937004  1
  Ho  Ho8  1  0.836207  0.824821  0.562855  1
  Ho  Ho9  1  0.335849  0.676794  0.436595  1
  Ho  Ho10  1  0.164618  0.175874  0.063293  1
  Ho  Ho11  1  0.367875  0.956860  0.750000  1
  Tc  Tc12  1  0.043294  0.886152  0.250000  1
  Tc  Tc13  1  0.456741  0.386199  0.250000  1
  Ru  Ru14  1  0.960019  0.114171  0.750000  1
  Ru  Ru15  1  0.541481  0.617090  0.750000  1
