# generated using pymatgen
data_FeSb12OsPd2
_symmetry_space_group_name_H-M   'P 1'
_cell_length_a   8.11467912
_cell_length_b   8.11844594
_cell_length_c   9.39048129
_cell_angle_alpha   55.02790616
_cell_angle_beta   54.63253765
_cell_angle_gamma   70.45841958
_symmetry_Int_Tables_number   1
_chemical_formula_structural   FeSb12OsPd2
_chemical_formula_sum   'Fe1 Sb12 Os1 Pd2'
_cell_volume   413.37281940
_cell_formula_units_Z   1
loop_
 _symmetry_equiv_pos_site_id
 _symmetry_equiv_pos_as_xyz
  1  'x, y, z'
loop_
 _atom_site_type_symbol
 _atom_site_label
 _atom_site_symmetry_multiplicity
 _atom_site_fract_x
 _atom_site_fract_y
 _atom_site_fract_z
 _atom_site_occupancy
  Fe  Fe0  1  0.000000  0.500000  0.500000  1
  Sb  Sb1  1  0.676965  0.665229  0.487189  1
  Sb  Sb2  1  0.323035  0.334771  0.512811  1
  Sb  Sb3  1  0.650316  0.651397  0.197211  1
  Sb  Sb4  1  0.349684  0.348603  0.802789  1
  Sb  Sb5  1  0.157356  0.849080  0.654963  1
  Sb  Sb6  1  0.842644  0.150920  0.345037  1
  Sb  Sb7  1  0.852924  0.168592  0.651312  1
  Sb  Sb8  1  0.147076  0.831408  0.348688  1
  Sb  Sb9  1  0.819370  0.493743  0.833122  1
  Sb  Sb10  1  0.180630  0.506257  0.166878  1
  Sb  Sb11  1  0.505752  0.187885  0.157154  1
  Sb  Sb12  1  0.494248  0.812115  0.842846  1
  Os  Os13  1  0.500000  0.000000  0.500000  1
  Pd  Pd14  1  0.000000  0.500000  0.000000  1
  Pd  Pd15  1  0.500000  0.000000  0.000000  1
