# generated using pymatgen
data_Ta7NbCo7Si14Pd
_symmetry_space_group_name_H-M   'P 1'
_cell_length_a   9.26691808
_cell_length_b   9.28301595
_cell_length_c   9.23492144
_cell_angle_alpha   94.26751451
_cell_angle_beta   94.18817095
_cell_angle_gamma   148.56727373
_symmetry_Int_Tables_number   1
_chemical_formula_structural   Ta7NbCo7Si14Pd
_chemical_formula_sum   'Ta7 Nb1 Co7 Si14 Pd1'
_cell_volume   398.65532216
_cell_formula_units_Z   1
loop_
 _symmetry_equiv_pos_site_id
 _symmetry_equiv_pos_as_xyz
  1  'x, y, z'
loop_
 _atom_site_type_symbol
 _atom_site_label
 _atom_site_symmetry_multiplicity
 _atom_site_fract_x
 _atom_site_fract_y
 _atom_site_fract_z
 _atom_site_occupancy
  Ta  Ta0  1  0.311379  0.498560  0.809521  1
  Ta  Ta1  1  0.691167  0.502765  0.190976  1
  Ta  Ta2  1  0.500288  0.688555  0.191661  1
  Ta  Ta3  1  0.498602  0.311253  0.810332  1
  Ta  Ta4  1  0.133894  0.133229  0.267193  1
  Ta  Ta5  1  0.867162  0.866678  0.733925  1
  Ta  Ta6  1  0.134192  0.870199  0.002432  1
  Nb  Nb7  1  0.868213  0.132318  0.002272  1
  Co  Co8  1  0.104293  0.604679  0.209033  1
  Co  Co9  1  0.898291  0.095797  0.494974  1
  Co  Co10  1  0.596719  0.399149  0.494975  1
  Co  Co11  1  0.598425  0.099033  0.197979  1
  Co  Co12  1  0.897837  0.398335  0.795780  1
  Co  Co13  1  0.104325  0.899517  0.502976  1
  Co  Co14  1  0.398654  0.603393  0.502920  1
  Si  Si15  1  0.291336  0.291228  0.582558  1
  Si  Si16  1  0.708265  0.708137  0.416404  1
  Si  Si17  1  0.278759  0.690954  0.005943  1
  Si  Si18  1  0.727213  0.314832  0.005914  1
  Si  Si19  1  0.064726  0.466256  0.585777  1
  Si  Si20  1  0.904061  0.499155  0.406873  1
  Si  Si21  1  0.502804  0.907648  0.406855  1
  Si  Si22  1  0.521039  0.119433  0.585740  1
  Si  Si23  1  0.249514  0.249410  0.000675  1
  Si  Si24  1  0.750949  0.751475  0.000678  1
  Si  Si25  1  0.298862  0.002195  0.296709  1
  Si  Si26  1  0.721944  0.010528  0.702615  1
  Si  Si27  1  0.980599  0.691936  0.702344  1
  Si  Si28  1  0.997650  0.294263  0.296209  1
  Pd  Pd29  1  0.398840  0.899091  0.797756  1
