# generated using pymatgen
data_Th(GaI3)2
_symmetry_space_group_name_H-M   'P 1'
_cell_length_a   8.16879951
_cell_length_b   8.78597615
_cell_length_c   20.28557126
_cell_angle_alpha   93.57428636
_cell_angle_beta   89.92853605
_cell_angle_gamma   117.77561838
_symmetry_Int_Tables_number   1
_chemical_formula_structural   Th(GaI3)2
_chemical_formula_sum   'Th3 Ga6 I18'
_cell_volume   1285.01879068
_cell_formula_units_Z   3
loop_
 _symmetry_equiv_pos_site_id
 _symmetry_equiv_pos_as_xyz
  1  'x, y, z'
loop_
 _atom_site_type_symbol
 _atom_site_label
 _atom_site_symmetry_multiplicity
 _atom_site_fract_x
 _atom_site_fract_y
 _atom_site_fract_z
 _atom_site_occupancy
  Th  Th0  1  0.005815  0.999014  0.999819  1
  Th  Th1  1  0.329376  0.667962  0.667294  1
  Th  Th2  1  0.666515  0.332482  0.332815  1
  Ga  Ga3  1  0.666436  0.322427  0.840568  1
  Ga  Ga4  1  0.767438  0.532490  0.556238  1
  Ga  Ga5  1  0.908596  0.813618  0.776040  1
  Ga  Ga6  1  0.099516  0.199451  0.223668  1
  Ga  Ga7  1  0.232299  0.464477  0.440666  1
  Ga  Ga8  1  0.560298  0.127845  0.106582  1
  I  I9  1  0.640121  0.989568  0.743329  1
  I  I10  1  0.800425  0.213808  0.971494  1
  I  I11  1  0.221065  0.123905  0.870732  1
  I  I12  1  0.107516  0.562847  0.794344  1
  I  I13  1  0.544859  0.466721  0.699655  1
  I  I14  1  0.967230  0.648934  0.414719  1
  I  I15  1  0.703445  0.689073  0.915402  1
  I  I16  1  0.122368  0.870811  0.633982  1
  I  I17  1  0.553218  0.770217  0.540159  1
  I  I18  1  0.443293  0.225694  0.460257  1
  I  I19  1  0.877350  0.130667  0.364983  1
  I  I20  1  0.303727  0.316493  0.081064  1
  I  I21  1  0.032793  0.350959  0.585820  1
  I  I22  1  0.456625  0.535686  0.301329  1
  I  I23  1  0.889281  0.440031  0.206441  1
  I  I24  1  0.775807  0.893393  0.124958  1
  I  I25  1  0.213096  0.801658  0.031371  1
  I  I26  1  0.364824  0.016436  0.252939  1
