# generated using pymatgen
data_HfAl3CuW
_symmetry_space_group_name_H-M   'P 1'
_cell_length_a   4.97005297
_cell_length_b   4.97005328
_cell_length_c   4.97005480
_cell_angle_alpha   62.40144322
_cell_angle_beta   62.40144958
_cell_angle_gamma   62.40144186
_symmetry_Int_Tables_number   1
_chemical_formula_structural   HfAl3CuW
_chemical_formula_sum   'Hf1 Al3 Cu1 W1'
_cell_volume   91.45889993
_cell_formula_units_Z   1
loop_
 _symmetry_equiv_pos_site_id
 _symmetry_equiv_pos_as_xyz
  1  'x, y, z'
loop_
 _atom_site_type_symbol
 _atom_site_label
 _atom_site_symmetry_multiplicity
 _atom_site_fract_x
 _atom_site_fract_y
 _atom_site_fract_z
 _atom_site_occupancy
  Hf  Hf0  1  0.876929  0.876929  0.876929  1
  Al  Al1  1  0.002131  0.499160  0.499160  1
  Al  Al2  1  0.499160  0.499160  0.002131  1
  Al  Al3  1  0.499160  0.002131  0.499160  1
  Cu  Cu4  1  0.501164  0.501164  0.501164  1
  W  W5  1  0.121456  0.121456  0.121456  1
