# generated using pymatgen
data_Ba2ThAg2Te5
_symmetry_space_group_name_H-M   'P 1'
_cell_length_a   4.68480870
_cell_length_b   8.00428941
_cell_length_c   10.52937522
_cell_angle_alpha   100.81271342
_cell_angle_beta   102.85378328
_cell_angle_gamma   107.01629363
_symmetry_Int_Tables_number   1
_chemical_formula_structural   Ba2ThAg2Te5
_chemical_formula_sum   'Ba2 Th1 Ag2 Te5'
_cell_volume   354.30927978
_cell_formula_units_Z   1
loop_
 _symmetry_equiv_pos_site_id
 _symmetry_equiv_pos_as_xyz
  1  'x, y, z'
loop_
 _atom_site_type_symbol
 _atom_site_label
 _atom_site_symmetry_multiplicity
 _atom_site_fract_x
 _atom_site_fract_y
 _atom_site_fract_z
 _atom_site_occupancy
  Ba  Ba0  1  0.455240  0.620289  0.290191  1
  Ba  Ba1  1  0.544760  0.379711  0.709809  1
  Th  Th2  1  0.000000  0.000000  0.000000  1
  Ag  Ag3  1  0.729277  0.167178  0.291376  1
  Ag  Ag4  1  0.270723  0.832822  0.708624  1
  Te  Te5  1  0.675467  0.296186  0.054748  1
  Te  Te6  1  0.132214  0.966331  0.298097  1
  Te  Te7  1  0.000001  0.500001  0.500000  1
  Te  Te8  1  0.867786  0.033669  0.701904  1
  Te  Te9  1  0.324534  0.703816  0.945252  1
