# generated using pymatgen
data_Er8Ga12Ag3Hg
_symmetry_space_group_name_H-M   'P 1'
_cell_length_a   7.09041100
_cell_length_b   8.99124834
_cell_length_c   8.99124800
_cell_angle_alpha   120.00000609
_cell_angle_beta   90.00000000
_cell_angle_gamma   90.00000000
_symmetry_Int_Tables_number   1
_chemical_formula_structural   Er8Ga12Ag3Hg
_chemical_formula_sum   'Er8 Ga12 Ag3 Hg1'
_cell_volume   496.41167284
_cell_formula_units_Z   1
loop_
 _symmetry_equiv_pos_site_id
 _symmetry_equiv_pos_as_xyz
  1  'x, y, z'
loop_
 _atom_site_type_symbol
 _atom_site_label
 _atom_site_symmetry_multiplicity
 _atom_site_fract_x
 _atom_site_fract_y
 _atom_site_fract_z
 _atom_site_occupancy
  Er  Er0  1  0.754608  0.000000  0.000000  1
  Er  Er1  1  0.251598  0.000000  0.000000  1
  Er  Er2  1  0.751844  0.490348  0.509652  1
  Er  Er3  1  0.248138  0.509015  0.490985  1
  Er  Er4  1  0.751844  0.019302  0.509652  1
  Er  Er5  1  0.248138  0.981972  0.490985  1
  Er  Er6  1  0.751844  0.490348  0.980698  1
  Er  Er7  1  0.248138  0.509015  0.018028  1
  Ga  Ga8  1  0.965963  0.834888  0.165112  1
  Ga  Ga9  1  0.031657  0.164919  0.835081  1
  Ga  Ga10  1  0.965963  0.330224  0.165112  1
  Ga  Ga11  1  0.461548  0.165837  0.834163  1
  Ga  Ga12  1  0.031657  0.670161  0.835081  1
  Ga  Ga13  1  0.541183  0.838941  0.161059  1
  Ga  Ga14  1  0.965963  0.834888  0.669776  1
  Ga  Ga15  1  0.461548  0.668325  0.834163  1
  Ga  Ga16  1  0.031657  0.164919  0.329839  1
  Ga  Ga17  1  0.541183  0.322119  0.161059  1
  Ga  Ga18  1  0.461548  0.165837  0.331675  1
  Ga  Ga19  1  0.541183  0.838941  0.677881  1
  Ag  Ag20  1  0.981774  0.666667  0.333333  1
  Ag  Ag21  1  0.024401  0.333333  0.666667  1
  Ag  Ag22  1  0.476576  0.333333  0.666667  1
  Hg  Hg23  1  0.510046  0.666667  0.333333  1
