# generated using pymatgen
data_Ac2Np2O7
_symmetry_space_group_name_H-M   'P 1'
_cell_length_a   8.01741520
_cell_length_b   8.01741520
_cell_length_c   8.01741500
_cell_angle_alpha   59.99999670
_cell_angle_beta   59.99999668
_cell_angle_gamma   60.00000019
_symmetry_Int_Tables_number   1
_chemical_formula_structural   Ac2Np2O7
_chemical_formula_sum   'Ac4 Np4 O14'
_cell_volume   364.40816168
_cell_formula_units_Z   2
loop_
 _symmetry_equiv_pos_site_id
 _symmetry_equiv_pos_as_xyz
  1  'x, y, z'
loop_
 _atom_site_type_symbol
 _atom_site_label
 _atom_site_symmetry_multiplicity
 _atom_site_fract_x
 _atom_site_fract_y
 _atom_site_fract_z
 _atom_site_occupancy
  Ac  Ac0  1  0.625000  0.625000  0.125000  1
  Ac  Ac1  1  0.625000  0.625000  0.625000  1
  Ac  Ac2  1  0.625000  0.125000  0.625000  1
  Ac  Ac3  1  0.125000  0.625000  0.625000  1
  Np  Np4  1  0.125000  0.125000  0.125000  1
  Np  Np5  1  0.625000  0.125000  0.125000  1
  Np  Np6  1  0.125000  0.625000  0.125000  1
  Np  Np7  1  0.125000  0.125000  0.625000  1
  O  O8  1  0.036783  0.463217  0.463217  1
  O  O9  1  0.786783  0.786783  0.213217  1
  O  O10  1  0.786783  0.213217  0.213217  1
  O  O11  1  0.463217  0.036783  0.463217  1
  O  O12  1  0.750000  0.750000  0.750000  1
  O  O13  1  0.036783  0.036783  0.463217  1
  O  O14  1  0.036783  0.463217  0.036783  1
  O  O15  1  0.213217  0.786783  0.213217  1
  O  O16  1  0.213217  0.213217  0.786783  1
  O  O17  1  0.786783  0.213217  0.786783  1
  O  O18  1  0.500000  0.500000  0.500000  1
  O  O19  1  0.463217  0.036783  0.036783  1
  O  O20  1  0.463217  0.463217  0.036783  1
  O  O21  1  0.213217  0.786783  0.786783  1
