# generated using pymatgen
data_Th2PdSe4
_symmetry_space_group_name_H-M   'P 1'
_cell_length_a   9.03364072
_cell_length_b   8.30141222
_cell_length_c   7.33050906
_cell_angle_alpha   70.29188146
_cell_angle_beta   59.89584202
_cell_angle_gamma   49.81226717
_symmetry_Int_Tables_number   1
_chemical_formula_structural   Th2PdSe4
_chemical_formula_sum   'Th4 Pd2 Se8'
_cell_volume   363.23460942
_cell_formula_units_Z   2
loop_
 _symmetry_equiv_pos_site_id
 _symmetry_equiv_pos_as_xyz
  1  'x, y, z'
loop_
 _atom_site_type_symbol
 _atom_site_label
 _atom_site_symmetry_multiplicity
 _atom_site_fract_x
 _atom_site_fract_y
 _atom_site_fract_z
 _atom_site_occupancy
  Th  Th0  1  0.411084  0.526012  0.182843  1
  Th  Th1  1  0.880061  0.182843  0.526012  1
  Th  Th2  1  0.067157  0.369939  0.838916  1
  Th  Th3  1  0.723988  0.838916  0.369939  1
  Pd  Pd4  1  0.245758  0.254242  0.254242  1
  Pd  Pd5  1  0.995758  0.004242  0.004242  1
  Se  Se6  1  0.697940  0.554642  0.241947  1
  Se  Se7  1  0.505471  0.241947  0.554642  1
  Se  Se8  1  0.008053  0.744529  0.552060  1
  Se  Se9  1  0.695358  0.552060  0.744529  1
  Se  Se10  1  0.136051  0.585659  0.022254  1
  Se  Se11  1  0.256036  0.022254  0.585659  1
  Se  Se12  1  0.664341  0.113949  0.993964  1
  Se  Se13  1  0.227746  0.993964  0.113949  1
