# generated using pymatgen
data_Sm2DyIrI3
_symmetry_space_group_name_H-M   'P 1'
_cell_length_a   4.29997000
_cell_length_b   8.87029952
_cell_length_c   12.34335900
_cell_angle_alpha   86.42415155
_cell_angle_beta   90.00000000
_cell_angle_gamma   90.00000000
_symmetry_Int_Tables_number   1
_chemical_formula_structural   Sm2DyIrI3
_chemical_formula_sum   'Sm4 Dy2 Ir2 I6'
_cell_volume   469.88407009
_cell_formula_units_Z   2
loop_
 _symmetry_equiv_pos_site_id
 _symmetry_equiv_pos_as_xyz
  1  'x, y, z'
loop_
 _atom_site_type_symbol
 _atom_site_label
 _atom_site_symmetry_multiplicity
 _atom_site_fract_x
 _atom_site_fract_y
 _atom_site_fract_z
 _atom_site_occupancy
  Sm  Sm0  1  0.750000  0.095604  0.678960  1
  Sm  Sm1  1  0.250000  0.904396  0.321040  1
  Sm  Sm2  1  0.250000  0.255619  0.901139  1
  Sm  Sm3  1  0.750000  0.744381  0.098861  1
  Dy  Dy4  1  0.750000  0.139120  0.129812  1
  Dy  Dy5  1  0.250000  0.860880  0.870188  1
  Ir  Ir6  1  0.750000  0.046355  0.908503  1
  Ir  Ir7  1  0.250000  0.953645  0.091497  1
  I  I8  1  0.250000  0.427677  0.135171  1
  I  I9  1  0.750000  0.572323  0.864829  1
  I  I10  1  0.250000  0.355510  0.638278  1
  I  I11  1  0.750000  0.644490  0.361722  1
  I  I12  1  0.750000  0.150100  0.393761  1
  I  I13  1  0.250000  0.849900  0.606239  1
