# generated using pymatgen
data_CeHoInPd2
_symmetry_space_group_name_H-M   'P 1'
_cell_length_a   7.81871000
_cell_length_b   7.77315700
_cell_length_c   3.74969800
_cell_angle_alpha   90.00000000
_cell_angle_beta   90.00000000
_cell_angle_gamma   90.00000000
_symmetry_Int_Tables_number   1
_chemical_formula_structural   CeHoInPd2
_chemical_formula_sum   'Ce2 Ho2 In2 Pd4'
_cell_volume   227.89187201
_cell_formula_units_Z   2
loop_
 _symmetry_equiv_pos_site_id
 _symmetry_equiv_pos_as_xyz
  1  'x, y, z'
loop_
 _atom_site_type_symbol
 _atom_site_label
 _atom_site_symmetry_multiplicity
 _atom_site_fract_x
 _atom_site_fract_y
 _atom_site_fract_z
 _atom_site_occupancy
  Ce  Ce0  1  0.174046  0.328305  0.500000  1
  Ce  Ce1  1  0.674046  0.171695  0.500000  1
  Ho  Ho2  1  0.327075  0.825351  0.500000  1
  Ho  Ho3  1  0.827075  0.674649  0.500000  1
  In  In4  1  0.000574  0.997003  0.000000  1
  In  In5  1  0.500574  0.502997  0.000000  1
  Pd  Pd6  1  0.370489  0.129566  0.000000  1
  Pd  Pd7  1  0.870489  0.370434  0.000000  1
  Pd  Pd8  1  0.127816  0.627519  0.000000  1
  Pd  Pd9  1  0.627816  0.872481  0.000000  1
