# generated using pymatgen
data_NaPt(S2O7)2
_symmetry_space_group_name_H-M   'P 1'
_cell_length_a   5.66895566
_cell_length_b   6.84317500
_cell_length_c   8.72790365
_cell_angle_alpha   105.96515130
_cell_angle_beta   94.01337778
_cell_angle_gamma   103.94868314
_symmetry_Int_Tables_number   1
_chemical_formula_structural   NaPt(S2O7)2
_chemical_formula_sum   'Na1 Pt1 S4 O14'
_cell_volume   312.54013044
_cell_formula_units_Z   1
loop_
 _symmetry_equiv_pos_site_id
 _symmetry_equiv_pos_as_xyz
  1  'x, y, z'
loop_
 _atom_site_type_symbol
 _atom_site_label
 _atom_site_symmetry_multiplicity
 _atom_site_fract_x
 _atom_site_fract_y
 _atom_site_fract_z
 _atom_site_occupancy
  Na  Na0  1  0.500000  0.000000  0.000000  1
  Pt  Pt1  1  0.500000  0.500000  0.500000  1
  S  S2  1  0.942988  0.736462  0.761324  1
  S  S3  1  0.057012  0.263538  0.238676  1
  S  S4  1  0.660743  0.313429  0.756081  1
  S  S5  1  0.339257  0.686571  0.243919  1
  O  O6  1  0.843004  0.662850  0.576870  1
  O  O7  1  0.156996  0.337150  0.423130  1
  O  O8  1  0.464335  0.406778  0.699879  1
  O  O9  1  0.535665  0.593222  0.300121  1
  O  O10  1  0.201686  0.830019  0.777331  1
  O  O11  1  0.798314  0.169981  0.222669  1
  O  O12  1  0.791535  0.849954  0.852782  1
  O  O13  1  0.208465  0.150046  0.147218  1
  O  O14  1  0.617714  0.286479  0.909647  1
  O  O15  1  0.382286  0.713521  0.090353  1
  O  O16  1  0.922698  0.519069  0.803060  1
  O  O17  1  0.077302  0.480931  0.196940  1
  O  O18  1  0.720432  0.153725  0.633613  1
  O  O19  1  0.279568  0.846275  0.366387  1
