# generated using pymatgen
data_Ho4AlRu7
_symmetry_space_group_name_H-M   'P 1'
_cell_length_a   5.36884202
_cell_length_b   5.36884087
_cell_length_c   8.56277403
_cell_angle_alpha   90.00800885
_cell_angle_beta   89.99198883
_cell_angle_gamma   119.95007772
_symmetry_Int_Tables_number   1
_chemical_formula_structural   Ho4AlRu7
_chemical_formula_sum   'Ho4 Al1 Ru7'
_cell_volume   213.85751600
_cell_formula_units_Z   1
loop_
 _symmetry_equiv_pos_site_id
 _symmetry_equiv_pos_as_xyz
  1  'x, y, z'
loop_
 _atom_site_type_symbol
 _atom_site_label
 _atom_site_symmetry_multiplicity
 _atom_site_fract_x
 _atom_site_fract_y
 _atom_site_fract_z
 _atom_site_occupancy
  Ho  Ho0  1  0.666672  0.333328  0.569435  1
  Ho  Ho1  1  0.333328  0.666672  0.430565  1
  Ho  Ho2  1  0.333288  0.666712  0.064708  1
  Ho  Ho3  1  0.666712  0.333288  0.935292  1
  Al  Al4  1  0.000000  0.000000  0.500000  1
  Ru  Ru5  1  0.000000  0.000000  0.000000  1
  Ru  Ru6  1  0.171353  0.342487  0.748579  1
  Ru  Ru7  1  0.171215  0.828785  0.748577  1
  Ru  Ru8  1  0.657513  0.828647  0.748579  1
  Ru  Ru9  1  0.828647  0.657513  0.251421  1
  Ru  Ru10  1  0.828785  0.171215  0.251423  1
  Ru  Ru11  1  0.342487  0.171353  0.251421  1
