# generated using pymatgen
data_Tb3Er2Tm3(CdIr)2
_symmetry_space_group_name_H-M   'P 1'
_cell_length_a   9.57963192
_cell_length_b   9.57963252
_cell_length_c   9.57963200
_cell_angle_alpha   59.99999490
_cell_angle_beta   59.99999281
_cell_angle_gamma   59.99999929
_symmetry_Int_Tables_number   1
_chemical_formula_structural   Tb3Er2Tm3(CdIr)2
_chemical_formula_sum   'Tb6 Er4 Tm6 Cd4 Ir4'
_cell_volume   621.62927325
_cell_formula_units_Z   2
loop_
 _symmetry_equiv_pos_site_id
 _symmetry_equiv_pos_as_xyz
  1  'x, y, z'
loop_
 _atom_site_type_symbol
 _atom_site_label
 _atom_site_symmetry_multiplicity
 _atom_site_fract_x
 _atom_site_fract_y
 _atom_site_fract_z
 _atom_site_occupancy
  Tb  Tb0  1  0.189002  0.810998  0.810998  1
  Tb  Tb1  1  0.810998  0.189002  0.189002  1
  Tb  Tb2  1  0.810998  0.189002  0.810998  1
  Tb  Tb3  1  0.189002  0.810998  0.189002  1
  Tb  Tb4  1  0.810998  0.810998  0.189002  1
  Tb  Tb5  1  0.189002  0.189002  0.810998  1
  Er  Er6  1  0.598792  0.598792  0.598792  1
  Er  Er7  1  0.598792  0.598792  0.203624  1
  Er  Er8  1  0.598792  0.203624  0.598792  1
  Er  Er9  1  0.203624  0.598792  0.598792  1
  Tm  Tm10  1  0.061832  0.438168  0.438168  1
  Tm  Tm11  1  0.438168  0.061832  0.061832  1
  Tm  Tm12  1  0.438168  0.061832  0.438168  1
  Tm  Tm13  1  0.061832  0.438168  0.061832  1
  Tm  Tm14  1  0.438168  0.438168  0.061832  1
  Tm  Tm15  1  0.061832  0.061832  0.438168  1
  Cd  Cd16  1  0.830521  0.830521  0.830521  1
  Cd  Cd17  1  0.830521  0.830521  0.508438  1
  Cd  Cd18  1  0.830521  0.508438  0.830521  1
  Cd  Cd19  1  0.508438  0.830521  0.830521  1
  Ir  Ir20  1  0.391505  0.391505  0.391505  1
  Ir  Ir21  1  0.391505  0.391505  0.825485  1
  Ir  Ir22  1  0.391505  0.825485  0.391505  1
  Ir  Ir23  1  0.825485  0.391505  0.391505  1
