# generated using pymatgen
data_Tb3Dy3Ho6B3CCl12
_symmetry_space_group_name_H-M   'P 1'
_cell_length_a   9.37265829
_cell_length_b   9.37132849
_cell_length_c   9.37559754
_cell_angle_alpha   109.26110498
_cell_angle_beta   109.32505082
_cell_angle_gamma   109.39554195
_symmetry_Int_Tables_number   1
_chemical_formula_structural   Tb3Dy3Ho6B3CCl12
_chemical_formula_sum   'Tb3 Dy3 Ho6 B3 C1 Cl12'
_cell_volume   637.28599683
_cell_formula_units_Z   1
loop_
 _symmetry_equiv_pos_site_id
 _symmetry_equiv_pos_as_xyz
  1  'x, y, z'
loop_
 _atom_site_type_symbol
 _atom_site_label
 _atom_site_symmetry_multiplicity
 _atom_site_fract_x
 _atom_site_fract_y
 _atom_site_fract_z
 _atom_site_occupancy
  Tb  Tb0  1  0.014610  0.485548  0.750162  1
  Tb  Tb1  1  0.264929  0.019748  0.033279  1
  Tb  Tb2  1  0.236065  0.263589  0.750088  1
  Dy  Dy3  1  0.019916  0.034148  0.265194  1
  Dy  Dy4  1  0.485286  0.750216  0.015635  1
  Dy  Dy5  1  0.479704  0.234588  0.465699  1
  Ho  Ho6  1  0.464688  0.479665  0.234527  1
  Ho  Ho7  1  0.749882  0.234858  0.265107  1
  Ho  Ho8  1  0.750110  0.015849  0.484251  1
  Ho  Ho9  1  0.233909  0.464477  0.479278  1
  Ho  Ho10  1  0.265507  0.750306  0.235189  1
  Ho  Ho11  1  0.035489  0.266094  0.020886  1
  B  B12  1  0.499778  0.001140  0.250807  1
  B  B13  1  0.000256  0.249531  0.497930  1
  B  B14  1  0.250530  0.499634  0.002446  1
  C  C15  1  0.249948  0.252018  0.250833  1
  Cl  Cl16  1  0.251131  0.755676  0.742379  1
  Cl  Cl17  1  0.511813  0.506998  0.752236  1
  Cl  Cl18  1  0.988044  0.746119  0.996531  1
  Cl  Cl19  1  0.743637  0.247340  0.755983  1
  Cl  Cl20  1  0.990989  0.988338  0.746332  1
  Cl  Cl21  1  0.249563  0.992046  0.503824  1
  Cl  Cl22  1  0.751774  0.511105  0.502159  1
  Cl  Cl23  1  0.509221  0.253214  0.998325  1
  Cl  Cl24  1  0.755652  0.743935  0.252088  1
  Cl  Cl25  1  0.747742  0.997457  0.989020  1
  Cl  Cl26  1  0.995571  0.504481  0.249979  1
  Cl  Cl27  1  0.504255  0.751885  0.509837  1
