# generated using pymatgen
data_La6Mg(GeS7)2
_symmetry_space_group_name_H-M   'P 1'
_cell_length_a   10.42301000
_cell_length_b   10.42301098
_cell_length_c   5.84619200
_cell_angle_alpha   90.00000000
_cell_angle_beta   90.00000000
_cell_angle_gamma   120.00000323
_symmetry_Int_Tables_number   1
_chemical_formula_structural   La6Mg(GeS7)2
_chemical_formula_sum   'La6 Mg1 Ge2 S14'
_cell_volume   550.03464043
_cell_formula_units_Z   1
loop_
 _symmetry_equiv_pos_site_id
 _symmetry_equiv_pos_as_xyz
  1  'x, y, z'
loop_
 _atom_site_type_symbol
 _atom_site_label
 _atom_site_symmetry_multiplicity
 _atom_site_fract_x
 _atom_site_fract_y
 _atom_site_fract_z
 _atom_site_occupancy
  La  La0  1  0.977004  0.433360  0.751756  1
  La  La1  1  0.456355  0.022996  0.751756  1
  La  La2  1  0.566640  0.543645  0.751756  1
  La  La3  1  0.689373  0.899231  0.247001  1
  La  La4  1  0.209859  0.310627  0.247001  1
  La  La5  1  0.100769  0.790141  0.247001  1
  Mg  Mg6  1  0.333333  0.666667  0.512712  1
  Ge  Ge7  1  0.666667  0.333333  0.168267  1
  Ge  Ge8  1  0.000000  0.000000  0.661926  1
  S  S9  1  0.666667  0.333333  0.543382  1
  S  S10  1  0.000000  0.000000  0.037899  1
  S  S11  1  0.088291  0.507490  0.276277  1
  S  S12  1  0.419199  0.911709  0.276277  1
  S  S13  1  0.492510  0.580801  0.276277  1
  S  S14  1  0.578040  0.828054  0.752052  1
  S  S15  1  0.250014  0.421960  0.752052  1
  S  S16  1  0.171946  0.749986  0.752052  1
  S  S17  1  0.814158  0.558219  0.015419  1
  S  S18  1  0.744061  0.185842  0.015419  1
  S  S19  1  0.441781  0.255939  0.015419  1
  S  S20  1  0.853082  0.774844  0.510777  1
  S  S21  1  0.921763  0.146918  0.510777  1
  S  S22  1  0.225156  0.078237  0.510777  1
