# generated using pymatgen
data_Ho5Tm11In4RuRh3
_symmetry_space_group_name_H-M   'P 1'
_cell_length_a   9.56645394
_cell_length_b   9.56409598
_cell_length_c   9.56422947
_cell_angle_alpha   59.87489330
_cell_angle_beta   59.86002700
_cell_angle_gamma   59.80941900
_symmetry_Int_Tables_number   1
_chemical_formula_structural   Ho5Tm11In4RuRh3
_chemical_formula_sum   'Ho5 Tm11 In4 Ru1 Rh3'
_cell_volume   616.63762137
_cell_formula_units_Z   1
loop_
 _symmetry_equiv_pos_site_id
 _symmetry_equiv_pos_as_xyz
  1  'x, y, z'
loop_
 _atom_site_type_symbol
 _atom_site_label
 _atom_site_symmetry_multiplicity
 _atom_site_fract_x
 _atom_site_fract_y
 _atom_site_fract_z
 _atom_site_occupancy
  Ho  Ho0  1  0.059825  0.060057  0.437527  1
  Ho  Ho1  1  0.442121  0.060567  0.436744  1
  Ho  Ho2  1  0.061750  0.438147  0.061257  1
  Ho  Ho3  1  0.047805  0.650212  0.649183  1
  Ho  Ho4  1  0.438520  0.438000  0.061341  1
  Tm  Tm5  1  0.650412  0.047141  0.649495  1
  Tm  Tm6  1  0.188271  0.810765  0.191961  1
  Tm  Tm7  1  0.190489  0.190230  0.810156  1
  Tm  Tm8  1  0.809536  0.809844  0.193370  1
  Tm  Tm9  1  0.439292  0.060555  0.059781  1
  Tm  Tm10  1  0.810562  0.188275  0.192362  1
  Tm  Tm11  1  0.059647  0.442703  0.437615  1
  Tm  Tm12  1  0.809547  0.191658  0.809363  1
  Tm  Tm13  1  0.191593  0.810013  0.809546  1
  Tm  Tm14  1  0.649849  0.649940  0.048718  1
  Tm  Tm15  1  0.652044  0.651871  0.650128  1
  In  In16  1  0.416781  0.416955  0.417328  1
  In  In17  1  0.749293  0.417216  0.416805  1
  In  In18  1  0.417678  0.749286  0.415799  1
  In  In19  1  0.418034  0.416943  0.747788  1
  Ru  Ru20  1  0.857426  0.857948  0.424891  1
  Rh  Rh21  1  0.857328  0.859546  0.860669  1
  Rh  Rh22  1  0.424553  0.858416  0.859087  1
  Rh  Rh23  1  0.857646  0.423716  0.859088  1
