# generated using pymatgen
data_Er7Th3Co4
_symmetry_space_group_name_H-M   'P 1'
_cell_length_a   8.73366973
_cell_length_b   8.69803444
_cell_length_c   6.88382820
_cell_angle_alpha   84.96763713
_cell_angle_beta   84.19852104
_cell_angle_gamma   41.84189143
_symmetry_Int_Tables_number   1
_chemical_formula_structural   Er7Th3Co4
_chemical_formula_sum   'Er7 Th3 Co4'
_cell_volume   346.99082077
_cell_formula_units_Z   1
loop_
 _symmetry_equiv_pos_site_id
 _symmetry_equiv_pos_as_xyz
  1  'x, y, z'
loop_
 _atom_site_type_symbol
 _atom_site_label
 _atom_site_symmetry_multiplicity
 _atom_site_fract_x
 _atom_site_fract_y
 _atom_site_fract_z
 _atom_site_occupancy
  Er  Er0  1  0.797422  0.011691  0.913270  1
  Er  Er1  1  0.355646  0.217927  0.318199  1
  Er  Er2  1  0.787375  0.642443  0.175392  1
  Er  Er3  1  0.641710  0.786207  0.680587  1
  Er  Er4  1  0.219695  0.357101  0.819911  1
  Er  Er5  1  0.574186  0.424957  0.252826  1
  Er  Er6  1  0.424761  0.572001  0.752587  1
  Th  Th7  1  0.999854  0.806708  0.410525  1
  Th  Th8  1  0.198679  0.993777  0.091960  1
  Th  Th9  1  0.997628  0.195321  0.592525  1
  Co  Co10  1  0.172946  0.609432  0.090629  1
  Co  Co11  1  0.389171  0.832188  0.414435  1
  Co  Co12  1  0.834799  0.384528  0.913279  1
  Co  Co13  1  0.606128  0.165721  0.573874  1
