# generated using pymatgen
data_Dy4ZnGa4Ru3
_symmetry_space_group_name_H-M   'P 1'
_cell_length_a   4.50344700
_cell_length_b   7.14842940
_cell_length_c   7.26444118
_cell_angle_alpha   88.79319752
_cell_angle_beta   90.00000000
_cell_angle_gamma   90.00000000
_symmetry_Int_Tables_number   1
_chemical_formula_structural   Dy4ZnGa4Ru3
_chemical_formula_sum   'Dy4 Zn1 Ga4 Ru3'
_cell_volume   233.80917965
_cell_formula_units_Z   1
loop_
 _symmetry_equiv_pos_site_id
 _symmetry_equiv_pos_as_xyz
  1  'x, y, z'
loop_
 _atom_site_type_symbol
 _atom_site_label
 _atom_site_symmetry_multiplicity
 _atom_site_fract_x
 _atom_site_fract_y
 _atom_site_fract_z
 _atom_site_occupancy
  Dy  Dy0  1  0.250000  0.027071  0.800813  1
  Dy  Dy1  1  0.250000  0.515807  0.691222  1
  Dy  Dy2  1  0.750000  0.995379  0.204187  1
  Dy  Dy3  1  0.750000  0.477285  0.308011  1
  Zn  Zn4  1  0.750000  0.671938  0.929627  1
  Ga  Ga5  1  0.250000  0.200680  0.401589  1
  Ga  Ga6  1  0.250000  0.694865  0.115661  1
  Ga  Ga7  1  0.750000  0.794585  0.590305  1
  Ga  Ga8  1  0.750000  0.298753  0.894501  1
  Ru  Ru9  1  0.250000  0.837149  0.436660  1
  Ru  Ru10  1  0.250000  0.331403  0.062012  1
  Ru  Ru11  1  0.750000  0.155086  0.565410  1
