# generated using pymatgen
data_Nd2Sm(AlI)2
_symmetry_space_group_name_H-M   'P 1'
_cell_length_a   9.92774202
_cell_length_b   9.92774060
_cell_length_c   12.08378025
_cell_angle_alpha   59.74241399
_cell_angle_beta   59.74241835
_cell_angle_gamma   25.11638543
_symmetry_Int_Tables_number   1
_chemical_formula_structural   Nd2Sm(AlI)2
_chemical_formula_sum   'Nd4 Sm2 Al4 I4'
_cell_volume   432.95035392
_cell_formula_units_Z   2
loop_
 _symmetry_equiv_pos_site_id
 _symmetry_equiv_pos_as_xyz
  1  'x, y, z'
loop_
 _atom_site_type_symbol
 _atom_site_label
 _atom_site_symmetry_multiplicity
 _atom_site_fract_x
 _atom_site_fract_y
 _atom_site_fract_z
 _atom_site_occupancy
  Nd  Nd0  1  0.755801  0.755801  0.799302  1
  Nd  Nd1  1  0.244199  0.244199  0.200698  1
  Nd  Nd2  1  0.534313  0.534313  0.312615  1
  Nd  Nd3  1  0.465687  0.465687  0.687385  1
  Sm  Sm4  1  0.830893  0.830893  0.389765  1
  Sm  Sm5  1  0.169107  0.169107  0.610235  1
  Al  Al6  1  0.926376  0.926376  0.531602  1
  Al  Al7  1  0.073624  0.073624  0.468398  1
  Al  Al8  1  0.337638  0.337638  0.583634  1
  Al  Al9  1  0.662362  0.662362  0.416366  1
  I  I10  1  0.422621  0.422621  0.173054  1
  I  I11  1  0.577379  0.577379  0.826946  1
  I  I12  1  0.859295  0.859295  0.940647  1
  I  I13  1  0.140705  0.140705  0.059353  1
