# generated using pymatgen
data_TbDy3(ErPd)4
_symmetry_space_group_name_H-M   'P 1'
_cell_length_a   4.86571600
_cell_length_b   7.17453156
_cell_length_c   8.68483500
_cell_angle_alpha   90.12310422
_cell_angle_beta   90.00000000
_cell_angle_gamma   90.00000000
_symmetry_Int_Tables_number   1
_chemical_formula_structural   TbDy3(ErPd)4
_chemical_formula_sum   'Tb1 Dy3 Er4 Pd4'
_cell_volume   303.18022882
_cell_formula_units_Z   1
loop_
 _symmetry_equiv_pos_site_id
 _symmetry_equiv_pos_as_xyz
  1  'x, y, z'
loop_
 _atom_site_type_symbol
 _atom_site_label
 _atom_site_symmetry_multiplicity
 _atom_site_fract_x
 _atom_site_fract_y
 _atom_site_fract_z
 _atom_site_occupancy
  Tb  Tb0  1  0.250000  0.018336  0.329372  1
  Dy  Dy1  1  0.250000  0.518296  0.170724  1
  Dy  Dy2  1  0.750000  0.981618  0.671650  1
  Dy  Dy3  1  0.750000  0.481734  0.828820  1
  Er  Er4  1  0.250000  0.143799  0.921337  1
  Er  Er5  1  0.250000  0.644196  0.578262  1
  Er  Er6  1  0.750000  0.855982  0.078611  1
  Er  Er7  1  0.750000  0.355966  0.421255  1
  Pd  Pd8  1  0.250000  0.247201  0.595222  1
  Pd  Pd9  1  0.250000  0.746924  0.904974  1
  Pd  Pd10  1  0.750000  0.752801  0.405228  1
  Pd  Pd11  1  0.750000  0.253145  0.094545  1
