# generated using pymatgen
data_Dy8ZnInRh2
_symmetry_space_group_name_H-M   'P 1'
_cell_length_a   9.60525617
_cell_length_b   9.59405499
_cell_length_c   9.59405431
_cell_angle_alpha   59.94979724
_cell_angle_beta   59.96137641
_cell_angle_gamma   59.96137415
_symmetry_Int_Tables_number   1
_chemical_formula_structural   Dy8ZnInRh2
_chemical_formula_sum   'Dy16 Zn2 In2 Rh4'
_cell_volume   624.56793496
_cell_formula_units_Z   2
loop_
 _symmetry_equiv_pos_site_id
 _symmetry_equiv_pos_as_xyz
  1  'x, y, z'
loop_
 _atom_site_type_symbol
 _atom_site_label
 _atom_site_symmetry_multiplicity
 _atom_site_fract_x
 _atom_site_fract_y
 _atom_site_fract_z
 _atom_site_occupancy
  Dy  Dy0  1  0.189758  0.191378  0.810513  1
  Dy  Dy1  1  0.437585  0.062415  0.062415  1
  Dy  Dy2  1  0.436845  0.058172  0.435469  1
  Dy  Dy3  1  0.069515  0.435469  0.058172  1
  Dy  Dy4  1  0.649081  0.053591  0.648247  1
  Dy  Dy5  1  0.190349  0.809651  0.809651  1
  Dy  Dy6  1  0.069515  0.058172  0.435469  1
  Dy  Dy7  1  0.808420  0.191580  0.191580  1
  Dy  Dy8  1  0.808350  0.810513  0.191378  1
  Dy  Dy9  1  0.649081  0.648247  0.053591  1
  Dy  Dy10  1  0.648955  0.648670  0.648670  1
  Dy  Dy11  1  0.064756  0.435244  0.435244  1
  Dy  Dy12  1  0.053704  0.648670  0.648670  1
  Dy  Dy13  1  0.808350  0.191378  0.810513  1
  Dy  Dy14  1  0.436845  0.435469  0.058172  1
  Dy  Dy15  1  0.189758  0.810513  0.191378  1
  Zn  Zn16  1  0.415873  0.747979  0.420273  1
  Zn  Zn17  1  0.415873  0.420273  0.747979  1
  In  In18  1  0.740183  0.421836  0.421836  1
  In  In19  1  0.416145  0.421836  0.421836  1
  Rh  Rh20  1  0.857721  0.428620  0.855937  1
  Rh  Rh21  1  0.857721  0.855937  0.428620  1
  Rh  Rh22  1  0.427840  0.857193  0.857193  1
  Rh  Rh23  1  0.857775  0.857193  0.857193  1
