# generated using pymatgen
data_TbYb2Sm(Al3Pd)6
_symmetry_space_group_name_H-M   'P 1'
_cell_length_a   7.65957863
_cell_length_b   7.65315865
_cell_length_c   9.50216100
_cell_angle_alpha   90.00000000
_cell_angle_beta   90.00000000
_cell_angle_gamma   119.59146837
_symmetry_Int_Tables_number   1
_chemical_formula_structural   TbYb2Sm(Al3Pd)6
_chemical_formula_sum   'Tb1 Yb2 Sm1 Al18 Pd6'
_cell_volume   484.36389595
_cell_formula_units_Z   1
loop_
 _symmetry_equiv_pos_site_id
 _symmetry_equiv_pos_as_xyz
  1  'x, y, z'
loop_
 _atom_site_type_symbol
 _atom_site_label
 _atom_site_symmetry_multiplicity
 _atom_site_fract_x
 _atom_site_fract_y
 _atom_site_fract_z
 _atom_site_occupancy
  Tb  Tb0  1  0.329975  0.003996  0.750000  1
  Yb  Yb1  1  0.995252  0.668495  0.250000  1
  Yb  Yb2  1  0.005059  0.331451  0.750000  1
  Sm  Sm3  1  0.669712  0.996192  0.250000  1
  Al  Al4  1  0.130226  0.131318  0.250000  1
  Al  Al5  1  0.871188  0.869246  0.750000  1
  Al  Al6  1  0.002465  0.336194  0.075093  1
  Al  Al7  1  0.998588  0.664837  0.923903  1
  Al  Al8  1  0.998588  0.664837  0.576097  1
  Al  Al9  1  0.332998  0.999813  0.424969  1
  Al  Al10  1  0.002465  0.336194  0.424907  1
  Al  Al11  1  0.665989  0.000307  0.577002  1
  Al  Al12  1  0.665989  0.000307  0.922998  1
  Al  Al13  1  0.332998  0.999813  0.075031  1
  Al  Al14  1  0.333081  0.333003  0.557960  1
  Al  Al15  1  0.666850  0.666055  0.443184  1
  Al  Al16  1  0.666850  0.666055  0.056816  1
  Al  Al17  1  0.333081  0.333003  0.942040  1
  Al  Al18  1  0.341764  0.547038  0.250000  1
  Al  Al19  1  0.657507  0.451676  0.750000  1
  Al  Al20  1  0.543268  0.336160  0.250000  1
  Al  Al21  1  0.455740  0.663752  0.750000  1
  Pd  Pd22  1  0.671954  0.329096  0.000121  1
  Pd  Pd23  1  0.327903  0.671200  0.999377  1
  Pd  Pd24  1  0.327903  0.671200  0.500623  1
  Pd  Pd25  1  0.671954  0.329096  0.499879  1
  Pd  Pd26  1  0.000327  0.999834  0.999701  1
  Pd  Pd27  1  0.000327  0.999834  0.500299  1
