# generated using pymatgen
data_MgSc4Cu(B2Ir5)2
_symmetry_space_group_name_H-M   'P 1'
_cell_length_a   9.50049300
_cell_length_b   3.02711300
_cell_length_c   9.50049300
_cell_angle_alpha   90.00000000
_cell_angle_beta   90.00000000
_cell_angle_gamma   90.00000000
_symmetry_Int_Tables_number   1
_chemical_formula_structural   MgSc4Cu(B2Ir5)2
_chemical_formula_sum   'Mg1 Sc4 Cu1 B4 Ir10'
_cell_volume   273.22530395
_cell_formula_units_Z   1
loop_
 _symmetry_equiv_pos_site_id
 _symmetry_equiv_pos_as_xyz
  1  'x, y, z'
loop_
 _atom_site_type_symbol
 _atom_site_label
 _atom_site_symmetry_multiplicity
 _atom_site_fract_x
 _atom_site_fract_y
 _atom_site_fract_z
 _atom_site_occupancy
  Mg  Mg0  1  0.000000  0.000000  0.000000  1
  Sc  Sc1  1  0.322121  0.000000  0.176019  1
  Sc  Sc2  1  0.823981  0.000000  0.322121  1
  Sc  Sc3  1  0.176019  0.000000  0.677878  1
  Sc  Sc4  1  0.677878  0.000000  0.823981  1
  Cu  Cu5  1  0.500000  0.000000  0.500000  1
  B  B6  1  0.624522  0.000000  0.128389  1
  B  B7  1  0.128389  0.000000  0.375477  1
  B  B8  1  0.871611  0.000000  0.624522  1
  B  B9  1  0.375477  0.000000  0.871611  1
  Ir  Ir10  1  0.500000  0.500001  0.000000  1
  Ir  Ir11  1  0.779755  0.500001  0.071335  1
  Ir  Ir12  1  0.071335  0.500001  0.220245  1
  Ir  Ir13  1  0.567083  0.500001  0.285185  1
  Ir  Ir14  1  0.285185  0.500001  0.432917  1
  Ir  Ir15  1  0.000000  0.500001  0.500000  1
  Ir  Ir16  1  0.714815  0.500001  0.567083  1
  Ir  Ir17  1  0.432917  0.500001  0.714815  1
  Ir  Ir18  1  0.928666  0.500001  0.779755  1
  Ir  Ir19  1  0.220245  0.500001  0.928666  1
