# generated using pymatgen
data_Nd20GaCo4Sb7
_symmetry_space_group_name_H-M   'P 1'
_cell_length_a   8.20032714
_cell_length_b   8.97532161
_cell_length_c   12.55924577
_cell_angle_alpha   90.09016618
_cell_angle_beta   89.92619015
_cell_angle_gamma   89.94516001
_symmetry_Int_Tables_number   1
_chemical_formula_structural   Nd20GaCo4Sb7
_chemical_formula_sum   'Nd20 Ga1 Co4 Sb7'
_cell_volume   924.36535229
_cell_formula_units_Z   1
loop_
 _symmetry_equiv_pos_site_id
 _symmetry_equiv_pos_as_xyz
  1  'x, y, z'
loop_
 _atom_site_type_symbol
 _atom_site_label
 _atom_site_symmetry_multiplicity
 _atom_site_fract_x
 _atom_site_fract_y
 _atom_site_fract_z
 _atom_site_occupancy
  Nd  Nd0  1  0.151773  0.753359  0.207109  1
  Nd  Nd1  1  0.658240  0.244798  0.293906  1
  Nd  Nd2  1  0.846930  0.251024  0.795310  1
  Nd  Nd3  1  0.347693  0.750101  0.701814  1
  Nd  Nd4  1  0.450318  0.749765  0.997213  1
  Nd  Nd5  1  0.949122  0.241790  0.498962  1
  Nd  Nd6  1  0.547349  0.250939  0.003041  1
  Nd  Nd7  1  0.041567  0.758437  0.491708  1
  Nd  Nd8  1  0.632806  0.754944  0.305794  1
  Nd  Nd9  1  0.119231  0.245382  0.197440  1
  Nd  Nd10  1  0.374942  0.250207  0.694261  1
  Nd  Nd11  1  0.875470  0.750028  0.805876  1
  Nd  Nd12  1  0.822089  0.967169  0.073072  1
  Nd  Nd13  1  0.316943  0.034043  0.432752  1
  Nd  Nd14  1  0.180842  0.466598  0.934622  1
  Nd  Nd15  1  0.683079  0.529081  0.565584  1
  Nd  Nd16  1  0.181333  0.032489  0.933599  1
  Nd  Nd17  1  0.678687  0.966921  0.565330  1
  Nd  Nd18  1  0.818839  0.533313  0.066595  1
  Nd  Nd19  1  0.318569  0.469093  0.433764  1
  Ga  Ga20  1  0.930534  0.996363  0.328555  1
  Co  Co21  1  0.433089  0.748722  0.490115  1
  Co  Co22  1  0.926195  0.249241  0.009852  1
  Co  Co23  1  0.569944  0.249620  0.508619  1
  Co  Co24  1  0.071185  0.749163  0.991851  1
  Sb  Sb25  1  0.426560  0.006079  0.172877  1
  Sb  Sb26  1  0.073649  0.494052  0.670482  1
  Sb  Sb27  1  0.572841  0.507229  0.826101  1
  Sb  Sb28  1  0.073533  0.006229  0.674383  1
  Sb  Sb29  1  0.573166  0.993670  0.827536  1
  Sb  Sb30  1  0.926571  0.506158  0.327116  1
  Sb  Sb31  1  0.426909  0.493992  0.174767  1
