# generated using pymatgen
data_Pr3Nd(Ga5Pt3)2
_symmetry_space_group_name_H-M   'P 1'
_cell_length_a   8.64644094
_cell_length_b   8.64881520
_cell_length_c   8.64881310
_cell_angle_alpha   138.61948751
_cell_angle_beta   106.71605222
_cell_angle_gamma   87.82817849
_symmetry_Int_Tables_number   1
_chemical_formula_structural   Pr3Nd(Ga5Pt3)2
_chemical_formula_sum   'Pr3 Nd1 Ga10 Pt6'
_cell_volume   392.98290766
_cell_formula_units_Z   1
loop_
 _symmetry_equiv_pos_site_id
 _symmetry_equiv_pos_as_xyz
  1  'x, y, z'
loop_
 _atom_site_type_symbol
 _atom_site_label
 _atom_site_symmetry_multiplicity
 _atom_site_fract_x
 _atom_site_fract_y
 _atom_site_fract_z
 _atom_site_occupancy
  Pr  Pr0  1  0.136642  0.368576  0.768067  1
  Pr  Pr1  1  0.399371  0.131330  0.268041  1
  Pr  Pr2  1  0.600634  0.868671  0.731963  1
  Nd  Nd3  1  0.863276  0.631411  0.231864  1
  Ga  Ga4  1  0.500452  0.750279  0.250281  1
  Ga  Ga5  1  0.500452  0.250172  0.750174  1
  Ga  Ga6  1  0.223655  0.973703  0.749688  1
  Ga  Ga7  1  0.776007  0.525811  0.750118  1
  Ga  Ga8  1  0.776007  0.025889  0.250197  1
  Ga  Ga9  1  0.223655  0.473966  0.249951  1
  Ga  Ga10  1  0.047919  0.895589  0.152330  1
  Ga  Ga11  1  0.951666  0.104234  0.847432  1
  Ga  Ga12  1  0.743522  0.396070  0.347453  1
  Ga  Ga13  1  0.256799  0.604260  0.652538  1
  Pt  Pt14  1  0.999985  0.750018  0.749787  1
  Pt  Pt15  1  0.999985  0.250198  0.249967  1
  Pt  Pt16  1  0.250049  0.860672  0.389379  1
  Pt  Pt17  1  0.749980  0.139110  0.610868  1
  Pt  Pt18  1  0.471234  0.360858  0.110376  1
  Pt  Pt19  1  0.528711  0.639184  0.889527  1
