# generated using pymatgen
data_Ca5Ni2Hg
_symmetry_space_group_name_H-M   'P 1'
_cell_length_a   7.63829602
_cell_length_b   7.63828774
_cell_length_c   9.17466561
_cell_angle_alpha   114.59534266
_cell_angle_beta   114.59529187
_cell_angle_gamma   89.99827581
_symmetry_Int_Tables_number   1
_chemical_formula_structural   Ca5Ni2Hg
_chemical_formula_sum   'Ca10 Ni4 Hg2'
_cell_volume   432.73670556
_cell_formula_units_Z   2
loop_
 _symmetry_equiv_pos_site_id
 _symmetry_equiv_pos_as_xyz
  1  'x, y, z'
loop_
 _atom_site_type_symbol
 _atom_site_label
 _atom_site_symmetry_multiplicity
 _atom_site_fract_x
 _atom_site_fract_y
 _atom_site_fract_z
 _atom_site_occupancy
  Ca  Ca0  1  0.999976  0.999979  0.000000  1
  Ca  Ca1  1  0.500009  0.500007  0.000000  1
  Ca  Ca2  1  0.464062  0.305026  0.269089  1
  Ca  Ca3  1  0.964054  0.464073  0.269114  1
  Ca  Ca4  1  0.305044  0.805062  0.269134  1
  Ca  Ca5  1  0.805016  0.964055  0.269071  1
  Ca  Ca6  1  0.194973  0.035939  0.730912  1
  Ca  Ca7  1  0.694935  0.194954  0.730867  1
  Ca  Ca8  1  0.035925  0.535944  0.730889  1
  Ca  Ca9  1  0.535947  0.694985  0.730930  1
  Ni  Ni10  1  0.610437  0.110452  0.999932  1
  Ni  Ni11  1  0.110398  0.389591  0.000002  1
  Ni  Ni12  1  0.889664  0.610324  0.000002  1
  Ni  Ni13  1  0.389605  0.889621  0.000059  1
  Hg  Hg14  1  0.249970  0.250001  0.500002  1
  Hg  Hg15  1  0.749988  0.749989  0.500002  1
