# generated using pymatgen
data_SmDyY5FeI12
_symmetry_space_group_name_H-M   'P 1'
_cell_length_a   9.74243386
_cell_length_b   9.79171293
_cell_length_c   9.79617224
_cell_angle_alpha   106.96005180
_cell_angle_beta   107.08542310
_cell_angle_gamma   106.79469011
_symmetry_Int_Tables_number   1
_chemical_formula_structural   SmDyY5FeI12
_chemical_formula_sum   'Sm1 Dy1 Y5 Fe1 I12'
_cell_volume   779.39079660
_cell_formula_units_Z   1
loop_
 _symmetry_equiv_pos_site_id
 _symmetry_equiv_pos_as_xyz
  1  'x, y, z'
loop_
 _atom_site_type_symbol
 _atom_site_label
 _atom_site_symmetry_multiplicity
 _atom_site_fract_x
 _atom_site_fract_y
 _atom_site_fract_z
 _atom_site_occupancy
  Sm  Sm0  1  0.716327  0.978353  0.909284  1
  Dy  Dy1  1  0.977671  0.906598  0.707555  1
  Y  Y2  1  0.500861  0.499597  0.500059  1
  Y  Y3  1  0.094084  0.293455  0.022806  1
  Y  Y4  1  0.277866  0.021330  0.088651  1
  Y  Y5  1  0.907546  0.707086  0.977673  1
  Y  Y6  1  0.022165  0.093856  0.293694  1
  Fe  Fe7  1  0.997407  0.000136  0.998847  1
  I  I8  1  0.072093  0.225359  0.678528  1
  I  I9  1  0.385608  0.159322  0.460511  1
  I  I10  1  0.613946  0.837188  0.533959  1
  I  I11  1  0.227416  0.681157  0.072598  1
  I  I12  1  0.776936  0.325009  0.929038  1
  I  I13  1  0.681374  0.073029  0.229239  1
  I  I14  1  0.537250  0.611384  0.838871  1
  I  I15  1  0.840845  0.536774  0.613949  1
  I  I16  1  0.929137  0.774835  0.321802  1
  I  I17  1  0.318198  0.928669  0.776513  1
  I  I18  1  0.462464  0.383155  0.160172  1
  I  I19  1  0.160805  0.463707  0.386253  1
