# generated using pymatgen
data_CeTcP2Os
_symmetry_space_group_name_H-M   'P 1'
_cell_length_a   5.67509738
_cell_length_b   5.67509774
_cell_length_c   5.67509718
_cell_angle_alpha   137.21108457
_cell_angle_beta   137.21108476
_cell_angle_gamma   62.11342996
_symmetry_Int_Tables_number   1
_chemical_formula_structural   CeTcP2Os
_chemical_formula_sum   'Ce1 Tc1 P2 Os1'
_cell_volume   83.34220696
_cell_formula_units_Z   1
loop_
 _symmetry_equiv_pos_site_id
 _symmetry_equiv_pos_as_xyz
  1  'x, y, z'
loop_
 _atom_site_type_symbol
 _atom_site_label
 _atom_site_symmetry_multiplicity
 _atom_site_fract_x
 _atom_site_fract_y
 _atom_site_fract_z
 _atom_site_occupancy
  Ce  Ce0  1  0.000000  0.000000  0.000000  1
  Tc  Tc1  1  0.750000  0.250000  0.500000  1
  P  P2  1  0.368382  0.368382  0.000000  1
  P  P3  1  0.631618  0.631618  0.000000  1
  Os  Os4  1  0.250000  0.750000  0.500000  1
