# generated using pymatgen
data_Ag4Ir3RuO14
_symmetry_space_group_name_H-M   'P 1'
_cell_length_a   7.22969788
_cell_length_b   7.20424175
_cell_length_c   7.20424091
_cell_angle_alpha   119.95475543
_cell_angle_beta   118.82263357
_cell_angle_gamma   90.96383231
_symmetry_Int_Tables_number   1
_chemical_formula_structural   Ag4Ir3RuO14
_chemical_formula_sum   'Ag4 Ir3 Ru1 O14'
_cell_volume   267.93625042
_cell_formula_units_Z   1
loop_
 _symmetry_equiv_pos_site_id
 _symmetry_equiv_pos_as_xyz
  1  'x, y, z'
loop_
 _atom_site_type_symbol
 _atom_site_label
 _atom_site_symmetry_multiplicity
 _atom_site_fract_x
 _atom_site_fract_y
 _atom_site_fract_z
 _atom_site_occupancy
  Ag  Ag0  1  0.000000  0.500000  0.500000  1
  Ag  Ag1  1  0.500000  0.000000  0.500000  1
  Ag  Ag2  1  0.000000  0.500000  0.000000  1
  Ag  Ag3  1  0.000000  0.000000  0.500000  1
  Ir  Ir4  1  0.500000  0.500000  0.000000  1
  Ir  Ir5  1  0.500000  0.500000  0.500000  1
  Ir  Ir6  1  0.500000  0.000000  0.000000  1
  Ru  Ru7  1  0.000000  0.000000  0.000000  1
  O  O8  1  0.551750  0.408451  0.728011  1
  O  O9  1  0.448250  0.176262  0.856701  1
  O  O10  1  0.810392  0.083942  0.121803  1
  O  O11  1  0.189608  0.311410  0.273550  1
  O  O12  1  0.448250  0.591549  0.271989  1
  O  O13  1  0.551750  0.823738  0.143299  1
  O  O14  1  0.189608  0.916058  0.878197  1
  O  O15  1  0.810392  0.688590  0.726450  1
  O  O16  1  0.604830  0.260365  0.344465  1
  O  O17  1  0.395170  0.739635  0.655535  1
  O  O18  1  0.173885  0.408787  0.765098  1
  O  O19  1  0.826115  0.591213  0.234902  1
  O  O20  1  0.862688  0.098607  0.764081  1
  O  O21  1  0.137312  0.901393  0.235919  1
