# generated using pymatgen
data_Tb3Dy3TmRh3
_symmetry_space_group_name_H-M   'P 1'
_cell_length_a   9.80508700
_cell_length_b   9.80508601
_cell_length_c   6.18096300
_cell_angle_alpha   90.00000000
_cell_angle_beta   90.00000000
_cell_angle_gamma   120.00000670
_symmetry_Int_Tables_number   1
_chemical_formula_structural   Tb3Dy3TmRh3
_chemical_formula_sum   'Tb6 Dy6 Tm2 Rh6'
_cell_volume   514.62348974
_cell_formula_units_Z   2
loop_
 _symmetry_equiv_pos_site_id
 _symmetry_equiv_pos_as_xyz
  1  'x, y, z'
loop_
 _atom_site_type_symbol
 _atom_site_label
 _atom_site_symmetry_multiplicity
 _atom_site_fract_x
 _atom_site_fract_y
 _atom_site_fract_z
 _atom_site_occupancy
  Tb  Tb0  1  0.875782  0.751563  0.741455  1
  Tb  Tb1  1  0.248437  0.124218  0.741455  1
  Tb  Tb2  1  0.875782  0.124218  0.741455  1
  Tb  Tb3  1  0.124218  0.248437  0.241455  1
  Tb  Tb4  1  0.751563  0.875782  0.241455  1
  Tb  Tb5  1  0.124218  0.875782  0.241455  1
  Dy  Dy6  1  0.458999  0.917999  0.547852  1
  Dy  Dy7  1  0.082001  0.541001  0.547852  1
  Dy  Dy8  1  0.458999  0.541001  0.547852  1
  Dy  Dy9  1  0.541001  0.082001  0.047852  1
  Dy  Dy10  1  0.917999  0.458999  0.047852  1
  Dy  Dy11  1  0.541001  0.458999  0.047852  1
  Tm  Tm12  1  0.666667  0.333333  0.533170  1
  Tm  Tm13  1  0.333333  0.666667  0.033170  1
  Rh  Rh14  1  0.190410  0.380818  0.813209  1
  Rh  Rh15  1  0.619182  0.809590  0.813209  1
  Rh  Rh16  1  0.190410  0.809590  0.813209  1
  Rh  Rh17  1  0.809590  0.619182  0.313209  1
  Rh  Rh18  1  0.380818  0.190410  0.313209  1
  Rh  Rh19  1  0.809590  0.190410  0.313209  1
