# generated using pymatgen
data_Pr8Co(Si4Pt)3
_symmetry_space_group_name_H-M   'P 1'
_cell_length_a   8.22455600
_cell_length_b   8.22455613
_cell_length_c   8.64593300
_cell_angle_alpha   90.00000000
_cell_angle_beta   90.00000000
_cell_angle_gamma   120.00000753
_symmetry_Int_Tables_number   1
_chemical_formula_structural   Pr8Co(Si4Pt)3
_chemical_formula_sum   'Pr8 Co1 Si12 Pt3'
_cell_volume   506.48594149
_cell_formula_units_Z   1
loop_
 _symmetry_equiv_pos_site_id
 _symmetry_equiv_pos_as_xyz
  1  'x, y, z'
loop_
 _atom_site_type_symbol
 _atom_site_label
 _atom_site_symmetry_multiplicity
 _atom_site_fract_x
 _atom_site_fract_y
 _atom_site_fract_z
 _atom_site_occupancy
  Pr  Pr0  1  0.501536  0.498464  0.753484  1
  Pr  Pr1  1  0.501857  0.498143  0.246671  1
  Pr  Pr2  1  0.996930  0.498464  0.753484  1
  Pr  Pr3  1  0.996285  0.498143  0.246671  1
  Pr  Pr4  1  0.501536  0.003070  0.753484  1
  Pr  Pr5  1  0.501857  0.003715  0.246671  1
  Pr  Pr6  1  0.000000  0.000000  0.750919  1
  Pr  Pr7  1  0.000000  0.000000  0.248938  1
  Co  Co8  1  0.666667  0.333333  0.998534  1
  Si  Si9  1  0.826921  0.173079  0.000269  1
  Si  Si10  1  0.164525  0.835475  0.999660  1
  Si  Si11  1  0.346156  0.173079  0.000269  1
  Si  Si12  1  0.166042  0.833958  0.500538  1
  Si  Si13  1  0.670951  0.835475  0.999660  1
  Si  Si14  1  0.834568  0.165432  0.499468  1
  Si  Si15  1  0.826921  0.653844  0.000269  1
  Si  Si16  1  0.667918  0.833958  0.500538  1
  Si  Si17  1  0.164525  0.329049  0.999660  1
  Si  Si18  1  0.330862  0.165432  0.499468  1
  Si  Si19  1  0.166042  0.332082  0.500538  1
  Si  Si20  1  0.834568  0.669138  0.499468  1
  Pt  Pt21  1  0.333333  0.666667  0.001125  1
  Pt  Pt22  1  0.333333  0.666667  0.499224  1
  Pt  Pt23  1  0.666667  0.333333  0.500987  1
