# generated using pymatgen
data_TbTm3Fe16(MoP3)4
_symmetry_space_group_name_H-M   'P 1'
_cell_length_a   3.70194100
_cell_length_b   10.38953345
_cell_length_c   12.03344906
_cell_angle_alpha   89.98885325
_cell_angle_beta   90.00000000
_cell_angle_gamma   90.00000000
_symmetry_Int_Tables_number   1
_chemical_formula_structural   TbTm3Fe16(MoP3)4
_chemical_formula_sum   'Tb1 Tm3 Fe16 Mo4 P12'
_cell_volume   462.82376869
_cell_formula_units_Z   1
loop_
 _symmetry_equiv_pos_site_id
 _symmetry_equiv_pos_as_xyz
  1  'x, y, z'
loop_
 _atom_site_type_symbol
 _atom_site_label
 _atom_site_symmetry_multiplicity
 _atom_site_fract_x
 _atom_site_fract_y
 _atom_site_fract_z
 _atom_site_occupancy
  Tb  Tb0  1  0.250000  0.583567  0.709206  1
  Tm  Tm1  1  0.250000  0.916771  0.209101  1
  Tm  Tm2  1  0.750000  0.416550  0.290708  1
  Tm  Tm3  1  0.750000  0.083143  0.790660  1
  Fe  Fe4  1  0.250000  0.410954  0.491597  1
  Fe  Fe5  1  0.250000  0.088156  0.992701  1
  Fe  Fe6  1  0.750000  0.588393  0.506309  1
  Fe  Fe7  1  0.750000  0.910895  0.007976  1
  Fe  Fe8  1  0.250000  0.216759  0.176918  1
  Fe  Fe9  1  0.250000  0.282117  0.676764  1
  Fe  Fe10  1  0.750000  0.783660  0.823983  1
  Fe  Fe11  1  0.750000  0.717206  0.322909  1
  Fe  Fe12  1  0.250000  0.880144  0.700162  1
  Fe  Fe13  1  0.250000  0.622444  0.200804  1
  Fe  Fe14  1  0.750000  0.122539  0.299239  1
  Fe  Fe15  1  0.750000  0.376544  0.800409  1
  Fe  Fe16  1  0.250000  0.462857  0.934430  1
  Fe  Fe17  1  0.250000  0.036623  0.432393  1
  Fe  Fe18  1  0.750000  0.535861  0.067942  1
  Fe  Fe19  1  0.750000  0.964915  0.565876  1
  Mo  Mo20  1  0.250000  0.706971  0.988655  1
  Mo  Mo21  1  0.250000  0.793227  0.488113  1
  Mo  Mo22  1  0.750000  0.292051  0.011864  1
  Mo  Mo23  1  0.750000  0.207010  0.510606  1
  P  P24  1  0.250000  0.424074  0.114286  1
  P  P25  1  0.250000  0.076023  0.613066  1
  P  P26  1  0.750000  0.574625  0.888092  1
  P  P27  1  0.750000  0.925104  0.385901  1
  P  P28  1  0.250000  0.266037  0.865288  1
  P  P29  1  0.250000  0.234212  0.365135  1
  P  P30  1  0.750000  0.733979  0.134425  1
  P  P31  1  0.750000  0.769311  0.634871  1
  P  P32  1  0.250000  0.594276  0.386356  1
  P  P33  1  0.250000  0.905415  0.886109  1
  P  P34  1  0.750000  0.403684  0.613340  1
  P  P35  1  0.750000  0.093903  0.113806  1
