# generated using pymatgen
data_Tb4DyTi2P12Ru8Rh9
_symmetry_space_group_name_H-M   'P 1'
_cell_length_a   12.71103645
_cell_length_b   12.66422019
_cell_length_c   3.93133300
_cell_angle_alpha   90.00000000
_cell_angle_beta   90.00000000
_cell_angle_gamma   119.82433498
_symmetry_Int_Tables_number   1
_chemical_formula_structural   Tb4DyTi2P12Ru8Rh9
_chemical_formula_sum   'Tb4 Dy1 Ti2 P12 Ru8 Rh9'
_cell_volume   549.02979607
_cell_formula_units_Z   1
loop_
 _symmetry_equiv_pos_site_id
 _symmetry_equiv_pos_as_xyz
  1  'x, y, z'
loop_
 _atom_site_type_symbol
 _atom_site_label
 _atom_site_symmetry_multiplicity
 _atom_site_fract_x
 _atom_site_fract_y
 _atom_site_fract_z
 _atom_site_occupancy
  Tb  Tb0  1  0.667099  0.332885  0.000000  1
  Tb  Tb1  1  0.333514  0.667296  0.000000  1
  Tb  Tb2  1  0.811611  0.001909  0.500000  1
  Tb  Tb3  1  0.185563  0.188773  0.500000  1
  Dy  Dy4  1  0.000199  0.812582  0.500000  1
  Ti  Ti5  1  0.440395  0.999823  0.000000  1
  Ti  Ti6  1  0.560989  0.557943  0.000000  1
  P  P7  1  0.636058  0.000021  0.000000  1
  P  P8  1  0.361467  0.369251  0.000000  1
  P  P9  1  0.006231  0.632426  0.000000  1
  P  P10  1  0.687752  0.518432  0.500000  1
  P  P11  1  0.831454  0.308000  0.500000  1
  P  P12  1  0.315864  0.832164  0.500000  1
  P  P13  1  0.518725  0.684586  0.500000  1
  P  P14  1  0.180581  0.000422  0.000000  1
  P  P15  1  0.820041  0.817888  0.000000  1
  P  P16  1  0.996663  0.181523  0.000000  1
  P  P17  1  0.477747  0.166069  0.500000  1
  P  P18  1  0.166631  0.482471  0.500000  1
  Ru  Ru19  1  0.125855  0.640090  0.500000  1
  Ru  Ru20  1  0.357400  0.484481  0.500000  1
  Ru  Ru21  1  0.516437  0.873539  0.500000  1
  Ru  Ru22  1  0.721423  0.717040  0.500000  1
  Ru  Ru23  1  0.000840  0.285686  0.500000  1
  Ru  Ru24  1  0.000080  0.448742  0.000000  1
  Ru  Ru25  1  0.819540  0.196369  0.000000  1
  Ru  Ru26  1  0.280142  0.999448  0.500000  1
  Rh  Rh27  1  0.625328  0.803117  0.000000  1
  Rh  Rh28  1  0.178194  0.375945  0.000000  1
  Rh  Rh29  1  0.372810  0.183074  0.000000  1
  Rh  Rh30  1  0.193943  0.819107  0.000000  1
  Rh  Rh31  1  0.810818  0.623573  0.000000  1
  Rh  Rh32  1  0.871448  0.507324  0.500000  1
  Rh  Rh33  1  0.489701  0.359521  0.500000  1
  Rh  Rh34  1  0.638027  0.128579  0.500000  1
  Rh  Rh35  1  0.999433  0.999900  0.000000  1
