# generated using pymatgen
data_Tb2SmCo9(GeB2)2
_symmetry_space_group_name_H-M   'P 1'
_cell_length_a   5.18684901
_cell_length_b   5.18706865
_cell_length_c   9.42888504
_cell_angle_alpha   89.99642960
_cell_angle_beta   90.00408328
_cell_angle_gamma   120.00102106
_symmetry_Int_Tables_number   1
_chemical_formula_structural   Tb2SmCo9(GeB2)2
_chemical_formula_sum   'Tb2 Sm1 Co9 Ge2 B4'
_cell_volume   219.69091840
_cell_formula_units_Z   1
loop_
 _symmetry_equiv_pos_site_id
 _symmetry_equiv_pos_as_xyz
  1  'x, y, z'
loop_
 _atom_site_type_symbol
 _atom_site_label
 _atom_site_symmetry_multiplicity
 _atom_site_fract_x
 _atom_site_fract_y
 _atom_site_fract_z
 _atom_site_occupancy
  Tb  Tb0  1  0.000077  0.999999  0.340457  1
  Tb  Tb1  1  0.999970  0.000061  0.659593  1
  Sm  Sm2  1  0.999941  0.999989  0.999963  1
  Co  Co3  1  0.500061  0.000057  0.499888  1
  Co  Co4  1  0.499992  0.499908  0.500034  1
  Co  Co5  1  0.999951  0.500029  0.500025  1
  Co  Co6  1  0.499865  0.999954  0.204474  1
  Co  Co7  1  0.500051  0.500005  0.204444  1
  Co  Co8  1  0.000082  0.500016  0.204450  1
  Co  Co9  1  0.499997  0.999995  0.795614  1
  Co  Co10  1  0.499929  0.499910  0.795571  1
  Co  Co11  1  0.999928  0.499987  0.795526  1
  Ge  Ge12  1  0.333516  0.666557  0.999935  1
  Ge  Ge13  1  0.666636  0.333496  0.999930  1
  B  B14  1  0.333410  0.666711  0.348755  1
  B  B15  1  0.666583  0.333342  0.348761  1
  B  B16  1  0.666545  0.333334  0.651291  1
  B  B17  1  0.333369  0.666647  0.651291  1
