# generated using pymatgen
data_TbSc2SiNi8
_symmetry_space_group_name_H-M   'P 1'
_cell_length_a   4.92412446
_cell_length_b   4.92412416
_cell_length_c   8.26482032
_cell_angle_alpha   72.66868085
_cell_angle_beta   72.66868475
_cell_angle_gamma   60.00000847
_symmetry_Int_Tables_number   1
_chemical_formula_structural   TbSc2SiNi8
_chemical_formula_sum   'Tb1 Sc2 Si1 Ni8'
_cell_volume   162.95841538
_cell_formula_units_Z   1
loop_
 _symmetry_equiv_pos_site_id
 _symmetry_equiv_pos_as_xyz
  1  'x, y, z'
loop_
 _atom_site_type_symbol
 _atom_site_label
 _atom_site_symmetry_multiplicity
 _atom_site_fract_x
 _atom_site_fract_y
 _atom_site_fract_z
 _atom_site_occupancy
  Tb  Tb0  1  0.000000  0.000000  0.000000  1
  Sc  Sc1  1  0.140237  0.140237  0.579291  1
  Sc  Sc2  1  0.859763  0.859763  0.420709  1
  Si  Si3  1  0.500000  0.500000  0.500000  1
  Ni  Ni4  1  0.081966  0.589595  0.738842  1
  Ni  Ni5  1  0.589595  0.589595  0.738842  1
  Ni  Ni6  1  0.589595  0.081966  0.738842  1
  Ni  Ni7  1  0.918034  0.410405  0.261158  1
  Ni  Ni8  1  0.410405  0.410405  0.261158  1
  Ni  Ni9  1  0.410405  0.918034  0.261158  1
  Ni  Ni10  1  0.333005  0.333005  0.000983  1
  Ni  Ni11  1  0.666995  0.666995  0.999017  1
