# generated using pymatgen
data_Ta12AlCr4Si7C4
_symmetry_space_group_name_H-M   'P 1'
_cell_length_a   8.11798638
_cell_length_b   8.11798664
_cell_length_c   8.11798630
_cell_angle_alpha   60.10690642
_cell_angle_beta   60.10690761
_cell_angle_gamma   60.10690570
_symmetry_Int_Tables_number   1
_chemical_formula_structural   Ta12AlCr4Si7C4
_chemical_formula_sum   'Ta12 Al1 Cr4 Si7 C4'
_cell_volume   379.21075274
_cell_formula_units_Z   1
loop_
 _symmetry_equiv_pos_site_id
 _symmetry_equiv_pos_as_xyz
  1  'x, y, z'
loop_
 _atom_site_type_symbol
 _atom_site_label
 _atom_site_symmetry_multiplicity
 _atom_site_fract_x
 _atom_site_fract_y
 _atom_site_fract_z
 _atom_site_occupancy
  Ta  Ta0  1  0.551753  0.948256  0.551753  1
  Ta  Ta1  1  0.301224  0.698494  0.698494  1
  Ta  Ta2  1  0.702044  0.300387  0.300387  1
  Ta  Ta3  1  0.300387  0.702044  0.300387  1
  Ta  Ta4  1  0.698494  0.698494  0.301224  1
  Ta  Ta5  1  0.300387  0.300387  0.702044  1
  Ta  Ta6  1  0.551753  0.551753  0.948256  1
  Ta  Ta7  1  0.948256  0.551753  0.551753  1
  Ta  Ta8  1  0.552386  0.947884  0.947884  1
  Ta  Ta9  1  0.947884  0.947884  0.552386  1
  Ta  Ta10  1  0.698494  0.301224  0.698494  1
  Ta  Ta11  1  0.947884  0.552386  0.947884  1
  Al  Al12  1  0.332361  0.332361  0.332361  1
  Cr  Cr13  1  0.125652  0.125652  0.125652  1
  Cr  Cr14  1  0.629676  0.121480  0.121480  1
  Cr  Cr15  1  0.121480  0.629676  0.121480  1
  Cr  Cr16  1  0.121480  0.121480  0.629676  1
  Si  Si17  1  0.915137  0.915137  0.915137  1
  Si  Si18  1  0.998179  0.335214  0.335214  1
  Si  Si19  1  0.335214  0.998179  0.335214  1
  Si  Si20  1  0.335214  0.335214  0.998179  1
  Si  Si21  1  0.915652  0.253756  0.915652  1
  Si  Si22  1  0.915652  0.915652  0.253756  1
  Si  Si23  1  0.253756  0.915652  0.915652  1
  C  C24  1  0.624613  0.624613  0.624613  1
  C  C25  1  0.125616  0.624687  0.624687  1
  C  C26  1  0.624687  0.125616  0.624687  1
  C  C27  1  0.624687  0.624687  0.125616  1
