# generated using pymatgen
data_AcZn9Cu2
_symmetry_space_group_name_H-M   'P 1'
_cell_length_a   8.30153177
_cell_length_b   8.30153144
_cell_length_c   8.30153034
_cell_angle_alpha   99.78660787
_cell_angle_beta   99.78660472
_cell_angle_gamma   131.30305293
_symmetry_Int_Tables_number   1
_chemical_formula_structural   AcZn9Cu2
_chemical_formula_sum   'Ac2 Zn18 Cu4'
_cell_volume   391.55379824
_cell_formula_units_Z   2
loop_
 _symmetry_equiv_pos_site_id
 _symmetry_equiv_pos_as_xyz
  1  'x, y, z'
loop_
 _atom_site_type_symbol
 _atom_site_label
 _atom_site_symmetry_multiplicity
 _atom_site_fract_x
 _atom_site_fract_y
 _atom_site_fract_z
 _atom_site_occupancy
  Ac  Ac0  1  0.000000  0.000000  0.000000  1
  Ac  Ac1  1  0.250000  0.750000  0.500000  1
  Zn  Zn2  1  0.750000  0.250000  0.500000  1
  Zn  Zn3  1  0.500000  0.500000  0.000000  1
  Zn  Zn4  1  0.189708  0.517212  0.081246  1
  Zn  Zn5  1  0.189708  0.108463  0.672497  1
  Zn  Zn6  1  0.767212  0.939708  0.581246  1
  Zn  Zn7  1  0.767212  0.185966  0.827503  1
  Zn  Zn8  1  0.435966  0.517212  0.327503  1
  Zn  Zn9  1  0.435966  0.108463  0.918754  1
  Zn  Zn10  1  0.358463  0.939708  0.172497  1
  Zn  Zn11  1  0.358463  0.185966  0.418754  1
  Zn  Zn12  1  0.060292  0.232788  0.418754  1
  Zn  Zn13  1  0.060292  0.641537  0.827503  1
  Zn  Zn14  1  0.482788  0.810292  0.918754  1
  Zn  Zn15  1  0.482788  0.564034  0.672497  1
  Zn  Zn16  1  0.814034  0.232788  0.172497  1
  Zn  Zn17  1  0.814034  0.641537  0.581246  1
  Zn  Zn18  1  0.891537  0.810292  0.327503  1
  Zn  Zn19  1  0.891537  0.564034  0.081246  1
  Cu  Cu20  1  0.125000  0.375000  0.750000  1
  Cu  Cu21  1  0.625000  0.875000  0.250000  1
  Cu  Cu22  1  0.625000  0.375000  0.750000  1
  Cu  Cu23  1  0.625000  0.375000  0.250000  1
