# generated using pymatgen
data_La3Dy2P12Ru19
_symmetry_space_group_name_H-M   'P 1'
_cell_length_a   12.64424900
_cell_length_b   12.64424888
_cell_length_c   4.02186200
_cell_angle_alpha   90.00000000
_cell_angle_beta   90.00000000
_cell_angle_gamma   119.99999769
_symmetry_Int_Tables_number   1
_chemical_formula_structural   La3Dy2P12Ru19
_chemical_formula_sum   'La3 Dy2 P12 Ru19'
_cell_volume   556.85725473
_cell_formula_units_Z   1
loop_
 _symmetry_equiv_pos_site_id
 _symmetry_equiv_pos_as_xyz
  1  'x, y, z'
loop_
 _atom_site_type_symbol
 _atom_site_label
 _atom_site_symmetry_multiplicity
 _atom_site_fract_x
 _atom_site_fract_y
 _atom_site_fract_z
 _atom_site_occupancy
  La  La0  1  0.000000  0.183358  0.500000  1
  La  La1  1  0.816642  0.816642  0.500000  1
  La  La2  1  0.183358  0.000000  0.500000  1
  Dy  Dy3  1  0.666667  0.333333  0.000000  1
  Dy  Dy4  1  0.333333  0.666667  0.000000  1
  P  P5  1  0.000000  0.809695  0.000000  1
  P  P6  1  0.190305  0.190305  0.000000  1
  P  P7  1  0.809695  0.000000  0.000000  1
  P  P8  1  0.695341  0.174144  0.500000  1
  P  P9  1  0.825856  0.521196  0.500000  1
  P  P10  1  0.478804  0.304659  0.500000  1
  P  P11  1  0.174144  0.695341  0.500000  1
  P  P12  1  0.521196  0.825856  0.500000  1
  P  P13  1  0.304659  0.478804  0.500000  1
  P  P14  1  0.000000  0.375123  0.000000  1
  P  P15  1  0.624877  0.624877  0.000000  1
  P  P16  1  0.375123  0.000000  0.000000  1
  Ru  Ru17  1  0.000000  0.554010  0.000000  1
  Ru  Ru18  1  0.445990  0.445990  0.000000  1
  Ru  Ru19  1  0.554010  0.000000  0.000000  1
  Ru  Ru20  1  0.000000  0.711586  0.500000  1
  Ru  Ru21  1  0.288414  0.288414  0.500000  1
  Ru  Ru22  1  0.711586  0.000000  0.500000  1
  Ru  Ru23  1  0.803675  0.185632  0.000000  1
  Ru  Ru24  1  0.814368  0.618043  0.000000  1
  Ru  Ru25  1  0.381957  0.196325  0.000000  1
  Ru  Ru26  1  0.185632  0.803675  0.000000  1
  Ru  Ru27  1  0.618043  0.814368  0.000000  1
  Ru  Ru28  1  0.196325  0.381957  0.000000  1
  Ru  Ru29  1  0.874204  0.368101  0.500000  1
  Ru  Ru30  1  0.631899  0.506103  0.500000  1
  Ru  Ru31  1  0.493897  0.125796  0.500000  1
  Ru  Ru32  1  0.368101  0.874204  0.500000  1
  Ru  Ru33  1  0.506103  0.631899  0.500000  1
  Ru  Ru34  1  0.125796  0.493897  0.500000  1
  Ru  Ru35  1  0.000000  0.000000  0.000000  1
