# generated using pymatgen
data_Li4Yb16(IrPd3)3
_symmetry_space_group_name_H-M   'P 1'
_cell_length_a   6.01678300
_cell_length_b   10.89163600
_cell_length_c   10.89163600
_cell_angle_alpha   90.00000000
_cell_angle_beta   90.00000000
_cell_angle_gamma   90.00000000
_symmetry_Int_Tables_number   1
_chemical_formula_structural   Li4Yb16(IrPd3)3
_chemical_formula_sum   'Li4 Yb16 Ir3 Pd9'
_cell_volume   713.75733781
_cell_formula_units_Z   1
loop_
 _symmetry_equiv_pos_site_id
 _symmetry_equiv_pos_as_xyz
  1  'x, y, z'
loop_
 _atom_site_type_symbol
 _atom_site_label
 _atom_site_symmetry_multiplicity
 _atom_site_fract_x
 _atom_site_fract_y
 _atom_site_fract_z
 _atom_site_occupancy
  Li  Li0  1  0.503453  0.750000  0.250000  1
  Li  Li1  1  0.004199  0.750000  0.250000  1
  Li  Li2  1  0.004199  0.250000  0.750000  1
  Li  Li3  1  0.503453  0.250000  0.750000  1
  Yb  Yb4  1  0.356826  0.834013  0.535532  1
  Yb  Yb5  1  0.845431  0.666806  0.533413  1
  Yb  Yb6  1  0.845431  0.833194  0.966587  1
  Yb  Yb7  1  0.356826  0.665987  0.964468  1
  Yb  Yb8  1  0.845431  0.533413  0.833194  1
  Yb  Yb9  1  0.356826  0.964468  0.834013  1
  Yb  Yb10  1  0.356826  0.535532  0.665987  1
  Yb  Yb11  1  0.845431  0.966587  0.666806  1
  Yb  Yb12  1  0.644481  0.169311  0.460450  1
  Yb  Yb13  1  0.145613  0.331349  0.461815  1
  Yb  Yb14  1  0.145613  0.168651  0.038186  1
  Yb  Yb15  1  0.644481  0.330689  0.039551  1
  Yb  Yb16  1  0.145613  0.461815  0.168651  1
  Yb  Yb17  1  0.644481  0.039551  0.169311  1
  Yb  Yb18  1  0.644481  0.460450  0.330689  1
  Yb  Yb19  1  0.145613  0.038186  0.331349  1
  Ir  Ir20  1  0.605262  0.750000  0.750000  1
  Ir  Ir21  1  0.895946  0.250000  0.250000  1
  Ir  Ir22  1  0.392456  0.250000  0.250000  1
  Pd  Pd23  1  0.252363  0.900681  0.094652  1
  Pd  Pd24  1  0.752455  0.597574  0.097119  1
  Pd  Pd25  1  0.752455  0.902426  0.402881  1
  Pd  Pd26  1  0.252363  0.599319  0.405348  1
  Pd  Pd27  1  0.752455  0.097119  0.902426  1
  Pd  Pd28  1  0.252363  0.405348  0.900681  1
  Pd  Pd29  1  0.252363  0.094652  0.599319  1
  Pd  Pd30  1  0.752455  0.402881  0.597574  1
  Pd  Pd31  1  0.102352  0.750000  0.750000  1
