# generated using pymatgen
data_DyNp3(MoN2)4
_symmetry_space_group_name_H-M   'P 1'
_cell_length_a   3.18299600
_cell_length_b   5.61984963
_cell_length_c   10.86171493
_cell_angle_alpha   89.85293451
_cell_angle_beta   90.00000000
_cell_angle_gamma   90.00000000
_symmetry_Int_Tables_number   1
_chemical_formula_structural   DyNp3(MoN2)4
_chemical_formula_sum   'Dy1 Np3 Mo4 N8'
_cell_volume   194.29327034
_cell_formula_units_Z   1
loop_
 _symmetry_equiv_pos_site_id
 _symmetry_equiv_pos_as_xyz
  1  'x, y, z'
loop_
 _atom_site_type_symbol
 _atom_site_label
 _atom_site_symmetry_multiplicity
 _atom_site_fract_x
 _atom_site_fract_y
 _atom_site_fract_z
 _atom_site_occupancy
  Dy  Dy0  1  0.750000  0.425003  0.353956  1
  Np  Np1  1  0.250000  0.074011  0.856204  1
  Np  Np2  1  0.250000  0.570214  0.642479  1
  Np  Np3  1  0.750000  0.925740  0.144752  1
  Mo  Mo4  1  0.250000  0.430149  0.101036  1
  Mo  Mo5  1  0.250000  0.933127  0.403598  1
  Mo  Mo6  1  0.750000  0.569417  0.900308  1
  Mo  Mo7  1  0.750000  0.067983  0.599374  1
  N  N8  1  0.250000  0.160911  0.244780  1
  N  N9  1  0.250000  0.671798  0.253934  1
  N  N10  1  0.750000  0.833817  0.754609  1
  N  N11  1  0.750000  0.334824  0.744858  1
  N  N12  1  0.250000  0.756186  0.995945  1
  N  N13  1  0.250000  0.259718  0.503608  1
  N  N14  1  0.750000  0.242007  0.004023  1
  N  N15  1  0.750000  0.745095  0.496536  1
