# generated using pymatgen
data_Cs7Rb5(FeSe3)4
_symmetry_space_group_name_H-M   'P 1'
_cell_length_a   11.07653514
_cell_length_b   11.08735255
_cell_length_c   13.98205350
_cell_angle_alpha   89.81080771
_cell_angle_beta   90.21978130
_cell_angle_gamma   140.42150964
_symmetry_Int_Tables_number   1
_chemical_formula_structural   Cs7Rb5(FeSe3)4
_chemical_formula_sum   'Cs7 Rb5 Fe4 Se12'
_cell_volume   1094.03378740
_cell_formula_units_Z   1
loop_
 _symmetry_equiv_pos_site_id
 _symmetry_equiv_pos_as_xyz
  1  'x, y, z'
loop_
 _atom_site_type_symbol
 _atom_site_label
 _atom_site_symmetry_multiplicity
 _atom_site_fract_x
 _atom_site_fract_y
 _atom_site_fract_z
 _atom_site_occupancy
  Cs  Cs0  1  0.482707  0.836555  0.873080  1
  Cs  Cs1  1  0.984972  0.335835  0.629168  1
  Cs  Cs2  1  0.663841  0.016617  0.369733  1
  Cs  Cs3  1  0.835978  0.484707  0.870290  1
  Cs  Cs4  1  0.516134  0.162769  0.129733  1
  Cs  Cs5  1  0.016962  0.664660  0.369559  1
  Cs  Cs6  1  0.335667  0.985015  0.628902  1
  Rb  Rb7  1  0.843599  0.843610  0.664411  1
  Rb  Rb8  1  0.153535  0.154465  0.335316  1
  Rb  Rb9  1  0.657220  0.655004  0.164798  1
  Rb  Rb10  1  0.345205  0.347450  0.836149  1
  Rb  Rb11  1  0.151855  0.499347  0.130479  1
  Fe  Fe12  1  0.921098  0.080459  0.001839  1
  Fe  Fe13  1  0.420177  0.580455  0.497722  1
  Fe  Fe14  1  0.080777  0.920168  0.000364  1
  Fe  Fe15  1  0.579846  0.421184  0.499623  1
  Se  Se16  1  0.300527  0.302060  0.579305  1
  Se  Se17  1  0.700688  0.700981  0.419603  1
  Se  Se18  1  0.199352  0.198069  0.081972  1
  Se  Se19  1  0.802066  0.802884  0.920265  1
  Se  Se20  1  0.699283  0.989527  0.114031  1
  Se  Se21  1  0.012607  0.305620  0.891894  1
  Se  Se22  1  0.507112  0.798413  0.611324  1
  Se  Se23  1  0.201397  0.492787  0.383230  1
  Se  Se24  1  0.300677  0.011952  0.886767  1
  Se  Se25  1  0.995202  0.698493  0.111069  1
  Se  Se26  1  0.491329  0.201741  0.387008  1
  Se  Se27  1  0.800185  0.509175  0.612366  1
