# generated using pymatgen
data_Sm2Co9As7Ru3
_symmetry_space_group_name_H-M   'P 1'
_cell_length_a   3.84698100
_cell_length_b   9.41082517
_cell_length_c   9.41082400
_cell_angle_alpha   120.00000199
_cell_angle_beta   90.00000000
_cell_angle_gamma   90.00000000
_symmetry_Int_Tables_number   1
_chemical_formula_structural   Sm2Co9As7Ru3
_chemical_formula_sum   'Sm2 Co9 As7 Ru3'
_cell_volume   295.05706689
_cell_formula_units_Z   1
loop_
 _symmetry_equiv_pos_site_id
 _symmetry_equiv_pos_as_xyz
  1  'x, y, z'
loop_
 _atom_site_type_symbol
 _atom_site_label
 _atom_site_symmetry_multiplicity
 _atom_site_fract_x
 _atom_site_fract_y
 _atom_site_fract_z
 _atom_site_occupancy
  Sm  Sm0  1  0.000000  0.666667  0.333333  1
  Sm  Sm1  1  0.500000  0.333333  0.666667  1
  Co  Co2  1  0.000000  0.570811  0.941645  1
  Co  Co3  1  0.000000  0.370834  0.429189  1
  Co  Co4  1  0.000000  0.058355  0.629166  1
  Co  Co5  1  0.000000  0.875881  0.155801  1
  Co  Co6  1  0.000000  0.279920  0.124119  1
  Co  Co7  1  0.000000  0.844199  0.720080  1
  Co  Co8  1  0.500000  0.947551  0.382341  1
  Co  Co9  1  0.500000  0.434790  0.052449  1
  Co  Co10  1  0.500000  0.617659  0.565210  1
  As  As11  1  0.000000  0.000000  0.000000  1
  As  As12  1  0.500000  0.707582  0.114230  1
  As  As13  1  0.500000  0.406649  0.292418  1
  As  As14  1  0.500000  0.885770  0.593351  1
  As  As15  1  0.000000  0.589778  0.700480  1
  As  As16  1  0.000000  0.110703  0.410222  1
  As  As17  1  0.000000  0.299520  0.889297  1
  Ru  Ru18  1  0.500000  0.782372  0.899928  1
  Ru  Ru19  1  0.500000  0.117555  0.217628  1
  Ru  Ru20  1  0.500000  0.100072  0.882445  1
