# generated using pymatgen
data_Ho2BeSi13Ir6
_symmetry_space_group_name_H-M   'P 1'
_cell_length_a   7.96463327
_cell_length_b   7.96463312
_cell_length_c   7.96463379
_cell_angle_alpha   57.30470739
_cell_angle_beta   57.30470549
_cell_angle_gamma   57.30470093
_symmetry_Int_Tables_number   1
_chemical_formula_structural   Ho2BeSi13Ir6
_chemical_formula_sum   'Ho2 Be1 Si13 Ir6'
_cell_volume   335.08958841
_cell_formula_units_Z   1
loop_
 _symmetry_equiv_pos_site_id
 _symmetry_equiv_pos_as_xyz
  1  'x, y, z'
loop_
 _atom_site_type_symbol
 _atom_site_label
 _atom_site_symmetry_multiplicity
 _atom_site_fract_x
 _atom_site_fract_y
 _atom_site_fract_z
 _atom_site_occupancy
  Ho  Ho0  1  0.998721  0.998721  0.998721  1
  Ho  Ho1  1  0.501279  0.501279  0.501279  1
  Be  Be2  1  0.750000  0.750000  0.750000  1
  Si  Si3  1  0.250000  0.250000  0.250000  1
  Si  Si4  1  0.846874  0.056185  0.674490  1
  Si  Si5  1  0.674490  0.846874  0.056185  1
  Si  Si6  1  0.056185  0.674490  0.846874  1
  Si  Si7  1  0.653126  0.825510  0.443815  1
  Si  Si8  1  0.443815  0.653126  0.825510  1
  Si  Si9  1  0.825510  0.443815  0.653126  1
  Si  Si10  1  0.169488  0.563561  0.356086  1
  Si  Si11  1  0.563561  0.356086  0.169488  1
  Si  Si12  1  0.356086  0.169488  0.563561  1
  Si  Si13  1  0.936439  0.330512  0.143914  1
  Si  Si14  1  0.330512  0.143914  0.936439  1
  Si  Si15  1  0.143914  0.936439  0.330512  1
  Ir  Ir16  1  0.079063  0.420937  0.750000  1
  Ir  Ir17  1  0.250000  0.926097  0.573903  1
  Ir  Ir18  1  0.573903  0.250000  0.926097  1
  Ir  Ir19  1  0.926097  0.573903  0.250000  1
  Ir  Ir20  1  0.420937  0.750000  0.079063  1
  Ir  Ir21  1  0.750000  0.079063  0.420937  1
