# generated using pymatgen
data_HoErB6Os
_symmetry_space_group_name_H-M   'P 1'
_cell_length_a   3.63613900
_cell_length_b   9.10912300
_cell_length_c   11.48694000
_cell_angle_alpha   90.00000000
_cell_angle_beta   90.00000000
_cell_angle_gamma   90.00000000
_symmetry_Int_Tables_number   1
_chemical_formula_structural   HoErB6Os
_chemical_formula_sum   'Ho4 Er4 B24 Os4'
_cell_volume   380.47085625
_cell_formula_units_Z   4
loop_
 _symmetry_equiv_pos_site_id
 _symmetry_equiv_pos_as_xyz
  1  'x, y, z'
loop_
 _atom_site_type_symbol
 _atom_site_label
 _atom_site_symmetry_multiplicity
 _atom_site_fract_x
 _atom_site_fract_y
 _atom_site_fract_z
 _atom_site_occupancy
  Ho  Ho0  1  0.000000  0.321686  0.414014  1
  Ho  Ho1  1  0.000000  0.678314  0.585986  1
  Ho  Ho2  1  0.000000  0.821686  0.085986  1
  Ho  Ho3  1  0.000000  0.178314  0.914014  1
  Er  Er4  1  0.000000  0.943966  0.372937  1
  Er  Er5  1  0.000000  0.056034  0.627064  1
  Er  Er6  1  0.000000  0.443966  0.127063  1
  Er  Er7  1  0.000000  0.556034  0.872936  1
  B  B8  1  0.500000  0.554005  0.433104  1
  B  B9  1  0.500000  0.445995  0.566896  1
  B  B10  1  0.500000  0.054005  0.066896  1
  B  B11  1  0.500000  0.945995  0.933104  1
  B  B12  1  0.500000  0.748556  0.419861  1
  B  B13  1  0.500000  0.251444  0.580139  1
  B  B14  1  0.500000  0.248556  0.080139  1
  B  B15  1  0.500000  0.751444  0.919861  1
  B  B16  1  0.500000  0.791315  0.266273  1
  B  B17  1  0.500000  0.208685  0.733727  1
  B  B18  1  0.500000  0.291314  0.233727  1
  B  B19  1  0.500000  0.708685  0.766273  1
  B  B20  1  0.500000  0.631402  0.184980  1
  B  B21  1  0.500000  0.368598  0.815020  1
  B  B22  1  0.500000  0.131402  0.315020  1
  B  B23  1  0.500000  0.868598  0.684980  1
  B  B24  1  0.500000  0.982882  0.213161  1
  B  B25  1  0.500000  0.017118  0.786839  1
  B  B26  1  0.500000  0.482882  0.286839  1
  B  B27  1  0.500000  0.517118  0.713161  1
  B  B28  1  0.500000  0.606481  0.029431  1
  B  B29  1  0.500000  0.393519  0.970569  1
  B  B30  1  0.500000  0.106481  0.470569  1
  B  B31  1  0.500000  0.893519  0.529431  1
  Os  Os32  1  0.000000  0.637589  0.321110  1
  Os  Os33  1  0.000000  0.362411  0.678890  1
  Os  Os34  1  0.000000  0.137589  0.178890  1
  Os  Os35  1  0.000000  0.862411  0.821110  1
