# generated using pymatgen
data_Tb16NiAg4Ir3
_symmetry_space_group_name_H-M   'P 1'
_cell_length_a   9.48893941
_cell_length_b   9.48893949
_cell_length_c   9.48894034
_cell_angle_alpha   61.01844128
_cell_angle_beta   61.01844829
_cell_angle_gamma   61.01844329
_symmetry_Int_Tables_number   1
_chemical_formula_structural   Tb16NiAg4Ir3
_chemical_formula_sum   'Tb16 Ni1 Ag4 Ir3'
_cell_volume   617.99811960
_cell_formula_units_Z   1
loop_
 _symmetry_equiv_pos_site_id
 _symmetry_equiv_pos_as_xyz
  1  'x, y, z'
loop_
 _atom_site_type_symbol
 _atom_site_label
 _atom_site_symmetry_multiplicity
 _atom_site_fract_x
 _atom_site_fract_y
 _atom_site_fract_z
 _atom_site_occupancy
  Tb  Tb0  1  0.602166  0.602166  0.602166  1
  Tb  Tb1  1  0.600599  0.600599  0.193413  1
  Tb  Tb2  1  0.600599  0.193413  0.600599  1
  Tb  Tb3  1  0.193413  0.600599  0.600599  1
  Tb  Tb4  1  0.063300  0.438791  0.438791  1
  Tb  Tb5  1  0.437918  0.061086  0.061086  1
  Tb  Tb6  1  0.438791  0.063300  0.438791  1
  Tb  Tb7  1  0.061086  0.437918  0.061086  1
  Tb  Tb8  1  0.438791  0.438791  0.063300  1
  Tb  Tb9  1  0.061086  0.061086  0.437918  1
  Tb  Tb10  1  0.187157  0.812417  0.812417  1
  Tb  Tb11  1  0.816022  0.186264  0.186264  1
  Tb  Tb12  1  0.812417  0.187157  0.812417  1
  Tb  Tb13  1  0.186264  0.816022  0.186264  1
  Tb  Tb14  1  0.812417  0.812417  0.187157  1
  Tb  Tb15  1  0.186264  0.186264  0.816022  1
  Ni  Ni16  1  0.392033  0.392033  0.392033  1
  Ag  Ag17  1  0.832155  0.832155  0.832155  1
  Ag  Ag18  1  0.832871  0.832871  0.504023  1
  Ag  Ag19  1  0.832871  0.504023  0.832871  1
  Ag  Ag20  1  0.504023  0.832871  0.832871  1
  Ir  Ir21  1  0.393399  0.393399  0.820963  1
  Ir  Ir22  1  0.393399  0.820963  0.393399  1
  Ir  Ir23  1  0.820963  0.393399  0.393399  1
