# generated using pymatgen
data_Pr2Mo(SeO5)2
_symmetry_space_group_name_H-M   'P 1'
_cell_length_a   5.47969464
_cell_length_b   7.01353621
_cell_length_c   12.83999320
_cell_angle_alpha   85.50759863
_cell_angle_beta   83.79104245
_cell_angle_gamma   69.94367929
_symmetry_Int_Tables_number   1
_chemical_formula_structural   Pr2Mo(SeO5)2
_chemical_formula_sum   'Pr4 Mo2 Se4 O20'
_cell_volume   460.37266873
_cell_formula_units_Z   2
loop_
 _symmetry_equiv_pos_site_id
 _symmetry_equiv_pos_as_xyz
  1  'x, y, z'
loop_
 _atom_site_type_symbol
 _atom_site_label
 _atom_site_symmetry_multiplicity
 _atom_site_fract_x
 _atom_site_fract_y
 _atom_site_fract_z
 _atom_site_occupancy
  Pr  Pr0  1  0.168140  0.696807  0.047648  1
  Pr  Pr1  1  0.085109  0.886828  0.352419  1
  Pr  Pr2  1  0.914889  0.113170  0.647582  1
  Pr  Pr3  1  0.831859  0.303194  0.952352  1
  Mo  Mo4  1  0.363187  0.278728  0.440973  1
  Mo  Mo5  1  0.636813  0.721272  0.559029  1
  Se  Se6  1  0.394395  0.103470  0.131610  1
  Se  Se7  1  0.738512  0.577330  0.223020  1
  Se  Se8  1  0.261488  0.422670  0.776981  1
  Se  Se9  1  0.605605  0.896532  0.868390  1
  O  O10  1  0.184803  0.058779  0.045492  1
  O  O11  1  0.438224  0.331713  0.081311  1
  O  O12  1  0.855891  0.508557  0.095835  1
  O  O13  1  0.414217  0.717012  0.203021  1
  O  O14  1  0.879204  0.767143  0.219780  1
  O  O15  1  0.182147  0.164883  0.241379  1
  O  O16  1  0.642877  0.161240  0.353219  1
  O  O17  1  0.171379  0.525212  0.394039  1
  O  O18  1  0.520790  0.711400  0.434998  1
  O  O19  1  0.149998  0.124290  0.470043  1
  O  O20  1  0.850002  0.875711  0.529958  1
  O  O21  1  0.479209  0.288601  0.565002  1
  O  O22  1  0.828619  0.474787  0.605960  1
  O  O23  1  0.357124  0.838759  0.646780  1
  O  O24  1  0.817854  0.835116  0.758622  1
  O  O25  1  0.120795  0.232858  0.780219  1
  O  O26  1  0.585781  0.282989  0.796980  1
  O  O27  1  0.144109  0.491441  0.904165  1
  O  O28  1  0.561774  0.668285  0.918688  1
  O  O29  1  0.815196  0.941221  0.954509  1
