# generated using pymatgen
data_GdWF7
_symmetry_space_group_name_H-M   'P 1'
_cell_length_a   5.71181300
_cell_length_b   9.12474357
_cell_length_c   12.40777861
_cell_angle_alpha   62.74453076
_cell_angle_beta   90.00000000
_cell_angle_gamma   90.00000000
_symmetry_Int_Tables_number   1
_chemical_formula_structural   GdWF7
_chemical_formula_sum   'Gd4 W4 F28'
_cell_volume   574.88035206
_cell_formula_units_Z   4
loop_
 _symmetry_equiv_pos_site_id
 _symmetry_equiv_pos_as_xyz
  1  'x, y, z'
loop_
 _atom_site_type_symbol
 _atom_site_label
 _atom_site_symmetry_multiplicity
 _atom_site_fract_x
 _atom_site_fract_y
 _atom_site_fract_z
 _atom_site_occupancy
  Gd  Gd0  1  0.757140  0.812223  0.266846  1
  Gd  Gd1  1  0.257140  0.187777  0.233154  1
  Gd  Gd2  1  0.242860  0.187777  0.733154  1
  Gd  Gd3  1  0.742860  0.812223  0.766846  1
  W  W4  1  0.243671  0.727520  0.544016  1
  W  W5  1  0.743671  0.272480  0.955984  1
  W  W6  1  0.756329  0.272480  0.455984  1
  W  W7  1  0.256329  0.727520  0.044016  1
  F  F8  1  0.954723  0.721063  0.449556  1
  F  F9  1  0.454723  0.278937  0.050444  1
  F  F10  1  0.045277  0.278937  0.550444  1
  F  F11  1  0.545277  0.721063  0.949556  1
  F  F12  1  0.052212  0.711563  0.917139  1
  F  F13  1  0.552212  0.288437  0.582861  1
  F  F14  1  0.947788  0.288437  0.082861  1
  F  F15  1  0.447788  0.711563  0.417139  1
  F  F16  1  0.733546  0.518610  0.857834  1
  F  F17  1  0.233546  0.481390  0.642166  1
  F  F18  1  0.266454  0.481390  0.142166  1
  F  F19  1  0.766454  0.518610  0.357834  1
  F  F20  1  0.741365  0.027199  0.057150  1
  F  F21  1  0.241365  0.972801  0.442850  1
  F  F22  1  0.258635  0.972801  0.942850  1
  F  F23  1  0.758635  0.027199  0.557150  1
  F  F24  1  0.043173  0.744176  0.672384  1
  F  F25  1  0.543173  0.255824  0.827616  1
  F  F26  1  0.956827  0.255824  0.327616  1
  F  F27  1  0.456827  0.744176  0.172384  1
  F  F28  1  0.020403  0.271420  0.854073  1
  F  F29  1  0.520403  0.728580  0.645927  1
  F  F30  1  0.979597  0.728580  0.145927  1
  F  F31  1  0.479597  0.271420  0.354073  1
  F  F32  1  0.078051  0.970921  0.233673  1
  F  F33  1  0.578051  0.029079  0.266327  1
  F  F34  1  0.921949  0.029079  0.766327  1
  F  F35  1  0.421949  0.970921  0.733673  1
