# generated using pymatgen
data_Ca5(YbBi4)3
_symmetry_space_group_name_H-M   'P 1'
_cell_length_a   6.48689031
_cell_length_b   6.78537736
_cell_length_c   14.97842100
_cell_angle_alpha   90.00000000
_cell_angle_beta   90.00000000
_cell_angle_gamma   89.92731755
_symmetry_Int_Tables_number   1
_chemical_formula_structural   Ca5(YbBi4)3
_chemical_formula_sum   'Ca5 Yb3 Bi12'
_cell_volume   659.28962794
_cell_formula_units_Z   1
loop_
 _symmetry_equiv_pos_site_id
 _symmetry_equiv_pos_as_xyz
  1  'x, y, z'
loop_
 _atom_site_type_symbol
 _atom_site_label
 _atom_site_symmetry_multiplicity
 _atom_site_fract_x
 _atom_site_fract_y
 _atom_site_fract_z
 _atom_site_occupancy
  Ca  Ca0  1  0.938955  0.999962  0.249929  1
  Ca  Ca1  1  0.561045  0.500038  0.249929  1
  Ca  Ca2  1  0.060960  0.000128  0.750100  1
  Ca  Ca3  1  0.439040  0.499872  0.750100  1
  Ca  Ca4  1  0.250000  0.750000  0.499590  1
  Yb  Yb5  1  0.750000  0.750000  0.999719  1
  Yb  Yb6  1  0.750000  0.250000  0.500294  1
  Yb  Yb7  1  0.250000  0.250000  0.000316  1
  Bi  Bi8  1  0.750000  0.750000  0.434405  1
  Bi  Bi9  1  0.750000  0.250000  0.065312  1
  Bi  Bi10  1  0.250000  0.250000  0.565609  1
  Bi  Bi11  1  0.250000  0.750000  0.934701  1
  Bi  Bi12  1  0.420734  0.932868  0.149398  1
  Bi  Bi13  1  0.421316  0.067404  0.350394  1
  Bi  Bi14  1  0.078684  0.432596  0.350394  1
  Bi  Bi15  1  0.079266  0.567132  0.149398  1
  Bi  Bi16  1  0.579230  0.067109  0.850595  1
  Bi  Bi17  1  0.579753  0.933504  0.649612  1
  Bi  Bi18  1  0.920247  0.566496  0.649612  1
  Bi  Bi19  1  0.920770  0.432891  0.850595  1
