# generated using pymatgen
data_Tb2Er2Ga17SiRh6
_symmetry_space_group_name_H-M   'P 1'
_cell_length_a   7.59002042
_cell_length_b   7.56764089
_cell_length_c   9.49260700
_cell_angle_alpha   90.06231062
_cell_angle_beta   89.81300758
_cell_angle_gamma   119.91164750
_symmetry_Int_Tables_number   1
_chemical_formula_structural   Tb2Er2Ga17SiRh6
_chemical_formula_sum   'Tb2 Er2 Ga17 Si1 Rh6'
_cell_volume   472.61027442
_cell_formula_units_Z   1
loop_
 _symmetry_equiv_pos_site_id
 _symmetry_equiv_pos_as_xyz
  1  'x, y, z'
loop_
 _atom_site_type_symbol
 _atom_site_label
 _atom_site_symmetry_multiplicity
 _atom_site_fract_x
 _atom_site_fract_y
 _atom_site_fract_z
 _atom_site_occupancy
  Tb  Tb0  1  0.673697  0.002281  0.248102  1
  Tb  Tb1  1  0.330583  0.002619  0.749907  1
  Er  Er2  1  0.997079  0.664340  0.247971  1
  Er  Er3  1  0.002646  0.331128  0.751483  1
  Ga  Ga4  1  0.128898  0.128168  0.250668  1
  Ga  Ga5  1  0.873277  0.875017  0.750683  1
  Ga  Ga6  1  0.998729  0.669793  0.918117  1
  Ga  Ga7  1  0.000104  0.665048  0.579887  1
  Ga  Ga8  1  0.333274  0.997830  0.419374  1
  Ga  Ga9  1  0.000121  0.335453  0.420987  1
  Ga  Ga10  1  0.665950  0.000405  0.580438  1
  Ga  Ga11  1  0.659670  0.995251  0.917730  1
  Ga  Ga12  1  0.332972  0.997665  0.081506  1
  Ga  Ga13  1  0.331797  0.331822  0.564636  1
  Ga  Ga14  1  0.669250  0.669007  0.434967  1
  Ga  Ga15  1  0.668582  0.668944  0.067201  1
  Ga  Ga16  1  0.337453  0.332811  0.933996  1
  Ga  Ga17  1  0.340206  0.546542  0.251357  1
  Ga  Ga18  1  0.661810  0.452200  0.750980  1
  Ga  Ga19  1  0.548156  0.339882  0.250530  1
  Ga  Ga20  1  0.450869  0.658667  0.750378  1
  Si  Si21  1  0.000103  0.335089  0.072862  1
  Rh  Rh22  1  0.683810  0.329677  0.003270  1
  Rh  Rh23  1  0.313610  0.656758  0.001702  1
  Rh  Rh24  1  0.328037  0.671025  0.500311  1
  Rh  Rh25  1  0.671580  0.328619  0.500030  1
  Rh  Rh26  1  0.998329  0.013845  0.001239  1
  Rh  Rh27  1  0.999404  0.000113  0.499684  1
