# generated using pymatgen
data_Ce6Sc2PtAu9
_symmetry_space_group_name_H-M   'P 1'
_cell_length_a   8.06289398
_cell_length_b   8.06289253
_cell_length_c   8.06289100
_cell_angle_alpha   66.15332499
_cell_angle_beta   66.15332953
_cell_angle_gamma   66.15332239
_symmetry_Int_Tables_number   1
_chemical_formula_structural   Ce6Sc2PtAu9
_chemical_formula_sum   'Ce6 Sc2 Pt1 Au9'
_cell_volume   419.92923705
_cell_formula_units_Z   1
loop_
 _symmetry_equiv_pos_site_id
 _symmetry_equiv_pos_as_xyz
  1  'x, y, z'
loop_
 _atom_site_type_symbol
 _atom_site_label
 _atom_site_symmetry_multiplicity
 _atom_site_fract_x
 _atom_site_fract_y
 _atom_site_fract_z
 _atom_site_occupancy
  Ce  Ce0  1  0.891278  0.169601  0.635658  1
  Ce  Ce1  1  0.635658  0.891278  0.169601  1
  Ce  Ce2  1  0.169601  0.635658  0.891278  1
  Ce  Ce3  1  0.104453  0.812995  0.386027  1
  Ce  Ce4  1  0.386027  0.104453  0.812995  1
  Ce  Ce5  1  0.812995  0.386027  0.104453  1
  Sc  Sc6  1  0.657862  0.657862  0.657862  1
  Sc  Sc7  1  0.341962  0.341962  0.341962  1
  Pt  Pt8  1  0.800635  0.800635  0.800635  1
  Au  Au9  1  0.007639  0.007639  0.007639  1
  Au  Au10  1  0.500223  0.500223  0.500223  1
  Au  Au11  1  0.196494  0.196494  0.196494  1
  Au  Au12  1  0.937270  0.540196  0.332018  1
  Au  Au13  1  0.332018  0.937270  0.540196  1
  Au  Au14  1  0.540196  0.332018  0.937270  1
  Au  Au15  1  0.062905  0.445850  0.676937  1
  Au  Au16  1  0.676937  0.062905  0.445850  1
  Au  Au17  1  0.445850  0.676937  0.062905  1
