# generated using pymatgen
data_Lu8Mn(B8Rh)3
_symmetry_space_group_name_H-M   'P 1'
_cell_length_a   3.57238500
_cell_length_b   9.03312276
_cell_length_c   11.38085871
_cell_angle_alpha   90.10441798
_cell_angle_beta   90.00000000
_cell_angle_gamma   90.00000000
_symmetry_Int_Tables_number   1
_chemical_formula_structural   Lu8Mn(B8Rh)3
_chemical_formula_sum   'Lu8 Mn1 B24 Rh3'
_cell_volume   367.25733641
_cell_formula_units_Z   1
loop_
 _symmetry_equiv_pos_site_id
 _symmetry_equiv_pos_as_xyz
  1  'x, y, z'
loop_
 _atom_site_type_symbol
 _atom_site_label
 _atom_site_symmetry_multiplicity
 _atom_site_fract_x
 _atom_site_fract_y
 _atom_site_fract_z
 _atom_site_occupancy
  Lu  Lu0  1  0.500000  0.316589  0.409319  1
  Lu  Lu1  1  0.500000  0.679042  0.585801  1
  Lu  Lu2  1  0.500000  0.178232  0.918746  1
  Lu  Lu3  1  0.500000  0.826397  0.087516  1
  Lu  Lu4  1  0.500000  0.439346  0.126410  1
  Lu  Lu5  1  0.500000  0.555998  0.874069  1
  Lu  Lu6  1  0.500000  0.056239  0.626815  1
  Lu  Lu7  1  0.500000  0.947468  0.370834  1
  Mn  Mn8  1  0.500000  0.138614  0.179738  1
  B  B9  1  0.000000  0.106660  0.470852  1
  B  B10  1  0.000000  0.893353  0.529153  1
  B  B11  1  0.000000  0.392415  0.970617  1
  B  B12  1  0.000000  0.608068  0.029513  1
  B  B13  1  0.000000  0.131307  0.313856  1
  B  B14  1  0.000000  0.868057  0.682876  1
  B  B15  1  0.000000  0.367962  0.817595  1
  B  B16  1  0.000000  0.631544  0.183042  1
  B  B17  1  0.000000  0.054360  0.067709  1
  B  B18  1  0.000000  0.947785  0.935349  1
  B  B19  1  0.000000  0.446391  0.564498  1
  B  B20  1  0.000000  0.552679  0.434234  1
  B  B21  1  0.000000  0.480371  0.286607  1
  B  B22  1  0.000000  0.519316  0.712937  1
  B  B23  1  0.000000  0.019789  0.787854  1
  B  B24  1  0.000000  0.984428  0.212058  1
  B  B25  1  0.000000  0.247141  0.081748  1
  B  B26  1  0.000000  0.750347  0.921983  1
  B  B27  1  0.000000  0.249622  0.578420  1
  B  B28  1  0.000000  0.750671  0.420419  1
  B  B29  1  0.000000  0.290880  0.234122  1
  B  B30  1  0.000000  0.706255  0.763754  1
  B  B31  1  0.000000  0.206632  0.736934  1
  B  B32  1  0.000000  0.794052  0.264268  1
  Rh  Rh33  1  0.500000  0.861380  0.821431  1
  Rh  Rh34  1  0.500000  0.361834  0.678376  1
  Rh  Rh35  1  0.500000  0.638778  0.320548  1
