# generated using pymatgen
data_Th3ScAl2Ir2Ru
_symmetry_space_group_name_H-M   'P 1'
_cell_length_a   7.25252061
_cell_length_b   7.29447493
_cell_length_c   4.22264300
_cell_angle_alpha   90.00000000
_cell_angle_beta   90.00000000
_cell_angle_gamma   120.21398568
_symmetry_Int_Tables_number   1
_chemical_formula_structural   Th3ScAl2Ir2Ru
_chemical_formula_sum   'Th3 Sc1 Al2 Ir2 Ru1'
_cell_volume   193.04453372
_cell_formula_units_Z   1
loop_
 _symmetry_equiv_pos_site_id
 _symmetry_equiv_pos_as_xyz
  1  'x, y, z'
loop_
 _atom_site_type_symbol
 _atom_site_label
 _atom_site_symmetry_multiplicity
 _atom_site_fract_x
 _atom_site_fract_y
 _atom_site_fract_z
 _atom_site_occupancy
  Th  Th0  1  0.404979  0.999243  0.500000  1
  Th  Th1  1  0.012450  0.431984  0.500000  1
  Th  Th2  1  0.577385  0.571206  0.500000  1
  Sc  Sc3  1  0.767257  0.998499  0.000000  1
  Al  Al4  1  0.000988  0.765708  0.000000  1
  Al  Al5  1  0.236471  0.234913  0.000000  1
  Ir  Ir6  1  0.665825  0.336512  0.000000  1
  Ir  Ir7  1  0.007394  0.000108  0.500000  1
  Ru  Ru8  1  0.327253  0.661827  0.000000  1
