# generated using pymatgen
data_Ho8Lu8Sc4Si15As
_symmetry_space_group_name_H-M   'P 1'
_cell_length_a   7.28566625
_cell_length_b   7.48106523
_cell_length_c   14.20154878
_cell_angle_alpha   89.98929266
_cell_angle_beta   87.72886868
_cell_angle_gamma   90.12918143
_symmetry_Int_Tables_number   1
_chemical_formula_structural   Ho8Lu8Sc4Si15As
_chemical_formula_sum   'Ho8 Lu8 Sc4 Si15 As1'
_cell_volume   773.43892716
_cell_formula_units_Z   1
loop_
 _symmetry_equiv_pos_site_id
 _symmetry_equiv_pos_as_xyz
  1  'x, y, z'
loop_
 _atom_site_type_symbol
 _atom_site_label
 _atom_site_symmetry_multiplicity
 _atom_site_fract_x
 _atom_site_fract_y
 _atom_site_fract_z
 _atom_site_occupancy
  Ho  Ho0  1  0.013382  0.177538  0.095581  1
  Ho  Ho1  1  0.988807  0.824148  0.903115  1
  Ho  Ho2  1  0.487178  0.677477  0.902046  1
  Ho  Ho3  1  0.000712  0.821475  0.599190  1
  Ho  Ho4  1  0.511845  0.323014  0.095196  1
  Ho  Ho5  1  0.996503  0.178369  0.403246  1
  Ho  Ho6  1  0.498182  0.317184  0.400795  1
  Ho  Ho7  1  0.507489  0.679456  0.600344  1
  Lu  Lu8  1  0.171470  0.502570  0.751693  1
  Lu  Lu9  1  0.826870  0.495122  0.252265  1
  Lu  Lu10  1  0.325031  0.004623  0.250468  1
  Lu  Lu11  1  0.675246  0.998260  0.749014  1
  Lu  Lu12  1  0.353854  0.166870  0.623586  1
  Lu  Lu13  1  0.649039  0.831107  0.378913  1
  Lu  Lu14  1  0.146121  0.668118  0.379185  1
  Lu  Lu15  1  0.665199  0.820901  0.120459  1
  Sc  Sc16  1  0.848899  0.333230  0.624002  1
  Sc  Sc17  1  0.335220  0.178371  0.874784  1
  Sc  Sc18  1  0.834946  0.323093  0.875414  1
  Sc  Sc19  1  0.165687  0.677883  0.122775  1
  Si  Si20  1  0.046668  0.119099  0.753160  1
  Si  Si21  1  0.953619  0.884396  0.246485  1
  Si  Si22  1  0.449412  0.612182  0.246761  1
  Si  Si23  1  0.549867  0.385485  0.752573  1
  Si  Si24  1  0.292497  0.872061  0.753714  1
  Si  Si25  1  0.708715  0.127619  0.246429  1
  Si  Si26  1  0.207272  0.372947  0.246367  1
  Si  Si27  1  0.794297  0.626061  0.752547  1
  Si  Si28  1  0.796820  0.532479  0.460892  1
  Si  Si29  1  0.305548  0.963491  0.458755  1
  Si  Si30  1  0.848446  0.529234  0.037164  1
  Si  Si31  1  0.698995  0.043258  0.543222  1
  Si  Si32  1  0.158423  0.465422  0.961235  1
  Si  Si33  1  0.654117  0.037345  0.957569  1
  Si  Si34  1  0.337793  0.966588  0.036241  1
  As  As35  1  0.195832  0.463522  0.544813  1
