# generated using pymatgen
data_YbY2Al3Si2Pt
_symmetry_space_group_name_H-M   'P 1'
_cell_length_a   6.94879200
_cell_length_b   6.92493338
_cell_length_c   4.24838000
_cell_angle_alpha   90.00000000
_cell_angle_beta   90.00000000
_cell_angle_gamma   120.11403590
_symmetry_Int_Tables_number   1
_chemical_formula_structural   YbY2Al3Si2Pt
_chemical_formula_sum   'Yb1 Y2 Al3 Si2 Pt1'
_cell_volume   176.83926575
_cell_formula_units_Z   1
loop_
 _symmetry_equiv_pos_site_id
 _symmetry_equiv_pos_as_xyz
  1  'x, y, z'
loop_
 _atom_site_type_symbol
 _atom_site_label
 _atom_site_symmetry_multiplicity
 _atom_site_fract_x
 _atom_site_fract_y
 _atom_site_fract_z
 _atom_site_occupancy
  Yb  Yb0  1  0.417779  0.000000  0.000000  1
  Y  Y1  1  0.000842  0.419635  0.000000  1
  Y  Y2  1  0.581208  0.580366  0.000000  1
  Al  Al3  1  0.763521  0.000000  0.500000  1
  Al  Al4  1  0.235113  0.238228  0.500000  1
  Al  Al5  1  0.996885  0.761771  0.500000  1
  Si  Si6  1  0.672364  0.339413  0.500000  1
  Si  Si7  1  0.332950  0.660586  0.500000  1
  Pt  Pt8  1  0.999336  0.000000  0.000000  1
