# generated using pymatgen
data_Nb2I5F3
_symmetry_space_group_name_H-M   'P 1'
_cell_length_a   7.90095092
_cell_length_b   7.90095116
_cell_length_c   7.93548632
_cell_angle_alpha   122.58058833
_cell_angle_beta   112.03966892
_cell_angle_gamma   94.71917968
_symmetry_Int_Tables_number   1
_chemical_formula_structural   Nb2I5F3
_chemical_formula_sum   'Nb2 I5 F3'
_cell_volume   360.36626530
_cell_formula_units_Z   1
loop_
 _symmetry_equiv_pos_site_id
 _symmetry_equiv_pos_as_xyz
  1  'x, y, z'
loop_
 _atom_site_type_symbol
 _atom_site_label
 _atom_site_symmetry_multiplicity
 _atom_site_fract_x
 _atom_site_fract_y
 _atom_site_fract_z
 _atom_site_occupancy
  Nb  Nb0  1  0.990027  0.292909  0.282936  1
  Nb  Nb1  1  0.997722  0.710305  0.708028  1
  I  I2  1  0.807190  0.823900  0.984930  1
  I  I3  1  0.161030  0.177741  0.984930  1
  I  I4  1  0.775595  0.287600  0.491412  1
  I  I5  1  0.203812  0.715817  0.491412  1
  I  I6  1  0.303706  0.720097  0.023801  1
  F  F7  1  0.774101  0.286098  0.060200  1
  F  F8  1  0.205593  0.269176  0.474768  1
  F  F9  1  0.781225  0.716358  0.497583  1
