# generated using pymatgen
data_Tm4Ga2B4Ir9Ru
_symmetry_space_group_name_H-M   'P 1'
_cell_length_a   9.57097257
_cell_length_b   9.57097257
_cell_length_c   3.11828200
_cell_angle_alpha   90.00000000
_cell_angle_beta   90.00000000
_cell_angle_gamma   89.59571285
_symmetry_Int_Tables_number   1
_chemical_formula_structural   Tm4Ga2B4Ir9Ru
_chemical_formula_sum   'Tm4 Ga2 B4 Ir9 Ru1'
_cell_volume   285.63848366
_cell_formula_units_Z   1
loop_
 _symmetry_equiv_pos_site_id
 _symmetry_equiv_pos_as_xyz
  1  'x, y, z'
loop_
 _atom_site_type_symbol
 _atom_site_label
 _atom_site_symmetry_multiplicity
 _atom_site_fract_x
 _atom_site_fract_y
 _atom_site_fract_z
 _atom_site_occupancy
  Tm  Tm0  1  0.823340  0.323340  0.000000  1
  Tm  Tm1  1  0.176660  0.676660  0.000000  1
  Tm  Tm2  1  0.326211  0.173789  0.000000  1
  Tm  Tm3  1  0.673789  0.826211  0.000000  1
  Ga  Ga4  1  0.500000  0.500000  0.000000  1
  Ga  Ga5  1  0.000000  0.000000  0.000000  1
  B  B6  1  0.621611  0.121611  0.000000  1
  B  B7  1  0.378389  0.878389  0.000000  1
  B  B8  1  0.123218  0.376782  0.000000  1
  B  B9  1  0.876782  0.623218  0.000000  1
  Ir  Ir10  1  0.000000  0.500000  0.500000  1
  Ir  Ir11  1  0.718421  0.569636  0.500000  1
  Ir  Ir12  1  0.281579  0.430364  0.500000  1
  Ir  Ir13  1  0.217729  0.930835  0.500000  1
  Ir  Ir14  1  0.782271  0.069165  0.500000  1
  Ir  Ir15  1  0.430835  0.717729  0.500000  1
  Ir  Ir16  1  0.569165  0.282271  0.500000  1
  Ir  Ir17  1  0.069636  0.218421  0.500000  1
  Ir  Ir18  1  0.930364  0.781579  0.500000  1
  Ru  Ru19  1  0.500000  0.000000  0.500000  1
