# generated using pymatgen
data_Yb7Hf(Si3Pd)4
_symmetry_space_group_name_H-M   'P 1'
_cell_length_a   8.23776300
_cell_length_b   8.23776236
_cell_length_c   7.95954800
_cell_angle_alpha   90.00000000
_cell_angle_beta   90.00000000
_cell_angle_gamma   120.00000659
_symmetry_Int_Tables_number   1
_chemical_formula_structural   Yb7Hf(Si3Pd)4
_chemical_formula_sum   'Yb7 Hf1 Si12 Pd4'
_cell_volume   467.77559680
_cell_formula_units_Z   1
loop_
 _symmetry_equiv_pos_site_id
 _symmetry_equiv_pos_as_xyz
  1  'x, y, z'
loop_
 _atom_site_type_symbol
 _atom_site_label
 _atom_site_symmetry_multiplicity
 _atom_site_fract_x
 _atom_site_fract_y
 _atom_site_fract_z
 _atom_site_occupancy
  Yb  Yb0  1  0.501426  0.002852  0.250000  1
  Yb  Yb1  1  0.498295  0.996591  0.750000  1
  Yb  Yb2  1  0.997148  0.498574  0.250000  1
  Yb  Yb3  1  0.003409  0.501705  0.750000  1
  Yb  Yb4  1  0.501426  0.498574  0.250000  1
  Yb  Yb5  1  0.498295  0.501705  0.750000  1
  Yb  Yb6  1  0.000000  0.000000  0.250000  1
  Hf  Hf7  1  0.000000  0.000000  0.750000  1
  Si  Si8  1  0.162727  0.325454  0.992523  1
  Si  Si9  1  0.837691  0.675382  0.989459  1
  Si  Si10  1  0.674546  0.837273  0.992523  1
  Si  Si11  1  0.837691  0.675382  0.510541  1
  Si  Si12  1  0.324618  0.162309  0.989459  1
  Si  Si13  1  0.162727  0.325454  0.507477  1
  Si  Si14  1  0.162727  0.837273  0.992523  1
  Si  Si15  1  0.324618  0.162309  0.510541  1
  Si  Si16  1  0.837691  0.162309  0.989459  1
  Si  Si17  1  0.674546  0.837273  0.507477  1
  Si  Si18  1  0.837691  0.162309  0.510541  1
  Si  Si19  1  0.162727  0.837273  0.507477  1
  Pd  Pd20  1  0.333333  0.666667  0.002875  1
  Pd  Pd21  1  0.666667  0.333333  0.995404  1
  Pd  Pd22  1  0.666667  0.333333  0.504596  1
  Pd  Pd23  1  0.333333  0.666667  0.497125  1
