# generated using pymatgen
data_YbCu(Sb4Ru)3
_symmetry_space_group_name_H-M   'P 1'
_cell_length_a   8.13494872
_cell_length_b   8.13494794
_cell_length_c   8.13494809
_cell_angle_alpha   109.43851673
_cell_angle_beta   109.43851973
_cell_angle_gamma   109.43851547
_symmetry_Int_Tables_number   1
_chemical_formula_structural   YbCu(Sb4Ru)3
_chemical_formula_sum   'Yb1 Cu1 Sb12 Ru3'
_cell_volume   414.92273178
_cell_formula_units_Z   1
loop_
 _symmetry_equiv_pos_site_id
 _symmetry_equiv_pos_as_xyz
  1  'x, y, z'
loop_
 _atom_site_type_symbol
 _atom_site_label
 _atom_site_symmetry_multiplicity
 _atom_site_fract_x
 _atom_site_fract_y
 _atom_site_fract_z
 _atom_site_occupancy
  Yb  Yb0  1  0.000000  0.000000  0.000000  1
  Cu  Cu1  1  0.500000  0.500000  0.500000  1
  Sb  Sb2  1  0.847666  0.662346  0.503979  1
  Sb  Sb3  1  0.152334  0.337654  0.496021  1
  Sb  Sb4  1  0.158127  0.661890  0.819134  1
  Sb  Sb5  1  0.841873  0.338110  0.180866  1
  Sb  Sb6  1  0.662346  0.503979  0.847666  1
  Sb  Sb7  1  0.337654  0.496021  0.152334  1
  Sb  Sb8  1  0.661890  0.819134  0.158127  1
  Sb  Sb9  1  0.338110  0.180866  0.841873  1
  Sb  Sb10  1  0.503979  0.847666  0.662346  1
  Sb  Sb11  1  0.496021  0.152334  0.337654  1
  Sb  Sb12  1  0.180866  0.841873  0.338110  1
  Sb  Sb13  1  0.819134  0.158127  0.661890  1
  Ru  Ru14  1  0.500000  0.000000  0.000000  1
  Ru  Ru15  1  0.000000  0.500000  0.000000  1
  Ru  Ru16  1  0.000000  0.000000  0.500000  1
