# generated using pymatgen
data_Rb5Na(Al2P3)2
_symmetry_space_group_name_H-M   'P 1'
_cell_length_a   6.14893100
_cell_length_b   7.51362094
_cell_length_c   10.47345297
_cell_angle_alpha   69.39091773
_cell_angle_beta   90.00000000
_cell_angle_gamma   90.00000000
_symmetry_Int_Tables_number   1
_chemical_formula_structural   Rb5Na(Al2P3)2
_chemical_formula_sum   'Rb5 Na1 Al4 P6'
_cell_volume   452.91465903
_cell_formula_units_Z   1
loop_
 _symmetry_equiv_pos_site_id
 _symmetry_equiv_pos_as_xyz
  1  'x, y, z'
loop_
 _atom_site_type_symbol
 _atom_site_label
 _atom_site_symmetry_multiplicity
 _atom_site_fract_x
 _atom_site_fract_y
 _atom_site_fract_z
 _atom_site_occupancy
  Rb  Rb0  1  0.750000  0.600889  0.510195  1
  Rb  Rb1  1  0.750000  0.153768  0.868069  1
  Rb  Rb2  1  0.750000  0.508800  0.144291  1
  Rb  Rb3  1  0.250000  0.488789  0.864824  1
  Rb  Rb4  1  0.250000  0.852140  0.122674  1
  Na  Na5  1  0.250000  0.362095  0.491303  1
  Al  Al6  1  0.000211  0.069227  0.345315  1
  Al  Al7  1  0.499983  0.929571  0.654487  1
  Al  Al8  1  0.499789  0.069227  0.345315  1
  Al  Al9  1  0.000017  0.929571  0.654487  1
  P  P10  1  0.250000  0.817984  0.503495  1
  P  P11  1  0.750000  0.163899  0.496400  1
  P  P12  1  0.250000  0.312584  0.231639  1
  P  P13  1  0.750000  0.703635  0.792403  1
  P  P14  1  0.250000  0.074982  0.758350  1
  P  P15  1  0.750000  0.962839  0.216753  1
