# generated using pymatgen
data_Hf18FeRe6PW2
_symmetry_space_group_name_H-M   'P 1'
_cell_length_a   8.56108600
_cell_length_b   8.59461249
_cell_length_c   8.59461300
_cell_angle_alpha   119.99919001
_cell_angle_beta   90.00000000
_cell_angle_gamma   90.00000000
_symmetry_Int_Tables_number   1
_chemical_formula_structural   Hf18FeRe6PW2
_chemical_formula_sum   'Hf18 Fe1 Re6 P1 W2'
_cell_volume   547.66585150
_cell_formula_units_Z   1
loop_
 _symmetry_equiv_pos_site_id
 _symmetry_equiv_pos_as_xyz
  1  'x, y, z'
loop_
 _atom_site_type_symbol
 _atom_site_label
 _atom_site_symmetry_multiplicity
 _atom_site_fract_x
 _atom_site_fract_y
 _atom_site_fract_z
 _atom_site_occupancy
  Hf  Hf0  1  0.549434  0.804498  0.608994  1
  Hf  Hf1  1  0.549425  0.804473  0.195527  1
  Hf  Hf2  1  0.549434  0.391006  0.195502  1
  Hf  Hf3  1  0.442579  0.201521  0.403035  1
  Hf  Hf4  1  0.442543  0.201536  0.798464  1
  Hf  Hf5  1  0.442579  0.596965  0.798479  1
  Hf  Hf6  1  0.057421  0.201521  0.403035  1
  Hf  Hf7  1  0.057457  0.201536  0.798464  1
  Hf  Hf8  1  0.057421  0.596965  0.798479  1
  Hf  Hf9  1  0.950566  0.804498  0.608994  1
  Hf  Hf10  1  0.950575  0.804473  0.195527  1
  Hf  Hf11  1  0.950566  0.391006  0.195502  1
  Hf  Hf12  1  0.750000  0.459363  0.918751  1
  Hf  Hf13  1  0.750000  0.459376  0.540624  1
  Hf  Hf14  1  0.750000  0.081249  0.540636  1
  Hf  Hf15  1  0.250000  0.540130  0.080258  1
  Hf  Hf16  1  0.250000  0.540103  0.459897  1
  Hf  Hf17  1  0.250000  0.919742  0.459869  1
  Fe  Fe18  1  0.250000  0.333404  0.666596  1
  Re  Re19  1  0.750000  0.111117  0.222271  1
  Re  Re20  1  0.750000  0.111118  0.888882  1
  Re  Re21  1  0.750000  0.777729  0.888883  1
  Re  Re22  1  0.250000  0.888431  0.776834  1
  Re  Re23  1  0.250000  0.888427  0.111573  1
  Re  Re24  1  0.250000  0.223166  0.111569  1
  P  P25  1  0.750000  0.666650  0.333350  1
  W  W26  1  0.499384  0.999997  0.000003  1
  W  W27  1  0.000616  0.999997  0.000003  1
