# generated using pymatgen
data_LaTh(AlRu)2
_symmetry_space_group_name_H-M   'P 1'
_cell_length_a   4.13056300
_cell_length_b   7.31269000
_cell_length_c   16.44458800
_cell_angle_alpha   90.00000000
_cell_angle_beta   90.00000000
_cell_angle_gamma   90.00000000
_symmetry_Int_Tables_number   1
_chemical_formula_structural   LaTh(AlRu)2
_chemical_formula_sum   'La4 Th4 Al8 Ru8'
_cell_volume   496.71744264
_cell_formula_units_Z   4
loop_
 _symmetry_equiv_pos_site_id
 _symmetry_equiv_pos_as_xyz
  1  'x, y, z'
loop_
 _atom_site_type_symbol
 _atom_site_label
 _atom_site_symmetry_multiplicity
 _atom_site_fract_x
 _atom_site_fract_y
 _atom_site_fract_z
 _atom_site_occupancy
  La  La0  1  0.250000  0.663806  0.560193  1
  La  La1  1  0.750000  0.336194  0.439807  1
  La  La2  1  0.750000  0.836194  0.060193  1
  La  La3  1  0.250000  0.163806  0.939807  1
  Th  Th4  1  0.250000  0.526345  0.780436  1
  Th  Th5  1  0.750000  0.473655  0.219564  1
  Th  Th6  1  0.750000  0.973655  0.280436  1
  Th  Th7  1  0.250000  0.026345  0.719564  1
  Al  Al8  1  0.250000  0.647864  0.349805  1
  Al  Al9  1  0.750000  0.352136  0.650195  1
  Al  Al10  1  0.750000  0.852136  0.849805  1
  Al  Al11  1  0.250000  0.147864  0.150195  1
  Al  Al12  1  0.250000  0.502942  0.062526  1
  Al  Al13  1  0.750000  0.497058  0.937474  1
  Al  Al14  1  0.750000  0.997058  0.562526  1
  Al  Al15  1  0.250000  0.002942  0.437474  1
  Ru  Ru16  1  0.250000  0.761164  0.189579  1
  Ru  Ru17  1  0.750000  0.238836  0.810421  1
  Ru  Ru18  1  0.750000  0.738836  0.689579  1
  Ru  Ru19  1  0.250000  0.261164  0.310421  1
  Ru  Ru20  1  0.250000  0.718596  0.928838  1
  Ru  Ru21  1  0.750000  0.281404  0.071162  1
  Ru  Ru22  1  0.750000  0.781404  0.428838  1
  Ru  Ru23  1  0.250000  0.218596  0.571162  1
