# generated using pymatgen
data_Tc3P4Pd
_symmetry_space_group_name_H-M   'P 1'
_cell_length_a   3.14797500
_cell_length_b   5.70141947
_cell_length_c   6.26916935
_cell_angle_alpha   89.11796858
_cell_angle_beta   90.00000000
_cell_angle_gamma   90.00000000
_symmetry_Int_Tables_number   1
_chemical_formula_structural   Tc3P4Pd
_chemical_formula_sum   'Tc3 P4 Pd1'
_cell_volume   112.50525492
_cell_formula_units_Z   1
loop_
 _symmetry_equiv_pos_site_id
 _symmetry_equiv_pos_as_xyz
  1  'x, y, z'
loop_
 _atom_site_type_symbol
 _atom_site_label
 _atom_site_symmetry_multiplicity
 _atom_site_fract_x
 _atom_site_fract_y
 _atom_site_fract_z
 _atom_site_occupancy
  Tc  Tc0  1  0.250000  0.507232  0.693582  1
  Tc  Tc1  1  0.750000  0.497816  0.296472  1
  Tc  Tc2  1  0.250000  0.005867  0.797257  1
  P  P3  1  0.250000  0.680026  0.051640  1
  P  P4  1  0.750000  0.307325  0.935020  1
  P  P5  1  0.250000  0.203212  0.444111  1
  P  P6  1  0.750000  0.800421  0.571532  1
  Pd  Pd7  1  0.750000  0.998100  0.210386  1
