# generated using pymatgen
data_Y15TmCdIn3Rh4
_symmetry_space_group_name_H-M   'P 1'
_cell_length_a   9.67908441
_cell_length_b   9.67908364
_cell_length_c   9.67908361
_cell_angle_alpha   60.04163817
_cell_angle_beta   60.04164334
_cell_angle_gamma   60.04164318
_symmetry_Int_Tables_number   1
_chemical_formula_structural   Y15TmCdIn3Rh4
_chemical_formula_sum   'Y15 Tm1 Cd1 In3 Rh4'
_cell_volume   641.79671161
_cell_formula_units_Z   1
loop_
 _symmetry_equiv_pos_site_id
 _symmetry_equiv_pos_as_xyz
  1  'x, y, z'
loop_
 _atom_site_type_symbol
 _atom_site_label
 _atom_site_symmetry_multiplicity
 _atom_site_fract_x
 _atom_site_fract_y
 _atom_site_fract_z
 _atom_site_occupancy
  Y  Y0  1  0.061439  0.061439  0.438248  1
  Y  Y1  1  0.436865  0.063617  0.436865  1
  Y  Y2  1  0.061439  0.438248  0.061439  1
  Y  Y3  1  0.050949  0.648544  0.648544  1
  Y  Y4  1  0.436865  0.436865  0.063617  1
  Y  Y5  1  0.648544  0.050949  0.648544  1
  Y  Y6  1  0.188888  0.812846  0.188888  1
  Y  Y7  1  0.188888  0.188888  0.812846  1
  Y  Y8  1  0.809439  0.809439  0.191729  1
  Y  Y9  1  0.438248  0.061439  0.061439  1
  Y  Y10  1  0.812846  0.188888  0.188888  1
  Y  Y11  1  0.063617  0.436865  0.436865  1
  Y  Y12  1  0.809439  0.191729  0.809439  1
  Y  Y13  1  0.191729  0.809439  0.809439  1
  Y  Y14  1  0.648544  0.648544  0.050949  1
  Tm  Tm15  1  0.652462  0.652462  0.652462  1
  Cd  Cd16  1  0.417872  0.417872  0.417872  1
  In  In17  1  0.747563  0.417801  0.417801  1
  In  In18  1  0.417801  0.747563  0.417801  1
  In  In19  1  0.417801  0.417801  0.747563  1
  Rh  Rh20  1  0.856645  0.856645  0.428432  1
  Rh  Rh21  1  0.857040  0.857040  0.857040  1
  Rh  Rh22  1  0.428432  0.856645  0.856645  1
  Rh  Rh23  1  0.856645  0.428432  0.856645  1
