# generated using pymatgen
data_CeSmTm2(NiAs)4
_symmetry_space_group_name_H-M   'P 1'
_cell_length_a   4.07239900
_cell_length_b   4.07239926
_cell_length_c   15.37673400
_cell_angle_alpha   90.00000000
_cell_angle_beta   90.00000000
_cell_angle_gamma   120.00000601
_symmetry_Int_Tables_number   1
_chemical_formula_structural   CeSmTm2(NiAs)4
_chemical_formula_sum   'Ce1 Sm1 Tm2 Ni4 As4'
_cell_volume   220.84897045
_cell_formula_units_Z   1
loop_
 _symmetry_equiv_pos_site_id
 _symmetry_equiv_pos_as_xyz
  1  'x, y, z'
loop_
 _atom_site_type_symbol
 _atom_site_label
 _atom_site_symmetry_multiplicity
 _atom_site_fract_x
 _atom_site_fract_y
 _atom_site_fract_z
 _atom_site_occupancy
  Ce  Ce0  1  0.000000  0.000000  0.000000  1
  Sm  Sm1  1  0.000000  0.000000  0.500000  1
  Tm  Tm2  1  0.000000  0.000000  0.251933  1
  Tm  Tm3  1  0.000000  0.000000  0.748067  1
  Ni  Ni4  1  0.333333  0.666667  0.140342  1
  Ni  Ni5  1  0.666667  0.333333  0.859658  1
  Ni  Ni6  1  0.666667  0.333333  0.642198  1
  Ni  Ni7  1  0.333333  0.666667  0.357802  1
  As  As8  1  0.333333  0.666667  0.623338  1
  As  As9  1  0.666667  0.333333  0.376662  1
  As  As10  1  0.666667  0.333333  0.122448  1
  As  As11  1  0.333333  0.666667  0.877552  1
