# generated using pymatgen
data_La8Yb(CdAu4)5
_symmetry_space_group_name_H-M   'P 1'
_cell_length_a   8.85187252
_cell_length_b   8.85187200
_cell_length_c   10.48808900
_cell_angle_alpha   89.98039410
_cell_angle_beta   89.98039410
_cell_angle_gamma   108.57895856
_symmetry_Int_Tables_number   1
_chemical_formula_structural   La8Yb(CdAu4)5
_chemical_formula_sum   'La8 Yb1 Cd5 Au20'
_cell_volume   778.97305711
_cell_formula_units_Z   1
loop_
 _symmetry_equiv_pos_site_id
 _symmetry_equiv_pos_as_xyz
  1  'x, y, z'
loop_
 _atom_site_type_symbol
 _atom_site_label
 _atom_site_symmetry_multiplicity
 _atom_site_fract_x
 _atom_site_fract_y
 _atom_site_fract_z
 _atom_site_occupancy
  La  La0  1  0.701585  0.298433  0.999991  1
  La  La1  1  0.298415  0.701567  0.000009  1
  La  La2  1  0.798848  0.201156  0.499996  1
  La  La3  1  0.201152  0.798844  0.500004  1
  La  La4  1  0.297454  0.297445  0.199791  1
  La  La5  1  0.702546  0.702555  0.800209  1
  La  La6  1  0.196897  0.196924  0.709008  1
  La  La7  1  0.803103  0.803076  0.290992  1
  Yb  Yb8  1  0.500000  0.500000  0.500000  1
  Cd  Cd9  1  0.015801  0.516222  0.250303  1
  Cd  Cd10  1  0.984199  0.483778  0.749697  1
  Cd  Cd11  1  0.483777  0.984200  0.749696  1
  Cd  Cd12  1  0.516223  0.015800  0.250304  1
  Cd  Cd13  1  0.000000  0.000000  0.000000  1
  Au  Au14  1  0.095621  0.095625  0.404505  1
  Au  Au15  1  0.904379  0.904375  0.595495  1
  Au  Au16  1  0.405583  0.405571  0.903703  1
  Au  Au17  1  0.594417  0.594429  0.096297  1
  Au  Au18  1  0.888381  0.165908  0.206632  1
  Au  Au19  1  0.111619  0.834092  0.793368  1
  Au  Au20  1  0.613081  0.336488  0.706858  1
  Au  Au21  1  0.663495  0.386907  0.293139  1
  Au  Au22  1  0.386919  0.663512  0.293142  1
  Au  Au23  1  0.336505  0.613093  0.706861  1
  Au  Au24  1  0.834082  0.111614  0.793361  1
  Au  Au25  1  0.165918  0.888386  0.206639  1
  Au  Au26  1  0.930836  0.655571  0.019445  1
  Au  Au27  1  0.069164  0.344429  0.980555  1
  Au  Au28  1  0.569663  0.844123  0.520220  1
  Au  Au29  1  0.155887  0.430338  0.479779  1
  Au  Au30  1  0.430337  0.155877  0.479780  1
  Au  Au31  1  0.844113  0.569662  0.520221  1
  Au  Au32  1  0.344434  0.069161  0.980565  1
  Au  Au33  1  0.655566  0.930839  0.019435  1
