# generated using pymatgen
data_VP3WO12
_symmetry_space_group_name_H-M   'P 1'
_cell_length_a   8.67979291
_cell_length_b   8.65604586
_cell_length_c   8.93592246
_cell_angle_alpha   90.41029057
_cell_angle_beta   118.59672825
_cell_angle_gamma   119.92921984
_symmetry_Int_Tables_number   1
_chemical_formula_structural   VP3WO12
_chemical_formula_sum   'V2 P6 W2 O24'
_cell_volume   483.43999880
_cell_formula_units_Z   2
loop_
 _symmetry_equiv_pos_site_id
 _symmetry_equiv_pos_as_xyz
  1  'x, y, z'
loop_
 _atom_site_type_symbol
 _atom_site_label
 _atom_site_symmetry_multiplicity
 _atom_site_fract_x
 _atom_site_fract_y
 _atom_site_fract_z
 _atom_site_occupancy
  V  V0  1  0.790461  0.642685  0.435127  1
  V  V1  1  0.788459  0.145109  0.928558  1
  P  P2  1  0.985219  0.957446  0.242209  1
  P  P3  1  0.998379  0.032774  0.749878  1
  P  P4  1  0.715986  0.252856  0.250609  1
  P  P5  1  0.282902  0.754066  0.744319  1
  P  P6  1  0.285999  0.531440  0.245335  1
  P  P7  1  0.717467  0.464092  0.749851  1
  W  W8  1  0.212834  0.857995  0.073189  1
  W  W9  1  0.212276  0.357511  0.568360  1
  O  O10  1  0.152111  0.020528  0.926318  1
  O  O11  1  0.263931  0.500507  0.412280  1
  O  O12  1  0.855613  0.986822  0.074615  1
  O  O13  1  0.518752  0.078060  0.232513  1
  O  O14  1  0.851368  0.068122  0.760005  1
  O  O15  1  0.719948  0.428481  0.290886  1
  O  O16  1  0.139557  0.142210  0.410764  1
  O  O17  1  0.734813  0.500131  0.590969  1
  O  O18  1  0.725014  0.232936  0.089096  1
  O  O19  1  0.273326  0.566003  0.721220  1
  O  O20  1  0.090728  0.725565  0.575131  1
  O  O21  1  0.297043  0.714363  0.230019  1
  O  O22  1  0.494550  0.564088  0.291517  1
  O  O23  1  0.154094  0.205593  0.715937  1
  O  O24  1  0.145543  0.932644  0.227330  1
  O  O25  1  0.694022  0.283420  0.771805  1
  O  O26  1  0.488510  0.913856  0.775491  1
  O  O27  1  0.096157  0.364046  0.078456  1
  O  O28  1  0.913827  0.272900  0.422803  1
  O  O29  1  0.271005  0.773341  0.913208  1
  O  O30  1  0.872715  0.858073  0.589170  1
  O  O31  1  0.847082  0.790801  0.279218  1
  O  O32  1  0.902946  0.636686  0.923381  1
  O  O33  1  0.507362  0.444847  0.710436  1
