# generated using pymatgen
data_Hf3Sc5(InCu2)4
_symmetry_space_group_name_H-M   'P 1'
_cell_length_a   7.23914494
_cell_length_b   7.23914494
_cell_length_c   6.82930900
_cell_angle_alpha   90.00000000
_cell_angle_beta   90.00000000
_cell_angle_gamma   90.14683386
_symmetry_Int_Tables_number   1
_chemical_formula_structural   Hf3Sc5(InCu2)4
_chemical_formula_sum   'Hf3 Sc5 In4 Cu8'
_cell_volume   357.89026197
_cell_formula_units_Z   1
loop_
 _symmetry_equiv_pos_site_id
 _symmetry_equiv_pos_as_xyz
  1  'x, y, z'
loop_
 _atom_site_type_symbol
 _atom_site_label
 _atom_site_symmetry_multiplicity
 _atom_site_fract_x
 _atom_site_fract_y
 _atom_site_fract_z
 _atom_site_occupancy
  Hf  Hf0  1  0.648805  0.347640  0.500000  1
  Hf  Hf1  1  0.347640  0.648805  0.500000  1
  Hf  Hf2  1  0.186152  0.186152  0.500000  1
  Sc  Sc3  1  0.153714  0.153714  0.000000  1
  Sc  Sc4  1  0.845877  0.845877  0.000000  1
  Sc  Sc5  1  0.687402  0.314044  0.000000  1
  Sc  Sc6  1  0.314044  0.687402  0.000000  1
  Sc  Sc7  1  0.814188  0.814188  0.500000  1
  In  In8  1  0.501736  0.998952  0.249843  1
  In  In9  1  0.501736  0.998952  0.750157  1
  In  In10  1  0.998952  0.501736  0.249843  1
  In  In11  1  0.998952  0.501736  0.750157  1
  Cu  Cu12  1  0.376322  0.376322  0.213447  1
  Cu  Cu13  1  0.622031  0.622031  0.784216  1
  Cu  Cu14  1  0.622031  0.622031  0.215784  1
  Cu  Cu15  1  0.876719  0.125328  0.707025  1
  Cu  Cu16  1  0.876719  0.125328  0.292975  1
  Cu  Cu17  1  0.376322  0.376322  0.786553  1
  Cu  Cu18  1  0.125328  0.876719  0.292975  1
  Cu  Cu19  1  0.125328  0.876719  0.707025  1
