# generated using pymatgen
data_La16Cd4Fe3Pd
_symmetry_space_group_name_H-M   'P 1'
_cell_length_a   9.99889864
_cell_length_b   10.07007094
_cell_length_c   10.07508319
_cell_angle_alpha   59.62278765
_cell_angle_beta   59.27806284
_cell_angle_gamma   59.26992829
_symmetry_Int_Tables_number   1
_chemical_formula_structural   La16Cd4Fe3Pd
_chemical_formula_sum   'La16 Cd4 Fe3 Pd1'
_cell_volume   707.35717260
_cell_formula_units_Z   1
loop_
 _symmetry_equiv_pos_site_id
 _symmetry_equiv_pos_as_xyz
  1  'x, y, z'
loop_
 _atom_site_type_symbol
 _atom_site_label
 _atom_site_symmetry_multiplicity
 _atom_site_fract_x
 _atom_site_fract_y
 _atom_site_fract_z
 _atom_site_occupancy
  La  La0  1  0.331267  0.351711  0.351596  1
  La  La1  1  0.334346  0.352337  0.960106  1
  La  La2  1  0.333661  0.960975  0.352168  1
  La  La3  1  0.958907  0.346103  0.345376  1
  La  La4  1  0.831379  0.187755  0.188108  1
  La  La5  1  0.191925  0.810069  0.811210  1
  La  La6  1  0.193601  0.810801  0.185957  1
  La  La7  1  0.837857  0.187081  0.790142  1
  La  La8  1  0.193924  0.185891  0.811206  1
  La  La9  1  0.836758  0.790369  0.187694  1
  La  La10  1  0.938401  0.560827  0.561221  1
  La  La11  1  0.561786  0.942958  0.943287  1
  La  La12  1  0.564416  0.939645  0.557640  1
  La  La13  1  0.939935  0.557921  0.943304  1
  La  La14  1  0.564469  0.557039  0.939940  1
  La  La15  1  0.939657  0.943197  0.558351  1
  Cd  Cd16  1  0.576690  0.578925  0.578589  1
  Cd  Cd17  1  0.576902  0.579138  0.263577  1
  Cd  Cd18  1  0.576930  0.263692  0.578911  1
  Cd  Cd19  1  0.261550  0.579278  0.578857  1
  Fe  Fe20  1  0.128681  0.143004  0.141787  1
  Fe  Fe21  1  0.121405  0.141177  0.592297  1
  Fe  Fe22  1  0.123177  0.591781  0.140554  1
  Pd  Pd23  1  0.582375  0.138326  0.138119  1
