# generated using pymatgen
data_Dy3YTa4(Co4P3)4
_symmetry_space_group_name_H-M   'P 1'
_cell_length_a   3.69488200
_cell_length_b   10.54495501
_cell_length_c   12.00863701
_cell_angle_alpha   90.00515192
_cell_angle_beta   90.00000000
_cell_angle_gamma   90.00000000
_symmetry_Int_Tables_number   1
_chemical_formula_structural   Dy3YTa4(Co4P3)4
_chemical_formula_sum   'Dy3 Y1 Ta4 Co16 P12'
_cell_volume   467.88489004
_cell_formula_units_Z   1
loop_
 _symmetry_equiv_pos_site_id
 _symmetry_equiv_pos_as_xyz
  1  'x, y, z'
loop_
 _atom_site_type_symbol
 _atom_site_label
 _atom_site_symmetry_multiplicity
 _atom_site_fract_x
 _atom_site_fract_y
 _atom_site_fract_z
 _atom_site_occupancy
  Dy  Dy0  1  0.250000  0.917642  0.205449  1
  Dy  Dy1  1  0.750000  0.417625  0.294706  1
  Dy  Dy2  1  0.750000  0.082358  0.794545  1
  Y  Y3  1  0.250000  0.582472  0.705372  1
  Ta  Ta4  1  0.250000  0.706473  0.989110  1
  Ta  Ta5  1  0.250000  0.793477  0.488973  1
  Ta  Ta6  1  0.750000  0.293509  0.010947  1
  Ta  Ta7  1  0.750000  0.206482  0.510926  1
  Co  Co8  1  0.250000  0.406337  0.489675  1
  Co  Co9  1  0.250000  0.093556  0.989774  1
  Co  Co10  1  0.750000  0.593498  0.509986  1
  Co  Co11  1  0.750000  0.906412  0.010258  1
  Co  Co12  1  0.250000  0.222500  0.177004  1
  Co  Co13  1  0.250000  0.277448  0.676931  1
  Co  Co14  1  0.750000  0.777575  0.823090  1
  Co  Co15  1  0.750000  0.722522  0.323006  1
  Co  Co16  1  0.250000  0.888108  0.700858  1
  Co  Co17  1  0.250000  0.612028  0.200869  1
  Co  Co18  1  0.750000  0.112039  0.299094  1
  Co  Co19  1  0.750000  0.387813  0.799250  1
  Co  Co20  1  0.250000  0.465042  0.933253  1
  Co  Co21  1  0.250000  0.034900  0.433158  1
  Co  Co22  1  0.750000  0.534915  0.066880  1
  Co  Co23  1  0.750000  0.965157  0.566842  1
  P  P24  1  0.250000  0.422232  0.116424  1
  P  P25  1  0.250000  0.077767  0.616356  1
  P  P26  1  0.750000  0.577726  0.883790  1
  P  P27  1  0.750000  0.922238  0.383610  1
  P  P28  1  0.250000  0.269196  0.861630  1
  P  P29  1  0.250000  0.230794  0.361658  1
  P  P30  1  0.750000  0.730817  0.138389  1
  P  P31  1  0.750000  0.769468  0.638284  1
  P  P32  1  0.250000  0.591558  0.389863  1
  P  P33  1  0.250000  0.908549  0.889842  1
  P  P34  1  0.750000  0.408287  0.610045  1
  P  P35  1  0.750000  0.091479  0.110153  1
