# generated using pymatgen
data_Tb20GaBi7Pt4
_symmetry_space_group_name_H-M   'P 1'
_cell_length_a   8.07796416
_cell_length_b   9.04279718
_cell_length_c   12.44010058
_cell_angle_alpha   90.12607043
_cell_angle_beta   89.94546513
_cell_angle_gamma   90.13076316
_symmetry_Int_Tables_number   1
_chemical_formula_structural   Tb20GaBi7Pt4
_chemical_formula_sum   'Tb20 Ga1 Bi7 Pt4'
_cell_volume   908.71192384
_cell_formula_units_Z   1
loop_
 _symmetry_equiv_pos_site_id
 _symmetry_equiv_pos_as_xyz
  1  'x, y, z'
loop_
 _atom_site_type_symbol
 _atom_site_label
 _atom_site_symmetry_multiplicity
 _atom_site_fract_x
 _atom_site_fract_y
 _atom_site_fract_z
 _atom_site_occupancy
  Tb  Tb0  1  0.830570  0.740614  0.788489  1
  Tb  Tb1  1  0.160946  0.248095  0.206445  1
  Tb  Tb2  1  0.343812  0.260036  0.715862  1
  Tb  Tb3  1  0.659647  0.751408  0.288339  1
  Tb  Tb4  1  0.381276  0.739739  0.705665  1
  Tb  Tb5  1  0.626639  0.249805  0.301037  1
  Tb  Tb6  1  0.857585  0.260336  0.800820  1
  Tb  Tb7  1  0.128608  0.750761  0.199492  1
  Tb  Tb8  1  0.951462  0.751456  0.498679  1
  Tb  Tb9  1  0.051576  0.248251  0.502240  1
  Tb  Tb10  1  0.462181  0.263158  0.992572  1
  Tb  Tb11  1  0.548964  0.735877  0.993165  1
  Tb  Tb12  1  0.681598  0.044621  0.568012  1
  Tb  Tb13  1  0.321359  0.954552  0.434107  1
  Tb  Tb14  1  0.181257  0.958127  0.934056  1
  Tb  Tb15  1  0.321180  0.545008  0.433511  1
  Tb  Tb16  1  0.816564  0.041500  0.064688  1
  Tb  Tb17  1  0.674912  0.456247  0.577126  1
  Tb  Tb18  1  0.819635  0.456321  0.063976  1
  Tb  Tb19  1  0.186073  0.542340  0.932071  1
  Ga  Ga20  1  0.566057  0.494112  0.828623  1
  Bi  Bi21  1  0.427985  0.508834  0.174249  1
  Bi  Bi22  1  0.070568  0.510462  0.671230  1
  Bi  Bi23  1  0.429465  0.991140  0.167166  1
  Bi  Bi24  1  0.930102  0.489218  0.327954  1
  Bi  Bi25  1  0.570501  0.008054  0.828539  1
  Bi  Bi26  1  0.928650  0.010605  0.326905  1
  Bi  Bi27  1  0.071690  0.990095  0.675616  1
  Pt  Pt28  1  0.575667  0.749667  0.512465  1
  Pt  Pt29  1  0.426682  0.248981  0.490117  1
  Pt  Pt30  1  0.068364  0.251142  0.986085  1
  Pt  Pt31  1  0.928426  0.749436  0.010701  1
