# generated using pymatgen
data_LuMgMn12P7
_symmetry_space_group_name_H-M   'P 1'
_cell_length_a   9.38698500
_cell_length_b   9.38698584
_cell_length_c   3.42337500
_cell_angle_alpha   90.00000000
_cell_angle_beta   90.00000000
_cell_angle_gamma   120.00000246
_symmetry_Int_Tables_number   1
_chemical_formula_structural   LuMgMn12P7
_chemical_formula_sum   'Lu1 Mg1 Mn12 P7'
_cell_volume   261.23862084
_cell_formula_units_Z   1
loop_
 _symmetry_equiv_pos_site_id
 _symmetry_equiv_pos_as_xyz
  1  'x, y, z'
loop_
 _atom_site_type_symbol
 _atom_site_label
 _atom_site_symmetry_multiplicity
 _atom_site_fract_x
 _atom_site_fract_y
 _atom_site_fract_z
 _atom_site_occupancy
  Lu  Lu0  1  0.666667  0.333333  0.000000  1
  Mg  Mg1  1  0.000000  0.000000  0.500000  1
  Mn  Mn2  1  0.767927  0.722817  0.000000  1
  Mn  Mn3  1  0.277183  0.045111  0.000000  1
  Mn  Mn4  1  0.954889  0.232073  0.000000  1
  Mn  Mn5  1  0.492753  0.941340  0.000000  1
  Mn  Mn6  1  0.058660  0.551413  0.000000  1
  Mn  Mn7  1  0.448587  0.507247  0.000000  1
  Mn  Mn8  1  0.718160  0.100734  0.500000  1
  Mn  Mn9  1  0.899266  0.617427  0.500000  1
  Mn  Mn10  1  0.382573  0.281840  0.500000  1
  Mn  Mn11  1  0.563830  0.766307  0.500000  1
  Mn  Mn12  1  0.233693  0.797523  0.500000  1
  Mn  Mn13  1  0.202477  0.436170  0.500000  1
  P  P14  1  0.456604  0.080438  0.500000  1
  P  P15  1  0.919562  0.376166  0.500000  1
  P  P16  1  0.623834  0.543396  0.500000  1
  P  P17  1  0.750987  0.955184  0.000000  1
  P  P18  1  0.044816  0.795804  0.000000  1
  P  P19  1  0.204196  0.249013  0.000000  1
  P  P20  1  0.333333  0.666667  0.000000  1
