# generated using pymatgen
data_Dy5Ge6P6Rh19
_symmetry_space_group_name_H-M   'P 1'
_cell_length_a   12.95103300
_cell_length_b   12.95103398
_cell_length_c   3.95045000
_cell_angle_alpha   90.00000000
_cell_angle_beta   90.00000000
_cell_angle_gamma   119.99999495
_symmetry_Int_Tables_number   1
_chemical_formula_structural   Dy5Ge6P6Rh19
_chemical_formula_sum   'Dy5 Ge6 P6 Rh19'
_cell_volume   573.83373448
_cell_formula_units_Z   1
loop_
 _symmetry_equiv_pos_site_id
 _symmetry_equiv_pos_as_xyz
  1  'x, y, z'
loop_
 _atom_site_type_symbol
 _atom_site_label
 _atom_site_symmetry_multiplicity
 _atom_site_fract_x
 _atom_site_fract_y
 _atom_site_fract_z
 _atom_site_occupancy
  Dy  Dy0  1  0.333333  0.666667  0.500000  1
  Dy  Dy1  1  0.666667  0.333333  0.500000  1
  Dy  Dy2  1  0.003548  0.820247  0.000000  1
  Dy  Dy3  1  0.179753  0.183301  0.000000  1
  Dy  Dy4  1  0.816699  0.996452  0.000000  1
  Ge  Ge5  1  0.998685  0.634710  0.500000  1
  Ge  Ge6  1  0.365290  0.363974  0.500000  1
  Ge  Ge7  1  0.636026  0.001315  0.500000  1
  Ge  Ge8  1  0.521082  0.677081  0.000000  1
  Ge  Ge9  1  0.322919  0.844000  0.000000  1
  Ge  Ge10  1  0.156000  0.478918  0.000000  1
  P  P11  1  0.482874  0.174380  0.000000  1
  P  P12  1  0.691505  0.517126  0.000000  1
  P  P13  1  0.825620  0.308495  0.000000  1
  P  P14  1  0.992884  0.175120  0.500000  1
  P  P15  1  0.824880  0.817764  0.500000  1
  P  P16  1  0.182236  0.007116  0.500000  1
  Rh  Rh17  1  0.521362  0.870041  0.000000  1
  Rh  Rh18  1  0.129959  0.651322  0.000000  1
  Rh  Rh19  1  0.348678  0.478638  0.000000  1
  Rh  Rh20  1  0.496870  0.364785  0.000000  1
  Rh  Rh21  1  0.867916  0.503130  0.000000  1
  Rh  Rh22  1  0.635215  0.132084  0.000000  1
  Rh  Rh23  1  0.007398  0.450201  0.500000  1
  Rh  Rh24  1  0.549799  0.557197  0.500000  1
  Rh  Rh25  1  0.442803  0.992602  0.500000  1
  Rh  Rh26  1  0.989066  0.269739  0.000000  1
  Rh  Rh27  1  0.730261  0.719327  0.000000  1
  Rh  Rh28  1  0.280673  0.010934  0.000000  1
  Rh  Rh29  1  0.639564  0.809297  0.500000  1
  Rh  Rh30  1  0.190703  0.830267  0.500000  1
  Rh  Rh31  1  0.169733  0.360436  0.500000  1
  Rh  Rh32  1  0.383699  0.179682  0.500000  1
  Rh  Rh33  1  0.795985  0.616301  0.500000  1
  Rh  Rh34  1  0.820318  0.204015  0.500000  1
  Rh  Rh35  1  0.000000  0.000000  0.500000  1
