# generated using pymatgen
data_YLu(Si7Rh3)2
_symmetry_space_group_name_H-M   'P 1'
_cell_length_a   7.98615530
_cell_length_b   7.98615444
_cell_length_c   7.98615563
_cell_angle_alpha   57.08689604
_cell_angle_beta   57.08690035
_cell_angle_gamma   57.08690052
_symmetry_Int_Tables_number   1
_chemical_formula_structural   YLu(Si7Rh3)2
_chemical_formula_sum   'Y1 Lu1 Si14 Rh6'
_cell_volume   335.98082793
_cell_formula_units_Z   1
loop_
 _symmetry_equiv_pos_site_id
 _symmetry_equiv_pos_as_xyz
  1  'x, y, z'
loop_
 _atom_site_type_symbol
 _atom_site_label
 _atom_site_symmetry_multiplicity
 _atom_site_fract_x
 _atom_site_fract_y
 _atom_site_fract_z
 _atom_site_occupancy
  Y  Y0  1  0.500000  0.500000  0.500000  1
  Lu  Lu1  1  0.000000  0.000000  0.000000  1
  Si  Si2  1  0.750060  0.750060  0.750060  1
  Si  Si3  1  0.249940  0.249940  0.249940  1
  Si  Si4  1  0.851877  0.065245  0.672324  1
  Si  Si5  1  0.672324  0.851877  0.065245  1
  Si  Si6  1  0.065245  0.672324  0.851877  1
  Si  Si7  1  0.648540  0.828186  0.434328  1
  Si  Si8  1  0.434328  0.648540  0.828186  1
  Si  Si9  1  0.828186  0.434328  0.648540  1
  Si  Si10  1  0.171814  0.565672  0.351460  1
  Si  Si11  1  0.565672  0.351460  0.171814  1
  Si  Si12  1  0.351460  0.171814  0.565672  1
  Si  Si13  1  0.934755  0.327676  0.148123  1
  Si  Si14  1  0.327676  0.148123  0.934755  1
  Si  Si15  1  0.148123  0.934755  0.327676  1
  Rh  Rh16  1  0.069757  0.428481  0.750855  1
  Rh  Rh17  1  0.249145  0.930243  0.571519  1
  Rh  Rh18  1  0.571519  0.249145  0.930243  1
  Rh  Rh19  1  0.930243  0.571519  0.249145  1
  Rh  Rh20  1  0.428481  0.750855  0.069757  1
  Rh  Rh21  1  0.750855  0.069757  0.428481  1
