# generated using pymatgen
data_Dy3ErAl8
_symmetry_space_group_name_H-M   'P 1'
_cell_length_a   9.63490763
_cell_length_b   9.63490796
_cell_length_c   9.63490788
_cell_angle_alpha   33.51383501
_cell_angle_beta   33.51383240
_cell_angle_gamma   33.51383647
_symmetry_Int_Tables_number   1
_chemical_formula_structural   Dy3ErAl8
_chemical_formula_sum   'Dy3 Er1 Al8'
_cell_volume   242.85685715
_cell_formula_units_Z   1
loop_
 _symmetry_equiv_pos_site_id
 _symmetry_equiv_pos_as_xyz
  1  'x, y, z'
loop_
 _atom_site_type_symbol
 _atom_site_label
 _atom_site_symmetry_multiplicity
 _atom_site_fract_x
 _atom_site_fract_y
 _atom_site_fract_z
 _atom_site_occupancy
  Dy  Dy0  1  0.312582  0.312582  0.312582  1
  Dy  Dy1  1  0.687520  0.687520  0.687520  1
  Dy  Dy2  1  0.187373  0.187373  0.187373  1
  Er  Er3  1  0.812525  0.812525  0.812525  1
  Al  Al4  1  0.499994  0.499994  0.499994  1
  Al  Al5  1  0.000023  0.000023  0.000023  1
  Al  Al6  1  0.249961  0.249961  0.750081  1
  Al  Al7  1  0.749975  0.749975  0.250030  1
  Al  Al8  1  0.249961  0.750081  0.249961  1
  Al  Al9  1  0.749975  0.250030  0.749975  1
  Al  Al10  1  0.750081  0.249961  0.249961  1
  Al  Al11  1  0.250030  0.749975  0.749975  1
