# generated using pymatgen
data_Yb13Tm(InN4)2
_symmetry_space_group_name_H-M   'P 1'
_cell_length_a   3.49998900
_cell_length_b   11.92075800
_cell_length_c   11.41308400
_cell_angle_alpha   89.99715147
_cell_angle_beta   90.00000000
_cell_angle_gamma   90.00000000
_symmetry_Int_Tables_number   1
_chemical_formula_structural   Yb13Tm(InN4)2
_chemical_formula_sum   'Yb13 Tm1 In2 N8'
_cell_volume   476.18264652
_cell_formula_units_Z   1
loop_
 _symmetry_equiv_pos_site_id
 _symmetry_equiv_pos_as_xyz
  1  'x, y, z'
loop_
 _atom_site_type_symbol
 _atom_site_label
 _atom_site_symmetry_multiplicity
 _atom_site_fract_x
 _atom_site_fract_y
 _atom_site_fract_z
 _atom_site_occupancy
  Yb  Yb0  1  0.499412  0.665773  0.240369  1
  Yb  Yb1  1  0.499412  0.334227  0.759631  1
  Yb  Yb2  1  0.500599  0.168425  0.259198  1
  Yb  Yb3  1  0.500599  0.831575  0.740802  1
  Yb  Yb4  1  0.500768  0.000000  0.500000  1
  Yb  Yb5  1  0.999611  0.928834  0.263989  1
  Yb  Yb6  1  0.999611  0.071166  0.736011  1
  Yb  Yb7  1  0.000721  0.426459  0.239282  1
  Yb  Yb8  1  0.000721  0.573541  0.760718  1
  Yb  Yb9  1  0.001905  0.764675  0.480636  1
  Yb  Yb10  1  0.001905  0.235325  0.519364  1
  Yb  Yb11  1  0.997890  0.261980  0.019389  1
  Yb  Yb12  1  0.997890  0.738020  0.980611  1
  Tm  Tm13  1  0.499302  0.500000  0.000000  1
  In  In14  1  0.534527  0.500000  0.500000  1
  In  In15  1  0.464944  0.000000  0.000000  1
  N  N16  1  0.999114  0.592148  0.120128  1
  N  N17  1  0.999114  0.407852  0.879872  1
  N  N18  1  0.000842  0.100690  0.369899  1
  N  N19  1  0.000842  0.899310  0.630101  1
  N  N20  1  0.500542  0.830964  0.357180  1
  N  N21  1  0.500542  0.169036  0.642820  1
  N  N22  1  0.499593  0.341075  0.132911  1
  N  N23  1  0.499593  0.658925  0.867089  1
