# generated using pymatgen
data_Tb6Ti2MnRuC12
_symmetry_space_group_name_H-M   'P 1'
_cell_length_a   8.32868000
_cell_length_b   8.32867860
_cell_length_c   5.06315600
_cell_angle_alpha   90.00000000
_cell_angle_beta   90.00000000
_cell_angle_gamma   120.00000343
_symmetry_Int_Tables_number   1
_chemical_formula_structural   Tb6Ti2MnRuC12
_chemical_formula_sum   'Tb6 Ti2 Mn1 Ru1 C12'
_cell_volume   304.16147438
_cell_formula_units_Z   1
loop_
 _symmetry_equiv_pos_site_id
 _symmetry_equiv_pos_as_xyz
  1  'x, y, z'
loop_
 _atom_site_type_symbol
 _atom_site_label
 _atom_site_symmetry_multiplicity
 _atom_site_fract_x
 _atom_site_fract_y
 _atom_site_fract_z
 _atom_site_occupancy
  Tb  Tb0  1  0.621320  0.682010  0.750000  1
  Tb  Tb1  1  0.945551  0.622309  0.250000  1
  Tb  Tb2  1  0.676759  0.054449  0.250000  1
  Tb  Tb3  1  0.317990  0.939310  0.750000  1
  Tb  Tb4  1  0.060690  0.378680  0.750000  1
  Tb  Tb5  1  0.377691  0.323241  0.250000  1
  Ti  Ti6  1  0.000000  0.000000  0.498165  1
  Ti  Ti7  1  0.000000  0.000000  0.001835  1
  Mn  Mn8  1  0.333333  0.666667  0.250000  1
  Ru  Ru9  1  0.666667  0.333333  0.750000  1
  C  C10  1  0.964138  0.767381  0.750000  1
  C  C11  1  0.200861  0.961193  0.250000  1
  C  C12  1  0.760333  0.799139  0.250000  1
  C  C13  1  0.232619  0.196757  0.750000  1
  C  C14  1  0.803243  0.035862  0.750000  1
  C  C15  1  0.038807  0.239667  0.250000  1
  C  C16  1  0.876770  0.580298  0.750000  1
  C  C17  1  0.291867  0.861244  0.250000  1
  C  C18  1  0.569377  0.708133  0.250000  1
  C  C19  1  0.419702  0.296472  0.750000  1
  C  C20  1  0.138756  0.430623  0.250000  1
  C  C21  1  0.703528  0.123230  0.750000  1
