# generated using pymatgen
data_Ce2PtRhPb
_symmetry_space_group_name_H-M   'P 1'
_cell_length_a   7.88617500
_cell_length_b   7.91350400
_cell_length_c   3.70714400
_cell_angle_alpha   90.00000000
_cell_angle_beta   90.00000000
_cell_angle_gamma   90.00000000
_symmetry_Int_Tables_number   1
_chemical_formula_structural   Ce2PtRhPb
_chemical_formula_sum   'Ce4 Pt2 Rh2 Pb2'
_cell_volume   231.35276400
_cell_formula_units_Z   2
loop_
 _symmetry_equiv_pos_site_id
 _symmetry_equiv_pos_as_xyz
  1  'x, y, z'
loop_
 _atom_site_type_symbol
 _atom_site_label
 _atom_site_symmetry_multiplicity
 _atom_site_fract_x
 _atom_site_fract_y
 _atom_site_fract_z
 _atom_site_occupancy
  Ce  Ce0  1  0.676845  0.177036  0.500000  1
  Ce  Ce1  1  0.168934  0.328375  0.500000  1
  Ce  Ce2  1  0.823155  0.677036  0.500000  1
  Ce  Ce3  1  0.331066  0.828375  0.500000  1
  Pt  Pt4  1  0.375246  0.124950  0.000000  1
  Pt  Pt5  1  0.124754  0.624950  0.000000  1
  Rh  Rh6  1  0.634285  0.864571  0.000000  1
  Rh  Rh7  1  0.865715  0.364571  0.000000  1
  Pb  Pb8  1  0.993834  0.005068  0.000000  1
  Pb  Pb9  1  0.506166  0.505068  0.000000  1
