# generated using pymatgen
data_LiYb3OsO6
_symmetry_space_group_name_H-M   'P 1'
_cell_length_a   6.37387136
_cell_length_b   6.37387352
_cell_length_c   6.37387427
_cell_angle_alpha   91.64940390
_cell_angle_beta   91.64936277
_cell_angle_gamma   91.64934656
_symmetry_Int_Tables_number   1
_chemical_formula_structural   LiYb3OsO6
_chemical_formula_sum   'Li2 Yb6 Os2 O12'
_cell_volume   258.61843574
_cell_formula_units_Z   2
loop_
 _symmetry_equiv_pos_site_id
 _symmetry_equiv_pos_as_xyz
  1  'x, y, z'
loop_
 _atom_site_type_symbol
 _atom_site_label
 _atom_site_symmetry_multiplicity
 _atom_site_fract_x
 _atom_site_fract_y
 _atom_site_fract_z
 _atom_site_occupancy
  Li  Li0  1  0.250000  0.250000  0.250000  1
  Li  Li1  1  0.750000  0.750000  0.750000  1
  Yb  Yb2  1  0.607807  0.250000  0.892192  1
  Yb  Yb3  1  0.392193  0.750000  0.107808  1
  Yb  Yb4  1  0.892192  0.607807  0.250000  1
  Yb  Yb5  1  0.107808  0.392193  0.750000  1
  Yb  Yb6  1  0.250000  0.892192  0.607807  1
  Yb  Yb7  1  0.750000  0.107808  0.392193  1
  Os  Os8  1  0.000000  0.000000  0.000000  1
  Os  Os9  1  0.500000  0.500001  0.500000  1
  O  O10  1  0.204244  0.551976  0.421168  1
  O  O11  1  0.795756  0.448024  0.578832  1
  O  O12  1  0.078830  0.948025  0.295756  1
  O  O13  1  0.921169  0.051976  0.704244  1
  O  O14  1  0.421168  0.204244  0.551977  1
  O  O15  1  0.578832  0.795755  0.448024  1
  O  O16  1  0.948024  0.295756  0.078830  1
  O  O17  1  0.051976  0.704244  0.921170  1
  O  O18  1  0.551977  0.421168  0.204244  1
  O  O19  1  0.448024  0.578832  0.795756  1
  O  O20  1  0.295757  0.078830  0.948024  1
  O  O21  1  0.704243  0.921170  0.051976  1
