# generated using pymatgen
data_Nd2HoEr3(RuO7)2
_symmetry_space_group_name_H-M   'P 1'
_cell_length_a   6.42346317
_cell_length_b   6.41836299
_cell_length_c   7.47997900
_cell_angle_alpha   90.00000000
_cell_angle_beta   90.00000000
_cell_angle_gamma   109.91821095
_symmetry_Int_Tables_number   1
_chemical_formula_structural   Nd2HoEr3(RuO7)2
_chemical_formula_sum   'Nd2 Ho1 Er3 Ru2 O14'
_cell_volume   289.93780778
_cell_formula_units_Z   1
loop_
 _symmetry_equiv_pos_site_id
 _symmetry_equiv_pos_as_xyz
  1  'x, y, z'
loop_
 _atom_site_type_symbol
 _atom_site_label
 _atom_site_symmetry_multiplicity
 _atom_site_fract_x
 _atom_site_fract_y
 _atom_site_fract_z
 _atom_site_occupancy
  Nd  Nd0  1  0.999997  0.000052  0.499865  1
  Nd  Nd1  1  0.999997  0.000052  0.000135  1
  Ho  Ho2  1  0.482903  0.931588  0.750000  1
  Er  Er3  1  0.516445  0.066916  0.250000  1
  Er  Er4  1  0.933244  0.483585  0.750000  1
  Er  Er5  1  0.066670  0.516357  0.250000  1
  Ru  Ru6  1  0.500090  0.500062  0.499790  1
  Ru  Ru7  1  0.500090  0.500062  0.000210  1
  O  O8  1  0.591019  0.590137  0.750000  1
  O  O9  1  0.409171  0.409205  0.250000  1
  O  O10  1  0.839239  0.120618  0.750000  1
  O  O11  1  0.163093  0.880608  0.250000  1
  O  O12  1  0.116975  0.836699  0.750000  1
  O  O13  1  0.880503  0.162985  0.250000  1
  O  O14  1  0.439835  0.180531  0.964207  1
  O  O15  1  0.560361  0.819881  0.462441  1
  O  O16  1  0.180033  0.440199  0.963471  1
  O  O17  1  0.820052  0.559927  0.463456  1
  O  O18  1  0.439835  0.180531  0.535793  1
  O  O19  1  0.560361  0.819881  0.037559  1
  O  O20  1  0.820052  0.559927  0.036544  1
  O  O21  1  0.180033  0.440199  0.536529  1
