# generated using pymatgen
data_Y8ErTm11Pb16
_symmetry_space_group_name_H-M   'P 1'
_cell_length_a   8.16901900
_cell_length_b   8.24565928
_cell_length_c   15.54351700
_cell_angle_alpha   90.00289062
_cell_angle_beta   89.99967035
_cell_angle_gamma   90.01461987
_symmetry_Int_Tables_number   1
_chemical_formula_structural   Y8ErTm11Pb16
_chemical_formula_sum   'Y8 Er1 Tm11 Pb16'
_cell_volume   1046.99490731
_cell_formula_units_Z   1
loop_
 _symmetry_equiv_pos_site_id
 _symmetry_equiv_pos_as_xyz
  1  'x, y, z'
loop_
 _atom_site_type_symbol
 _atom_site_label
 _atom_site_symmetry_multiplicity
 _atom_site_fract_x
 _atom_site_fract_y
 _atom_site_fract_z
 _atom_site_occupancy
  Y  Y0  1  0.534763  0.323042  0.900211  1
  Y  Y1  1  0.034687  0.176926  0.599729  1
  Y  Y2  1  0.465230  0.676895  0.400335  1
  Y  Y3  1  0.965345  0.823124  0.099749  1
  Y  Y4  1  0.465259  0.676846  0.099673  1
  Y  Y5  1  0.965344  0.823047  0.400367  1
  Y  Y6  1  0.534794  0.323077  0.599782  1
  Y  Y7  1  0.034671  0.176866  0.900213  1
  Er  Er8  1  0.876267  0.659001  0.878890  1
  Tm  Tm9  1  0.376122  0.841132  0.878766  1
  Tm  Tm10  1  0.876118  0.658761  0.621158  1
  Tm  Tm11  1  0.623864  0.158793  0.378700  1
  Tm  Tm12  1  0.123852  0.341256  0.121280  1
  Tm  Tm13  1  0.623803  0.158805  0.121405  1
  Tm  Tm14  1  0.123870  0.341179  0.378697  1
  Tm  Tm15  1  0.376224  0.841184  0.621147  1
  Tm  Tm16  1  0.207889  0.504953  0.749912  1
  Tm  Tm17  1  0.707692  0.995109  0.749908  1
  Tm  Tm18  1  0.792225  0.494963  0.250045  1
  Tm  Tm19  1  0.292205  0.004941  0.250004  1
  Pb  Pb20  1  0.283133  0.034690  0.042920  1
  Pb  Pb21  1  0.783123  0.465324  0.457120  1
  Pb  Pb22  1  0.716834  0.965253  0.542659  1
  Pb  Pb23  1  0.217272  0.534593  0.957364  1
  Pb  Pb24  1  0.716525  0.965730  0.957383  1
  Pb  Pb25  1  0.216806  0.534706  0.542671  1
  Pb  Pb26  1  0.283103  0.034705  0.457097  1
  Pb  Pb27  1  0.783061  0.465089  0.043157  1
  Pb  Pb28  1  0.570464  0.627828  0.749885  1
  Pb  Pb29  1  0.070890  0.872401  0.749808  1
  Pb  Pb30  1  0.429322  0.372108  0.250025  1
  Pb  Pb31  1  0.929363  0.127891  0.250013  1
  Pb  Pb32  1  0.346299  0.152867  0.749994  1
  Pb  Pb33  1  0.846314  0.346916  0.749911  1
  Pb  Pb34  1  0.653645  0.847082  0.250008  1
  Pb  Pb35  1  0.153623  0.652917  0.250014  1
