# generated using pymatgen
data_Gd2Pb2O7
_symmetry_space_group_name_H-M   'P 1'
_cell_length_a   7.67991792
_cell_length_b   7.67991807
_cell_length_c   7.67991800
_cell_angle_alpha   60.00000029
_cell_angle_beta   59.99999968
_cell_angle_gamma   60.00000289
_symmetry_Int_Tables_number   1
_chemical_formula_structural   Gd2Pb2O7
_chemical_formula_sum   'Gd4 Pb4 O14'
_cell_volume   320.29839330
_cell_formula_units_Z   2
loop_
 _symmetry_equiv_pos_site_id
 _symmetry_equiv_pos_as_xyz
  1  'x, y, z'
loop_
 _atom_site_type_symbol
 _atom_site_label
 _atom_site_symmetry_multiplicity
 _atom_site_fract_x
 _atom_site_fract_y
 _atom_site_fract_z
 _atom_site_occupancy
  Gd  Gd0  1  0.625000  0.625000  0.125000  1
  Gd  Gd1  1  0.625000  0.625000  0.625000  1
  Gd  Gd2  1  0.625000  0.125000  0.625000  1
  Gd  Gd3  1  0.125000  0.625000  0.625000  1
  Pb  Pb4  1  0.125000  0.125000  0.125000  1
  Pb  Pb5  1  0.625000  0.125000  0.125000  1
  Pb  Pb6  1  0.125000  0.625000  0.125000  1
  Pb  Pb7  1  0.125000  0.125000  0.625000  1
  O  O8  1  0.027696  0.472304  0.472304  1
  O  O9  1  0.777696  0.777696  0.222304  1
  O  O10  1  0.777696  0.222304  0.222304  1
  O  O11  1  0.472304  0.027696  0.472304  1
  O  O12  1  0.027696  0.027696  0.472304  1
  O  O13  1  0.027696  0.472304  0.027696  1
  O  O14  1  0.750000  0.750000  0.750000  1
  O  O15  1  0.500000  0.500000  0.500000  1
  O  O16  1  0.777696  0.222304  0.777696  1
  O  O17  1  0.222304  0.777696  0.222304  1
  O  O18  1  0.222304  0.222304  0.777696  1
  O  O19  1  0.472304  0.027696  0.027696  1
  O  O20  1  0.472304  0.472304  0.027696  1
  O  O21  1  0.222304  0.777696  0.777696  1
