# generated using pymatgen
data_TbTm9(Ga2Ru3)2
_symmetry_space_group_name_H-M   'P 1'
_cell_length_a   8.23825348
_cell_length_b   8.24674002
_cell_length_c   8.23825200
_cell_angle_alpha   109.38497794
_cell_angle_beta   109.61337002
_cell_angle_gamma   109.37388060
_symmetry_Int_Tables_number   1
_chemical_formula_structural   TbTm9(Ga2Ru3)2
_chemical_formula_sum   'Tb1 Tm9 Ga4 Ru6'
_cell_volume   431.07287467
_cell_formula_units_Z   1
loop_
 _symmetry_equiv_pos_site_id
 _symmetry_equiv_pos_as_xyz
  1  'x, y, z'
loop_
 _atom_site_type_symbol
 _atom_site_label
 _atom_site_symmetry_multiplicity
 _atom_site_fract_x
 _atom_site_fract_y
 _atom_site_fract_z
 _atom_site_occupancy
  Tb  Tb0  1  0.683523  0.750000  0.933522  1
  Tm  Tm1  1  0.000404  0.216937  0.999850  1
  Tm  Tm2  1  0.749977  0.430857  0.181606  1
  Tm  Tm3  1  0.430828  0.681077  0.250169  1
  Tm  Tm4  1  0.250748  0.069142  0.319120  1
  Tm  Tm5  1  0.215619  0.500088  0.499572  1
  Tm  Tm6  1  0.818359  0.250000  0.568359  1
  Tm  Tm7  1  0.499484  0.999913  0.715532  1
  Tm  Tm8  1  0.069091  0.818924  0.749751  1
  Tm  Tm9  1  0.282913  0.283063  0.783468  1
  Ga  Ga10  1  0.000529  0.587214  0.000116  1
  Ga  Ga11  1  0.499161  0.000013  0.087811  1
  Ga  Ga12  1  0.912902  0.912786  0.413316  1
  Ga  Ga13  1  0.587798  0.499987  0.499148  1
  Ru  Ru14  1  0.373370  0.250000  0.123370  1
  Ru  Ru15  1  0.877733  0.129130  0.251635  1
  Ru  Ru16  1  0.125899  0.750000  0.375898  1
  Ru  Ru17  1  0.750269  0.877060  0.625948  1
  Ru  Ru18  1  0.622506  0.370871  0.748602  1
  Ru  Ru19  1  0.248888  0.622940  0.873210  1
