# generated using pymatgen
data_Dy16Tl2InAgRuRh3
_symmetry_space_group_name_H-M   'P 1'
_cell_length_a   9.65743971
_cell_length_b   9.63195443
_cell_length_c   9.65744228
_cell_angle_alpha   59.82633968
_cell_angle_beta   59.85049259
_cell_angle_gamma   59.82633916
_symmetry_Int_Tables_number   1
_chemical_formula_structural   Dy16Tl2InAgRuRh3
_chemical_formula_sum   'Dy16 Tl2 In1 Ag1 Ru1 Rh3'
_cell_volume   632.83144307
_cell_formula_units_Z   1
loop_
 _symmetry_equiv_pos_site_id
 _symmetry_equiv_pos_as_xyz
  1  'x, y, z'
loop_
 _atom_site_type_symbol
 _atom_site_label
 _atom_site_symmetry_multiplicity
 _atom_site_fract_x
 _atom_site_fract_y
 _atom_site_fract_z
 _atom_site_occupancy
  Dy  Dy0  1  0.686684  0.312462  0.311775  1
  Dy  Dy1  1  0.689594  0.690783  0.310123  1
  Dy  Dy2  1  0.310989  0.687320  0.310989  1
  Dy  Dy3  1  0.936552  0.935664  0.564206  1
  Dy  Dy4  1  0.150084  0.148073  0.549173  1
  Dy  Dy5  1  0.561057  0.939551  0.561057  1
  Dy  Dy6  1  0.151075  0.151256  0.151075  1
  Dy  Dy7  1  0.311775  0.312462  0.686684  1
  Dy  Dy8  1  0.941272  0.554923  0.565468  1
  Dy  Dy9  1  0.565468  0.554923  0.941272  1
  Dy  Dy10  1  0.564206  0.935664  0.936552  1
  Dy  Dy11  1  0.936792  0.559704  0.936792  1
  Dy  Dy12  1  0.149503  0.550664  0.149503  1
  Dy  Dy13  1  0.310123  0.690783  0.689594  1
  Dy  Dy14  1  0.688505  0.312816  0.688505  1
  Dy  Dy15  1  0.549173  0.148073  0.150084  1
  Tl  Tl16  1  0.914166  0.920279  0.252921  1
  Tl  Tl17  1  0.252921  0.920279  0.914166  1
  In  In18  1  0.917076  0.921274  0.917076  1
  Ag  Ag19  1  0.913873  0.254076  0.913873  1
  Ru  Ru20  1  0.357110  0.359003  0.357110  1
  Rh  Rh21  1  0.926731  0.356896  0.357705  1
  Rh  Rh22  1  0.357705  0.356896  0.926731  1
  Rh  Rh23  1  0.357568  0.926172  0.357568  1
