# generated using pymatgen
data_TbFe2(PPd)3
_symmetry_space_group_name_H-M   'P 1'
_cell_length_a   3.84344900
_cell_length_b   10.76483700
_cell_length_c   12.49619000
_cell_angle_alpha   90.00000000
_cell_angle_beta   90.00000000
_cell_angle_gamma   90.00000000
_symmetry_Int_Tables_number   1
_chemical_formula_structural   TbFe2(PPd)3
_chemical_formula_sum   'Tb4 Fe8 P12 Pd12'
_cell_volume   517.01863971
_cell_formula_units_Z   4
loop_
 _symmetry_equiv_pos_site_id
 _symmetry_equiv_pos_as_xyz
  1  'x, y, z'
loop_
 _atom_site_type_symbol
 _atom_site_label
 _atom_site_symmetry_multiplicity
 _atom_site_fract_x
 _atom_site_fract_y
 _atom_site_fract_z
 _atom_site_occupancy
  Tb  Tb0  1  0.250000  0.575864  0.713406  1
  Tb  Tb1  1  0.250000  0.924136  0.213406  1
  Tb  Tb2  1  0.750000  0.424136  0.286594  1
  Tb  Tb3  1  0.750000  0.075864  0.786594  1
  Fe  Fe4  1  0.250000  0.871605  0.696770  1
  Fe  Fe5  1  0.250000  0.628395  0.196770  1
  Fe  Fe6  1  0.750000  0.128395  0.303230  1
  Fe  Fe7  1  0.750000  0.371605  0.803230  1
  Fe  Fe8  1  0.250000  0.458931  0.934214  1
  Fe  Fe9  1  0.250000  0.041069  0.434214  1
  Fe  Fe10  1  0.750000  0.541069  0.065786  1
  Fe  Fe11  1  0.750000  0.958931  0.565786  1
  P  P12  1  0.250000  0.448105  0.111215  1
  P  P13  1  0.250000  0.051895  0.611215  1
  P  P14  1  0.750000  0.551895  0.888785  1
  P  P15  1  0.750000  0.948105  0.388785  1
  P  P16  1  0.250000  0.275400  0.863185  1
  P  P17  1  0.250000  0.224600  0.363185  1
  P  P18  1  0.750000  0.724600  0.136815  1
  P  P19  1  0.750000  0.775400  0.636815  1
  P  P20  1  0.250000  0.601606  0.375337  1
  P  P21  1  0.250000  0.898394  0.875337  1
  P  P22  1  0.750000  0.398394  0.624663  1
  P  P23  1  0.750000  0.101606  0.124663  1
  Pd  Pd24  1  0.250000  0.713976  0.990413  1
  Pd  Pd25  1  0.250000  0.786024  0.490413  1
  Pd  Pd26  1  0.750000  0.286024  0.009587  1
  Pd  Pd27  1  0.750000  0.213976  0.509587  1
  Pd  Pd28  1  0.250000  0.408374  0.473787  1
  Pd  Pd29  1  0.250000  0.091626  0.973787  1
  Pd  Pd30  1  0.750000  0.591626  0.526213  1
  Pd  Pd31  1  0.750000  0.908374  0.026213  1
  Pd  Pd32  1  0.250000  0.234050  0.174031  1
  Pd  Pd33  1  0.250000  0.265950  0.674031  1
  Pd  Pd34  1  0.750000  0.765950  0.825969  1
  Pd  Pd35  1  0.750000  0.734050  0.325969  1
