# generated using pymatgen
data_Tl(CrSe)3
_symmetry_space_group_name_H-M   'P 1'
_cell_length_a   9.11636400
_cell_length_b   9.11636503
_cell_length_c   4.17156400
_cell_angle_alpha   90.00000000
_cell_angle_beta   90.00000000
_cell_angle_gamma   119.99999627
_symmetry_Int_Tables_number   1
_chemical_formula_structural   Tl(CrSe)3
_chemical_formula_sum   'Tl2 Cr6 Se6'
_cell_volume   300.24302204
_cell_formula_units_Z   2
loop_
 _symmetry_equiv_pos_site_id
 _symmetry_equiv_pos_as_xyz
  1  'x, y, z'
loop_
 _atom_site_type_symbol
 _atom_site_label
 _atom_site_symmetry_multiplicity
 _atom_site_fract_x
 _atom_site_fract_y
 _atom_site_fract_z
 _atom_site_occupancy
  Tl  Tl0  1  0.333333  0.666667  0.250000  1
  Tl  Tl1  1  0.666667  0.333333  0.750000  1
  Cr  Cr2  1  0.139566  0.164786  0.250000  1
  Cr  Cr3  1  0.860434  0.835214  0.750000  1
  Cr  Cr4  1  0.835214  0.974780  0.250000  1
  Cr  Cr5  1  0.025220  0.860434  0.250000  1
  Cr  Cr6  1  0.974780  0.139566  0.750000  1
  Cr  Cr7  1  0.164786  0.025220  0.750000  1
  Se  Se8  1  0.947478  0.286376  0.250000  1
  Se  Se9  1  0.052522  0.713624  0.750000  1
  Se  Se10  1  0.713624  0.661102  0.250000  1
  Se  Se11  1  0.338898  0.052522  0.250000  1
  Se  Se12  1  0.661102  0.947478  0.750000  1
  Se  Se13  1  0.286376  0.338898  0.750000  1
