# generated using pymatgen
data_Pm2Ru3W
_symmetry_space_group_name_H-M   'P 1'
_cell_length_a   5.72311067
_cell_length_b   5.24443158
_cell_length_c   5.72311100
_cell_angle_alpha   56.93182018
_cell_angle_beta   60.00001543
_cell_angle_gamma   56.93181438
_symmetry_Int_Tables_number   1
_chemical_formula_structural   Pm2Ru3W
_chemical_formula_sum   'Pm2 Ru3 W1'
_cell_volume   115.52255071
_cell_formula_units_Z   1
loop_
 _symmetry_equiv_pos_site_id
 _symmetry_equiv_pos_as_xyz
  1  'x, y, z'
loop_
 _atom_site_type_symbol
 _atom_site_label
 _atom_site_symmetry_multiplicity
 _atom_site_fract_x
 _atom_site_fract_y
 _atom_site_fract_z
 _atom_site_occupancy
  Pm  Pm0  1  0.751742  0.744775  0.751742  1
  Pm  Pm1  1  0.498258  0.505225  0.498258  1
  Ru  Ru2  1  0.125000  0.125000  0.125000  1
  Ru  Ru3  1  0.625000  0.125000  0.125000  1
  Ru  Ru4  1  0.125000  0.125000  0.625000  1
  W  W5  1  0.125000  0.625000  0.125000  1
