# generated using pymatgen
data_Dy8Ti5Si16Mo7
_symmetry_space_group_name_H-M   'P 1'
_cell_length_a   6.94030196
_cell_length_b   6.94824242
_cell_length_c   12.85575445
_cell_angle_alpha   90.00249379
_cell_angle_beta   90.11531667
_cell_angle_gamma   89.96039478
_symmetry_Int_Tables_number   1
_chemical_formula_structural   Dy8Ti5Si16Mo7
_chemical_formula_sum   'Dy8 Ti5 Si16 Mo7'
_cell_volume   619.94036316
_cell_formula_units_Z   1
loop_
 _symmetry_equiv_pos_site_id
 _symmetry_equiv_pos_as_xyz
  1  'x, y, z'
loop_
 _atom_site_type_symbol
 _atom_site_label
 _atom_site_symmetry_multiplicity
 _atom_site_fract_x
 _atom_site_fract_y
 _atom_site_fract_z
 _atom_site_occupancy
  Dy  Dy0  1  0.997739  0.659305  0.032876  1
  Dy  Dy1  1  0.003489  0.340304  0.531019  1
  Dy  Dy2  1  0.659126  0.997231  0.968619  1
  Dy  Dy3  1  0.159657  0.502983  0.781879  1
  Dy  Dy4  1  0.839340  0.496088  0.281214  1
  Dy  Dy5  1  0.503020  0.159375  0.218332  1
  Dy  Dy6  1  0.496499  0.841122  0.717060  1
  Dy  Dy7  1  0.340360  0.002442  0.468473  1
  Ti  Ti8  1  0.671182  0.670027  0.500074  1
  Ti  Ti9  1  0.831810  0.170113  0.749290  1
  Ti  Ti10  1  0.170307  0.829296  0.249498  1
  Ti  Ti11  1  0.327799  0.327579  0.000386  1
  Ti  Ti12  1  0.658900  0.493703  0.875653  1
  Si  Si13  1  0.041860  0.711292  0.436828  1
  Si  Si14  1  0.957051  0.288863  0.937481  1
  Si  Si15  1  0.711777  0.041557  0.562734  1
  Si  Si16  1  0.211024  0.457993  0.187426  1
  Si  Si17  1  0.789016  0.543565  0.687092  1
  Si  Si18  1  0.457051  0.210960  0.813325  1
  Si  Si19  1  0.541541  0.788689  0.312893  1
  Si  Si20  1  0.288644  0.957903  0.062779  1
  Si  Si21  1  0.799058  0.871375  0.184192  1
  Si  Si22  1  0.299731  0.627643  0.566088  1
  Si  Si23  1  0.699863  0.372212  0.065663  1
  Si  Si24  1  0.628776  0.299558  0.434073  1
  Si  Si25  1  0.370431  0.701658  0.934283  1
  Si  Si26  1  0.129410  0.199202  0.316026  1
  Si  Si27  1  0.200048  0.130312  0.684192  1
  Si  Si28  1  0.870665  0.801035  0.815069  1
  Mo  Mo29  1  0.340935  0.506918  0.376323  1
  Mo  Mo30  1  0.841096  0.992164  0.374361  1
  Mo  Mo31  1  0.008741  0.157926  0.127499  1
  Mo  Mo32  1  0.994919  0.842246  0.624576  1
  Mo  Mo33  1  0.509063  0.339712  0.623562  1
  Mo  Mo34  1  0.159005  0.007529  0.873674  1
  Mo  Mo35  1  0.491068  0.660120  0.125487  1
