# generated using pymatgen
data_ScTaNb4Al4(IrC)2
_symmetry_space_group_name_H-M   'P 1'
_cell_length_a   8.34430502
_cell_length_b   8.34104571
_cell_length_c   8.34430400
_cell_angle_alpha   59.95484874
_cell_angle_beta   59.97382002
_cell_angle_gamma   59.95484390
_symmetry_Int_Tables_number   1
_chemical_formula_structural   ScTaNb4Al4(IrC)2
_chemical_formula_sum   'Sc2 Ta2 Nb8 Al8 Ir4 C4'
_cell_volume   410.30155833
_cell_formula_units_Z   2
loop_
 _symmetry_equiv_pos_site_id
 _symmetry_equiv_pos_as_xyz
  1  'x, y, z'
loop_
 _atom_site_type_symbol
 _atom_site_label
 _atom_site_symmetry_multiplicity
 _atom_site_fract_x
 _atom_site_fract_y
 _atom_site_fract_z
 _atom_site_occupancy
  Sc  Sc0  1  0.553133  0.945214  0.944907  1
  Sc  Sc1  1  0.944907  0.945214  0.553133  1
  Ta  Ta2  1  0.685903  0.312292  0.685903  1
  Ta  Ta3  1  0.940951  0.552972  0.940951  1
  Nb  Nb4  1  0.557128  0.944909  0.557128  1
  Nb  Nb5  1  0.310896  0.688435  0.689226  1
  Nb  Nb6  1  0.688049  0.310076  0.311396  1
  Nb  Nb7  1  0.314499  0.683654  0.314499  1
  Nb  Nb8  1  0.689226  0.688435  0.310896  1
  Nb  Nb9  1  0.311396  0.310076  0.688049  1
  Nb  Nb10  1  0.565338  0.557683  0.939821  1
  Nb  Nb11  1  0.939821  0.557683  0.565338  1
  Al  Al12  1  0.917972  0.915492  0.917972  1
  Al  Al13  1  0.998873  0.334800  0.333183  1
  Al  Al14  1  0.333214  0.000268  0.333214  1
  Al  Al15  1  0.333183  0.334800  0.998873  1
  Al  Al16  1  0.916376  0.248208  0.916376  1
  Al  Al17  1  0.917510  0.915102  0.249825  1
  Al  Al18  1  0.249825  0.915102  0.917510  1
  Al  Al19  1  0.333335  0.333929  0.333335  1
  Ir  Ir20  1  0.122414  0.129853  0.122414  1
  Ir  Ir21  1  0.624634  0.127067  0.123562  1
  Ir  Ir22  1  0.125134  0.623091  0.125134  1
  Ir  Ir23  1  0.123562  0.127067  0.624634  1
  C  C24  1  0.624810  0.625074  0.624810  1
  C  C25  1  0.124156  0.623102  0.629131  1
  C  C26  1  0.624626  0.127295  0.624626  1
  C  C27  1  0.629131  0.623102  0.124156  1
