# generated using pymatgen
data_UP4IO14
_symmetry_space_group_name_H-M   'P 1'
_cell_length_a   9.66218716
_cell_length_b   5.22121456
_cell_length_c   7.49040731
_cell_angle_alpha   68.97058552
_cell_angle_beta   81.11672521
_cell_angle_gamma   86.33730940
_symmetry_Int_Tables_number   1
_chemical_formula_structural   UP4IO14
_chemical_formula_sum   'U1 P4 I1 O14'
_cell_volume   348.46513376
_cell_formula_units_Z   1
loop_
 _symmetry_equiv_pos_site_id
 _symmetry_equiv_pos_as_xyz
  1  'x, y, z'
loop_
 _atom_site_type_symbol
 _atom_site_label
 _atom_site_symmetry_multiplicity
 _atom_site_fract_x
 _atom_site_fract_y
 _atom_site_fract_z
 _atom_site_occupancy
  U  U0  1  0.057286  0.802888  0.709200  1
  P  P1  1  0.374493  0.602359  0.496974  1
  P  P2  1  0.263755  0.211794  0.880372  1
  P  P3  1  0.861107  0.406163  0.518380  1
  P  P4  1  0.788817  0.756795  0.126898  1
  I  I5  1  0.564613  0.215729  0.276597  1
  O  O6  1  0.145440  0.431714  0.890146  1
  O  O7  1  0.199827  0.028608  0.786901  1
  O  O8  1  0.746972  0.023368  0.163167  1
  O  O9  1  0.324152  0.066198  0.058357  1
  O  O10  1  0.975877  0.176872  0.525523  1
  O  O11  1  0.715974  0.318359  0.598576  1
  O  O12  1  0.390531  0.436912  0.358608  1
  O  O13  1  0.663133  0.596530  0.115474  1
  O  O14  1  0.490793  0.809333  0.457748  1
  O  O15  1  0.385273  0.388958  0.710545  1
  O  O16  1  0.881720  0.574174  0.285761  1
  O  O17  1  0.922946  0.599843  0.603683  1
  O  O18  1  0.226891  0.733204  0.498307  1
  O  O19  1  0.892490  0.820199  0.938784  1
