# generated using pymatgen
data_CaNd6RuBr12
_symmetry_space_group_name_H-M   'P 1'
_cell_length_a   9.52292987
_cell_length_b   9.67570488
_cell_length_c   9.54454446
_cell_angle_alpha   107.21034169
_cell_angle_beta   106.72628921
_cell_angle_gamma   107.18213628
_symmetry_Int_Tables_number   1
_chemical_formula_structural   CaNd6RuBr12
_chemical_formula_sum   'Ca1 Nd6 Ru1 Br12'
_cell_volume   731.60463393
_cell_formula_units_Z   1
loop_
 _symmetry_equiv_pos_site_id
 _symmetry_equiv_pos_as_xyz
  1  'x, y, z'
loop_
 _atom_site_type_symbol
 _atom_site_label
 _atom_site_symmetry_multiplicity
 _atom_site_fract_x
 _atom_site_fract_y
 _atom_site_fract_z
 _atom_site_occupancy
  Ca  Ca0  1  0.500000  0.500000  0.500000  1
  Nd  Nd1  1  0.310724  0.103037  0.025361  1
  Nd  Nd2  1  0.026583  0.321045  0.108303  1
  Nd  Nd3  1  0.103999  0.025817  0.310222  1
  Nd  Nd4  1  0.896001  0.974183  0.689779  1
  Nd  Nd5  1  0.973417  0.678956  0.891698  1
  Nd  Nd6  1  0.689277  0.896963  0.974640  1
  Ru  Ru7  1  0.000000  0.000000  0.000000  1
  Br  Br8  1  0.683082  0.218681  0.069260  1
  Br  Br9  1  0.379830  0.455028  0.165345  1
  Br  Br10  1  0.069344  0.684787  0.220619  1
  Br  Br11  1  0.779332  0.931257  0.316741  1
  Br  Br12  1  0.457975  0.168111  0.379471  1
  Br  Br13  1  0.164173  0.377274  0.456472  1
  Br  Br14  1  0.835827  0.622727  0.543528  1
  Br  Br15  1  0.542025  0.831890  0.620529  1
  Br  Br16  1  0.220669  0.068744  0.683259  1
  Br  Br17  1  0.930656  0.315213  0.779382  1
  Br  Br18  1  0.620171  0.544972  0.834655  1
  Br  Br19  1  0.316919  0.781319  0.930740  1
