# generated using pymatgen
data_Tb12ZnCo4Hg
_symmetry_space_group_name_H-M   'P 1'
_cell_length_a   8.32065060
_cell_length_b   8.32077309
_cell_length_c   8.32065063
_cell_angle_alpha   112.00212593
_cell_angle_beta   109.70086898
_cell_angle_gamma   106.75261456
_symmetry_Int_Tables_number   1
_chemical_formula_structural   Tb12ZnCo4Hg
_chemical_formula_sum   'Tb12 Zn1 Co4 Hg1'
_cell_volume   442.53297548
_cell_formula_units_Z   1
loop_
 _symmetry_equiv_pos_site_id
 _symmetry_equiv_pos_as_xyz
  1  'x, y, z'
loop_
 _atom_site_type_symbol
 _atom_site_label
 _atom_site_symmetry_multiplicity
 _atom_site_fract_x
 _atom_site_fract_y
 _atom_site_fract_z
 _atom_site_occupancy
  Tb  Tb0  1  0.038544  0.735192  0.303335  1
  Tb  Tb1  1  0.961456  0.264808  0.696665  1
  Tb  Tb2  1  0.568142  0.264808  0.303351  1
  Tb  Tb3  1  0.431858  0.735192  0.696649  1
  Tb  Tb4  1  0.674253  0.861656  0.187403  1
  Tb  Tb5  1  0.325754  0.513139  0.187385  1
  Tb  Tb6  1  0.325747  0.138344  0.812597  1
  Tb  Tb7  1  0.674246  0.486861  0.812615  1
  Tb  Tb8  1  0.179426  0.219588  0.399017  1
  Tb  Tb9  1  0.820571  0.219588  0.040162  1
  Tb  Tb10  1  0.179429  0.780412  0.959838  1
  Tb  Tb11  1  0.820574  0.780412  0.600983  1
  Zn  Zn12  1  0.000000  0.500000  0.500000  1
  Co  Co13  1  0.663045  0.500000  0.163045  1
  Co  Co14  1  0.336955  0.500000  0.836955  1
  Co  Co15  1  0.886062  0.886059  0.999997  1
  Co  Co16  1  0.113938  0.113941  0.000003  1
  Hg  Hg17  1  0.500000  0.000000  0.500000  1
