# generated using pymatgen
data_Dy6MnFe4Os7
_symmetry_space_group_name_H-M   'P 1'
_cell_length_a   5.27700094
_cell_length_b   5.23296261
_cell_length_c   13.04478750
_cell_angle_alpha   90.64089625
_cell_angle_beta   89.70927873
_cell_angle_gamma   119.73001792
_symmetry_Int_Tables_number   1
_chemical_formula_structural   Dy6MnFe4Os7
_chemical_formula_sum   'Dy6 Mn1 Fe4 Os7'
_cell_volume   312.78815499
_cell_formula_units_Z   1
loop_
 _symmetry_equiv_pos_site_id
 _symmetry_equiv_pos_as_xyz
  1  'x, y, z'
loop_
 _atom_site_type_symbol
 _atom_site_label
 _atom_site_symmetry_multiplicity
 _atom_site_fract_x
 _atom_site_fract_y
 _atom_site_fract_z
 _atom_site_occupancy
  Dy  Dy0  1  0.332756  0.665893  0.918074  1
  Dy  Dy1  1  0.997490  0.999416  0.249281  1
  Dy  Dy2  1  0.665130  0.334992  0.581443  1
  Dy  Dy3  1  0.334870  0.665008  0.668557  1
  Dy  Dy4  1  0.002510  0.000584  0.000719  1
  Dy  Dy5  1  0.667244  0.334107  0.331926  1
  Mn  Mn6  1  0.000000  0.000000  0.625000  1
  Fe  Fe7  1  0.500000  0.500000  0.125000  1
  Fe  Fe8  1  0.167915  0.834684  0.457946  1
  Fe  Fe9  1  0.832085  0.165316  0.792054  1
  Fe  Fe10  1  0.500000  0.000000  0.125000  1
  Os  Os11  1  0.163965  0.331157  0.458496  1
  Os  Os12  1  0.836035  0.668843  0.791504  1
  Os  Os13  1  0.333711  0.670697  0.289895  1
  Os  Os14  1  0.666289  0.329303  0.960105  1
  Os  Os15  1  0.000000  0.500000  0.125000  1
  Os  Os16  1  0.671526  0.838408  0.458368  1
  Os  Os17  1  0.328474  0.161592  0.791632  1
