# generated using pymatgen
data_Er2Tm2B16Ir3Rh
_symmetry_space_group_name_H-M   'P 1'
_cell_length_a   3.55272900
_cell_length_b   5.94341944
_cell_length_c   11.52530424
_cell_angle_alpha   89.98957200
_cell_angle_beta   90.00000000
_cell_angle_gamma   90.00000000
_symmetry_Int_Tables_number   1
_chemical_formula_structural   Er2Tm2B16Ir3Rh
_chemical_formula_sum   'Er2 Tm2 B16 Ir3 Rh1'
_cell_volume   243.36092805
_cell_formula_units_Z   1
loop_
 _symmetry_equiv_pos_site_id
 _symmetry_equiv_pos_as_xyz
  1  'x, y, z'
loop_
 _atom_site_type_symbol
 _atom_site_label
 _atom_site_symmetry_multiplicity
 _atom_site_fract_x
 _atom_site_fract_y
 _atom_site_fract_z
 _atom_site_occupancy
  Er  Er0  1  0.000000  0.132183  0.648825  1
  Er  Er1  1  0.000000  0.867771  0.350697  1
  Tm  Tm2  1  0.000000  0.631878  0.852228  1
  Tm  Tm3  1  0.000000  0.367976  0.148142  1
  B  B4  1  0.500000  0.792770  0.688067  1
  B  B5  1  0.500000  0.207347  0.311845  1
  B  B6  1  0.500000  0.292275  0.812338  1
  B  B7  1  0.500000  0.707810  0.187680  1
  B  B8  1  0.500000  0.864273  0.529637  1
  B  B9  1  0.500000  0.135835  0.469960  1
  B  B10  1  0.500000  0.364638  0.970145  1
  B  B11  1  0.500000  0.635685  0.029828  1
  B  B12  1  0.500000  0.022196  0.193174  1
  B  B13  1  0.500000  0.978167  0.806643  1
  B  B14  1  0.500000  0.523348  0.306507  1
  B  B15  1  0.500000  0.477059  0.693199  1
  B  B16  1  0.500000  0.112673  0.046750  1
  B  B17  1  0.500000  0.887446  0.952647  1
  B  B18  1  0.500000  0.612263  0.452899  1
  B  B19  1  0.500000  0.387788  0.546955  1
  Ir  Ir20  1  0.000000  0.645180  0.597232  1
  Ir  Ir21  1  0.000000  0.355536  0.403561  1
  Ir  Ir22  1  0.000000  0.142034  0.904432  1
  Rh  Rh23  1  0.000000  0.855871  0.096610  1
