# generated using pymatgen
data_Y6Ho2Sc11Si16W
_symmetry_space_group_name_H-M   'P 1'
_cell_length_a   7.04157996
_cell_length_b   7.35136670
_cell_length_c   13.91007605
_cell_angle_alpha   89.97963921
_cell_angle_beta   89.99606204
_cell_angle_gamma   90.19560809
_symmetry_Int_Tables_number   1
_chemical_formula_structural   Y6Ho2Sc11Si16W
_chemical_formula_sum   'Y6 Ho2 Sc11 Si16 W1'
_cell_volume   720.05413192
_cell_formula_units_Z   1
loop_
 _symmetry_equiv_pos_site_id
 _symmetry_equiv_pos_as_xyz
  1  'x, y, z'
loop_
 _atom_site_type_symbol
 _atom_site_label
 _atom_site_symmetry_multiplicity
 _atom_site_fract_x
 _atom_site_fract_y
 _atom_site_fract_z
 _atom_site_occupancy
  Y  Y0  1  0.011564  0.176408  0.094441  1
  Y  Y1  1  0.992387  0.819762  0.900548  1
  Y  Y2  1  0.486577  0.672973  0.901086  1
  Y  Y3  1  0.992108  0.819638  0.599036  1
  Y  Y4  1  0.510891  0.324324  0.095665  1
  Y  Y5  1  0.011771  0.176582  0.405912  1
  Ho  Ho6  1  0.511082  0.323888  0.404313  1
  Ho  Ho7  1  0.486378  0.673203  0.599027  1
  Sc  Sc8  1  0.840876  0.496910  0.250234  1
  Sc  Sc9  1  0.340962  0.003120  0.250255  1
  Sc  Sc10  1  0.658426  0.996363  0.749743  1
  Sc  Sc11  1  0.327833  0.179136  0.627159  1
  Sc  Sc12  1  0.670392  0.823254  0.374765  1
  Sc  Sc13  1  0.171778  0.674716  0.376540  1
  Sc  Sc14  1  0.670595  0.823617  0.125586  1
  Sc  Sc15  1  0.829538  0.329516  0.627690  1
  Sc  Sc16  1  0.327736  0.178883  0.872475  1
  Sc  Sc17  1  0.829686  0.329303  0.871977  1
  Sc  Sc18  1  0.171598  0.675057  0.123860  1
  Si  Si19  1  0.031861  0.124670  0.749784  1
  Si  Si20  1  0.970145  0.884584  0.250188  1
  Si  Si21  1  0.467726  0.615701  0.250277  1
  Si  Si22  1  0.522560  0.392594  0.749652  1
  Si  Si23  1  0.283981  0.861971  0.749566  1
  Si  Si24  1  0.715893  0.127984  0.250449  1
  Si  Si25  1  0.214550  0.372578  0.250346  1
  Si  Si26  1  0.794857  0.626519  0.749698  1
  Si  Si27  1  0.156228  0.466714  0.547541  1
  Si  Si28  1  0.842329  0.535069  0.462246  1
  Si  Si29  1  0.346075  0.964942  0.462462  1
  Si  Si30  1  0.843458  0.535616  0.037699  1
  Si  Si31  1  0.656916  0.034606  0.539552  1
  Si  Si32  1  0.155307  0.466105  0.952545  1
  Si  Si33  1  0.657212  0.034734  0.960378  1
  Si  Si34  1  0.345776  0.964733  0.037575  1
  W  W35  1  0.152950  0.494227  0.749730  1
