# generated using pymatgen
data_Li2TbEr3As4
_symmetry_space_group_name_H-M   'P 1'
_cell_length_a   4.16004100
_cell_length_b   4.16004009
_cell_length_c   14.03219100
_cell_angle_alpha   90.00000000
_cell_angle_beta   90.00000000
_cell_angle_gamma   119.99998339
_symmetry_Int_Tables_number   1
_chemical_formula_structural   Li2TbEr3As4
_chemical_formula_sum   'Li2 Tb1 Er3 As4'
_cell_volume   210.30583306
_cell_formula_units_Z   1
loop_
 _symmetry_equiv_pos_site_id
 _symmetry_equiv_pos_as_xyz
  1  'x, y, z'
loop_
 _atom_site_type_symbol
 _atom_site_label
 _atom_site_symmetry_multiplicity
 _atom_site_fract_x
 _atom_site_fract_y
 _atom_site_fract_z
 _atom_site_occupancy
  Li  Li0  1  0.000000  0.000000  0.249199  1
  Li  Li1  1  0.000000  0.000000  0.749835  1
  Tb  Tb2  1  0.333333  0.666667  0.389597  1
  Er  Er3  1  0.666667  0.333333  0.610670  1
  Er  Er4  1  0.666667  0.333333  0.889712  1
  Er  Er5  1  0.333333  0.666667  0.109781  1
  As  As6  1  0.000000  0.000000  0.502874  1
  As  As7  1  0.000000  0.000000  0.999917  1
  As  As8  1  0.333333  0.666667  0.750540  1
  As  As9  1  0.666667  0.333333  0.247875  1
