# generated using pymatgen
data_DyTm2Ta(Co4P3)2
_symmetry_space_group_name_H-M   'P 1'
_cell_length_a   3.69265900
_cell_length_b   10.59889600
_cell_length_c   12.29697300
_cell_angle_alpha   90.00000000
_cell_angle_beta   90.00000000
_cell_angle_gamma   90.00000000
_symmetry_Int_Tables_number   1
_chemical_formula_structural   DyTm2Ta(Co4P3)2
_chemical_formula_sum   'Dy2 Tm4 Ta2 Co16 P12'
_cell_volume   481.28026601
_cell_formula_units_Z   2
loop_
 _symmetry_equiv_pos_site_id
 _symmetry_equiv_pos_as_xyz
  1  'x, y, z'
loop_
 _atom_site_type_symbol
 _atom_site_label
 _atom_site_symmetry_multiplicity
 _atom_site_fract_x
 _atom_site_fract_y
 _atom_site_fract_z
 _atom_site_occupancy
  Dy  Dy0  1  0.000000  0.500000  0.527410  1
  Dy  Dy1  1  0.500000  0.000000  0.472590  1
  Tm  Tm2  1  0.500000  0.821062  0.205117  1
  Tm  Tm3  1  0.500000  0.178938  0.205117  1
  Tm  Tm4  1  0.000000  0.678938  0.794883  1
  Tm  Tm5  1  0.000000  0.321062  0.794883  1
  Ta  Ta6  1  0.500000  0.500000  0.156789  1
  Ta  Ta7  1  0.000000  0.000000  0.843211  1
  Co  Co8  1  0.500000  0.500000  0.703143  1
  Co  Co9  1  0.000000  0.000000  0.296857  1
  Co  Co10  1  0.000000  0.500000  0.986592  1
  Co  Co11  1  0.500000  0.000000  0.013408  1
  Co  Co12  1  0.500000  0.332613  0.992175  1
  Co  Co13  1  0.500000  0.667387  0.992175  1
  Co  Co14  1  0.000000  0.167387  0.007825  1
  Co  Co15  1  0.000000  0.832613  0.007825  1
  Co  Co16  1  0.500000  0.295380  0.432106  1
  Co  Co17  1  0.500000  0.704620  0.432106  1
  Co  Co18  1  0.000000  0.204620  0.567894  1
  Co  Co19  1  0.000000  0.795380  0.567894  1
  Co  Co20  1  0.500000  0.877060  0.705709  1
  Co  Co21  1  0.500000  0.122940  0.705709  1
  Co  Co22  1  0.000000  0.622940  0.294291  1
  Co  Co23  1  0.000000  0.377060  0.294291  1
  P  P24  1  0.500000  0.500000  0.881101  1
  P  P25  1  0.000000  0.000000  0.118899  1
  P  P26  1  0.500000  0.500000  0.357107  1
  P  P27  1  0.000000  0.000000  0.642893  1
  P  P28  1  0.500000  0.311449  0.616584  1
  P  P29  1  0.500000  0.688551  0.616584  1
  P  P30  1  0.000000  0.188551  0.383416  1
  P  P31  1  0.000000  0.811449  0.383416  1
  P  P32  1  0.500000  0.840134  0.891859  1
  P  P33  1  0.500000  0.159866  0.891859  1
  P  P34  1  0.000000  0.659866  0.108141  1
  P  P35  1  0.000000  0.340134  0.108141  1
