# generated using pymatgen
data_Nb2TcP2Ir
_symmetry_space_group_name_H-M   'P 1'
_cell_length_a   3.78131200
_cell_length_b   6.42138200
_cell_length_c   7.24942200
_cell_angle_alpha   90.00000000
_cell_angle_beta   90.00000000
_cell_angle_gamma   90.00000000
_symmetry_Int_Tables_number   1
_chemical_formula_structural   Nb2TcP2Ir
_chemical_formula_sum   'Nb4 Tc2 P4 Ir2'
_cell_volume   176.02501933
_cell_formula_units_Z   2
loop_
 _symmetry_equiv_pos_site_id
 _symmetry_equiv_pos_as_xyz
  1  'x, y, z'
loop_
 _atom_site_type_symbol
 _atom_site_label
 _atom_site_symmetry_multiplicity
 _atom_site_fract_x
 _atom_site_fract_y
 _atom_site_fract_z
 _atom_site_occupancy
  Nb  Nb0  1  0.250000  0.025591  0.829130  1
  Nb  Nb1  1  0.250000  0.525591  0.670870  1
  Nb  Nb2  1  0.750000  0.977121  0.170708  1
  Nb  Nb3  1  0.750000  0.477121  0.329292  1
  Tc  Tc4  1  0.250000  0.141145  0.442462  1
  Tc  Tc5  1  0.250000  0.641145  0.057538  1
  P  P6  1  0.250000  0.771902  0.368657  1
  P  P7  1  0.250000  0.271902  0.131343  1
  P  P8  1  0.750000  0.234873  0.619749  1
  P  P9  1  0.750000  0.734873  0.880251  1
  Ir  Ir10  1  0.750000  0.849368  0.566541  1
  Ir  Ir11  1  0.750000  0.349368  0.933459  1
