# generated using pymatgen
data_Sm2Gd15Tm3Sn16
_symmetry_space_group_name_H-M   'P 1'
_cell_length_a   8.03846938
_cell_length_b   8.18829902
_cell_length_c   15.48210800
_cell_angle_alpha   89.99797079
_cell_angle_beta   89.79514953
_cell_angle_gamma   90.00320447
_symmetry_Int_Tables_number   1
_chemical_formula_structural   Sm2Gd15Tm3Sn16
_chemical_formula_sum   'Sm2 Gd15 Tm3 Sn16'
_cell_volume   1019.04736730
_cell_formula_units_Z   1
loop_
 _symmetry_equiv_pos_site_id
 _symmetry_equiv_pos_as_xyz
  1  'x, y, z'
loop_
 _atom_site_type_symbol
 _atom_site_label
 _atom_site_symmetry_multiplicity
 _atom_site_fract_x
 _atom_site_fract_y
 _atom_site_fract_z
 _atom_site_occupancy
  Sm  Sm0  1  0.984428  0.819771  0.595210  1
  Sm  Sm1  1  0.517642  0.320884  0.402088  1
  Gd  Gd2  1  0.017392  0.180125  0.402679  1
  Gd  Gd3  1  0.365479  0.838101  0.121706  1
  Gd  Gd4  1  0.134437  0.337177  0.622154  1
  Gd  Gd5  1  0.482064  0.680309  0.905324  1
  Gd  Gd6  1  0.865791  0.662315  0.123002  1
  Gd  Gd7  1  0.134719  0.337571  0.878654  1
  Gd  Gd8  1  0.483483  0.681036  0.595320  1
  Gd  Gd9  1  0.635587  0.162268  0.621568  1
  Gd  Gd10  1  0.805352  0.496188  0.750653  1
  Gd  Gd11  1  0.864427  0.662588  0.376480  1
  Gd  Gd12  1  0.018631  0.180030  0.096481  1
  Gd  Gd13  1  0.982004  0.818362  0.904610  1
  Gd  Gd14  1  0.633837  0.161998  0.879172  1
  Gd  Gd15  1  0.519402  0.319686  0.097490  1
  Gd  Gd16  1  0.363663  0.838366  0.377505  1
  Tm  Tm17  1  0.195278  0.503413  0.249640  1
  Tm  Tm18  1  0.694766  0.997098  0.249606  1
  Tm  Tm19  1  0.304742  0.004669  0.750516  1
  Sn  Sn20  1  0.795788  0.462876  0.541192  1
  Sn  Sn21  1  0.703989  0.963155  0.456242  1
  Sn  Sn22  1  0.672251  0.853809  0.750518  1
  Sn  Sn23  1  0.202845  0.537599  0.457253  1
  Sn  Sn24  1  0.293343  0.035332  0.956885  1
  Sn  Sn25  1  0.826240  0.349891  0.249503  1
  Sn  Sn26  1  0.795016  0.462736  0.959242  1
  Sn  Sn27  1  0.560031  0.617323  0.249851  1
  Sn  Sn28  1  0.205486  0.535241  0.043778  1
  Sn  Sn29  1  0.436440  0.383605  0.750198  1
  Sn  Sn30  1  0.178101  0.649285  0.750300  1
  Sn  Sn31  1  0.938411  0.112467  0.750002  1
  Sn  Sn32  1  0.297137  0.037704  0.542424  1
  Sn  Sn33  1  0.706382  0.963288  0.043667  1
  Sn  Sn34  1  0.324473  0.148672  0.249395  1
  Sn  Sn35  1  0.060949  0.885065  0.249693  1
