# generated using pymatgen
data_Ho4TmIrRu
_symmetry_space_group_name_H-M   'P 1'
_cell_length_a   6.35645996
_cell_length_b   7.24266609
_cell_length_c   8.43218890
_cell_angle_alpha   96.72212530
_cell_angle_beta   112.14280997
_cell_angle_gamma   90.00000388
_symmetry_Int_Tables_number   1
_chemical_formula_structural   Ho4TmIrRu
_chemical_formula_sum   'Ho8 Tm2 Ir2 Ru2'
_cell_volume   356.68519831
_cell_formula_units_Z   2
loop_
 _symmetry_equiv_pos_site_id
 _symmetry_equiv_pos_as_xyz
  1  'x, y, z'
loop_
 _atom_site_type_symbol
 _atom_site_label
 _atom_site_symmetry_multiplicity
 _atom_site_fract_x
 _atom_site_fract_y
 _atom_site_fract_z
 _atom_site_occupancy
  Ho  Ho0  1  0.792585  0.082159  0.815447  1
  Ho  Ho1  1  0.977136  0.417841  0.184553  1
  Ho  Ho2  1  0.209036  0.915354  0.182934  1
  Ho  Ho3  1  0.026103  0.584646  0.817066  1
  Ho  Ho4  1  0.208991  0.182749  0.564260  1
  Ho  Ho5  1  0.644731  0.317251  0.435740  1
  Ho  Ho6  1  0.789576  0.814685  0.437208  1
  Ho  Ho7  1  0.352368  0.685315  0.562792  1
  Tm  Tm8  1  0.424945  0.250000  0.000000  1
  Tm  Tm9  1  0.575690  0.750000  0.000000  1
  Ir  Ir10  1  0.603847  0.423936  0.780188  1
  Ir  Ir11  1  0.823658  0.076064  0.219812  1
  Ru  Ru12  1  0.394770  0.574508  0.218208  1
  Ru  Ru13  1  0.176563  0.925492  0.781792  1
