# generated using pymatgen
data_Tb8Zr7Sc5Ga16
_symmetry_space_group_name_H-M   'P 1'
_cell_length_a   7.23767004
_cell_length_b   7.57737402
_cell_length_c   14.44922405
_cell_angle_alpha   89.99879389
_cell_angle_beta   89.99093940
_cell_angle_gamma   89.99191985
_symmetry_Int_Tables_number   1
_chemical_formula_structural   Tb8Zr7Sc5Ga16
_chemical_formula_sum   'Tb8 Zr7 Sc5 Ga16'
_cell_volume   792.43202753
_cell_formula_units_Z   1
loop_
 _symmetry_equiv_pos_site_id
 _symmetry_equiv_pos_as_xyz
  1  'x, y, z'
loop_
 _atom_site_type_symbol
 _atom_site_label
 _atom_site_symmetry_multiplicity
 _atom_site_fract_x
 _atom_site_fract_y
 _atom_site_fract_z
 _atom_site_occupancy
  Tb  Tb0  1  0.010191  0.176171  0.093449  1
  Tb  Tb1  1  0.990140  0.824121  0.906321  1
  Tb  Tb2  1  0.490579  0.675221  0.905713  1
  Tb  Tb3  1  0.990279  0.824562  0.593689  1
  Tb  Tb4  1  0.510089  0.323883  0.093812  1
  Tb  Tb5  1  0.009853  0.175814  0.406282  1
  Tb  Tb6  1  0.509600  0.324727  0.405975  1
  Tb  Tb7  1  0.490565  0.675218  0.593861  1
  Zr  Zr8  1  0.327779  0.175473  0.623395  1
  Zr  Zr9  1  0.671716  0.824162  0.376275  1
  Zr  Zr10  1  0.171612  0.675789  0.376528  1
  Zr  Zr11  1  0.671538  0.825904  0.124038  1
  Zr  Zr12  1  0.828175  0.324388  0.623279  1
  Zr  Zr13  1  0.327614  0.174826  0.876875  1
  Zr  Zr14  1  0.828806  0.325518  0.877025  1
  Sc  Sc15  1  0.161080  0.504954  0.750038  1
  Sc  Sc16  1  0.838926  0.495141  0.249525  1
  Sc  Sc17  1  0.338291  0.004096  0.249560  1
  Sc  Sc18  1  0.660893  0.995276  0.750135  1
  Sc  Sc19  1  0.172471  0.674210  0.122985  1
  Ga  Ga20  1  0.030492  0.121014  0.750006  1
  Ga  Ga21  1  0.969172  0.880014  0.250581  1
  Ga  Ga22  1  0.469438  0.620501  0.250593  1
  Ga  Ga23  1  0.530725  0.378846  0.750065  1
  Ga  Ga24  1  0.286019  0.874967  0.749843  1
  Ga  Ga25  1  0.714746  0.125131  0.250309  1
  Ga  Ga26  1  0.214925  0.373723  0.250859  1
  Ga  Ga27  1  0.785704  0.625204  0.749872  1
  Ga  Ga28  1  0.160659  0.461719  0.540078  1
  Ga  Ga29  1  0.838643  0.538741  0.460276  1
  Ga  Ga30  1  0.339393  0.961821  0.460055  1
  Ga  Ga31  1  0.837664  0.537992  0.039910  1
  Ga  Ga32  1  0.660626  0.038532  0.539953  1
  Ga  Ga33  1  0.160027  0.461280  0.958764  1
  Ga  Ga34  1  0.661242  0.037919  0.959848  1
  Ga  Ga35  1  0.340330  0.963139  0.040228  1
