# generated using pymatgen
data_La10Co2Sn3Te
_symmetry_space_group_name_H-M   'P 1'
_cell_length_a   8.40135318
_cell_length_b   9.31284225
_cell_length_c   12.78685600
_cell_angle_alpha   89.86432845
_cell_angle_beta   90.01173692
_cell_angle_gamma   89.97172087
_symmetry_Int_Tables_number   1
_chemical_formula_structural   La10Co2Sn3Te
_chemical_formula_sum   'La20 Co4 Sn6 Te2'
_cell_volume   1000.44676206
_cell_formula_units_Z   2
loop_
 _symmetry_equiv_pos_site_id
 _symmetry_equiv_pos_as_xyz
  1  'x, y, z'
loop_
 _atom_site_type_symbol
 _atom_site_label
 _atom_site_symmetry_multiplicity
 _atom_site_fract_x
 _atom_site_fract_y
 _atom_site_fract_z
 _atom_site_occupancy
  La  La0  1  0.349454  0.748734  0.699805  1
  La  La1  1  0.650546  0.251266  0.300195  1
  La  La2  1  0.848815  0.251646  0.801929  1
  La  La3  1  0.151185  0.748354  0.198071  1
  La  La4  1  0.874123  0.748758  0.808584  1
  La  La5  1  0.125877  0.251242  0.191416  1
  La  La6  1  0.381723  0.252239  0.689380  1
  La  La7  1  0.618277  0.747761  0.310620  1
  La  La8  1  0.685515  0.536403  0.570770  1
  La  La9  1  0.314485  0.463597  0.429230  1
  La  La10  1  0.184339  0.471576  0.929750  1
  La  La11  1  0.319511  0.031097  0.428716  1
  La  La12  1  0.815661  0.528424  0.070250  1
  La  La13  1  0.680489  0.968903  0.571284  1
  La  La14  1  0.815512  0.968708  0.064487  1
  La  La15  1  0.184488  0.031292  0.935513  1
  La  La16  1  0.061783  0.744140  0.496577  1
  La  La17  1  0.938217  0.255860  0.503423  1
  La  La18  1  0.555325  0.249968  0.004328  1
  La  La19  1  0.444675  0.750032  0.995672  1
  Co  Co20  1  0.077668  0.751720  0.989130  1
  Co  Co21  1  0.922332  0.248280  0.010870  1
  Co  Co22  1  0.578269  0.246270  0.506343  1
  Co  Co23  1  0.421731  0.753730  0.493657  1
  Sn  Sn24  1  0.571194  0.504752  0.827489  1
  Sn  Sn25  1  0.428806  0.495248  0.172511  1
  Sn  Sn26  1  0.070250  0.493538  0.673370  1
  Sn  Sn27  1  0.429202  0.004588  0.173071  1
  Sn  Sn28  1  0.929750  0.506462  0.326630  1
  Sn  Sn29  1  0.570798  0.995412  0.826929  1
  Te  Te30  1  0.926937  0.993373  0.328136  1
  Te  Te31  1  0.073063  0.006627  0.671864  1
