# generated using pymatgen
data_YTmNi12P7
_symmetry_space_group_name_H-M   'P 1'
_cell_length_a   9.02095700
_cell_length_b   9.02095681
_cell_length_c   3.67225000
_cell_angle_alpha   90.00000000
_cell_angle_beta   90.00000000
_cell_angle_gamma   119.99999702
_symmetry_Int_Tables_number   1
_chemical_formula_structural   YTmNi12P7
_chemical_formula_sum   'Y1 Tm1 Ni12 P7'
_cell_volume   258.80228147
_cell_formula_units_Z   1
loop_
 _symmetry_equiv_pos_site_id
 _symmetry_equiv_pos_as_xyz
  1  'x, y, z'
loop_
 _atom_site_type_symbol
 _atom_site_label
 _atom_site_symmetry_multiplicity
 _atom_site_fract_x
 _atom_site_fract_y
 _atom_site_fract_z
 _atom_site_occupancy
  Y  Y0  1  0.666667  0.333333  0.000000  1
  Tm  Tm1  1  0.333333  0.666667  0.500000  1
  Ni  Ni2  1  0.062493  0.627578  0.000000  1
  Ni  Ni3  1  0.565084  0.937507  0.000000  1
  Ni  Ni4  1  0.372422  0.434916  0.000000  1
  Ni  Ni5  1  0.274301  0.122657  0.000000  1
  Ni  Ni6  1  0.848357  0.725699  0.000000  1
  Ni  Ni7  1  0.877343  0.151643  0.000000  1
  Ni  Ni8  1  0.429849  0.047822  0.500000  1
  Ni  Ni9  1  0.617972  0.570151  0.500000  1
  Ni  Ni10  1  0.952178  0.382028  0.500000  1
  Ni  Ni11  1  0.094555  0.878464  0.500000  1
  Ni  Ni12  1  0.783909  0.905445  0.500000  1
  Ni  Ni13  1  0.121536  0.216091  0.500000  1
  P  P14  1  0.294045  0.886190  0.000000  1
  P  P15  1  0.592144  0.705955  0.000000  1
  P  P16  1  0.113810  0.407856  0.000000  1
  P  P17  1  0.404808  0.294651  0.500000  1
  P  P18  1  0.889843  0.595192  0.500000  1
  P  P19  1  0.705349  0.110157  0.500000  1
  P  P20  1  0.000000  0.000000  0.000000  1
