# generated using pymatgen
data_Ba3SmInWO9
_symmetry_space_group_name_H-M   'P 1'
_cell_length_a   10.56841293
_cell_length_b   10.56841340
_cell_length_c   10.56841314
_cell_angle_alpha   146.46836572
_cell_angle_beta   132.06582595
_cell_angle_gamma   59.76386634
_symmetry_Int_Tables_number   1
_chemical_formula_structural   Ba3SmInWO9
_chemical_formula_sum   'Ba6 Sm2 In2 W2 O18'
_cell_volume   479.70525627
_cell_formula_units_Z   2
loop_
 _symmetry_equiv_pos_site_id
 _symmetry_equiv_pos_as_xyz
  1  'x, y, z'
loop_
 _atom_site_type_symbol
 _atom_site_label
 _atom_site_symmetry_multiplicity
 _atom_site_fract_x
 _atom_site_fract_y
 _atom_site_fract_z
 _atom_site_occupancy
  Ba  Ba0  1  0.590617  0.844814  0.745804  1
  Ba  Ba1  1  0.259800  0.500000  0.759800  1
  Ba  Ba2  1  0.900989  0.155186  0.745804  1
  Ba  Ba3  1  0.099011  0.844814  0.254196  1
  Ba  Ba4  1  0.740200  0.500000  0.240200  1
  Ba  Ba5  1  0.409383  0.155186  0.254196  1
  Sm  Sm6  1  0.330237  0.330237  0.000000  1
  Sm  Sm7  1  0.669763  0.669763  0.000000  1
  In  In8  1  0.000000  0.000000  0.000000  1
  In  In9  1  0.500000  0.000000  0.500000  1
  W  W10  1  0.164568  0.664568  0.500000  1
  W  W11  1  0.835432  0.335432  0.500000  1
  O  O12  1  0.605924  0.334214  0.271709  1
  O  O13  1  0.238881  0.000000  0.238881  1
  O  O14  1  0.937494  0.665786  0.271709  1
  O  O15  1  0.911386  0.640705  0.729318  1
  O  O16  1  0.584531  0.328230  0.743699  1
  O  O17  1  0.239222  0.966884  0.727662  1
  O  O18  1  0.760778  0.488441  0.727662  1
  O  O19  1  0.415469  0.159168  0.743699  1
  O  O20  1  0.088614  0.817932  0.729318  1
  O  O21  1  0.062506  0.334214  0.728291  1
  O  O22  1  0.761119  0.000000  0.761119  1
  O  O23  1  0.394076  0.665786  0.728291  1
  O  O24  1  0.760778  0.033116  0.272338  1
  O  O25  1  0.415469  0.671770  0.256301  1
  O  O26  1  0.088614  0.359295  0.270682  1
  O  O27  1  0.911386  0.182068  0.270682  1
  O  O28  1  0.584531  0.840832  0.256301  1
  O  O29  1  0.239222  0.511559  0.272338  1
