# generated using pymatgen
data_LaPr2Nd2P12Ru19
_symmetry_space_group_name_H-M   'P 1'
_cell_length_a   12.66425000
_cell_length_b   12.67067330
_cell_length_c   4.02685400
_cell_angle_alpha   90.00000000
_cell_angle_beta   90.00000000
_cell_angle_gamma   119.98323713
_symmetry_Int_Tables_number   1
_chemical_formula_structural   LaPr2Nd2P12Ru19
_chemical_formula_sum   'La1 Pr2 Nd2 P12 Ru19'
_cell_volume   559.69189438
_cell_formula_units_Z   1
loop_
 _symmetry_equiv_pos_site_id
 _symmetry_equiv_pos_as_xyz
  1  'x, y, z'
loop_
 _atom_site_type_symbol
 _atom_site_label
 _atom_site_symmetry_multiplicity
 _atom_site_fract_x
 _atom_site_fract_y
 _atom_site_fract_z
 _atom_site_occupancy
  La  La0  1  0.182936  0.000000  0.500000  1
  Pr  Pr1  1  0.999891  0.184129  0.500000  1
  Pr  Pr2  1  0.815762  0.815871  0.500000  1
  Nd  Nd3  1  0.666782  0.333017  0.000000  1
  Nd  Nd4  1  0.333763  0.666983  0.000000  1
  P  P5  1  0.998761  0.810575  0.000000  1
  P  P6  1  0.188185  0.189425  0.000000  1
  P  P7  1  0.812203  0.000000  0.000000  1
  P  P8  1  0.695451  0.171727  0.500000  1
  P  P9  1  0.827759  0.522809  0.500000  1
  P  P10  1  0.476379  0.304529  0.500000  1
  P  P11  1  0.171850  0.695471  0.500000  1
  P  P12  1  0.523724  0.828273  0.500000  1
  P  P13  1  0.304949  0.477191  0.500000  1
  P  P14  1  0.999962  0.375075  0.000000  1
  P  P15  1  0.624887  0.624925  0.000000  1
  P  P16  1  0.375875  0.000000  0.000000  1
  Ru  Ru17  1  0.999662  0.554385  0.000000  1
  Ru  Ru18  1  0.445277  0.445615  0.000000  1
  Ru  Ru19  1  0.555179  0.000000  0.000000  1
  Ru  Ru20  1  0.999440  0.712985  0.500000  1
  Ru  Ru21  1  0.286455  0.287015  0.500000  1
  Ru  Ru22  1  0.714074  0.000000  0.500000  1
  Ru  Ru23  1  0.805738  0.184599  0.000000  1
  Ru  Ru24  1  0.814826  0.620183  0.000000  1
  Ru  Ru25  1  0.379245  0.194722  0.000000  1
  Ru  Ru26  1  0.184523  0.805278  0.000000  1
  Ru  Ru27  1  0.621138  0.815401  0.000000  1
  Ru  Ru28  1  0.194642  0.379817  0.000000  1
  Ru  Ru29  1  0.875659  0.367447  0.500000  1
  Ru  Ru30  1  0.632202  0.507793  0.500000  1
  Ru  Ru31  1  0.492196  0.124446  0.500000  1
  Ru  Ru32  1  0.367749  0.875554  0.500000  1
  Ru  Ru33  1  0.508210  0.632553  0.500000  1
  Ru  Ru34  1  0.124410  0.492207  0.500000  1
  Ru  Ru35  1  0.000258  0.000000  0.000000  1
