# generated using pymatgen
data_Nb6V6Si9P
_symmetry_space_group_name_H-M   'P 1'
_cell_length_a   4.98201649
_cell_length_b   7.76413860
_cell_length_c   9.37686212
_cell_angle_alpha   65.02353757
_cell_angle_beta   74.59413267
_cell_angle_gamma   89.99999867
_symmetry_Int_Tables_number   1
_chemical_formula_structural   Nb6V6Si9P
_chemical_formula_sum   'Nb6 V6 Si9 P1'
_cell_volume   314.35127807
_cell_formula_units_Z   1
loop_
 _symmetry_equiv_pos_site_id
 _symmetry_equiv_pos_as_xyz
  1  'x, y, z'
loop_
 _atom_site_type_symbol
 _atom_site_label
 _atom_site_symmetry_multiplicity
 _atom_site_fract_x
 _atom_site_fract_y
 _atom_site_fract_z
 _atom_site_occupancy
  Nb  Nb0  1  0.357071  0.740341  0.285859  1
  Nb  Nb1  1  0.643405  0.258406  0.713189  1
  Nb  Nb2  1  0.143549  0.025261  0.712901  1
  Nb  Nb3  1  0.856451  0.973468  0.287098  1
  Nb  Nb4  1  0.063636  0.319852  0.872728  1
  Nb  Nb5  1  0.936793  0.679121  0.126416  1
  V  V6  1  0.941392  0.691939  0.617826  1
  V  V7  1  0.560472  0.311649  0.378643  1
  V  V8  1  0.060885  0.311649  0.378643  1
  V  V9  1  0.440782  0.691939  0.617826  1
  V  V10  1  0.437578  0.195888  0.124844  1
  V  V11  1  0.558360  0.802682  0.883279  1
  Si  Si12  1  0.564958  0.484588  0.870082  1
  Si  Si13  1  0.068030  0.653329  0.863941  1
  Si  Si14  1  0.933147  0.344614  0.133705  1
  Si  Si15  1  0.256938  0.000423  0.000319  1
  Si  Si16  1  0.742744  0.000423  0.000319  1
  Si  Si17  1  0.217179  0.421439  0.565641  1
  Si  Si18  1  0.782798  0.578796  0.434404  1
  Si  Si19  1  0.287309  0.992613  0.425381  1
  Si  Si20  1  0.712054  0.007656  0.575893  1
  P  P21  1  0.434468  0.513926  0.131064  1
