# generated using pymatgen
data_Y4C2Cl3
_symmetry_space_group_name_H-M   'P 1'
_cell_length_a   3.66767700
_cell_length_b   10.53050500
_cell_length_c   19.72148800
_cell_angle_alpha   90.00000000
_cell_angle_beta   90.00000000
_cell_angle_gamma   90.00000000
_symmetry_Int_Tables_number   1
_chemical_formula_structural   Y4C2Cl3
_chemical_formula_sum   'Y16 C8 Cl12'
_cell_volume   761.69299253
_cell_formula_units_Z   4
loop_
 _symmetry_equiv_pos_site_id
 _symmetry_equiv_pos_as_xyz
  1  'x, y, z'
loop_
 _atom_site_type_symbol
 _atom_site_label
 _atom_site_symmetry_multiplicity
 _atom_site_fract_x
 _atom_site_fract_y
 _atom_site_fract_z
 _atom_site_occupancy
  Y  Y0  1  0.250000  0.138413  0.573517  1
  Y  Y1  1  0.250000  0.638413  0.926483  1
  Y  Y2  1  0.750000  0.861587  0.426483  1
  Y  Y3  1  0.750000  0.361587  0.073517  1
  Y  Y4  1  0.250000  0.637868  0.755948  1
  Y  Y5  1  0.250000  0.137868  0.744052  1
  Y  Y6  1  0.750000  0.362132  0.244052  1
  Y  Y7  1  0.750000  0.862132  0.255948  1
  Y  Y8  1  0.250000  0.099919  0.331928  1
  Y  Y9  1  0.250000  0.599919  0.168072  1
  Y  Y10  1  0.750000  0.900081  0.668072  1
  Y  Y11  1  0.750000  0.400081  0.831928  1
  Y  Y12  1  0.250000  0.124900  0.164456  1
  Y  Y13  1  0.250000  0.624900  0.335544  1
  Y  Y14  1  0.750000  0.875100  0.835544  1
  Y  Y15  1  0.750000  0.375100  0.664456  1
  C  C16  1  0.250000  0.863834  0.348031  1
  C  C17  1  0.250000  0.363834  0.151969  1
  C  C18  1  0.750000  0.136166  0.651969  1
  C  C19  1  0.750000  0.636166  0.848031  1
  C  C20  1  0.250000  0.387924  0.750013  1
  C  C21  1  0.250000  0.887924  0.749987  1
  C  C22  1  0.750000  0.612076  0.249987  1
  C  C23  1  0.750000  0.112076  0.250013  1
  Cl  Cl24  1  0.250000  0.376958  0.952912  1
  Cl  Cl25  1  0.250000  0.876958  0.547088  1
  Cl  Cl26  1  0.750000  0.623042  0.047088  1
  Cl  Cl27  1  0.750000  0.123042  0.452912  1
  Cl  Cl28  1  0.250000  0.887599  0.944743  1
  Cl  Cl29  1  0.250000  0.387599  0.555257  1
  Cl  Cl30  1  0.750000  0.112401  0.055257  1
  Cl  Cl31  1  0.750000  0.612401  0.444743  1
  Cl  Cl32  1  0.250000  0.360400  0.353658  1
  Cl  Cl33  1  0.250000  0.860400  0.146342  1
  Cl  Cl34  1  0.750000  0.639600  0.646342  1
  Cl  Cl35  1  0.750000  0.139600  0.853658  1
