# generated using pymatgen
data_Yb4SiHgPt4
_symmetry_space_group_name_H-M   'P 1'
_cell_length_a   5.65584680
_cell_length_b   5.65584889
_cell_length_c   7.95933311
_cell_angle_alpha   77.55976987
_cell_angle_beta   77.55976684
_cell_angle_gamma   59.58946738
_symmetry_Int_Tables_number   1
_chemical_formula_structural   Yb4SiHgPt4
_chemical_formula_sum   'Yb4 Si1 Hg1 Pt4'
_cell_volume   212.70636474
_cell_formula_units_Z   1
loop_
 _symmetry_equiv_pos_site_id
 _symmetry_equiv_pos_as_xyz
  1  'x, y, z'
loop_
 _atom_site_type_symbol
 _atom_site_label
 _atom_site_symmetry_multiplicity
 _atom_site_fract_x
 _atom_site_fract_y
 _atom_site_fract_z
 _atom_site_occupancy
  Yb  Yb0  1  0.794173  0.507900  0.852021  1
  Yb  Yb1  1  0.492100  0.205827  0.647979  1
  Yb  Yb2  1  0.211447  0.495320  0.149701  1
  Yb  Yb3  1  0.504680  0.788553  0.350299  1
  Si  Si4  1  0.873517  0.126483  0.250000  1
  Hg  Hg5  1  0.182603  0.817397  0.750000  1
  Pt  Pt6  1  0.982347  0.745046  0.483468  1
  Pt  Pt7  1  0.254954  0.017653  0.016532  1
  Pt  Pt8  1  0.978621  0.274443  0.476139  1
  Pt  Pt9  1  0.725557  0.021379  0.023861  1
