# generated using pymatgen
data_TbLu11ZnCo4Bi
_symmetry_space_group_name_H-M   'P 1'
_cell_length_a   8.17292486
_cell_length_b   8.21382881
_cell_length_c   8.21382872
_cell_angle_alpha   111.51456473
_cell_angle_beta   110.01371174
_cell_angle_gamma   107.10877244
_symmetry_Int_Tables_number   1
_chemical_formula_structural   TbLu11ZnCo4Bi
_chemical_formula_sum   'Tb1 Lu11 Zn1 Co4 Bi1'
_cell_volume   422.81354825
_cell_formula_units_Z   1
loop_
 _symmetry_equiv_pos_site_id
 _symmetry_equiv_pos_as_xyz
  1  'x, y, z'
loop_
 _atom_site_type_symbol
 _atom_site_label
 _atom_site_symmetry_multiplicity
 _atom_site_fract_x
 _atom_site_fract_y
 _atom_site_fract_z
 _atom_site_occupancy
  Tb  Tb0  1  0.013722  0.220186  0.793536  1
  Lu  Lu1  1  0.817185  0.713551  0.532419  1
  Lu  Lu2  1  0.181343  0.283831  0.463423  1
  Lu  Lu3  1  0.181343  0.717919  0.897512  1
  Lu  Lu4  1  0.817185  0.284766  0.103632  1
  Lu  Lu5  1  0.684480  0.381086  0.691537  1
  Lu  Lu6  1  0.316275  0.621936  0.309674  1
  Lu  Lu7  1  0.684480  0.992942  0.303394  1
  Lu  Lu8  1  0.316275  0.006602  0.694338  1
  Lu  Lu9  1  0.570980  0.778779  0.792202  1
  Lu  Lu10  1  0.429674  0.221323  0.208350  1
  Lu  Lu11  1  0.988173  0.778201  0.209972  1
  Zn  Zn12  1  0.998986  0.995815  0.003170  1
  Co  Co13  1  0.620304  0.998330  0.621973  1
  Co  Co14  1  0.377464  0.001874  0.375590  1
  Co  Co15  1  0.113691  0.614204  0.499487  1
  Co  Co16  1  0.885186  0.387288  0.497897  1
  Bi  Bi17  1  0.503257  0.501367  0.001891  1
