# generated using pymatgen
data_La3Yb(SnIr2)2
_symmetry_space_group_name_H-M   'P 1'
_cell_length_a   5.85323298
_cell_length_b   5.85093901
_cell_length_c   8.23265267
_cell_angle_alpha   101.44374223
_cell_angle_beta   101.66412168
_cell_angle_gamma   58.92287705
_symmetry_Int_Tables_number   1
_chemical_formula_structural   La3Yb(SnIr2)2
_chemical_formula_sum   'La3 Yb1 Sn2 Ir4'
_cell_volume   234.99881592
_cell_formula_units_Z   1
loop_
 _symmetry_equiv_pos_site_id
 _symmetry_equiv_pos_as_xyz
  1  'x, y, z'
loop_
 _atom_site_type_symbol
 _atom_site_label
 _atom_site_symmetry_multiplicity
 _atom_site_fract_x
 _atom_site_fract_y
 _atom_site_fract_z
 _atom_site_occupancy
  La  La0  1  0.798250  0.491576  0.137196  1
  La  La1  1  0.514612  0.196844  0.355273  1
  La  La2  1  0.489722  0.804658  0.654587  1
  Yb  Yb3  1  0.199048  0.506689  0.851517  1
  Sn  Sn4  1  0.149362  0.850025  0.247855  1
  Sn  Sn5  1  0.856176  0.141082  0.751090  1
  Ir  Ir6  1  0.274228  0.008422  0.999759  1
  Ir  Ir7  1  0.994471  0.719911  0.500816  1
  Ir  Ir8  1  0.003334  0.275269  0.497360  1
  Ir  Ir9  1  0.720795  0.005522  0.004551  1
