# generated using pymatgen
data_Hf3Tc2Rh
_symmetry_space_group_name_H-M   'P 1'
_cell_length_a   7.98959000
_cell_length_b   7.98959095
_cell_length_c   5.64965600
_cell_angle_alpha   90.00000000
_cell_angle_beta   90.00000000
_cell_angle_gamma   119.99999608
_symmetry_Int_Tables_number   1
_chemical_formula_structural   Hf3Tc2Rh
_chemical_formula_sum   'Hf9 Tc6 Rh3'
_cell_volume   312.32136349
_cell_formula_units_Z   3
loop_
 _symmetry_equiv_pos_site_id
 _symmetry_equiv_pos_as_xyz
  1  'x, y, z'
loop_
 _atom_site_type_symbol
 _atom_site_label
 _atom_site_symmetry_multiplicity
 _atom_site_fract_x
 _atom_site_fract_y
 _atom_site_fract_z
 _atom_site_occupancy
  Hf  Hf0  1  0.667005  0.000000  0.225439  1
  Hf  Hf1  1  0.332994  0.332995  0.225439  1
  Hf  Hf2  1  0.000000  0.667005  0.225439  1
  Hf  Hf3  1  0.000000  0.000000  0.555357  1
  Hf  Hf4  1  0.666666  0.333333  0.555503  1
  Hf  Hf5  1  0.333334  0.666667  0.555503  1
  Hf  Hf6  1  0.333732  0.000000  0.895371  1
  Hf  Hf7  1  0.000000  0.333732  0.895371  1
  Hf  Hf8  1  0.666268  0.666268  0.895371  1
  Tc  Tc9  1  0.000000  0.000000  0.054102  1
  Tc  Tc10  1  0.666666  0.333333  0.054541  1
  Tc  Tc11  1  0.333334  0.666667  0.054541  1
  Tc  Tc12  1  0.333511  0.000000  0.396483  1
  Tc  Tc13  1  0.000000  0.333511  0.396483  1
  Tc  Tc14  1  0.666490  0.666489  0.396483  1
  Rh  Rh15  1  0.667034  0.000000  0.725477  1
  Rh  Rh16  1  0.332967  0.332967  0.725477  1
  Rh  Rh17  1  0.000000  0.667033  0.725477  1
