# generated using pymatgen
data_YbAlCu2Au9
_symmetry_space_group_name_H-M   'P 1'
_cell_length_a   9.46676974
_cell_length_b   7.10785526
_cell_length_c   7.49850500
_cell_angle_alpha   80.75279224
_cell_angle_beta   47.82213781
_cell_angle_gamma   48.07716773
_symmetry_Int_Tables_number   1
_chemical_formula_structural   YbAlCu2Au9
_chemical_formula_sum   'Yb1 Al1 Cu2 Au9'
_cell_volume   237.26966509
_cell_formula_units_Z   1
loop_
 _symmetry_equiv_pos_site_id
 _symmetry_equiv_pos_as_xyz
  1  'x, y, z'
loop_
 _atom_site_type_symbol
 _atom_site_label
 _atom_site_symmetry_multiplicity
 _atom_site_fract_x
 _atom_site_fract_y
 _atom_site_fract_z
 _atom_site_occupancy
  Yb  Yb0  1  0.000000  0.000000  0.000000  1
  Al  Al1  1  0.000000  0.000000  0.500000  1
  Cu  Cu2  1  0.000000  0.500000  0.000000  1
  Cu  Cu3  1  0.500000  0.000000  0.500000  1
  Au  Au4  1  0.985183  0.373336  0.686143  1
  Au  Au5  1  0.014817  0.626664  0.313857  1
  Au  Au6  1  0.373336  0.985183  0.955338  1
  Au  Au7  1  0.626664  0.014817  0.044662  1
  Au  Au8  1  0.526728  0.256899  0.684002  1
  Au  Au9  1  0.473272  0.743101  0.315998  1
  Au  Au10  1  0.256899  0.526728  0.532370  1
  Au  Au11  1  0.743101  0.473272  0.467630  1
  Au  Au12  1  0.500000  0.500000  0.000000  1
