# generated using pymatgen
data_TbPa2(SnOs)3
_symmetry_space_group_name_H-M   'P 1'
_cell_length_a   7.49693462
_cell_length_b   7.49693251
_cell_length_c   4.04841700
_cell_angle_alpha   90.00000000
_cell_angle_beta   90.00000000
_cell_angle_gamma   121.88862712
_symmetry_Int_Tables_number   1
_chemical_formula_structural   TbPa2(SnOs)3
_chemical_formula_sum   'Tb1 Pa2 Sn3 Os3'
_cell_volume   193.19657253
_cell_formula_units_Z   1
loop_
 _symmetry_equiv_pos_site_id
 _symmetry_equiv_pos_as_xyz
  1  'x, y, z'
loop_
 _atom_site_type_symbol
 _atom_site_label
 _atom_site_symmetry_multiplicity
 _atom_site_fract_x
 _atom_site_fract_y
 _atom_site_fract_z
 _atom_site_occupancy
  Tb  Tb0  1  0.592492  0.592492  0.500000  1
  Pa  Pa1  1  0.413006  0.001399  0.500000  1
  Pa  Pa2  1  0.001399  0.413006  0.500000  1
  Sn  Sn3  1  0.747154  0.986288  0.000000  1
  Sn  Sn4  1  0.986288  0.747154  0.000000  1
  Sn  Sn5  1  0.266698  0.266698  0.000000  1
  Os  Os6  1  0.306330  0.670202  0.000000  1
  Os  Os7  1  0.670202  0.306330  0.000000  1
  Os  Os8  1  0.016431  0.016431  0.500000  1
