# generated using pymatgen
data_Sm2Si4Tc5Mo3
_symmetry_space_group_name_H-M   'P 1'
_cell_length_a   7.92074812
_cell_length_b   6.93302623
_cell_length_c   4.24272500
_cell_angle_alpha   90.00000000
_cell_angle_beta   90.00000000
_cell_angle_gamma   89.93550315
_symmetry_Int_Tables_number   1
_chemical_formula_structural   Sm2Si4Tc5Mo3
_chemical_formula_sum   'Sm2 Si4 Tc5 Mo3'
_cell_volume   232.98805384
_cell_formula_units_Z   1
loop_
 _symmetry_equiv_pos_site_id
 _symmetry_equiv_pos_as_xyz
  1  'x, y, z'
loop_
 _atom_site_type_symbol
 _atom_site_label
 _atom_site_symmetry_multiplicity
 _atom_site_fract_x
 _atom_site_fract_y
 _atom_site_fract_z
 _atom_site_occupancy
  Sm  Sm0  1  0.501044  0.500335  0.000000  1
  Sm  Sm1  1  0.999744  0.001314  0.500000  1
  Si  Si2  1  0.688706  0.734480  0.500000  1
  Si  Si3  1  0.313209  0.265174  0.500000  1
  Si  Si4  1  0.184898  0.762685  0.000000  1
  Si  Si5  1  0.812450  0.236194  0.000000  1
  Tc  Tc6  1  0.885775  0.653732  0.000000  1
  Tc  Tc7  1  0.156497  0.575173  0.500000  1
  Tc  Tc8  1  0.839379  0.424661  0.500000  1
  Tc  Tc9  1  0.338711  0.074710  0.000000  1
  Tc  Tc10  1  0.663860  0.922885  0.000000  1
  Mo  Mo11  1  0.616571  0.149903  0.500000  1
  Mo  Mo12  1  0.384588  0.849238  0.500000  1
  Mo  Mo13  1  0.114568  0.349517  0.000000  1
