# generated using pymatgen
data_La6Tb3Er7(CdIr)4
_symmetry_space_group_name_H-M   'P 1'
_cell_length_a   9.77842392
_cell_length_b   9.78084947
_cell_length_c   9.78084900
_cell_angle_alpha   59.99999820
_cell_angle_beta   59.99179240
_cell_angle_gamma   59.99179450
_symmetry_Int_Tables_number   1
_chemical_formula_structural   La6Tb3Er7(CdIr)4
_chemical_formula_sum   'La6 Tb3 Er7 Cd4 Ir4'
_cell_volume   661.38311710
_cell_formula_units_Z   1
loop_
 _symmetry_equiv_pos_site_id
 _symmetry_equiv_pos_as_xyz
  1  'x, y, z'
loop_
 _atom_site_type_symbol
 _atom_site_label
 _atom_site_symmetry_multiplicity
 _atom_site_fract_x
 _atom_site_fract_y
 _atom_site_fract_z
 _atom_site_occupancy
  La  La0  1  0.192658  0.807230  0.807230  1
  La  La1  1  0.807652  0.192505  0.192505  1
  La  La2  1  0.807652  0.192505  0.807339  1
  La  La3  1  0.192658  0.807230  0.192882  1
  La  La4  1  0.807652  0.807339  0.192505  1
  La  La5  1  0.192658  0.192882  0.807230  1
  Tb  Tb6  1  0.596559  0.596847  0.596847  1
  Tb  Tb7  1  0.596559  0.596847  0.209746  1
  Tb  Tb8  1  0.596559  0.209746  0.596847  1
  Er  Er9  1  0.211645  0.596118  0.596118  1
  Er  Er10  1  0.064509  0.435667  0.435667  1
  Er  Er11  1  0.435452  0.064463  0.064463  1
  Er  Er12  1  0.435452  0.064463  0.435622  1
  Er  Er13  1  0.064509  0.435667  0.064156  1
  Er  Er14  1  0.435452  0.435622  0.064463  1
  Er  Er15  1  0.064509  0.064156  0.435667  1
  Cd  Cd16  1  0.828943  0.828505  0.828505  1
  Cd  Cd17  1  0.828943  0.828505  0.514045  1
  Cd  Cd18  1  0.828943  0.514045  0.828505  1
  Cd  Cd19  1  0.513847  0.828717  0.828717  1
  Ir  Ir20  1  0.389485  0.391212  0.391212  1
  Ir  Ir21  1  0.389485  0.391212  0.828091  1
  Ir  Ir22  1  0.389485  0.828091  0.391212  1
  Ir  Ir23  1  0.828731  0.390423  0.390423  1
