# generated using pymatgen
data_PrDy7Sc12Si15Tc
_symmetry_space_group_name_H-M   'P 1'
_cell_length_a   7.10936298
_cell_length_b   7.47301973
_cell_length_c   13.99202935
_cell_angle_alpha   90.11072155
_cell_angle_beta   90.05808419
_cell_angle_gamma   90.26518259
_symmetry_Int_Tables_number   1
_chemical_formula_structural   PrDy7Sc12Si15Tc
_chemical_formula_sum   'Pr1 Dy7 Sc12 Si15 Tc1'
_cell_volume   743.36453143
_cell_formula_units_Z   1
loop_
 _symmetry_equiv_pos_site_id
 _symmetry_equiv_pos_as_xyz
  1  'x, y, z'
loop_
 _atom_site_type_symbol
 _atom_site_label
 _atom_site_symmetry_multiplicity
 _atom_site_fract_x
 _atom_site_fract_y
 _atom_site_fract_z
 _atom_site_occupancy
  Pr  Pr0  1  0.010337  0.176307  0.094144  1
  Dy  Dy1  1  0.990684  0.826681  0.902696  1
  Dy  Dy2  1  0.489692  0.675987  0.903290  1
  Dy  Dy3  1  0.990791  0.826836  0.596580  1
  Dy  Dy4  1  0.510508  0.323722  0.095796  1
  Dy  Dy5  1  0.011611  0.179071  0.403682  1
  Dy  Dy6  1  0.511060  0.323144  0.404880  1
  Dy  Dy7  1  0.488993  0.675986  0.596173  1
  Sc  Sc8  1  0.156328  0.498886  0.750002  1
  Sc  Sc9  1  0.838526  0.495837  0.250763  1
  Sc  Sc10  1  0.339196  0.005077  0.250590  1
  Sc  Sc11  1  0.668045  0.998797  0.750019  1
  Sc  Sc12  1  0.315647  0.171025  0.628163  1
  Sc  Sc13  1  0.671516  0.826378  0.374343  1
  Sc  Sc14  1  0.172071  0.677527  0.374339  1
  Sc  Sc15  1  0.671478  0.825640  0.126477  1
  Sc  Sc16  1  0.837810  0.319145  0.627638  1
  Sc  Sc17  1  0.316765  0.170910  0.871161  1
  Sc  Sc18  1  0.836500  0.320746  0.871830  1
  Sc  Sc19  1  0.172178  0.677379  0.126315  1
  Si  Si20  1  0.968151  0.880966  0.251576  1
  Si  Si21  1  0.470408  0.613910  0.250435  1
  Si  Si22  1  0.529088  0.388321  0.749709  1
  Si  Si23  1  0.286414  0.867395  0.749560  1
  Si  Si24  1  0.709984  0.127969  0.252394  1
  Si  Si25  1  0.217224  0.373616  0.252198  1
  Si  Si26  1  0.779947  0.627844  0.749807  1
  Si  Si27  1  0.159642  0.468490  0.536988  1
  Si  Si28  1  0.845275  0.536377  0.461491  1
  Si  Si29  1  0.344613  0.965658  0.459896  1
  Si  Si30  1  0.843406  0.541091  0.037244  1
  Si  Si31  1  0.654483  0.033798  0.539161  1
  Si  Si32  1  0.160545  0.472734  0.961404  1
  Si  Si33  1  0.653079  0.032911  0.959920  1
  Si  Si34  1  0.349848  0.962581  0.039110  1
  Tc  Tc35  1  0.028157  0.111258  0.750227  1
