# generated using pymatgen
data_TmAlCoO5
_symmetry_space_group_name_H-M   'P 1'
_cell_length_a   5.61027700
_cell_length_b   7.13481800
_cell_length_c   8.26331000
_cell_angle_alpha   90.00000000
_cell_angle_beta   90.00000000
_cell_angle_gamma   90.00000000
_symmetry_Int_Tables_number   1
_chemical_formula_structural   TmAlCoO5
_chemical_formula_sum   'Tm4 Al4 Co4 O20'
_cell_volume   330.76629567
_cell_formula_units_Z   4
loop_
 _symmetry_equiv_pos_site_id
 _symmetry_equiv_pos_as_xyz
  1  'x, y, z'
loop_
 _atom_site_type_symbol
 _atom_site_label
 _atom_site_symmetry_multiplicity
 _atom_site_fract_x
 _atom_site_fract_y
 _atom_site_fract_z
 _atom_site_occupancy
  Tm  Tm0  1  0.500000  0.365135  0.330860  1
  Tm  Tm1  1  0.500000  0.634865  0.669140  1
  Tm  Tm2  1  0.500000  0.134865  0.830860  1
  Tm  Tm3  1  0.500000  0.865135  0.169140  1
  Al  Al4  1  0.000000  0.107856  0.143550  1
  Al  Al5  1  0.000000  0.892144  0.856450  1
  Al  Al6  1  0.000000  0.392144  0.643550  1
  Al  Al7  1  0.000000  0.607856  0.356450  1
  Co  Co8  1  0.246961  0.000000  0.500000  1
  Co  Co9  1  0.753039  0.000000  0.500000  1
  Co  Co10  1  0.753039  0.500000  0.000000  1
  Co  Co11  1  0.246961  0.500000  0.000000  1
  O  O12  1  0.500000  0.338224  0.056332  1
  O  O13  1  0.500000  0.661776  0.943668  1
  O  O14  1  0.500000  0.161776  0.556332  1
  O  O15  1  0.500000  0.838224  0.443668  1
  O  O16  1  0.223441  0.000000  0.000000  1
  O  O17  1  0.776559  0.000000  0.000000  1
  O  O18  1  0.776559  0.500000  0.500000  1
  O  O19  1  0.223441  0.500000  0.500000  1
  O  O20  1  0.252861  0.106215  0.291419  1
  O  O21  1  0.747139  0.893785  0.708581  1
  O  O22  1  0.252861  0.893785  0.708581  1
  O  O23  1  0.747139  0.393785  0.791419  1
  O  O24  1  0.747139  0.106215  0.291419  1
  O  O25  1  0.252861  0.606215  0.208581  1
  O  O26  1  0.747139  0.606215  0.208581  1
  O  O27  1  0.252861  0.393785  0.791419  1
  O  O28  1  0.000000  0.346672  0.071604  1
  O  O29  1  0.000000  0.653328  0.928396  1
  O  O30  1  0.000000  0.153328  0.571604  1
  O  O31  1  0.000000  0.846672  0.428396  1
