# generated using pymatgen
data_K2Zr4GeSe10
_symmetry_space_group_name_H-M   'P 1'
_cell_length_a   6.71748009
_cell_length_b   11.36691962
_cell_length_c   9.11267445
_cell_angle_alpha   59.31224775
_cell_angle_beta   68.44891303
_cell_angle_gamma   90.07918304
_symmetry_Int_Tables_number   1
_chemical_formula_structural   K2Zr4GeSe10
_chemical_formula_sum   'K2 Zr4 Ge1 Se10'
_cell_volume   540.80769971
_cell_formula_units_Z   1
loop_
 _symmetry_equiv_pos_site_id
 _symmetry_equiv_pos_as_xyz
  1  'x, y, z'
loop_
 _atom_site_type_symbol
 _atom_site_label
 _atom_site_symmetry_multiplicity
 _atom_site_fract_x
 _atom_site_fract_y
 _atom_site_fract_z
 _atom_site_occupancy
  K  K0  1  0.787341  0.075346  0.425200  1
  K  K1  1  0.010686  0.525485  0.977700  1
  Zr  Zr2  1  0.399203  0.798197  0.201392  1
  Zr  Zr3  1  0.201286  0.401908  0.594062  1
  Zr  Zr4  1  0.603095  0.205344  0.798096  1
  Zr  Zr5  1  0.996045  0.994613  0.004439  1
  Ge  Ge6  1  0.802233  0.600959  0.400961  1
  Se  Se7  1  0.996904  0.841837  0.345146  1
  Se  Se8  1  0.591553  0.037605  0.152603  1
  Se  Se9  1  0.191338  0.239317  0.951630  1
  Se  Se10  1  0.791131  0.431530  0.757081  1
  Se  Se11  1  0.382651  0.636881  0.547945  1
  Se  Se12  1  0.404541  0.962380  0.851327  1
  Se  Se13  1  0.006936  0.162264  0.648585  1
  Se  Se14  1  0.603718  0.352719  0.456398  1
  Se  Se15  1  0.222449  0.562508  0.246955  1
  Se  Se16  1  0.808890  0.771109  0.040478  1
