# generated using pymatgen
data_Tb2HoLuPt2
_symmetry_space_group_name_H-M   'P 1'
_cell_length_a   4.75608900
_cell_length_b   7.14019100
_cell_length_c   8.73938500
_cell_angle_alpha   90.00000000
_cell_angle_beta   90.00000000
_cell_angle_gamma   90.00000000
_symmetry_Int_Tables_number   1
_chemical_formula_structural   Tb2HoLuPt2
_chemical_formula_sum   'Tb4 Ho2 Lu2 Pt4'
_cell_volume   296.78413003
_cell_formula_units_Z   2
loop_
 _symmetry_equiv_pos_site_id
 _symmetry_equiv_pos_as_xyz
  1  'x, y, z'
loop_
 _atom_site_type_symbol
 _atom_site_label
 _atom_site_symmetry_multiplicity
 _atom_site_fract_x
 _atom_site_fract_y
 _atom_site_fract_z
 _atom_site_occupancy
  Tb  Tb0  1  0.750000  0.489512  0.830833  1
  Tb  Tb1  1  0.250000  0.011931  0.328895  1
  Tb  Tb2  1  0.750000  0.989512  0.669167  1
  Tb  Tb3  1  0.250000  0.511931  0.171105  1
  Ho  Ho4  1  0.250000  0.643408  0.578002  1
  Ho  Ho5  1  0.250000  0.143408  0.921998  1
  Lu  Lu6  1  0.750000  0.356142  0.421410  1
  Lu  Lu7  1  0.750000  0.856142  0.078590  1
  Pt  Pt8  1  0.250000  0.744616  0.908708  1
  Pt  Pt9  1  0.250000  0.244616  0.591292  1
  Pt  Pt10  1  0.750000  0.754394  0.403978  1
  Pt  Pt11  1  0.750000  0.254394  0.096022  1
