# generated using pymatgen
data_HfZr2TaP2
_symmetry_space_group_name_H-M   'P 1'
_cell_length_a   6.96868500
_cell_length_b   3.59328600
_cell_length_c   8.52010900
_cell_angle_alpha   90.00000000
_cell_angle_beta   90.00000000
_cell_angle_gamma   90.00000000
_symmetry_Int_Tables_number   1
_chemical_formula_structural   HfZr2TaP2
_chemical_formula_sum   'Hf2 Zr4 Ta2 P4'
_cell_volume   213.34760409
_cell_formula_units_Z   2
loop_
 _symmetry_equiv_pos_site_id
 _symmetry_equiv_pos_as_xyz
  1  'x, y, z'
loop_
 _atom_site_type_symbol
 _atom_site_label
 _atom_site_symmetry_multiplicity
 _atom_site_fract_x
 _atom_site_fract_y
 _atom_site_fract_z
 _atom_site_occupancy
  Hf  Hf0  1  0.641006  0.250000  0.060422  1
  Hf  Hf1  1  0.141006  0.250000  0.439578  1
  Zr  Zr2  1  0.974699  0.750001  0.170465  1
  Zr  Zr3  1  0.474699  0.750001  0.329535  1
  Zr  Zr4  1  0.530905  0.250000  0.668865  1
  Zr  Zr5  1  0.030907  0.250000  0.831135  1
  Ta  Ta6  1  0.856470  0.750001  0.561445  1
  Ta  Ta7  1  0.356472  0.750001  0.938555  1
  P  P8  1  0.263544  0.250000  0.137962  1
  P  P9  1  0.763544  0.250000  0.362038  1
  P  P10  1  0.233373  0.750001  0.647846  1
  P  P11  1  0.733373  0.750001  0.852154  1
