# generated using pymatgen
data_Dy3Y(Al5Pt3)4
_symmetry_space_group_name_H-M   'P 1'
_cell_length_a   4.08397700
_cell_length_b   7.41653100
_cell_length_c   20.62578701
_cell_angle_alpha   89.99718837
_cell_angle_beta   89.99997764
_cell_angle_gamma   90.00005123
_symmetry_Int_Tables_number   1
_chemical_formula_structural   Dy3Y(Al5Pt3)4
_chemical_formula_sum   'Dy3 Y1 Al20 Pt12'
_cell_volume   624.73326626
_cell_formula_units_Z   1
loop_
 _symmetry_equiv_pos_site_id
 _symmetry_equiv_pos_as_xyz
  1  'x, y, z'
loop_
 _atom_site_type_symbol
 _atom_site_label
 _atom_site_symmetry_multiplicity
 _atom_site_fract_x
 _atom_site_fract_y
 _atom_site_fract_z
 _atom_site_occupancy
  Dy  Dy0  1  0.750000  0.883979  0.360289  1
  Dy  Dy1  1  0.250000  0.383950  0.139708  1
  Dy  Dy2  1  0.750000  0.616034  0.860295  1
  Y  Y3  1  0.250000  0.116122  0.639713  1
  Al  Al4  1  0.750000  0.354628  0.382075  1
  Al  Al5  1  0.750000  0.883817  0.983865  1
  Al  Al6  1  0.750000  0.685636  0.200264  1
  Al  Al7  1  0.250000  0.869565  0.491083  1
  Al  Al8  1  0.250000  0.630417  0.991087  1
  Al  Al9  1  0.250000  0.314351  0.799747  1
  Al  Al10  1  0.750000  0.074375  0.209095  1
  Al  Al11  1  0.250000  0.645341  0.617907  1
  Al  Al12  1  0.250000  0.574358  0.290898  1
  Al  Al13  1  0.250000  0.185648  0.299730  1
  Al  Al14  1  0.750000  0.145333  0.882083  1
  Al  Al15  1  0.250000  0.925631  0.790918  1
  Al  Al16  1  0.750000  0.369578  0.008917  1
  Al  Al17  1  0.750000  0.616194  0.483874  1
  Al  Al18  1  0.750000  0.130395  0.508906  1
  Al  Al19  1  0.250000  0.116193  0.016132  1
  Al  Al20  1  0.250000  0.854653  0.117919  1
  Al  Al21  1  0.250000  0.383834  0.516122  1
  Al  Al22  1  0.750000  0.425660  0.709112  1
  Al  Al23  1  0.750000  0.814305  0.700272  1
  Pt  Pt24  1  0.749999  0.382206  0.259290  1
  Pt  Pt25  1  0.250000  0.882200  0.240709  1
  Pt  Pt26  1  0.250000  0.617776  0.740707  1
  Pt  Pt27  1  0.750000  0.117818  0.759426  1
  Pt  Pt28  1  0.250000  0.159842  0.425994  1
  Pt  Pt29  1  0.750000  0.418561  0.585640  1
  Pt  Pt30  1  0.750000  0.081749  0.085695  1
  Pt  Pt31  1  0.250000  0.918253  0.914308  1
  Pt  Pt32  1  0.750000  0.839842  0.573921  1
  Pt  Pt33  1  0.250000  0.340167  0.926002  1
  Pt  Pt34  1  0.750000  0.659840  0.073992  1
  Pt  Pt35  1  0.250000  0.581750  0.414307  1
