# generated using pymatgen
data_ThPa3(CoB10)2
_symmetry_space_group_name_H-M   'P 1'
_cell_length_a   4.13492500
_cell_length_b   5.55336442
_cell_length_c   11.07814500
_cell_angle_alpha   90.10041490
_cell_angle_beta   90.00000000
_cell_angle_gamma   90.00000000
_symmetry_Int_Tables_number   1
_chemical_formula_structural   ThPa3(CoB10)2
_chemical_formula_sum   'Th1 Pa3 Co2 B20'
_cell_volume   254.38423224
_cell_formula_units_Z   1
loop_
 _symmetry_equiv_pos_site_id
 _symmetry_equiv_pos_as_xyz
  1  'x, y, z'
loop_
 _atom_site_type_symbol
 _atom_site_label
 _atom_site_symmetry_multiplicity
 _atom_site_fract_x
 _atom_site_fract_y
 _atom_site_fract_z
 _atom_site_occupancy
  Th  Th0  1  0.500000  0.196227  0.364156  1
  Pa  Pa1  1  0.500000  0.305469  0.864377  1
  Pa  Pa2  1  0.500000  0.695648  0.133249  1
  Pa  Pa3  1  0.500000  0.803525  0.637678  1
  Co  Co4  1  0.000000  0.502471  0.501837  1
  Co  Co5  1  0.000000  0.000269  0.999085  1
  B  B6  1  0.000000  0.125197  0.541251  1
  B  B7  1  0.000000  0.871551  0.461729  1
  B  B8  1  0.000000  0.627203  0.961044  1
  B  B9  1  0.000000  0.373423  0.038031  1
  B  B10  1  0.000000  0.153425  0.698763  1
  B  B11  1  0.000000  0.845591  0.301824  1
  B  B12  1  0.301829  0.198996  0.111469  1
  B  B13  1  0.302395  0.800390  0.886620  1
  B  B14  1  0.698691  0.698948  0.386666  1
  B  B15  1  0.698160  0.300400  0.614984  1
  B  B16  1  0.697605  0.800390  0.886620  1
  B  B17  1  0.698171  0.198996  0.111469  1
  B  B18  1  0.301840  0.300400  0.614984  1
  B  B19  1  0.301309  0.698948  0.386666  1
  B  B20  1  0.000000  0.030466  0.185915  1
  B  B21  1  0.000000  0.969162  0.813225  1
  B  B22  1  0.000000  0.532730  0.311998  1
  B  B23  1  0.000000  0.469169  0.687720  1
  B  B24  1  0.000000  0.348106  0.195776  1
  B  B25  1  0.000000  0.652897  0.802866  1
