# generated using pymatgen
data_ZrTaSnRh5
_symmetry_space_group_name_H-M   'P 1'
_cell_length_a   5.62753072
_cell_length_b   5.62753016
_cell_length_c   8.22740400
_cell_angle_alpha   90.00000000
_cell_angle_beta   90.00000000
_cell_angle_gamma   97.19692669
_symmetry_Int_Tables_number   1
_chemical_formula_structural   ZrTaSnRh5
_chemical_formula_sum   'Zr2 Ta2 Sn2 Rh10'
_cell_volume   258.50167231
_cell_formula_units_Z   2
loop_
 _symmetry_equiv_pos_site_id
 _symmetry_equiv_pos_as_xyz
  1  'x, y, z'
loop_
 _atom_site_type_symbol
 _atom_site_label
 _atom_site_symmetry_multiplicity
 _atom_site_fract_x
 _atom_site_fract_y
 _atom_site_fract_z
 _atom_site_occupancy
  Zr  Zr0  1  0.216799  0.783201  0.500000  1
  Zr  Zr1  1  0.783201  0.216799  0.000000  1
  Ta  Ta2  1  0.793010  0.206990  0.500000  1
  Ta  Ta3  1  0.206990  0.793010  0.000000  1
  Sn  Sn4  1  0.501308  0.501308  0.750000  1
  Sn  Sn5  1  0.498692  0.498692  0.250000  1
  Rh  Rh6  1  0.732223  0.728546  0.000581  1
  Rh  Rh7  1  0.728546  0.732223  0.499419  1
  Rh  Rh8  1  0.271454  0.267777  0.999419  1
  Rh  Rh9  1  0.267777  0.271454  0.500581  1
  Rh  Rh10  1  0.500038  0.000596  0.749906  1
  Rh  Rh11  1  0.499962  0.999404  0.249906  1
  Rh  Rh12  1  0.000234  0.000234  0.250000  1
  Rh  Rh13  1  0.999766  0.999766  0.750000  1
  Rh  Rh14  1  0.000596  0.500038  0.750094  1
  Rh  Rh15  1  0.999404  0.499962  0.250094  1
