# generated using pymatgen
data_Ti5ZnBi2
_symmetry_space_group_name_H-M   'P 1'
_cell_length_a   7.99726569
_cell_length_b   7.99726516
_cell_length_c   7.99726612
_cell_angle_alpha   96.16846256
_cell_angle_beta   96.16845858
_cell_angle_gamma   141.72953802
_symmetry_Int_Tables_number   1
_chemical_formula_structural   Ti5ZnBi2
_chemical_formula_sum   'Ti10 Zn2 Bi4'
_cell_volume   299.29093962
_cell_formula_units_Z   2
loop_
 _symmetry_equiv_pos_site_id
 _symmetry_equiv_pos_as_xyz
  1  'x, y, z'
loop_
 _atom_site_type_symbol
 _atom_site_label
 _atom_site_symmetry_multiplicity
 _atom_site_fract_x
 _atom_site_fract_y
 _atom_site_fract_z
 _atom_site_occupancy
  Ti  Ti0  1  0.572411  0.714074  0.286484  1
  Ti  Ti1  1  0.427589  0.285926  0.713516  1
  Ti  Ti2  1  0.750000  0.250000  0.500000  1
  Ti  Ti3  1  0.250000  0.750000  0.500000  1
  Ti  Ti4  1  0.714074  0.427589  0.141663  1
  Ti  Ti5  1  0.285926  0.572411  0.858337  1
  Ti  Ti6  1  0.927589  0.214074  0.141663  1
  Ti  Ti7  1  0.214074  0.072411  0.286484  1
  Ti  Ti8  1  0.072411  0.785926  0.858337  1
  Ti  Ti9  1  0.785926  0.927589  0.713516  1
  Zn  Zn10  1  0.750000  0.750000  0.000000  1
  Zn  Zn11  1  0.250000  0.250000  0.000000  1
  Bi  Bi12  1  0.334833  0.834833  0.169666  1
  Bi  Bi13  1  0.165167  0.334833  0.500000  1
  Bi  Bi14  1  0.665167  0.165167  0.830334  1
  Bi  Bi15  1  0.834833  0.665167  0.500000  1
