# generated using pymatgen
data_Er3In3IrPt2
_symmetry_space_group_name_H-M   'P 1'
_cell_length_a   7.67535000
_cell_length_b   7.67535079
_cell_length_c   3.78823900
_cell_angle_alpha   90.00000000
_cell_angle_beta   90.00000000
_cell_angle_gamma   119.99999658
_symmetry_Int_Tables_number   1
_chemical_formula_structural   Er3In3IrPt2
_chemical_formula_sum   'Er3 In3 Ir1 Pt2'
_cell_volume   193.26999693
_cell_formula_units_Z   1
loop_
 _symmetry_equiv_pos_site_id
 _symmetry_equiv_pos_as_xyz
  1  'x, y, z'
loop_
 _atom_site_type_symbol
 _atom_site_label
 _atom_site_symmetry_multiplicity
 _atom_site_fract_x
 _atom_site_fract_y
 _atom_site_fract_z
 _atom_site_occupancy
  Er  Er0  1  0.590618  0.991038  0.500000  1
  Er  Er1  1  0.400420  0.409382  0.500000  1
  Er  Er2  1  0.008962  0.599580  0.500000  1
  In  In3  1  0.734832  0.736616  0.000000  1
  In  In4  1  0.001783  0.265168  0.000000  1
  In  In5  1  0.263384  0.998217  0.000000  1
  Ir  Ir6  1  0.333333  0.666667  0.000000  1
  Pt  Pt7  1  0.666667  0.333333  0.000000  1
  Pt  Pt8  1  0.000000  0.000000  0.500000  1
