# generated using pymatgen
data_Dy15Lu(InRh)4
_symmetry_space_group_name_H-M   'P 1'
_cell_length_a   9.65344782
_cell_length_b   9.66224973
_cell_length_c   9.66224939
_cell_angle_alpha   59.96952860
_cell_angle_beta   60.03013264
_cell_angle_gamma   60.03012906
_symmetry_Int_Tables_number   1
_chemical_formula_structural   Dy15Lu(InRh)4
_chemical_formula_sum   'Dy15 Lu1 In4 Rh4'
_cell_volume   637.41369906
_cell_formula_units_Z   1
loop_
 _symmetry_equiv_pos_site_id
 _symmetry_equiv_pos_as_xyz
  1  'x, y, z'
loop_
 _atom_site_type_symbol
 _atom_site_label
 _atom_site_symmetry_multiplicity
 _atom_site_fract_x
 _atom_site_fract_y
 _atom_site_fract_z
 _atom_site_occupancy
  Dy  Dy0  1  0.688703  0.688377  0.311180  1
  Dy  Dy1  1  0.311740  0.688377  0.311180  1
  Dy  Dy2  1  0.937555  0.938348  0.561631  1
  Dy  Dy3  1  0.150224  0.149802  0.549748  1
  Dy  Dy4  1  0.562465  0.938348  0.561631  1
  Dy  Dy5  1  0.149980  0.150250  0.150250  1
  Dy  Dy6  1  0.311740  0.311180  0.688377  1
  Dy  Dy7  1  0.937762  0.562238  0.562238  1
  Dy  Dy8  1  0.562465  0.561631  0.938348  1
  Dy  Dy9  1  0.562106  0.937894  0.937894  1
  Dy  Dy10  1  0.937555  0.561631  0.938348  1
  Dy  Dy11  1  0.150224  0.549748  0.149802  1
  Dy  Dy12  1  0.311185  0.688815  0.688815  1
  Dy  Dy13  1  0.688703  0.311180  0.688377  1
  Dy  Dy14  1  0.549520  0.150250  0.150250  1
  Lu  Lu15  1  0.688594  0.311406  0.311406  1
  In  In16  1  0.916943  0.917299  0.248815  1
  In  In17  1  0.248773  0.917137  0.917137  1
  In  In18  1  0.916943  0.248815  0.917299  1
  In  In19  1  0.916952  0.917137  0.917137  1
  Rh  Rh20  1  0.358755  0.357407  0.357407  1
  Rh  Rh21  1  0.926432  0.357407  0.357407  1
  Rh  Rh22  1  0.357341  0.357672  0.927648  1
  Rh  Rh23  1  0.357341  0.927648  0.357672  1
