# generated using pymatgen
data_Dy(TlCl2)3
_symmetry_space_group_name_H-M   'P 1'
_cell_length_a   13.33447643
_cell_length_b   13.33447693
_cell_length_c   12.64198700
_cell_angle_alpha   80.83343238
_cell_angle_beta   80.83343203
_cell_angle_gamma   34.05014975
_symmetry_Int_Tables_number   1
_chemical_formula_structural   Dy(TlCl2)3
_chemical_formula_sum   'Dy4 Tl12 Cl24'
_cell_volume   1241.02129252
_cell_formula_units_Z   4
loop_
 _symmetry_equiv_pos_site_id
 _symmetry_equiv_pos_as_xyz
  1  'x, y, z'
loop_
 _atom_site_type_symbol
 _atom_site_label
 _atom_site_symmetry_multiplicity
 _atom_site_fract_x
 _atom_site_fract_y
 _atom_site_fract_z
 _atom_site_occupancy
  Dy  Dy0  1  0.783889  0.216111  0.250000  1
  Dy  Dy1  1  0.216111  0.783889  0.750000  1
  Dy  Dy2  1  0.500000  0.000000  0.000000  1
  Dy  Dy3  1  0.000000  0.500000  0.500000  1
  Tl  Tl4  1  0.300009  0.799413  0.065387  1
  Tl  Tl5  1  0.699991  0.200587  0.934613  1
  Tl  Tl6  1  0.200587  0.699991  0.434613  1
  Tl  Tl7  1  0.799413  0.300009  0.565387  1
  Tl  Tl8  1  0.467567  0.842314  0.356618  1
  Tl  Tl9  1  0.532433  0.157686  0.643382  1
  Tl  Tl10  1  0.157686  0.532433  0.143382  1
  Tl  Tl11  1  0.842314  0.467567  0.856618  1
  Tl  Tl12  1  0.651763  0.024440  0.301109  1
  Tl  Tl13  1  0.348237  0.975560  0.698891  1
  Tl  Tl14  1  0.975560  0.348237  0.198891  1
  Tl  Tl15  1  0.024440  0.651763  0.801109  1
  Cl  Cl16  1  0.623935  0.716307  0.080854  1
  Cl  Cl17  1  0.376065  0.283693  0.919146  1
  Cl  Cl18  1  0.283693  0.376065  0.419146  1
  Cl  Cl19  1  0.716307  0.623935  0.580854  1
  Cl  Cl20  1  0.492924  0.388093  0.174413  1
  Cl  Cl21  1  0.507076  0.611907  0.825587  1
  Cl  Cl22  1  0.611907  0.507076  0.325587  1
  Cl  Cl23  1  0.388093  0.492924  0.674413  1
  Cl  Cl24  1  0.789571  0.860880  0.032659  1
  Cl  Cl25  1  0.210429  0.139120  0.967341  1
  Cl  Cl26  1  0.139120  0.210429  0.467341  1
  Cl  Cl27  1  0.860880  0.789571  0.532659  1
  Cl  Cl28  1  0.902169  0.977106  0.697740  1
  Cl  Cl29  1  0.097831  0.022894  0.302260  1
  Cl  Cl30  1  0.022894  0.097831  0.802260  1
  Cl  Cl31  1  0.977106  0.902169  0.197740  1
  Cl  Cl32  1  0.718030  0.165720  0.440711  1
  Cl  Cl33  1  0.281970  0.834280  0.559289  1
  Cl  Cl34  1  0.834280  0.281970  0.059289  1
  Cl  Cl35  1  0.165720  0.718030  0.940711  1
  Cl  Cl36  1  0.357774  0.143147  0.190776  1
  Cl  Cl37  1  0.642226  0.856853  0.809224  1
  Cl  Cl38  1  0.856853  0.642226  0.309224  1
  Cl  Cl39  1  0.143147  0.357774  0.690776  1
