# generated using pymatgen
data_Cs2TiZn3P4
_symmetry_space_group_name_H-M   'P 1'
_cell_length_a   7.97445924
_cell_length_b   7.97445948
_cell_length_c   5.79780500
_cell_angle_alpha   90.00000000
_cell_angle_beta   90.00000000
_cell_angle_gamma   137.32866857
_symmetry_Int_Tables_number   1
_chemical_formula_structural   Cs2TiZn3P4
_chemical_formula_sum   'Cs2 Ti1 Zn3 P4'
_cell_volume   249.89781165
_cell_formula_units_Z   1
loop_
 _symmetry_equiv_pos_site_id
 _symmetry_equiv_pos_as_xyz
  1  'x, y, z'
loop_
 _atom_site_type_symbol
 _atom_site_label
 _atom_site_symmetry_multiplicity
 _atom_site_fract_x
 _atom_site_fract_y
 _atom_site_fract_z
 _atom_site_occupancy
  Cs  Cs0  1  0.500000  0.000000  0.256776  1
  Cs  Cs1  1  0.000000  0.500000  0.743224  1
  Ti  Ti2  1  0.000000  0.000000  0.000000  1
  Zn  Zn3  1  0.500000  0.500000  0.500000  1
  Zn  Zn4  1  0.500000  0.500000  0.000000  1
  Zn  Zn5  1  0.000000  0.000000  0.500000  1
  P  P6  1  0.665991  0.850094  0.758553  1
  P  P7  1  0.149906  0.334009  0.241447  1
  P  P8  1  0.850094  0.665991  0.241447  1
  P  P9  1  0.334009  0.149906  0.758553  1
