# generated using pymatgen
data_Er2AlZnIr2
_symmetry_space_group_name_H-M   'P 1'
_cell_length_a   4.10696700
_cell_length_b   6.89613222
_cell_length_c   8.03231060
_cell_angle_alpha   89.84676859
_cell_angle_beta   90.00000000
_cell_angle_gamma   90.00000000
_symmetry_Int_Tables_number   1
_chemical_formula_structural   Er2AlZnIr2
_chemical_formula_sum   'Er4 Al2 Zn2 Ir4'
_cell_volume   227.49179275
_cell_formula_units_Z   2
loop_
 _symmetry_equiv_pos_site_id
 _symmetry_equiv_pos_as_xyz
  1  'x, y, z'
loop_
 _atom_site_type_symbol
 _atom_site_label
 _atom_site_symmetry_multiplicity
 _atom_site_fract_x
 _atom_site_fract_y
 _atom_site_fract_z
 _atom_site_occupancy
  Er  Er0  1  0.250000  0.534342  0.177814  1
  Er  Er1  1  0.750000  0.465658  0.822186  1
  Er  Er2  1  0.750000  0.964150  0.684191  1
  Er  Er3  1  0.250000  0.035850  0.315809  1
  Al  Al4  1  0.250000  0.639630  0.561902  1
  Al  Al5  1  0.750000  0.360370  0.438098  1
  Zn  Zn6  1  0.750000  0.858972  0.064766  1
  Zn  Zn7  1  0.250000  0.141028  0.935234  1
  Ir  Ir8  1  0.250000  0.756515  0.870482  1
  Ir  Ir9  1  0.750000  0.243485  0.129518  1
  Ir  Ir10  1  0.750000  0.733233  0.387950  1
  Ir  Ir11  1  0.250000  0.266767  0.612050  1
