# generated using pymatgen
data_Li2Sc4CoB4Rh9
_symmetry_space_group_name_H-M   'P 1'
_cell_length_a   9.21632014
_cell_length_b   9.21632061
_cell_length_c   3.04681000
_cell_angle_alpha   90.00000000
_cell_angle_beta   90.00000000
_cell_angle_gamma   90.74071534
_symmetry_Int_Tables_number   1
_chemical_formula_structural   Li2Sc4CoB4Rh9
_chemical_formula_sum   'Li2 Sc4 Co1 B4 Rh9'
_cell_volume   258.77612510
_cell_formula_units_Z   1
loop_
 _symmetry_equiv_pos_site_id
 _symmetry_equiv_pos_as_xyz
  1  'x, y, z'
loop_
 _atom_site_type_symbol
 _atom_site_label
 _atom_site_symmetry_multiplicity
 _atom_site_fract_x
 _atom_site_fract_y
 _atom_site_fract_z
 _atom_site_occupancy
  Li  Li0  1  0.000000  0.000000  0.000000  1
  Li  Li1  1  0.500000  0.500000  0.000000  1
  Sc  Sc2  1  0.820041  0.320041  0.000000  1
  Sc  Sc3  1  0.328617  0.171383  0.000000  1
  Sc  Sc4  1  0.671383  0.828617  0.000000  1
  Sc  Sc5  1  0.179959  0.679959  0.000000  1
  Co  Co6  1  0.500000  0.000000  0.500000  1
  B  B7  1  0.615450  0.115450  0.000000  1
  B  B8  1  0.129980  0.370020  0.000000  1
  B  B9  1  0.870020  0.629980  0.000000  1
  B  B10  1  0.384550  0.884550  0.000000  1
  Rh  Rh11  1  0.067720  0.213839  0.500000  1
  Rh  Rh12  1  0.221256  0.934399  0.500000  1
  Rh  Rh13  1  0.778744  0.065601  0.500000  1
  Rh  Rh14  1  0.932280  0.786161  0.500000  1
  Rh  Rh15  1  0.434399  0.721256  0.500000  1
  Rh  Rh16  1  0.565601  0.278744  0.500000  1
  Rh  Rh17  1  0.713839  0.567720  0.500000  1
  Rh  Rh18  1  0.286161  0.432280  0.500000  1
  Rh  Rh19  1  0.000000  0.500000  0.500000  1
