# generated using pymatgen
data_LaYb2Pr(Si5Pt3)2
_symmetry_space_group_name_H-M   'P 1'
_cell_length_a   8.27983486
_cell_length_b   8.27978201
_cell_length_c   8.27978160
_cell_angle_alpha   137.40769453
_cell_angle_beta   104.71082420
_cell_angle_gamma   90.56549172
_symmetry_Int_Tables_number   1
_chemical_formula_structural   LaYb2Pr(Si5Pt3)2
_chemical_formula_sum   'La1 Yb2 Pr1 Si10 Pt6'
_cell_volume   354.36811602
_cell_formula_units_Z   1
loop_
 _symmetry_equiv_pos_site_id
 _symmetry_equiv_pos_as_xyz
  1  'x, y, z'
loop_
 _atom_site_type_symbol
 _atom_site_label
 _atom_site_symmetry_multiplicity
 _atom_site_fract_x
 _atom_site_fract_y
 _atom_site_fract_z
 _atom_site_occupancy
  La  La0  1  0.862789  0.629613  0.233176  1
  Yb  Yb1  1  0.137863  0.372255  0.765608  1
  Yb  Yb2  1  0.393196  0.127673  0.265524  1
  Pr  Pr3  1  0.603684  0.870743  0.732941  1
  Si  Si4  1  0.497466  0.749086  0.247467  1
  Si  Si5  1  0.497466  0.249999  0.748380  1
  Si  Si6  1  0.229879  0.981088  0.751074  1
  Si  Si7  1  0.770883  0.521154  0.750687  1
  Si  Si8  1  0.770883  0.020197  0.249729  1
  Si  Si9  1  0.229879  0.478806  0.248790  1
  Si  Si10  1  0.040742  0.889746  0.150997  1
  Si  Si11  1  0.963554  0.112947  0.850607  1
  Si  Si12  1  0.738309  0.386587  0.351722  1
  Si  Si13  1  0.260661  0.610070  0.650591  1
  Pt  Pt14  1  0.001089  0.750746  0.751431  1
  Pt  Pt15  1  0.001089  0.249658  0.250344  1
  Pt  Pt16  1  0.252147  0.865555  0.386593  1
  Pt  Pt17  1  0.751313  0.137993  0.613318  1
  Pt  Pt18  1  0.476472  0.361775  0.114697  1
  Pt  Pt19  1  0.520635  0.634310  0.886326  1
