# generated using pymatgen
data_Li3Pr3Ag2Pt
_symmetry_space_group_name_H-M   'P 1'
_cell_length_a   7.75404200
_cell_length_b   7.75404219
_cell_length_c   4.10044100
_cell_angle_alpha   90.00000000
_cell_angle_beta   90.00000000
_cell_angle_gamma   120.00000771
_symmetry_Int_Tables_number   1
_chemical_formula_structural   Li3Pr3Ag2Pt
_chemical_formula_sum   'Li3 Pr3 Ag2 Pt1'
_cell_volume   213.50963310
_cell_formula_units_Z   1
loop_
 _symmetry_equiv_pos_site_id
 _symmetry_equiv_pos_as_xyz
  1  'x, y, z'
loop_
 _atom_site_type_symbol
 _atom_site_label
 _atom_site_symmetry_multiplicity
 _atom_site_fract_x
 _atom_site_fract_y
 _atom_site_fract_z
 _atom_site_occupancy
  Li  Li0  1  0.239120  0.001631  0.500000  1
  Li  Li1  1  0.998369  0.237487  0.500000  1
  Li  Li2  1  0.762513  0.760880  0.500000  1
  Pr  Pr3  1  0.595931  0.018105  0.000000  1
  Pr  Pr4  1  0.981895  0.577826  0.000000  1
  Pr  Pr5  1  0.422174  0.404069  0.000000  1
  Ag  Ag6  1  0.333333  0.666667  0.500000  1
  Ag  Ag7  1  0.000000  0.000000  0.000000  1
  Pt  Pt8  1  0.666667  0.333333  0.500000  1
