# generated using pymatgen
data_Li30Si7P
_symmetry_space_group_name_H-M   'P 1'
_cell_length_a   9.15136183
_cell_length_b   9.15136132
_cell_length_c   9.05846800
_cell_angle_alpha   109.26572302
_cell_angle_beta   109.26572193
_cell_angle_gamma   109.67593639
_symmetry_Int_Tables_number   1
_chemical_formula_structural   Li30Si7P
_chemical_formula_sum   'Li30 Si7 P1'
_cell_volume   585.46296668
_cell_formula_units_Z   1
loop_
 _symmetry_equiv_pos_site_id
 _symmetry_equiv_pos_as_xyz
  1  'x, y, z'
loop_
 _atom_site_type_symbol
 _atom_site_label
 _atom_site_symmetry_multiplicity
 _atom_site_fract_x
 _atom_site_fract_y
 _atom_site_fract_z
 _atom_site_occupancy
  Li  Li0  1  0.341472  0.809286  0.723593  1
  Li  Li1  1  0.125147  0.751610  0.876226  1
  Li  Li2  1  0.718752  0.335284  0.805649  1
  Li  Li3  1  0.616532  0.781248  0.586897  1
  Li  Li4  1  0.030571  0.912975  0.689349  1
  Li  Li5  1  0.085033  0.275695  0.116843  1
  Li  Li6  1  0.912471  0.689186  0.029871  1
  Li  Li7  1  0.276374  0.117566  0.085228  1
  Li  Li8  1  0.190662  0.414967  0.531810  1
  Li  Li9  1  0.776715  0.587529  0.617400  1
  Li  Li10  1  0.690714  0.032186  0.914306  1
  Li  Li11  1  0.531398  0.189251  0.414746  1
  Li  Li12  1  0.626463  0.374853  0.251079  1
  Li  Li13  1  0.467814  0.158528  0.882120  1
  Li  Li14  1  0.876325  0.125624  0.752342  1
  Li  Li15  1  0.973895  0.386113  0.659740  1
  Li  Li16  1  0.412218  0.526105  0.185845  1
  Li  Li17  1  0.113887  0.087782  0.273628  1
  Li  Li18  1  0.310749  0.842147  0.225495  1
  Li  Li19  1  0.748390  0.873537  0.124616  1
  Li  Li20  1  0.882404  0.469429  0.158779  1
  Li  Li21  1  0.587025  0.617596  0.776375  1
  Li  Li22  1  0.382434  0.658808  0.967663  1
  Li  Li23  1  0.810814  0.723285  0.340686  1
  Li  Li24  1  0.657853  0.968602  0.383347  1
  Li  Li25  1  0.164716  0.883468  0.470365  1
  Li  Li26  1  0.224305  0.309338  0.841148  1
  Li  Li27  1  0.374376  0.250701  0.626718  1
  Li  Li28  1  0.841192  0.223626  0.308855  1
  Li  Li29  1  0.249299  0.623675  0.376017  1
  Si  Si30  1  0.584506  0.497121  0.998304  1
  Si  Si31  1  0.500000  0.000000  0.085465  1
  Si  Si32  1  0.999550  0.083429  0.501091  1
  Si  Si33  1  0.002879  0.587384  0.501183  1
  Si  Si34  1  0.083879  0.500450  0.001541  1
  Si  Si35  1  0.416571  0.416121  0.417663  1
  Si  Si36  1  0.912616  0.915494  0.913798  1
  P  P37  1  0.500000  0.000000  0.584221  1
