# generated using pymatgen
data_Li2Ni5P7Ir2Ru5
_symmetry_space_group_name_H-M   'P 1'
_cell_length_a   9.28171188
_cell_length_b   9.32932329
_cell_length_c   3.70739300
_cell_angle_alpha   90.00000000
_cell_angle_beta   90.00000000
_cell_angle_gamma   120.71027864
_symmetry_Int_Tables_number   1
_chemical_formula_structural   Li2Ni5P7Ir2Ru5
_chemical_formula_sum   'Li2 Ni5 P7 Ir2 Ru5'
_cell_volume   276.00975069
_cell_formula_units_Z   1
loop_
 _symmetry_equiv_pos_site_id
 _symmetry_equiv_pos_as_xyz
  1  'x, y, z'
loop_
 _atom_site_type_symbol
 _atom_site_label
 _atom_site_symmetry_multiplicity
 _atom_site_fract_x
 _atom_site_fract_y
 _atom_site_fract_z
 _atom_site_occupancy
  Li  Li0  1  0.998958  0.999460  0.000000  1
  Li  Li1  1  0.334890  0.669991  0.500000  1
  Ni  Ni2  1  0.300948  0.896452  0.000000  1
  Ni  Ni3  1  0.604726  0.699822  0.000000  1
  Ni  Ni4  1  0.827711  0.613564  0.000000  1
  Ni  Ni5  1  0.781765  0.169209  0.000000  1
  Ni  Ni6  1  0.384878  0.209398  0.000000  1
  P  P7  1  0.666568  0.331545  0.000000  1
  P  P8  1  0.082364  0.634297  0.000000  1
  P  P9  1  0.544703  0.914092  0.000000  1
  P  P10  1  0.378834  0.448495  0.000000  1
  P  P11  1  0.786521  0.743897  0.500000  1
  P  P12  1  0.948597  0.208652  0.500000  1
  P  P13  1  0.259446  0.049881  0.500000  1
  Ir  Ir14  1  0.107005  0.406784  0.000000  1
  Ir  Ir15  1  0.056572  0.775327  0.500000  1
  Ru  Ru16  1  0.706935  0.938993  0.500000  1
  Ru  Ru17  1  0.227710  0.279846  0.500000  1
  Ru  Ru18  1  0.876344  0.419927  0.500000  1
  Ru  Ru19  1  0.541931  0.128247  0.500000  1
  Ru  Ru20  1  0.582598  0.462117  0.500000  1
