# generated using pymatgen
data_Er4AgPtAu2
_symmetry_space_group_name_H-M   'P 1'
_cell_length_a   4.67574300
_cell_length_b   5.61364879
_cell_length_c   7.07920994
_cell_angle_alpha   90.46869236
_cell_angle_beta   90.00000000
_cell_angle_gamma   90.00000000
_symmetry_Int_Tables_number   1
_chemical_formula_structural   Er4AgPtAu2
_chemical_formula_sum   'Er4 Ag1 Pt1 Au2'
_cell_volume   185.80873724
_cell_formula_units_Z   1
loop_
 _symmetry_equiv_pos_site_id
 _symmetry_equiv_pos_as_xyz
  1  'x, y, z'
loop_
 _atom_site_type_symbol
 _atom_site_label
 _atom_site_symmetry_multiplicity
 _atom_site_fract_x
 _atom_site_fract_y
 _atom_site_fract_z
 _atom_site_occupancy
  Er  Er0  1  0.250000  0.854620  0.697233  1
  Er  Er1  1  0.250000  0.651860  0.170792  1
  Er  Er2  1  0.750000  0.141419  0.309282  1
  Er  Er3  1  0.750000  0.354036  0.822945  1
  Ag  Ag4  1  0.750000  0.648976  0.460831  1
  Pt  Pt5  1  0.750000  0.839622  0.958630  1
  Au  Au6  1  0.250000  0.350541  0.535651  1
  Au  Au7  1  0.250000  0.158926  0.044635  1
