# generated using pymatgen
data_NaI19
_symmetry_space_group_name_H-M   'P 1'
_cell_length_a   10.35710340
_cell_length_b   11.81507046
_cell_length_c   9.84824149
_cell_angle_alpha   71.99451347
_cell_angle_beta   80.81991538
_cell_angle_gamma   87.80159343
_symmetry_Int_Tables_number   1
_chemical_formula_structural   NaI19
_chemical_formula_sum   'Na1 I19'
_cell_volume   1131.35289564
_cell_formula_units_Z   1
loop_
 _symmetry_equiv_pos_site_id
 _symmetry_equiv_pos_as_xyz
  1  'x, y, z'
loop_
 _atom_site_type_symbol
 _atom_site_label
 _atom_site_symmetry_multiplicity
 _atom_site_fract_x
 _atom_site_fract_y
 _atom_site_fract_z
 _atom_site_occupancy
  Na  Na0  1  0.872025  0.643485  0.270850  1
  I  I1  1  0.357049  0.506462  0.544088  1
  I  I2  1  0.868283  0.496895  0.053723  1
  I  I3  1  0.618982  0.422212  0.537377  1
  I  I4  1  0.125940  0.576710  0.046253  1
  I  I5  1  0.053089  0.631747  0.520896  1
  I  I6  1  0.573284  0.346293  0.038276  1
  I  I7  1  0.910205  0.311591  0.512835  1
  I  I8  1  0.406832  0.675670  0.034288  1
  I  I9  1  0.153705  0.857806  0.536307  1
  I  I10  1  0.715571  0.128010  0.966214  1
  I  I11  1  0.814539  0.141593  0.405490  1
  I  I12  1  0.290542  0.899645  0.041132  1
  I  I13  1  0.252381  0.071606  0.579017  1
  I  I14  1  0.837920  0.930390  0.897685  1
  I  I15  1  0.689628  0.958177  0.294274  1
  I  I16  1  0.142592  0.117731  0.061605  1
  I  I17  1  0.667868  0.762978  0.542806  1
  I  I18  1  0.243583  0.307158  0.808745  1
  I  I19  1  0.405982  0.213841  0.308141  1
