# generated using pymatgen
data_Lu3Ta2Sn(B2Ru5)2
_symmetry_space_group_name_H-M   'P 1'
_cell_length_a   9.57611612
_cell_length_b   9.61809486
_cell_length_c   3.10169900
_cell_angle_alpha   90.00000000
_cell_angle_beta   90.00000000
_cell_angle_gamma   90.42872161
_symmetry_Int_Tables_number   1
_chemical_formula_structural   Lu3Ta2Sn(B2Ru5)2
_chemical_formula_sum   'Lu3 Ta2 Sn1 B4 Ru10'
_cell_volume   285.67086623
_cell_formula_units_Z   1
loop_
 _symmetry_equiv_pos_site_id
 _symmetry_equiv_pos_as_xyz
  1  'x, y, z'
loop_
 _atom_site_type_symbol
 _atom_site_label
 _atom_site_symmetry_multiplicity
 _atom_site_fract_x
 _atom_site_fract_y
 _atom_site_fract_z
 _atom_site_occupancy
  Lu  Lu0  1  0.824997  0.675017  0.000000  1
  Lu  Lu1  1  0.174603  0.324772  0.000000  1
  Lu  Lu2  1  0.324241  0.826250  0.000000  1
  Ta  Ta3  1  0.678704  0.170524  0.000000  1
  Ta  Ta4  1  0.003859  0.998479  0.000000  1
  Sn  Sn5  1  0.498306  0.505192  0.000000  1
  B  B6  1  0.623476  0.882176  0.000000  1
  B  B7  1  0.380284  0.123336  0.000000  1
  B  B8  1  0.117232  0.619849  0.000000  1
  B  B9  1  0.877414  0.376938  0.000000  1
  Ru  Ru10  1  0.573428  0.726451  0.500000  1
  Ru  Ru11  1  0.441996  0.277146  0.500000  1
  Ru  Ru12  1  0.067657  0.780523  0.500000  1
  Ru  Ru13  1  0.918159  0.213672  0.500000  1
  Ru  Ru14  1  0.275629  0.572879  0.500000  1
  Ru  Ru15  1  0.714204  0.410727  0.500000  1
  Ru  Ru16  1  0.221532  0.071581  0.500000  1
  Ru  Ru17  1  0.780963  0.940351  0.500000  1
  Ru  Ru18  1  0.508007  0.007737  0.500000  1
  Ru  Ru19  1  0.995309  0.496399  0.500000  1
