# generated using pymatgen
data_Ti2ReSi2Tc
_symmetry_space_group_name_H-M   'P 1'
_cell_length_a   7.53584022
_cell_length_b   7.54041757
_cell_length_c   7.53483961
_cell_angle_alpha   126.23611409
_cell_angle_beta   129.00043294
_cell_angle_gamma   77.24568918
_symmetry_Int_Tables_number   1
_chemical_formula_structural   Ti2ReSi2Tc
_chemical_formula_sum   'Ti6 Re3 Si6 Tc3'
_cell_volume   260.45339549
_cell_formula_units_Z   3
loop_
 _symmetry_equiv_pos_site_id
 _symmetry_equiv_pos_as_xyz
  1  'x, y, z'
loop_
 _atom_site_type_symbol
 _atom_site_label
 _atom_site_symmetry_multiplicity
 _atom_site_fract_x
 _atom_site_fract_y
 _atom_site_fract_z
 _atom_site_occupancy
  Ti  Ti0  1  0.952632  0.746791  0.293697  1
  Ti  Ti1  1  0.047489  0.343517  0.795529  1
  Ti  Ti2  1  0.249723  0.147365  0.398723  1
  Ti  Ti3  1  0.749333  0.147918  0.897643  1
  Ti  Ti4  1  0.548579  0.344823  0.296833  1
  Ti  Ti5  1  0.452735  0.747112  0.795004  1
  Re  Re6  1  0.868377  0.746946  0.878261  1
  Re  Re7  1  0.368952  0.747287  0.378525  1
  Re  Re8  1  0.630834  0.009757  0.378552  1
  Si  Si9  1  0.752178  0.745356  0.495170  1
  Si  Si10  1  0.249785  0.745031  0.993251  1
  Si  Si11  1  0.333837  0.081462  0.748465  1
  Si  Si12  1  0.665426  0.413070  0.746795  1
  Si  Si13  1  0.166362  0.412863  0.247358  1
  Si  Si14  1  0.833166  0.081259  0.247308  1
  Tc  Tc15  1  0.499831  0.485488  0.985542  1
  Tc  Tc16  1  0.999653  0.484778  0.485048  1
  Tc  Tc17  1  0.131107  0.009580  0.878695  1
