# generated using pymatgen
data_Yb12Y7ErSn16
_symmetry_space_group_name_H-M   'P 1'
_cell_length_a   7.84386800
_cell_length_b   8.45136400
_cell_length_c   16.07114300
_cell_angle_alpha   90.00117963
_cell_angle_beta   89.99931337
_cell_angle_gamma   89.99998646
_symmetry_Int_Tables_number   1
_chemical_formula_structural   Yb12Y7ErSn16
_chemical_formula_sum   'Yb12 Y7 Er1 Sn16'
_cell_volume   1065.37830608
_cell_formula_units_Z   1
loop_
 _symmetry_equiv_pos_site_id
 _symmetry_equiv_pos_as_xyz
  1  'x, y, z'
loop_
 _atom_site_type_symbol
 _atom_site_label
 _atom_site_symmetry_multiplicity
 _atom_site_fract_x
 _atom_site_fract_y
 _atom_site_fract_z
 _atom_site_occupancy
  Yb  Yb0  1  0.505076  0.688687  0.592828  1
  Yb  Yb1  1  0.005180  0.811190  0.907186  1
  Yb  Yb2  1  0.494821  0.311212  0.092803  1
  Yb  Yb3  1  0.994897  0.188805  0.407274  1
  Yb  Yb4  1  0.494792  0.311209  0.407219  1
  Yb  Yb5  1  0.994810  0.188793  0.092805  1
  Yb  Yb6  1  0.505171  0.688755  0.907175  1
  Yb  Yb7  1  0.005166  0.811177  0.592826  1
  Yb  Yb8  1  0.835691  0.512159  0.749938  1
  Yb  Yb9  1  0.335524  0.987841  0.749943  1
  Yb  Yb10  1  0.164424  0.487718  0.250012  1
  Yb  Yb11  1  0.664413  0.012269  0.250003  1
  Y  Y12  1  0.673183  0.166102  0.622096  1
  Y  Y13  1  0.173163  0.333942  0.877901  1
  Y  Y14  1  0.326847  0.833956  0.122087  1
  Y  Y15  1  0.826928  0.665982  0.377967  1
  Y  Y16  1  0.326862  0.833974  0.377975  1
  Y  Y17  1  0.826865  0.666054  0.122078  1
  Y  Y18  1  0.673154  0.166102  0.877866  1
  Er  Er19  1  0.173005  0.334094  0.622108  1
  Sn  Sn20  1  0.671540  0.964638  0.459259  1
  Sn  Sn21  1  0.171583  0.535377  0.040759  1
  Sn  Sn22  1  0.328436  0.035373  0.959247  1
  Sn  Sn23  1  0.828919  0.464424  0.540897  1
  Sn  Sn24  1  0.327987  0.035977  0.540933  1
  Sn  Sn25  1  0.828415  0.464604  0.959244  1
  Sn  Sn26  1  0.671568  0.964613  0.040753  1
  Sn  Sn27  1  0.171654  0.535046  0.459545  1
  Sn  Sn28  1  0.471373  0.374833  0.749738  1
  Sn  Sn29  1  0.972099  0.125423  0.749719  1
  Sn  Sn30  1  0.528237  0.624976  0.250010  1
  Sn  Sn31  1  0.028224  0.875003  0.250010  1
  Sn  Sn32  1  0.718046  0.873193  0.749992  1
  Sn  Sn33  1  0.217860  0.626507  0.749797  1
  Sn  Sn34  1  0.282043  0.126843  0.250009  1
  Sn  Sn35  1  0.782047  0.373148  0.249996  1
