# generated using pymatgen
data_YTmZnIn2Hg
_symmetry_space_group_name_H-M   'P 1'
_cell_length_a   4.75419600
_cell_length_b   4.75419692
_cell_length_c   7.31079600
_cell_angle_alpha   90.00000000
_cell_angle_beta   90.00000000
_cell_angle_gamma   120.00000749
_symmetry_Int_Tables_number   1
_chemical_formula_structural   YTmZnIn2Hg
_chemical_formula_sum   'Y1 Tm1 Zn1 In2 Hg1'
_cell_volume   143.10325540
_cell_formula_units_Z   1
loop_
 _symmetry_equiv_pos_site_id
 _symmetry_equiv_pos_as_xyz
  1  'x, y, z'
loop_
 _atom_site_type_symbol
 _atom_site_label
 _atom_site_symmetry_multiplicity
 _atom_site_fract_x
 _atom_site_fract_y
 _atom_site_fract_z
 _atom_site_occupancy
  Y  Y0  1  0.000000  0.000000  0.505010  1
  Tm  Tm1  1  0.000000  0.000000  0.013875  1
  Zn  Zn2  1  0.666667  0.333333  0.205555  1
  In  In3  1  0.333333  0.666667  0.271931  1
  In  In4  1  0.666667  0.333333  0.803692  1
  Hg  Hg5  1  0.333333  0.666667  0.699938  1
