# generated using pymatgen
data_Tb2Ga9NiRh2
_symmetry_space_group_name_H-M   'P 1'
_cell_length_a   7.55373093
_cell_length_b   7.55373034
_cell_length_c   9.46053300
_cell_angle_alpha   90.00000000
_cell_angle_beta   90.00000000
_cell_angle_gamma   119.98031218
_symmetry_Int_Tables_number   1
_chemical_formula_structural   Tb2Ga9NiRh2
_chemical_formula_sum   'Tb4 Ga18 Ni2 Rh4'
_cell_volume   467.57937751
_cell_formula_units_Z   2
loop_
 _symmetry_equiv_pos_site_id
 _symmetry_equiv_pos_as_xyz
  1  'x, y, z'
loop_
 _atom_site_type_symbol
 _atom_site_label
 _atom_site_symmetry_multiplicity
 _atom_site_fract_x
 _atom_site_fract_y
 _atom_site_fract_z
 _atom_site_occupancy
  Tb  Tb0  1  0.996257  0.665395  0.250000  1
  Tb  Tb1  1  0.003743  0.334605  0.750000  1
  Tb  Tb2  1  0.665395  0.996257  0.250000  1
  Tb  Tb3  1  0.334605  0.003743  0.750000  1
  Ga  Ga4  1  0.117905  0.117905  0.250000  1
  Ga  Ga5  1  0.882095  0.882095  0.750000  1
  Ga  Ga6  1  0.999899  0.329690  0.077554  1
  Ga  Ga7  1  0.000101  0.670310  0.922446  1
  Ga  Ga8  1  0.000101  0.670310  0.577554  1
  Ga  Ga9  1  0.329690  0.999899  0.422446  1
  Ga  Ga10  1  0.999899  0.329690  0.422446  1
  Ga  Ga11  1  0.670310  0.000101  0.577554  1
  Ga  Ga12  1  0.670310  0.000101  0.922446  1
  Ga  Ga13  1  0.329690  0.999899  0.077554  1
  Ga  Ga14  1  0.328663  0.328663  0.562988  1
  Ga  Ga15  1  0.671337  0.671337  0.437012  1
  Ga  Ga16  1  0.671337  0.671337  0.062988  1
  Ga  Ga17  1  0.328663  0.328663  0.937012  1
  Ga  Ga18  1  0.337316  0.543765  0.250000  1
  Ga  Ga19  1  0.662684  0.456235  0.750000  1
  Ga  Ga20  1  0.543765  0.337316  0.250000  1
  Ga  Ga21  1  0.456235  0.662684  0.750000  1
  Ni  Ni22  1  0.000000  0.000000  0.000000  1
  Ni  Ni23  1  0.000000  0.000000  0.500000  1
  Rh  Rh24  1  0.671374  0.328626  0.000000  1
  Rh  Rh25  1  0.328626  0.671374  0.000000  1
  Rh  Rh26  1  0.328626  0.671374  0.500000  1
  Rh  Rh27  1  0.671374  0.328626  0.500000  1
