# generated using pymatgen
data_CePa3(TlRh2)2
_symmetry_space_group_name_H-M   'P 1'
_cell_length_a   7.72193500
_cell_length_b   7.72193539
_cell_length_c   3.59753800
_cell_angle_alpha   90.00000000
_cell_angle_beta   90.00000000
_cell_angle_gamma   91.40827044
_symmetry_Int_Tables_number   1
_chemical_formula_structural   CePa3(TlRh2)2
_chemical_formula_sum   'Ce1 Pa3 Tl2 Rh4'
_cell_volume   214.45022084
_cell_formula_units_Z   1
loop_
 _symmetry_equiv_pos_site_id
 _symmetry_equiv_pos_as_xyz
  1  'x, y, z'
loop_
 _atom_site_type_symbol
 _atom_site_label
 _atom_site_symmetry_multiplicity
 _atom_site_fract_x
 _atom_site_fract_y
 _atom_site_fract_z
 _atom_site_occupancy
  Ce  Ce0  1  0.670269  0.829732  0.499999  1
  Pa  Pa1  1  0.331096  0.168904  0.499999  1
  Pa  Pa2  1  0.829793  0.332035  0.499999  1
  Pa  Pa3  1  0.167965  0.670208  0.499999  1
  Tl  Tl4  1  0.994114  0.000306  0.000000  1
  Tl  Tl5  1  0.499694  0.505886  0.000000  1
  Rh  Rh6  1  0.629669  0.143836  0.000000  1
  Rh  Rh7  1  0.139994  0.360007  0.000000  1
  Rh  Rh8  1  0.881242  0.618758  0.000000  1
  Rh  Rh9  1  0.356165  0.870331  0.000000  1
