# generated using pymatgen
data_Sr6SmTm(BO3)6
_symmetry_space_group_name_H-M   'P 1'
_cell_length_a   7.94403461
_cell_length_b   7.94402206
_cell_length_c   7.94402716
_cell_angle_alpha   105.06867021
_cell_angle_beta   105.06877600
_cell_angle_gamma   105.06875720
_symmetry_Int_Tables_number   1
_chemical_formula_structural   Sr6SmTm(BO3)6
_chemical_formula_sum   'Sr6 Sm1 Tm1 B6 O18'
_cell_volume   437.64904501
_cell_formula_units_Z   1
loop_
 _symmetry_equiv_pos_site_id
 _symmetry_equiv_pos_as_xyz
  1  'x, y, z'
loop_
 _atom_site_type_symbol
 _atom_site_label
 _atom_site_symmetry_multiplicity
 _atom_site_fract_x
 _atom_site_fract_y
 _atom_site_fract_z
 _atom_site_occupancy
  Sr  Sr0  1  0.362692  0.734367  0.859991  1
  Sr  Sr1  1  0.859992  0.362692  0.734367  1
  Sr  Sr2  1  0.734367  0.859993  0.362695  1
  Sr  Sr3  1  0.637308  0.265633  0.140009  1
  Sr  Sr4  1  0.140008  0.637308  0.265633  1
  Sr  Sr5  1  0.265633  0.140007  0.637305  1
  Sm  Sm6  1  0.000000  0.000000  0.000000  1
  Tm  Tm7  1  0.500000  0.500000  0.500000  1
  B  B8  1  0.705299  0.609486  0.958307  1
  B  B9  1  0.958307  0.705299  0.609486  1
  B  B10  1  0.609486  0.958307  0.705299  1
  B  B11  1  0.041693  0.294701  0.390514  1
  B  B12  1  0.390514  0.041693  0.294701  1
  B  B13  1  0.294701  0.390514  0.041693  1
  O  O14  1  0.044348  0.810298  0.522343  1
  O  O15  1  0.522344  0.044349  0.810299  1
  O  O16  1  0.442244  0.494047  0.210540  1
  O  O17  1  0.494047  0.210540  0.442243  1
  O  O18  1  0.210540  0.442244  0.494048  1
  O  O19  1  0.789460  0.557756  0.505952  1
  O  O20  1  0.557756  0.505953  0.789460  1
  O  O21  1  0.505953  0.789460  0.557757  1
  O  O22  1  0.259723  0.200007  0.967387  1
  O  O23  1  0.200006  0.967387  0.259723  1
  O  O24  1  0.967387  0.259723  0.200008  1
  O  O25  1  0.740277  0.799993  0.032613  1
  O  O26  1  0.799994  0.032613  0.740277  1
  O  O27  1  0.032613  0.740277  0.799992  1
  O  O28  1  0.189701  0.477656  0.955653  1
  O  O29  1  0.477656  0.955651  0.189701  1
  O  O30  1  0.955652  0.189702  0.477657  1
  O  O31  1  0.810299  0.522344  0.044347  1
