# generated using pymatgen
data_TbDy2Al12CoRu3
_symmetry_space_group_name_H-M   'P 1'
_cell_length_a   8.76348927
_cell_length_b   8.75972082
_cell_length_c   9.53012300
_cell_angle_alpha   90.00000000
_cell_angle_beta   90.00000000
_cell_angle_gamma   119.98577018
_symmetry_Int_Tables_number   1
_chemical_formula_structural   TbDy2Al12CoRu3
_chemical_formula_sum   'Tb2 Dy4 Al24 Co2 Ru6'
_cell_volume   633.66353708
_cell_formula_units_Z   2
loop_
 _symmetry_equiv_pos_site_id
 _symmetry_equiv_pos_as_xyz
  1  'x, y, z'
loop_
 _atom_site_type_symbol
 _atom_site_label
 _atom_site_symmetry_multiplicity
 _atom_site_fract_x
 _atom_site_fract_y
 _atom_site_fract_z
 _atom_site_occupancy
  Tb  Tb0  1  0.193253  0.806794  0.750000  1
  Tb  Tb1  1  0.193253  0.386460  0.750000  1
  Dy  Dy2  1  0.387151  0.193575  0.250000  1
  Dy  Dy3  1  0.806437  0.193578  0.250000  1
  Dy  Dy4  1  0.806437  0.612859  0.250000  1
  Dy  Dy5  1  0.613193  0.806596  0.750000  1
  Al  Al6  1  0.438725  0.877452  0.250000  1
  Al  Al7  1  0.122553  0.561277  0.250000  1
  Al  Al8  1  0.438725  0.561274  0.250000  1
  Al  Al9  1  0.561565  0.122780  0.750000  1
  Al  Al10  1  0.876958  0.438479  0.750000  1
  Al  Al11  1  0.561565  0.438786  0.750000  1
  Al  Al12  1  0.159719  0.840293  0.423341  1
  Al  Al13  1  0.159719  0.319427  0.423341  1
  Al  Al14  1  0.680577  0.840289  0.423486  1
  Al  Al15  1  0.840091  0.159619  0.576428  1
  Al  Al16  1  0.840091  0.680470  0.576428  1
  Al  Al17  1  0.319600  0.159799  0.576360  1
  Al  Al18  1  0.840091  0.159619  0.923572  1
  Al  Al19  1  0.840091  0.680470  0.923572  1
  Al  Al20  1  0.319600  0.159799  0.923640  1
  Al  Al21  1  0.159719  0.840293  0.076659  1
  Al  Al22  1  0.159719  0.319427  0.076659  1
  Al  Al23  1  0.680577  0.840289  0.076514  1
  Al  Al24  1  0.333483  0.666742  0.514525  1
  Al  Al25  1  0.666675  0.333337  0.485160  1
  Al  Al26  1  0.666675  0.333337  0.014840  1
  Al  Al27  1  0.333483  0.666742  0.985475  1
  Al  Al28  1  0.000011  0.000005  0.250000  1
  Al  Al29  1  0.999720  0.999860  0.750000  1
  Co  Co30  1  0.000028  0.000014  0.499999  1
  Co  Co31  1  0.000028  0.000014  0.000001  1
  Ru  Ru32  1  0.500229  0.000166  0.499811  1
  Ru  Ru33  1  0.999786  0.499893  0.499722  1
  Ru  Ru34  1  0.500229  0.500063  0.499811  1
  Ru  Ru35  1  0.500229  0.000166  0.000189  1
  Ru  Ru36  1  0.999786  0.499893  0.000278  1
  Ru  Ru37  1  0.500229  0.500063  0.000189  1
