# generated using pymatgen
data_Tb2DyIn3CuRh2
_symmetry_space_group_name_H-M   'P 1'
_cell_length_a   7.50633222
_cell_length_b   7.50946932
_cell_length_c   3.95826400
_cell_angle_alpha   90.00000000
_cell_angle_beta   90.00000000
_cell_angle_gamma   120.01383399
_symmetry_Int_Tables_number   1
_chemical_formula_structural   Tb2DyIn3CuRh2
_chemical_formula_sum   'Tb2 Dy1 In3 Cu1 Rh2'
_cell_volume   193.20210740
_cell_formula_units_Z   1
loop_
 _symmetry_equiv_pos_site_id
 _symmetry_equiv_pos_as_xyz
  1  'x, y, z'
loop_
 _atom_site_type_symbol
 _atom_site_label
 _atom_site_symmetry_multiplicity
 _atom_site_fract_x
 _atom_site_fract_y
 _atom_site_fract_z
 _atom_site_occupancy
  Tb  Tb0  1  0.415137  0.415070  0.500000  1
  Tb  Tb1  1  0.584863  0.999933  0.500000  1
  Dy  Dy2  1  0.000000  0.585039  0.500000  1
  In  In3  1  0.750804  0.750484  0.000000  1
  In  In4  1  0.000000  0.249725  0.000000  1
  In  In5  1  0.249196  0.999680  0.000000  1
  Cu  Cu6  1  0.000000  0.999750  0.500000  1
  Rh  Rh7  1  0.332688  0.666503  0.000000  1
  Rh  Rh8  1  0.667312  0.333815  0.000000  1
