# generated using pymatgen
data_MnFeAgF6
_symmetry_space_group_name_H-M   'P 1'
_cell_length_a   9.32560700
_cell_length_b   9.32560676
_cell_length_c   5.25911400
_cell_angle_alpha   90.00000000
_cell_angle_beta   90.00000000
_cell_angle_gamma   120.00000440
_symmetry_Int_Tables_number   1
_chemical_formula_structural   MnFeAgF6
_chemical_formula_sum   'Mn3 Fe3 Ag3 F18'
_cell_volume   396.09321678
_cell_formula_units_Z   3
loop_
 _symmetry_equiv_pos_site_id
 _symmetry_equiv_pos_as_xyz
  1  'x, y, z'
loop_
 _atom_site_type_symbol
 _atom_site_label
 _atom_site_symmetry_multiplicity
 _atom_site_fract_x
 _atom_site_fract_y
 _atom_site_fract_z
 _atom_site_occupancy
  Mn  Mn0  1  0.297480  0.000000  0.500000  1
  Mn  Mn1  1  0.000000  0.297480  0.500000  1
  Mn  Mn2  1  0.702520  0.702520  0.500000  1
  Fe  Fe3  1  0.333333  0.666667  0.501452  1
  Fe  Fe4  1  0.666667  0.333333  0.498548  1
  Fe  Fe5  1  0.000000  0.000000  0.000000  1
  Ag  Ag6  1  0.624379  0.000000  0.000000  1
  Ag  Ag7  1  0.000000  0.624379  0.000000  1
  Ag  Ag8  1  0.375621  0.375621  0.000000  1
  F  F9  1  0.134420  0.532833  0.294339  1
  F  F10  1  0.467167  0.601587  0.294339  1
  F  F11  1  0.532833  0.134420  0.705661  1
  F  F12  1  0.398413  0.865580  0.294339  1
  F  F13  1  0.601587  0.467167  0.705661  1
  F  F14  1  0.865580  0.398413  0.705661  1
  F  F15  1  0.093973  0.195366  0.224285  1
  F  F16  1  0.804634  0.898607  0.224285  1
  F  F17  1  0.195366  0.093973  0.775715  1
  F  F18  1  0.101393  0.906027  0.224285  1
  F  F19  1  0.898607  0.804634  0.775715  1
  F  F20  1  0.906027  0.101393  0.775715  1
  F  F21  1  0.460734  0.227560  0.295968  1
  F  F22  1  0.772440  0.233174  0.295968  1
  F  F23  1  0.227560  0.460734  0.704032  1
  F  F24  1  0.766826  0.539266  0.295968  1
  F  F25  1  0.233174  0.772440  0.704032  1
  F  F26  1  0.539266  0.766826  0.704032  1
