# generated using pymatgen
data_Ho2Tm2B12RuW
_symmetry_space_group_name_H-M   'P 1'
_cell_length_a   3.60486200
_cell_length_b   9.17608374
_cell_length_c   11.57144207
_cell_angle_alpha   89.78122831
_cell_angle_beta   90.00000000
_cell_angle_gamma   90.00000000
_symmetry_Int_Tables_number   1
_chemical_formula_structural   Ho2Tm2B12RuW
_chemical_formula_sum   'Ho4 Tm4 B24 Ru2 W2'
_cell_volume   382.76333647
_cell_formula_units_Z   2
loop_
 _symmetry_equiv_pos_site_id
 _symmetry_equiv_pos_as_xyz
  1  'x, y, z'
loop_
 _atom_site_type_symbol
 _atom_site_label
 _atom_site_symmetry_multiplicity
 _atom_site_fract_x
 _atom_site_fract_y
 _atom_site_fract_z
 _atom_site_occupancy
  Ho  Ho0  1  0.000000  0.321267  0.413968  1
  Ho  Ho1  1  0.000000  0.678733  0.586032  1
  Ho  Ho2  1  0.000000  0.821888  0.086263  1
  Ho  Ho3  1  0.000000  0.178112  0.913737  1
  Tm  Tm4  1  0.000000  0.945449  0.371343  1
  Tm  Tm5  1  0.000000  0.054551  0.628657  1
  Tm  Tm6  1  0.000000  0.441722  0.127763  1
  Tm  Tm7  1  0.000000  0.558278  0.872237  1
  B  B8  1  0.500000  0.551285  0.434664  1
  B  B9  1  0.500000  0.448715  0.565336  1
  B  B10  1  0.500000  0.053921  0.066853  1
  B  B11  1  0.500000  0.946079  0.933147  1
  B  B12  1  0.500000  0.752524  0.421560  1
  B  B13  1  0.500000  0.247476  0.578440  1
  B  B14  1  0.500000  0.248722  0.081476  1
  B  B15  1  0.500000  0.751278  0.918524  1
  B  B16  1  0.500000  0.796678  0.263123  1
  B  B17  1  0.500000  0.203322  0.736877  1
  B  B18  1  0.500000  0.290282  0.233660  1
  B  B19  1  0.500000  0.709718  0.766340  1
  B  B20  1  0.500000  0.632022  0.180952  1
  B  B21  1  0.500000  0.367978  0.819048  1
  B  B22  1  0.500000  0.130585  0.313713  1
  B  B23  1  0.500000  0.869415  0.686287  1
  B  B24  1  0.500000  0.984057  0.211785  1
  B  B25  1  0.500000  0.015943  0.788215  1
  B  B26  1  0.500000  0.477354  0.285928  1
  B  B27  1  0.500000  0.522646  0.714072  1
  B  B28  1  0.500000  0.602713  0.027467  1
  B  B29  1  0.500000  0.397287  0.972533  1
  B  B30  1  0.500000  0.102591  0.470664  1
  B  B31  1  0.500000  0.897409  0.529336  1
  Ru  Ru32  1  0.000000  0.138368  0.178276  1
  Ru  Ru33  1  0.000000  0.861632  0.821724  1
  W  W34  1  0.000000  0.639256  0.319182  1
  W  W35  1  0.000000  0.360744  0.680818  1
