# generated using pymatgen
data_Hf3Zn3Ga2Au
_symmetry_space_group_name_H-M   'P 1'
_cell_length_a   6.55104400
_cell_length_b   6.55104355
_cell_length_c   4.15181600
_cell_angle_alpha   90.00000000
_cell_angle_beta   90.00000000
_cell_angle_gamma   120.00000230
_symmetry_Int_Tables_number   1
_chemical_formula_structural   Hf3Zn3Ga2Au
_chemical_formula_sum   'Hf3 Zn3 Ga2 Au1'
_cell_volume   154.30845483
_cell_formula_units_Z   1
loop_
 _symmetry_equiv_pos_site_id
 _symmetry_equiv_pos_as_xyz
  1  'x, y, z'
loop_
 _atom_site_type_symbol
 _atom_site_label
 _atom_site_symmetry_multiplicity
 _atom_site_fract_x
 _atom_site_fract_y
 _atom_site_fract_z
 _atom_site_occupancy
  Hf  Hf0  1  0.431533  0.000000  0.000000  1
  Hf  Hf1  1  0.000000  0.431534  0.000000  1
  Hf  Hf2  1  0.568466  0.568467  0.000000  1
  Zn  Zn3  1  0.752147  0.000000  0.499999  1
  Zn  Zn4  1  0.247853  0.247853  0.499999  1
  Zn  Zn5  1  0.000000  0.752148  0.499999  1
  Ga  Ga6  1  0.666668  0.333334  0.499999  1
  Ga  Ga7  1  0.333333  0.666666  0.499999  1
  Au  Au8  1  0.000000  0.000000  0.000000  1
