# generated using pymatgen
data_CsCrRhSe4
_symmetry_space_group_name_H-M   'P 1'
_cell_length_a   6.34268400
_cell_length_b   7.19701338
_cell_length_c   17.38135701
_cell_angle_alpha   89.82564251
_cell_angle_beta   90.00000000
_cell_angle_gamma   90.00000000
_symmetry_Int_Tables_number   1
_chemical_formula_structural   CsCrRhSe4
_chemical_formula_sum   'Cs4 Cr4 Rh4 Se16'
_cell_volume   793.42714359
_cell_formula_units_Z   4
loop_
 _symmetry_equiv_pos_site_id
 _symmetry_equiv_pos_as_xyz
  1  'x, y, z'
loop_
 _atom_site_type_symbol
 _atom_site_label
 _atom_site_symmetry_multiplicity
 _atom_site_fract_x
 _atom_site_fract_y
 _atom_site_fract_z
 _atom_site_occupancy
  Cs  Cs0  1  0.365506  0.000000  0.000000  1
  Cs  Cs1  1  0.614245  0.500000  0.500000  1
  Cs  Cs2  1  0.007334  0.000000  0.500000  1
  Cs  Cs3  1  0.950472  0.500000  0.000000  1
  Cr  Cr4  1  0.015214  0.002107  0.251387  1
  Cr  Cr5  1  0.015214  0.997893  0.748613  1
  Cr  Cr6  1  0.503440  0.226536  0.248415  1
  Cr  Cr7  1  0.503440  0.773464  0.751585  1
  Rh  Rh8  1  0.997479  0.496268  0.247415  1
  Rh  Rh9  1  0.997479  0.503732  0.752585  1
  Rh  Rh10  1  0.497050  0.776235  0.248668  1
  Rh  Rh11  1  0.497050  0.223765  0.751332  1
  Se  Se12  1  0.831533  0.248798  0.331043  1
  Se  Se13  1  0.831533  0.751202  0.668957  1
  Se  Se14  1  0.163739  0.750827  0.169104  1
  Se  Se15  1  0.163739  0.249173  0.830896  1
  Se  Se16  1  0.172394  0.248403  0.166497  1
  Se  Se17  1  0.172394  0.751597  0.833503  1
  Se  Se18  1  0.833632  0.748718  0.327314  1
  Se  Se19  1  0.833632  0.251282  0.672686  1
  Se  Se20  1  0.693202  0.010260  0.164193  1
  Se  Se21  1  0.693202  0.989740  0.835807  1
  Se  Se22  1  0.337008  0.504152  0.320447  1
  Se  Se23  1  0.337008  0.495848  0.679553  1
  Se  Se24  1  0.333991  0.011327  0.338162  1
  Se  Se25  1  0.333991  0.988673  0.661838  1
  Se  Se26  1  0.652540  0.506336  0.176108  1
  Se  Se27  1  0.652540  0.493664  0.823892  1
