# generated using pymatgen
data_Sc22Ru5Pt3
_symmetry_space_group_name_H-M   'P 1'
_cell_length_a   9.54105281
_cell_length_b   9.47631754
_cell_length_c   9.52273168
_cell_angle_alpha   60.28883761
_cell_angle_beta   59.61454052
_cell_angle_gamma   59.76376971
_symmetry_Int_Tables_number   1
_chemical_formula_structural   Sc22Ru5Pt3
_chemical_formula_sum   'Sc22 Ru5 Pt3'
_cell_volume   607.23167948
_cell_formula_units_Z   1
loop_
 _symmetry_equiv_pos_site_id
 _symmetry_equiv_pos_as_xyz
  1  'x, y, z'
loop_
 _atom_site_type_symbol
 _atom_site_label
 _atom_site_symmetry_multiplicity
 _atom_site_fract_x
 _atom_site_fract_y
 _atom_site_fract_z
 _atom_site_occupancy
  Sc  Sc0  1  0.804129  0.804129  0.195871  1
  Sc  Sc1  1  0.194995  0.805005  0.196321  1
  Sc  Sc2  1  0.806604  0.193396  0.195947  1
  Sc  Sc3  1  0.195871  0.195871  0.804129  1
  Sc  Sc4  1  0.805005  0.194995  0.803679  1
  Sc  Sc5  1  0.193396  0.806604  0.804053  1
  Sc  Sc6  1  0.612917  0.615193  0.152996  1
  Sc  Sc7  1  0.613366  0.150348  0.618607  1
  Sc  Sc8  1  0.150348  0.613366  0.617681  1
  Sc  Sc9  1  0.615193  0.612917  0.618895  1
  Sc  Sc10  1  0.387083  0.384807  0.847004  1
  Sc  Sc11  1  0.386634  0.849652  0.381393  1
  Sc  Sc12  1  0.849652  0.386634  0.382319  1
  Sc  Sc13  1  0.384807  0.387083  0.381105  1
  Sc  Sc14  1  0.844574  0.833645  0.475025  1
  Sc  Sc15  1  0.838400  0.471362  0.841967  1
  Sc  Sc16  1  0.471362  0.838400  0.848270  1
  Sc  Sc17  1  0.833645  0.844574  0.846755  1
  Sc  Sc18  1  0.155426  0.166355  0.524975  1
  Sc  Sc19  1  0.161600  0.528638  0.158033  1
  Sc  Sc20  1  0.528638  0.161600  0.151730  1
  Sc  Sc21  1  0.166355  0.155426  0.153245  1
  Ru  Ru22  1  0.000000  0.000000  0.000000  1
  Ru  Ru23  1  0.500000  0.500000  0.500000  1
  Ru  Ru24  1  0.000000  0.500000  0.500000  1
  Ru  Ru25  1  0.500000  0.500000  0.000000  1
  Ru  Ru26  1  0.500000  0.000000  0.000000  1
  Pt  Pt27  1  0.000000  0.000000  0.500000  1
  Pt  Pt28  1  0.500000  0.000000  0.500000  1
  Pt  Pt29  1  0.000000  0.500000  0.000000  1
