# generated using pymatgen
data_Li4CoNi8P7Ru
_symmetry_space_group_name_H-M   'P 1'
_cell_length_a   9.05435725
_cell_length_b   9.00700501
_cell_length_c   3.59721600
_cell_angle_alpha   90.00000000
_cell_angle_beta   90.00000000
_cell_angle_gamma   119.78436085
_symmetry_Int_Tables_number   1
_chemical_formula_structural   Li4CoNi8P7Ru
_chemical_formula_sum   'Li4 Co1 Ni8 P7 Ru1'
_cell_volume   254.60959827
_cell_formula_units_Z   1
loop_
 _symmetry_equiv_pos_site_id
 _symmetry_equiv_pos_as_xyz
  1  'x, y, z'
loop_
 _atom_site_type_symbol
 _atom_site_label
 _atom_site_symmetry_multiplicity
 _atom_site_fract_x
 _atom_site_fract_y
 _atom_site_fract_z
 _atom_site_occupancy
  Li  Li0  1  0.896081  0.119879  0.500000  1
  Li  Li1  1  0.221509  0.099988  0.500000  1
  Li  Li2  1  0.331975  0.663710  0.000000  1
  Li  Li3  1  0.663760  0.331057  0.500000  1
  Co  Co4  1  0.711470  0.881458  0.000000  1
  Ni  Ni5  1  0.161271  0.276894  0.000000  1
  Ni  Ni6  1  0.124421  0.836529  0.000000  1
  Ni  Ni7  1  0.630198  0.567827  0.000000  1
  Ni  Ni8  1  0.941485  0.373078  0.000000  1
  Ni  Ni9  1  0.430396  0.057167  0.000000  1
  Ni  Ni10  1  0.565094  0.955133  0.500000  1
  Ni  Ni11  1  0.389698  0.438546  0.500000  1
  Ni  Ni12  1  0.053515  0.611747  0.500000  1
  P  P13  1  0.590043  0.715042  0.500000  1
  P  P14  1  0.127066  0.414233  0.500000  1
  P  P15  1  0.290574  0.872356  0.500000  1
  P  P16  1  0.990075  0.989000  0.000000  1
  P  P17  1  0.879536  0.581474  0.000000  1
  P  P18  1  0.699457  0.123093  0.000000  1
  P  P19  1  0.423055  0.300680  0.000000  1
  Ru  Ru20  1  0.879323  0.791109  0.500000  1
