# generated using pymatgen
data_CsSm6RuBr12
_symmetry_space_group_name_H-M   'P 1'
_cell_length_a   9.47890402
_cell_length_b   9.47921926
_cell_length_c   9.47867370
_cell_angle_alpha   103.33700721
_cell_angle_beta   103.33444623
_cell_angle_gamma   103.33299887
_symmetry_Int_Tables_number   1
_chemical_formula_structural   CsSm6RuBr12
_chemical_formula_sum   'Cs1 Sm6 Ru1 Br12'
_cell_volume   769.29047750
_cell_formula_units_Z   1
loop_
 _symmetry_equiv_pos_site_id
 _symmetry_equiv_pos_as_xyz
  1  'x, y, z'
loop_
 _atom_site_type_symbol
 _atom_site_label
 _atom_site_symmetry_multiplicity
 _atom_site_fract_x
 _atom_site_fract_y
 _atom_site_fract_z
 _atom_site_occupancy
  Cs  Cs0  1  0.500000  0.500000  0.500000  1
  Sm  Sm1  1  0.094393  0.299911  0.003498  1
  Sm  Sm2  1  0.299915  0.003497  0.094387  1
  Sm  Sm3  1  0.003501  0.094396  0.299919  1
  Sm  Sm4  1  0.996500  0.905604  0.700082  1
  Sm  Sm5  1  0.700085  0.996504  0.905613  1
  Sm  Sm6  1  0.905607  0.700089  0.996502  1
  Ru  Ru7  1  0.000000  0.000000  0.000000  1
  Br  Br8  1  0.214537  0.670521  0.075445  1
  Br  Br9  1  0.413118  0.320018  0.094460  1
  Br  Br10  1  0.670514  0.075437  0.214562  1
  Br  Br11  1  0.924564  0.785456  0.329487  1
  Br  Br12  1  0.094454  0.413105  0.320011  1
  Br  Br13  1  0.320005  0.094449  0.413109  1
  Br  Br14  1  0.679995  0.905551  0.586892  1
  Br  Br15  1  0.905547  0.586895  0.679989  1
  Br  Br16  1  0.075437  0.214544  0.670514  1
  Br  Br17  1  0.329487  0.924564  0.785438  1
  Br  Br18  1  0.586882  0.679982  0.905541  1
  Br  Br19  1  0.785463  0.329479  0.924555  1
