# generated using pymatgen
data_Yb8Cd(Si4Pd)3
_symmetry_space_group_name_H-M   'P 1'
_cell_length_a   8.27812600
_cell_length_b   8.27812701
_cell_length_c   8.42031300
_cell_angle_alpha   90.00000000
_cell_angle_beta   90.00000000
_cell_angle_gamma   120.00000396
_symmetry_Int_Tables_number   1
_chemical_formula_structural   Yb8Cd(Si4Pd)3
_chemical_formula_sum   'Yb8 Cd1 Si12 Pd3'
_cell_volume   499.71566934
_cell_formula_units_Z   1
loop_
 _symmetry_equiv_pos_site_id
 _symmetry_equiv_pos_as_xyz
  1  'x, y, z'
loop_
 _atom_site_type_symbol
 _atom_site_label
 _atom_site_symmetry_multiplicity
 _atom_site_fract_x
 _atom_site_fract_y
 _atom_site_fract_z
 _atom_site_occupancy
  Yb  Yb0  1  0.494944  0.505056  0.740341  1
  Yb  Yb1  1  0.496557  0.503443  0.259148  1
  Yb  Yb2  1  0.010112  0.505056  0.740341  1
  Yb  Yb3  1  0.006886  0.503443  0.259148  1
  Yb  Yb4  1  0.494944  0.989888  0.740341  1
  Yb  Yb5  1  0.496557  0.993114  0.259148  1
  Yb  Yb6  1  0.000000  0.000000  0.745845  1
  Yb  Yb7  1  0.000000  0.000000  0.255052  1
  Cd  Cd8  1  0.666667  0.333333  0.994574  1
  Si  Si9  1  0.843806  0.156194  0.001851  1
  Si  Si10  1  0.167374  0.832626  0.999251  1
  Si  Si11  1  0.312388  0.156194  0.001851  1
  Si  Si12  1  0.163629  0.836371  0.499983  1
  Si  Si13  1  0.665251  0.832626  0.999251  1
  Si  Si14  1  0.834998  0.165002  0.499922  1
  Si  Si15  1  0.843806  0.687612  0.001851  1
  Si  Si16  1  0.672742  0.836371  0.499983  1
  Si  Si17  1  0.167374  0.334749  0.999251  1
  Si  Si18  1  0.330004  0.165002  0.499922  1
  Si  Si19  1  0.163629  0.327258  0.499983  1
  Si  Si20  1  0.834998  0.669996  0.499922  1
  Pd  Pd21  1  0.333333  0.666667  0.002387  1
  Pd  Pd22  1  0.333333  0.666667  0.497895  1
  Pd  Pd23  1  0.666667  0.333333  0.502761  1
