# generated using pymatgen
data_La3YbTh2(ScBi5)2
_symmetry_space_group_name_H-M   'P 1'
_cell_length_a   9.71300100
_cell_length_b   9.78377864
_cell_length_c   6.62623800
_cell_angle_alpha   90.00000000
_cell_angle_beta   90.00000000
_cell_angle_gamma   119.76098570
_symmetry_Int_Tables_number   1
_chemical_formula_structural   La3YbTh2(ScBi5)2
_chemical_formula_sum   'La3 Yb1 Th2 Sc2 Bi10'
_cell_volume   546.63655059
_cell_formula_units_Z   1
loop_
 _symmetry_equiv_pos_site_id
 _symmetry_equiv_pos_as_xyz
  1  'x, y, z'
loop_
 _atom_site_type_symbol
 _atom_site_label
 _atom_site_symmetry_multiplicity
 _atom_site_fract_x
 _atom_site_fract_y
 _atom_site_fract_z
 _atom_site_occupancy
  La  La0  1  0.617935  0.619730  0.750000  1
  La  La1  1  0.615718  0.000000  0.250000  1
  La  La2  1  0.998205  0.380270  0.750000  1
  Yb  Yb3  1  0.384192  0.000000  0.750000  1
  Th  Th4  1  0.000850  0.621106  0.250000  1
  Th  Th5  1  0.379745  0.378894  0.250000  1
  Sc  Sc6  1  0.001194  0.000000  0.995526  1
  Sc  Sc7  1  0.001194  0.000000  0.504474  1
  Bi  Bi8  1  0.000390  0.261437  0.250000  1
  Bi  Bi9  1  0.329427  0.662328  0.496753  1
  Bi  Bi10  1  0.667101  0.337672  0.003247  1
  Bi  Bi11  1  0.329427  0.662328  0.003247  1
  Bi  Bi12  1  0.266383  0.260357  0.750000  1
  Bi  Bi13  1  0.736566  0.000000  0.750000  1
  Bi  Bi14  1  0.006026  0.739643  0.750000  1
  Bi  Bi15  1  0.738953  0.738563  0.250000  1
  Bi  Bi16  1  0.259590  0.000000  0.250000  1
  Bi  Bi17  1  0.667101  0.337672  0.496753  1
