# generated using pymatgen
data_CeEuNbIr3
_symmetry_space_group_name_H-M   'P 1'
_cell_length_a   5.30804304
_cell_length_b   5.30804291
_cell_length_c   5.30804200
_cell_angle_alpha   66.38385946
_cell_angle_beta   66.38386011
_cell_angle_gamma   66.38385546
_symmetry_Int_Tables_number   1
_chemical_formula_structural   CeEuNbIr3
_chemical_formula_sum   'Ce1 Eu1 Nb1 Ir3'
_cell_volume   120.30881478
_cell_formula_units_Z   1
loop_
 _symmetry_equiv_pos_site_id
 _symmetry_equiv_pos_as_xyz
  1  'x, y, z'
loop_
 _atom_site_type_symbol
 _atom_site_label
 _atom_site_symmetry_multiplicity
 _atom_site_fract_x
 _atom_site_fract_y
 _atom_site_fract_z
 _atom_site_occupancy
  Ce  Ce0  1  0.253000  0.253000  0.253000  1
  Eu  Eu1  1  0.002500  0.002500  0.002500  1
  Nb  Nb2  1  0.623306  0.623306  0.623306  1
  Ir  Ir3  1  0.624193  0.624193  0.122809  1
  Ir  Ir4  1  0.624193  0.122809  0.624193  1
  Ir  Ir5  1  0.122809  0.624193  0.624193  1
