# generated using pymatgen
data_NdGd3Mg2Mn2O12
_symmetry_space_group_name_H-M   'P 1'
_cell_length_a   5.37205598
_cell_length_b   5.60992937
_cell_length_c   7.68975731
_cell_angle_alpha   89.96744633
_cell_angle_beta   89.96595148
_cell_angle_gamma   90.09982951
_symmetry_Int_Tables_number   1
_chemical_formula_structural   NdGd3Mg2Mn2O12
_chemical_formula_sum   'Nd1 Gd3 Mg2 Mn2 O12'
_cell_volume   231.74466782
_cell_formula_units_Z   1
loop_
 _symmetry_equiv_pos_site_id
 _symmetry_equiv_pos_as_xyz
  1  'x, y, z'
loop_
 _atom_site_type_symbol
 _atom_site_label
 _atom_site_symmetry_multiplicity
 _atom_site_fract_x
 _atom_site_fract_y
 _atom_site_fract_z
 _atom_site_occupancy
  Nd  Nd0  1  0.514295  0.557881  0.249291  1
  Gd  Gd1  1  0.984324  0.061414  0.251133  1
  Gd  Gd2  1  0.484689  0.436957  0.751336  1
  Gd  Gd3  1  0.014824  0.938483  0.749077  1
  Mg  Mg4  1  0.500135  0.999439  0.998911  1
  Mg  Mg5  1  0.000073  0.499643  0.501858  1
  Mn  Mn6  1  0.500815  0.000385  0.501620  1
  Mn  Mn7  1  0.999286  0.499523  0.998162  1
  O  O8  1  0.401220  0.975245  0.259385  1
  O  O9  1  0.086909  0.467369  0.240871  1
  O  O10  1  0.599075  0.032255  0.741136  1
  O  O11  1  0.900191  0.534442  0.758694  1
  O  O12  1  0.813661  0.790465  0.051862  1
  O  O13  1  0.692704  0.285277  0.450799  1
  O  O14  1  0.210288  0.192549  0.550559  1
  O  O15  1  0.291826  0.691065  0.949806  1
  O  O16  1  0.190047  0.212398  0.945107  1
  O  O17  1  0.311893  0.710847  0.554566  1
  O  O18  1  0.792617  0.809845  0.451899  1
  O  O19  1  0.711130  0.304519  0.043927  1
