# generated using pymatgen
data_DyLu3ScBi3
_symmetry_space_group_name_H-M   'P 1'
_cell_length_a   8.04359200
_cell_length_b   9.32384200
_cell_length_c   11.80606700
_cell_angle_alpha   90.00000000
_cell_angle_beta   90.00000000
_cell_angle_gamma   90.00000000
_symmetry_Int_Tables_number   1
_chemical_formula_structural   DyLu3ScBi3
_chemical_formula_sum   'Dy4 Lu12 Sc4 Bi12'
_cell_volume   885.42174276
_cell_formula_units_Z   4
loop_
 _symmetry_equiv_pos_site_id
 _symmetry_equiv_pos_as_xyz
  1  'x, y, z'
loop_
 _atom_site_type_symbol
 _atom_site_label
 _atom_site_symmetry_multiplicity
 _atom_site_fract_x
 _atom_site_fract_y
 _atom_site_fract_z
 _atom_site_occupancy
  Dy  Dy0  1  0.315840  0.250000  0.218735  1
  Dy  Dy1  1  0.815840  0.250000  0.281265  1
  Dy  Dy2  1  0.684160  0.750000  0.781265  1
  Dy  Dy3  1  0.184160  0.750000  0.718735  1
  Lu  Lu4  1  0.352263  0.750000  0.218533  1
  Lu  Lu5  1  0.852263  0.750000  0.281467  1
  Lu  Lu6  1  0.647737  0.250000  0.781467  1
  Lu  Lu7  1  0.147737  0.250000  0.718533  1
  Lu  Lu8  1  0.693355  0.567235  0.060359  1
  Lu  Lu9  1  0.193355  0.932765  0.439641  1
  Lu  Lu10  1  0.306645  0.067235  0.939641  1
  Lu  Lu11  1  0.806645  0.432765  0.560359  1
  Lu  Lu12  1  0.306645  0.432765  0.939641  1
  Lu  Lu13  1  0.806645  0.067235  0.560359  1
  Lu  Lu14  1  0.693355  0.932765  0.060359  1
  Lu  Lu15  1  0.193355  0.567235  0.439641  1
  Sc  Sc16  1  0.479635  0.250000  0.488518  1
  Sc  Sc17  1  0.979635  0.250000  0.011482  1
  Sc  Sc18  1  0.520365  0.750000  0.511482  1
  Sc  Sc19  1  0.020365  0.750000  0.988518  1
  Bi  Bi20  1  0.398056  0.750000  0.959493  1
  Bi  Bi21  1  0.898056  0.750000  0.540507  1
  Bi  Bi22  1  0.601944  0.250000  0.040507  1
  Bi  Bi23  1  0.101944  0.250000  0.459493  1
  Bi  Bi24  1  0.565907  0.994923  0.330938  1
  Bi  Bi25  1  0.065907  0.505077  0.169062  1
  Bi  Bi26  1  0.434093  0.494923  0.669062  1
  Bi  Bi27  1  0.934093  0.005077  0.830938  1
  Bi  Bi28  1  0.434093  0.005077  0.669062  1
  Bi  Bi29  1  0.934093  0.494923  0.830938  1
  Bi  Bi30  1  0.565907  0.505077  0.330938  1
  Bi  Bi31  1  0.065907  0.994923  0.169062  1
