# generated using pymatgen
data_MnV8Fe3O16
_symmetry_space_group_name_H-M   'P 1'
_cell_length_a   6.20422100
_cell_length_b   8.45125600
_cell_length_c   6.20422100
_cell_angle_alpha   90.00000000
_cell_angle_beta   90.00000000
_cell_angle_gamma   90.00000000
_symmetry_Int_Tables_number   1
_chemical_formula_structural   MnV8Fe3O16
_chemical_formula_sum   'Mn1 V8 Fe3 O16'
_cell_volume   325.30877333
_cell_formula_units_Z   1
loop_
 _symmetry_equiv_pos_site_id
 _symmetry_equiv_pos_as_xyz
  1  'x, y, z'
loop_
 _atom_site_type_symbol
 _atom_site_label
 _atom_site_symmetry_multiplicity
 _atom_site_fract_x
 _atom_site_fract_y
 _atom_site_fract_z
 _atom_site_occupancy
  Mn  Mn0  1  0.250000  0.125000  0.000000  1
  V  V1  1  0.750000  0.251065  0.749643  1
  V  V2  1  0.250000  0.748681  0.250741  1
  V  V3  1  0.750000  0.251065  0.250357  1
  V  V4  1  0.250000  0.748681  0.749259  1
  V  V5  1  0.500741  0.501319  0.000000  1
  V  V6  1  0.999643  0.998935  0.500000  1
  V  V7  1  0.999259  0.501319  0.000000  1
  V  V8  1  0.500357  0.998935  0.500000  1
  Fe  Fe9  1  0.750000  0.625000  0.500000  1
  Fe  Fe10  1  0.750000  0.876068  0.000000  1
  Fe  Fe11  1  0.250000  0.373932  0.500000  1
  O  O12  1  0.750000  0.491123  0.225162  1
  O  O13  1  0.250000  0.987173  0.722828  1
  O  O14  1  0.750000  0.491123  0.774838  1
  O  O15  1  0.250000  0.987173  0.277172  1
  O  O16  1  0.972828  0.262827  0.000000  1
  O  O17  1  0.475162  0.758877  0.500000  1
  O  O18  1  0.527172  0.262827  0.000000  1
  O  O19  1  0.024838  0.758877  0.500000  1
  O  O20  1  0.250000  0.509184  0.775757  1
  O  O21  1  0.750000  0.010435  0.275245  1
  O  O22  1  0.250000  0.509184  0.224243  1
  O  O23  1  0.750000  0.010435  0.724755  1
  O  O24  1  0.025757  0.740816  0.000000  1
  O  O25  1  0.525245  0.239565  0.500000  1
  O  O26  1  0.474243  0.740816  0.000000  1
  O  O27  1  0.974755  0.239565  0.500000  1
