# generated using pymatgen
data_TbHg(Pd2Au)2
_symmetry_space_group_name_H-M   'P 1'
_cell_length_a   6.04461240
_cell_length_b   6.03726042
_cell_length_c   7.86091200
_cell_angle_alpha   90.00063448
_cell_angle_beta   90.00133655
_cell_angle_gamma   89.89763271
_symmetry_Int_Tables_number   1
_chemical_formula_structural   TbHg(Pd2Au)2
_chemical_formula_sum   'Tb2 Hg2 Pd8 Au4'
_cell_volume   286.86701135
_cell_formula_units_Z   2
loop_
 _symmetry_equiv_pos_site_id
 _symmetry_equiv_pos_as_xyz
  1  'x, y, z'
loop_
 _atom_site_type_symbol
 _atom_site_label
 _atom_site_symmetry_multiplicity
 _atom_site_fract_x
 _atom_site_fract_y
 _atom_site_fract_z
 _atom_site_occupancy
  Tb  Tb0  1  0.250163  0.250000  0.000008  1
  Tb  Tb1  1  0.749837  0.750000  0.999992  1
  Hg  Hg2  1  0.750021  0.749999  0.500010  1
  Hg  Hg3  1  0.249980  0.250001  0.499990  1
  Pd  Pd4  1  0.500032  0.000020  0.252512  1
  Pd  Pd5  1  0.499985  0.500027  0.252463  1
  Pd  Pd6  1  0.000024  0.000001  0.252558  1
  Pd  Pd7  1  0.000076  0.500052  0.252600  1
  Pd  Pd8  1  0.999976  0.999999  0.747442  1
  Pd  Pd9  1  0.999924  0.499948  0.747400  1
  Pd  Pd10  1  0.499968  0.999980  0.747488  1
  Pd  Pd11  1  0.500015  0.499973  0.747537  1
  Au  Au12  1  0.749968  0.250001  0.999995  1
  Au  Au13  1  0.250030  0.749999  0.000005  1
  Au  Au14  1  0.750055  0.249998  0.500006  1
  Au  Au15  1  0.249945  0.750002  0.499995  1
