# generated using pymatgen
data_Gd5SnAu2
_symmetry_space_group_name_H-M   'P 1'
_cell_length_a   8.11683332
_cell_length_b   8.11683251
_cell_length_c   8.73295500
_cell_angle_alpha   117.69238622
_cell_angle_beta   117.69238321
_cell_angle_gamma   90.00000065
_symmetry_Int_Tables_number   1
_chemical_formula_structural   Gd5SnAu2
_chemical_formula_sum   'Gd10 Sn2 Au4'
_cell_volume   433.64316529
_cell_formula_units_Z   2
loop_
 _symmetry_equiv_pos_site_id
 _symmetry_equiv_pos_as_xyz
  1  'x, y, z'
loop_
 _atom_site_type_symbol
 _atom_site_label
 _atom_site_symmetry_multiplicity
 _atom_site_fract_x
 _atom_site_fract_y
 _atom_site_fract_z
 _atom_site_occupancy
  Gd  Gd0  1  0.000000  0.000000  0.000000  1
  Gd  Gd1  1  0.500000  0.500000  0.000000  1
  Gd  Gd2  1  0.486843  0.304376  0.291218  1
  Gd  Gd3  1  0.986842  0.486843  0.291218  1
  Gd  Gd4  1  0.304376  0.804376  0.291218  1
  Gd  Gd5  1  0.804376  0.986842  0.291218  1
  Gd  Gd6  1  0.195624  0.013157  0.708782  1
  Gd  Gd7  1  0.695624  0.195624  0.708782  1
  Gd  Gd8  1  0.013157  0.513158  0.708782  1
  Gd  Gd9  1  0.513158  0.695624  0.708782  1
  Sn  Sn10  1  0.250000  0.250000  0.500000  1
  Sn  Sn11  1  0.750000  0.750000  0.500000  1
  Au  Au12  1  0.635886  0.135886  0.000000  1
  Au  Au13  1  0.135886  0.364115  0.000000  1
  Au  Au14  1  0.864114  0.635886  0.000000  1
  Au  Au15  1  0.364115  0.864114  0.000000  1
