# generated using pymatgen
data_Nd8Sc12Si15As
_symmetry_space_group_name_H-M   'P 1'
_cell_length_a   7.26003095
_cell_length_b   7.50741603
_cell_length_c   14.18447169
_cell_angle_alpha   90.16440995
_cell_angle_beta   89.16795185
_cell_angle_gamma   90.21003939
_symmetry_Int_Tables_number   1
_chemical_formula_structural   Nd8Sc12Si15As
_chemical_formula_sum   'Nd8 Sc12 Si15 As1'
_cell_volume   773.02169805
_cell_formula_units_Z   1
loop_
 _symmetry_equiv_pos_site_id
 _symmetry_equiv_pos_as_xyz
  1  'x, y, z'
loop_
 _atom_site_type_symbol
 _atom_site_label
 _atom_site_symmetry_multiplicity
 _atom_site_fract_x
 _atom_site_fract_y
 _atom_site_fract_z
 _atom_site_occupancy
  Nd  Nd0  1  0.012464  0.173501  0.097588  1
  Nd  Nd1  1  0.988233  0.827143  0.902157  1
  Nd  Nd2  1  0.488198  0.673240  0.902285  1
  Nd  Nd3  1  0.991826  0.823499  0.596315  1
  Nd  Nd4  1  0.512362  0.327311  0.097704  1
  Nd  Nd5  1  0.007991  0.176642  0.403337  1
  Nd  Nd6  1  0.505322  0.324802  0.401659  1
  Nd  Nd7  1  0.498070  0.673992  0.598136  1
  Sc  Sc8  1  0.162513  0.498720  0.749928  1
  Sc  Sc9  1  0.837468  0.501216  0.252827  1
  Sc  Sc10  1  0.337994  0.997686  0.251056  1
  Sc  Sc11  1  0.662271  0.001978  0.749483  1
  Sc  Sc12  1  0.337669  0.171295  0.627275  1
  Sc  Sc13  1  0.663481  0.827348  0.373133  1
  Sc  Sc14  1  0.160835  0.672265  0.376757  1
  Sc  Sc15  1  0.668817  0.824699  0.125908  1
  Sc  Sc16  1  0.836005  0.328736  0.622872  1
  Sc  Sc17  1  0.330695  0.175149  0.873610  1
  Sc  Sc18  1  0.831400  0.323909  0.874197  1
  Sc  Sc19  1  0.168852  0.676436  0.125370  1
  Si  Si20  1  0.034932  0.122951  0.748643  1
  Si  Si21  1  0.964671  0.877442  0.250338  1
  Si  Si22  1  0.460080  0.623527  0.249043  1
  Si  Si23  1  0.538841  0.376645  0.750855  1
  Si  Si24  1  0.289103  0.878504  0.749995  1
  Si  Si25  1  0.711785  0.120220  0.249567  1
  Si  Si26  1  0.210319  0.381917  0.249931  1
  Si  Si27  1  0.791108  0.618878  0.750041  1
  Si  Si28  1  0.820350  0.541848  0.455381  1
  Si  Si29  1  0.342083  0.961434  0.460963  1
  Si  Si30  1  0.848248  0.536576  0.039534  1
  Si  Si31  1  0.657994  0.038157  0.540006  1
  Si  Si32  1  0.151603  0.464077  0.959978  1
  Si  Si33  1  0.651569  0.036130  0.959916  1
  Si  Si34  1  0.348412  0.964416  0.039858  1
  As  As35  1  0.176437  0.457713  0.544352  1
