# generated using pymatgen
data_Tm2Tc3Ni9P7
_symmetry_space_group_name_H-M   'P 1'
_cell_length_a   9.12615100
_cell_length_b   9.12615073
_cell_length_c   3.68942800
_cell_angle_alpha   90.00000000
_cell_angle_beta   90.00000000
_cell_angle_gamma   120.00000462
_symmetry_Int_Tables_number   1
_chemical_formula_structural   Tm2Tc3Ni9P7
_chemical_formula_sum   'Tm2 Tc3 Ni9 P7'
_cell_volume   266.11229377
_cell_formula_units_Z   1
loop_
 _symmetry_equiv_pos_site_id
 _symmetry_equiv_pos_as_xyz
  1  'x, y, z'
loop_
 _atom_site_type_symbol
 _atom_site_label
 _atom_site_symmetry_multiplicity
 _atom_site_fract_x
 _atom_site_fract_y
 _atom_site_fract_z
 _atom_site_occupancy
  Tm  Tm0  1  0.000000  0.000000  0.000000  1
  Tm  Tm1  1  0.666667  0.333333  0.500000  1
  Tc  Tc2  1  0.452278  0.569856  0.500000  1
  Tc  Tc3  1  0.430144  0.882423  0.500000  1
  Tc  Tc4  1  0.117577  0.547722  0.500000  1
  Ni  Ni5  1  0.707108  0.603290  0.000000  1
  Ni  Ni6  1  0.396710  0.103818  0.000000  1
  Ni  Ni7  1  0.896182  0.292892  0.000000  1
  Ni  Ni8  1  0.207997  0.381954  0.000000  1
  Ni  Ni9  1  0.618046  0.826042  0.000000  1
  Ni  Ni10  1  0.173958  0.792003  0.000000  1
  Ni  Ni11  1  0.276691  0.224237  0.500000  1
  Ni  Ni12  1  0.775763  0.052453  0.500000  1
  Ni  Ni13  1  0.947547  0.723309  0.500000  1
  P  P14  1  0.447982  0.371660  0.000000  1
  P  P15  1  0.628340  0.076323  0.000000  1
  P  P16  1  0.923677  0.552018  0.000000  1
  P  P17  1  0.043390  0.259309  0.500000  1
  P  P18  1  0.740691  0.784082  0.500000  1
  P  P19  1  0.215918  0.956610  0.500000  1
  P  P20  1  0.333333  0.666667  0.000000  1
