# generated using pymatgen
data_NdTh(SnAu2)2
_symmetry_space_group_name_H-M   'P 1'
_cell_length_a   4.78156600
_cell_length_b   4.78156496
_cell_length_c   9.62133700
_cell_angle_alpha   90.00000000
_cell_angle_beta   90.00000000
_cell_angle_gamma   119.99999337
_symmetry_Int_Tables_number   1
_chemical_formula_structural   NdTh(SnAu2)2
_chemical_formula_sum   'Nd1 Th1 Sn2 Au4'
_cell_volume   190.50496644
_cell_formula_units_Z   1
loop_
 _symmetry_equiv_pos_site_id
 _symmetry_equiv_pos_as_xyz
  1  'x, y, z'
loop_
 _atom_site_type_symbol
 _atom_site_label
 _atom_site_symmetry_multiplicity
 _atom_site_fract_x
 _atom_site_fract_y
 _atom_site_fract_z
 _atom_site_occupancy
  Nd  Nd0  1  0.333333  0.666667  0.750000  1
  Th  Th1  1  0.666666  0.333333  0.250000  1
  Sn  Sn2  1  0.000000  0.000000  0.000244  1
  Sn  Sn3  1  0.000000  0.000000  0.499756  1
  Au  Au4  1  0.333333  0.666667  0.098575  1
  Au  Au5  1  0.333333  0.666667  0.401425  1
  Au  Au6  1  0.666666  0.333333  0.598153  1
  Au  Au7  1  0.666666  0.333333  0.901848  1
