# generated using pymatgen
data_Nb5Si(B2Os5)2
_symmetry_space_group_name_H-M   'P 1'
_cell_length_a   9.47206900
_cell_length_b   9.47206900
_cell_length_c   2.99875400
_cell_angle_alpha   90.00000000
_cell_angle_beta   90.00000000
_cell_angle_gamma   90.00000000
_symmetry_Int_Tables_number   1
_chemical_formula_structural   Nb5Si(B2Os5)2
_chemical_formula_sum   'Nb5 Si1 B4 Os10'
_cell_volume   269.04848219
_cell_formula_units_Z   1
loop_
 _symmetry_equiv_pos_site_id
 _symmetry_equiv_pos_as_xyz
  1  'x, y, z'
loop_
 _atom_site_type_symbol
 _atom_site_label
 _atom_site_symmetry_multiplicity
 _atom_site_fract_x
 _atom_site_fract_y
 _atom_site_fract_z
 _atom_site_occupancy
  Nb  Nb0  1  0.821173  0.675942  0.000000  1
  Nb  Nb1  1  0.178827  0.324058  0.000000  1
  Nb  Nb2  1  0.324058  0.821173  0.000000  1
  Nb  Nb3  1  0.675942  0.178827  0.000000  1
  Nb  Nb4  1  0.000000  0.000000  0.000000  1
  Si  Si5  1  0.500000  0.500000  0.000000  1
  B  B6  1  0.616288  0.870461  0.000000  1
  B  B7  1  0.383712  0.129539  0.000000  1
  B  B8  1  0.129539  0.616288  0.000000  1
  B  B9  1  0.870461  0.383712  0.000000  1
  Os  Os10  1  0.565990  0.709131  0.500000  1
  Os  Os11  1  0.434010  0.290869  0.500000  1
  Os  Os12  1  0.073684  0.778800  0.500000  1
  Os  Os13  1  0.926316  0.221200  0.500000  1
  Os  Os14  1  0.290869  0.565990  0.500000  1
  Os  Os15  1  0.709131  0.434010  0.500000  1
  Os  Os16  1  0.221200  0.073684  0.500000  1
  Os  Os17  1  0.778800  0.926316  0.500000  1
  Os  Os18  1  0.500000  0.000000  0.500000  1
  Os  Os19  1  0.000000  0.500000  0.500000  1
