# generated using pymatgen
data_Nd4SmP12Pd2Ru17
_symmetry_space_group_name_H-M   'P 1'
_cell_length_a   12.63622606
_cell_length_b   12.74224287
_cell_length_c   4.01194000
_cell_angle_alpha   90.00000000
_cell_angle_beta   90.00000000
_cell_angle_gamma   120.28165239
_symmetry_Int_Tables_number   1
_chemical_formula_structural   Nd4SmP12Pd2Ru17
_chemical_formula_sum   'Nd4 Sm1 P12 Pd2 Ru17'
_cell_volume   557.83882623
_cell_formula_units_Z   1
loop_
 _symmetry_equiv_pos_site_id
 _symmetry_equiv_pos_as_xyz
  1  'x, y, z'
loop_
 _atom_site_type_symbol
 _atom_site_label
 _atom_site_symmetry_multiplicity
 _atom_site_fract_x
 _atom_site_fract_y
 _atom_site_fract_z
 _atom_site_occupancy
  Nd  Nd0  1  0.182805  0.181823  0.500000  1
  Nd  Nd1  1  0.817212  0.999041  0.500000  1
  Nd  Nd2  1  0.999950  0.815805  0.500000  1
  Nd  Nd3  1  0.328209  0.664162  0.000000  1
  Sm  Sm4  1  0.671992  0.335969  0.000000  1
  P  P5  1  0.809931  0.811007  0.000000  1
  P  P6  1  0.190401  0.001696  0.000000  1
  P  P7  1  0.999713  0.184910  0.000000  1
  P  P8  1  0.169178  0.475551  0.500000  1
  P  P9  1  0.519307  0.700236  0.500000  1
  P  P10  1  0.298331  0.823041  0.500000  1
  P  P11  1  0.701367  0.523554  0.500000  1
  P  P12  1  0.829793  0.306358  0.500000  1
  P  P13  1  0.481926  0.181941  0.500000  1
  P  P14  1  0.368267  0.368101  0.000000  1
  P  P15  1  0.631658  0.999694  0.000000  1
  P  P16  1  0.999954  0.623774  0.000000  1
  Pd  Pd17  1  0.552546  0.553250  0.000000  1
  Pd  Pd18  1  0.447458  0.000709  0.000000  1
  Ru  Ru19  1  0.999909  0.444238  0.000000  1
  Ru  Ru20  1  0.710032  0.711696  0.500000  1
  Ru  Ru21  1  0.290444  0.002512  0.500000  1
  Ru  Ru22  1  0.999547  0.283491  0.500000  1
  Ru  Ru23  1  0.184470  0.377367  0.000000  1
  Ru  Ru24  1  0.617848  0.804734  0.000000  1
  Ru  Ru25  1  0.192947  0.815736  0.000000  1
  Ru  Ru26  1  0.806761  0.621885  0.000000  1
  Ru  Ru27  1  0.814851  0.193091  0.000000  1
  Ru  Ru28  1  0.383211  0.187574  0.000000  1
  Ru  Ru29  1  0.366083  0.492515  0.500000  1
  Ru  Ru30  1  0.508307  0.879045  0.500000  1
  Ru  Ru31  1  0.122450  0.631574  0.500000  1
  Ru  Ru32  1  0.876428  0.507904  0.500000  1
  Ru  Ru33  1  0.633770  0.127533  0.500000  1
  Ru  Ru34  1  0.492949  0.371022  0.500000  1
  Ru  Ru35  1  0.999997  0.997459  0.000000  1
