# generated using pymatgen
data_Pr2Y5Tm(WO6)4
_symmetry_space_group_name_H-M   'P 1'
_cell_length_a   5.46267699
_cell_length_b   7.79281134
_cell_length_c   11.56448768
_cell_angle_alpha   75.64062863
_cell_angle_beta   90.00172450
_cell_angle_gamma   89.93372901
_symmetry_Int_Tables_number   1
_chemical_formula_structural   Pr2Y5Tm(WO6)4
_chemical_formula_sum   'Pr2 Y5 Tm1 W4 O24'
_cell_volume   476.91571791
_cell_formula_units_Z   1
loop_
 _symmetry_equiv_pos_site_id
 _symmetry_equiv_pos_as_xyz
  1  'x, y, z'
loop_
 _atom_site_type_symbol
 _atom_site_label
 _atom_site_symmetry_multiplicity
 _atom_site_fract_x
 _atom_site_fract_y
 _atom_site_fract_z
 _atom_site_occupancy
  Pr  Pr0  1  0.685681  0.499637  0.749749  1
  Pr  Pr1  1  0.314869  0.499238  0.250901  1
  Y  Y2  1  0.742106  0.000454  0.749047  1
  Y  Y3  1  0.258281  0.000572  0.251195  1
  Y  Y4  1  0.186214  0.797838  0.576542  1
  Y  Y5  1  0.812981  0.797255  0.076873  1
  Y  Y6  1  0.187275  0.202815  0.923036  1
  Tm  Tm7  1  0.814158  0.203469  0.422432  1
  W  W8  1  0.253287  0.727664  0.884430  1
  W  W9  1  0.746610  0.727290  0.384423  1
  W  W10  1  0.253586  0.271995  0.614409  1
  W  W11  1  0.747317  0.272002  0.116512  1
  O  O12  1  0.042332  0.940579  0.895959  1
  O  O13  1  0.531104  0.846345  0.930587  1
  O  O14  1  0.953198  0.943392  0.396261  1
  O  O15  1  0.455045  0.794489  0.727545  1
  O  O16  1  0.467128  0.844798  0.430703  1
  O  O17  1  0.986230  0.719387  0.770027  1
  O  O18  1  0.544562  0.793703  0.227957  1
  O  O19  1  0.854105  0.641456  0.545205  1
  O  O20  1  0.348593  0.493969  0.887119  1
  O  O21  1  0.014514  0.720335  0.270757  1
  O  O22  1  0.347781  0.505352  0.611733  1
  O  O23  1  0.853842  0.358493  0.955241  1
  O  O24  1  0.146273  0.640979  0.045403  1
  O  O25  1  0.654565  0.492543  0.387300  1
  O  O26  1  0.987242  0.280483  0.729649  1
  O  O27  1  0.651445  0.505641  0.113022  1
  O  O28  1  0.141397  0.357147  0.454087  1
  O  O29  1  0.455428  0.205015  0.771378  1
  O  O30  1  0.012767  0.280036  0.231978  1
  O  O31  1  0.534168  0.156315  0.566555  1
  O  O32  1  0.547793  0.205068  0.274493  1
  O  O33  1  0.041573  0.060225  0.602582  1
  O  O34  1  0.468417  0.154339  0.070636  1
  O  O35  1  0.958133  0.059680  0.104274  1
