# generated using pymatgen
data_HoMn2(CoP)3
_symmetry_space_group_name_H-M   'P 1'
_cell_length_a   3.61072000
_cell_length_b   10.34363700
_cell_length_c   12.05013300
_cell_angle_alpha   90.00000000
_cell_angle_beta   90.00000000
_cell_angle_gamma   90.00000000
_symmetry_Int_Tables_number   1
_chemical_formula_structural   HoMn2(CoP)3
_chemical_formula_sum   'Ho4 Mn8 Co12 P12'
_cell_volume   450.04808999
_cell_formula_units_Z   4
loop_
 _symmetry_equiv_pos_site_id
 _symmetry_equiv_pos_as_xyz
  1  'x, y, z'
loop_
 _atom_site_type_symbol
 _atom_site_label
 _atom_site_symmetry_multiplicity
 _atom_site_fract_x
 _atom_site_fract_y
 _atom_site_fract_z
 _atom_site_occupancy
  Ho  Ho0  1  0.250000  0.582982  0.709195  1
  Ho  Ho1  1  0.250000  0.917018  0.209195  1
  Ho  Ho2  1  0.750000  0.417018  0.290805  1
  Ho  Ho3  1  0.750000  0.082982  0.790805  1
  Mn  Mn4  1  0.250000  0.713505  0.991123  1
  Mn  Mn5  1  0.250000  0.786495  0.491123  1
  Mn  Mn6  1  0.750000  0.286495  0.008877  1
  Mn  Mn7  1  0.750000  0.213505  0.508877  1
  Mn  Mn8  1  0.250000  0.407040  0.490943  1
  Mn  Mn9  1  0.250000  0.092960  0.990943  1
  Mn  Mn10  1  0.750000  0.592960  0.509057  1
  Mn  Mn11  1  0.750000  0.907040  0.009057  1
  Co  Co12  1  0.250000  0.221649  0.176733  1
  Co  Co13  1  0.250000  0.278351  0.676733  1
  Co  Co14  1  0.750000  0.778351  0.823267  1
  Co  Co15  1  0.750000  0.721649  0.323267  1
  Co  Co16  1  0.250000  0.882755  0.695997  1
  Co  Co17  1  0.250000  0.617245  0.195997  1
  Co  Co18  1  0.750000  0.117245  0.304003  1
  Co  Co19  1  0.750000  0.382755  0.804003  1
  Co  Co20  1  0.250000  0.465570  0.933676  1
  Co  Co21  1  0.250000  0.034430  0.433676  1
  Co  Co22  1  0.750000  0.534430  0.066324  1
  Co  Co23  1  0.750000  0.965570  0.566324  1
  P  P24  1  0.250000  0.419006  0.111542  1
  P  P25  1  0.250000  0.080994  0.611542  1
  P  P26  1  0.750000  0.580994  0.888458  1
  P  P27  1  0.750000  0.919006  0.388458  1
  P  P28  1  0.250000  0.269129  0.867038  1
  P  P29  1  0.250000  0.230871  0.367038  1
  P  P30  1  0.750000  0.730871  0.132962  1
  P  P31  1  0.750000  0.769129  0.632962  1
  P  P32  1  0.250000  0.599476  0.383381  1
  P  P33  1  0.250000  0.900524  0.883381  1
  P  P34  1  0.750000  0.400524  0.616619  1
  P  P35  1  0.750000  0.099476  0.116619  1
