# generated using pymatgen
data_HoTh3(Ni2Sn)2
_symmetry_space_group_name_H-M   'P 1'
_cell_length_a   7.54374128
_cell_length_b   7.54374128
_cell_length_c   3.72664300
_cell_angle_alpha   90.00000000
_cell_angle_beta   90.00000000
_cell_angle_gamma   90.85965652
_symmetry_Int_Tables_number   1
_chemical_formula_structural   HoTh3(Ni2Sn)2
_chemical_formula_sum   'Ho1 Th3 Ni4 Sn2'
_cell_volume   212.05205039
_cell_formula_units_Z   1
loop_
 _symmetry_equiv_pos_site_id
 _symmetry_equiv_pos_as_xyz
  1  'x, y, z'
loop_
 _atom_site_type_symbol
 _atom_site_label
 _atom_site_symmetry_multiplicity
 _atom_site_fract_x
 _atom_site_fract_y
 _atom_site_fract_z
 _atom_site_occupancy
  Ho  Ho0  1  0.825631  0.674369  0.500000  1
  Th  Th1  1  0.675512  0.175546  0.500000  1
  Th  Th2  1  0.324454  0.824488  0.500000  1
  Th  Th3  1  0.172500  0.327500  0.500000  1
  Ni  Ni4  1  0.879203  0.373929  0.000000  1
  Ni  Ni5  1  0.126071  0.620797  0.000000  1
  Ni  Ni6  1  0.375078  0.124922  0.000000  1
  Ni  Ni7  1  0.619043  0.880957  0.000000  1
  Sn  Sn8  1  0.509445  0.506936  0.000000  1
  Sn  Sn9  1  0.993064  0.990555  0.000000  1
