# generated using pymatgen
data_Er3Ti(P3Pd4)2
_symmetry_space_group_name_H-M   'P 1'
_cell_length_a   3.93751400
_cell_length_b   11.35167800
_cell_length_c   13.26187800
_cell_angle_alpha   90.00000000
_cell_angle_beta   90.00000000
_cell_angle_gamma   90.00000000
_symmetry_Int_Tables_number   1
_chemical_formula_structural   Er3Ti(P3Pd4)2
_chemical_formula_sum   'Er6 Ti2 P12 Pd16'
_cell_volume   592.77134700
_cell_formula_units_Z   2
loop_
 _symmetry_equiv_pos_site_id
 _symmetry_equiv_pos_as_xyz
  1  'x, y, z'
loop_
 _atom_site_type_symbol
 _atom_site_label
 _atom_site_symmetry_multiplicity
 _atom_site_fract_x
 _atom_site_fract_y
 _atom_site_fract_z
 _atom_site_occupancy
  Er  Er0  1  0.750000  0.250000  0.478429  1
  Er  Er1  1  0.250000  0.750000  0.521571  1
  Er  Er2  1  0.250000  0.935195  0.794294  1
  Er  Er3  1  0.250000  0.564805  0.794294  1
  Er  Er4  1  0.750000  0.064805  0.205706  1
  Er  Er5  1  0.750000  0.435195  0.205706  1
  Ti  Ti6  1  0.250000  0.250000  0.843611  1
  Ti  Ti7  1  0.750000  0.750000  0.156389  1
  P  P8  1  0.250000  0.250000  0.128963  1
  P  P9  1  0.750000  0.750000  0.871037  1
  P  P10  1  0.250000  0.250000  0.648604  1
  P  P11  1  0.750000  0.750000  0.351396  1
  P  P12  1  0.250000  0.430676  0.382819  1
  P  P13  1  0.250000  0.069324  0.382819  1
  P  P14  1  0.750000  0.569324  0.617181  1
  P  P15  1  0.750000  0.930676  0.617181  1
  P  P16  1  0.250000  0.900280  0.116767  1
  P  P17  1  0.250000  0.599720  0.116767  1
  P  P18  1  0.750000  0.099720  0.883233  1
  P  P19  1  0.750000  0.400280  0.883233  1
  Pd  Pd20  1  0.250000  0.250000  0.301491  1
  Pd  Pd21  1  0.750000  0.750000  0.698509  1
  Pd  Pd22  1  0.750000  0.250000  0.013722  1
  Pd  Pd23  1  0.250000  0.750000  0.986278  1
  Pd  Pd24  1  0.250000  0.420078  0.027602  1
  Pd  Pd25  1  0.250000  0.079922  0.027602  1
  Pd  Pd26  1  0.750000  0.579922  0.972398  1
  Pd  Pd27  1  0.750000  0.920078  0.972398  1
  Pd  Pd28  1  0.250000  0.444609  0.564894  1
  Pd  Pd29  1  0.250000  0.055391  0.564894  1
  Pd  Pd30  1  0.750000  0.555391  0.435106  1
  Pd  Pd31  1  0.750000  0.944609  0.435106  1
  Pd  Pd32  1  0.250000  0.875968  0.293402  1
  Pd  Pd33  1  0.250000  0.624032  0.293402  1
  Pd  Pd34  1  0.750000  0.124032  0.706598  1
  Pd  Pd35  1  0.750000  0.375968  0.706598  1
