# generated using pymatgen
data_NaPrZn21Pt
_symmetry_space_group_name_H-M   'P 1'
_cell_length_a   8.32036527
_cell_length_b   8.31540527
_cell_length_c   8.32036500
_cell_angle_alpha   100.12301001
_cell_angle_beta   99.77572250
_cell_angle_gamma   130.91519810
_symmetry_Int_Tables_number   1
_chemical_formula_structural   NaPrZn21Pt
_chemical_formula_sum   'Na1 Pr1 Zn21 Pt1'
_cell_volume   395.59367646
_cell_formula_units_Z   1
loop_
 _symmetry_equiv_pos_site_id
 _symmetry_equiv_pos_as_xyz
  1  'x, y, z'
loop_
 _atom_site_type_symbol
 _atom_site_label
 _atom_site_symmetry_multiplicity
 _atom_site_fract_x
 _atom_site_fract_y
 _atom_site_fract_z
 _atom_site_occupancy
  Na  Na0  1  0.496620  0.496907  0.000288  1
  Pr  Pr1  1  0.749622  0.254309  0.504686  1
  Zn  Zn2  1  0.853268  0.434568  0.175512  1
  Zn  Zn3  1  0.121570  0.874975  0.753404  1
  Zn  Zn4  1  0.322473  0.148537  0.584726  1
  Zn  Zn5  1  0.259056  0.434568  0.581299  1
  Zn  Zn6  1  0.325498  0.737946  0.172371  1
  Zn  Zn7  1  0.992165  0.320933  0.913726  1
  Zn  Zn8  1  0.262556  0.678128  0.826720  1
  Zn  Zn9  1  0.244850  0.737168  0.492318  1
  Zn  Zn10  1  0.988662  0.075192  0.668750  1
  Zn  Zn11  1  0.009516  0.015489  0.005974  1
  Zn  Zn12  1  0.678083  0.008657  0.087106  1
  Zn  Zn13  1  0.628864  0.877271  0.751619  1
  Zn  Zn14  1  0.407208  0.320933  0.328769  1
  Zn  Zn15  1  0.921551  0.008657  0.330574  1
  Zn  Zn16  1  0.851407  0.678128  0.415571  1
  Zn  Zn17  1  0.565575  0.737946  0.412447  1
  Zn  Zn18  1  0.679993  0.596205  0.673047  1
  Zn  Zn19  1  0.406442  0.075192  0.086532  1
  Zn  Zn20  1  0.923159  0.596205  0.916213  1
  Zn  Zn21  1  0.563811  0.148537  0.826063  1
  Zn  Zn22  1  0.125653  0.877271  0.248407  1
  Pt  Pt23  1  0.122395  0.366273  0.243878  1
