# generated using pymatgen
data_K2HgPb3O8
_symmetry_space_group_name_H-M   'P 1'
_cell_length_a   7.60840568
_cell_length_b   7.60840670
_cell_length_c   7.60840700
_cell_angle_alpha   53.16587386
_cell_angle_beta   53.16586814
_cell_angle_gamma   53.16586874
_symmetry_Int_Tables_number   1
_chemical_formula_structural   K2HgPb3O8
_chemical_formula_sum   'K2 Hg1 Pb3 O8'
_cell_volume   261.57476026
_cell_formula_units_Z   1
loop_
 _symmetry_equiv_pos_site_id
 _symmetry_equiv_pos_as_xyz
  1  'x, y, z'
loop_
 _atom_site_type_symbol
 _atom_site_label
 _atom_site_symmetry_multiplicity
 _atom_site_fract_x
 _atom_site_fract_y
 _atom_site_fract_z
 _atom_site_occupancy
  K  K0  1  0.617057  0.617057  0.617057  1
  K  K1  1  0.258649  0.258649  0.258649  1
  Hg  Hg2  1  0.075349  0.075349  0.075349  1
  Pb  Pb3  1  0.620336  0.121762  0.620336  1
  Pb  Pb4  1  0.121762  0.620336  0.620336  1
  Pb  Pb5  1  0.620336  0.620336  0.121762  1
  O  O6  1  0.845960  0.845960  0.845960  1
  O  O7  1  0.871501  0.428613  0.871501  1
  O  O8  1  0.428613  0.871501  0.871501  1
  O  O9  1  0.871501  0.871501  0.428613  1
  O  O10  1  0.392912  0.392912  0.392912  1
  O  O11  1  0.350710  0.824605  0.350710  1
  O  O12  1  0.824605  0.350710  0.350710  1
  O  O13  1  0.350710  0.350710  0.824605  1
