# generated using pymatgen
data_Ho16Cd4Ru3Au
_symmetry_space_group_name_H-M   'P 1'
_cell_length_a   9.60050624
_cell_length_b   9.65025292
_cell_length_c   9.65025300
_cell_angle_alpha   59.99999628
_cell_angle_beta   59.82843937
_cell_angle_gamma   59.82844651
_symmetry_Int_Tables_number   1
_chemical_formula_structural   Ho16Cd4Ru3Au
_chemical_formula_sum   'Ho16 Cd4 Ru3 Au1'
_cell_volume   630.55863347
_cell_formula_units_Z   1
loop_
 _symmetry_equiv_pos_site_id
 _symmetry_equiv_pos_as_xyz
  1  'x, y, z'
loop_
 _atom_site_type_symbol
 _atom_site_label
 _atom_site_symmetry_multiplicity
 _atom_site_fract_x
 _atom_site_fract_y
 _atom_site_fract_z
 _atom_site_occupancy
  Ho  Ho0  1  0.343519  0.354229  0.354229  1
  Ho  Ho1  1  0.343519  0.354229  0.948023  1
  Ho  Ho2  1  0.343519  0.948023  0.354229  1
  Ho  Ho3  1  0.963495  0.345502  0.345502  1
  Ho  Ho4  1  0.819916  0.189732  0.189732  1
  Ho  Ho5  1  0.187396  0.812119  0.812119  1
  Ho  Ho6  1  0.187396  0.812119  0.188366  1
  Ho  Ho7  1  0.819916  0.189732  0.800620  1
  Ho  Ho8  1  0.187396  0.188366  0.812119  1
  Ho  Ho9  1  0.819916  0.800620  0.189732  1
  Ho  Ho10  1  0.934846  0.563559  0.563559  1
  Ho  Ho11  1  0.557178  0.937212  0.937212  1
  Ho  Ho12  1  0.557178  0.937212  0.568399  1
  Ho  Ho13  1  0.934846  0.563559  0.938038  1
  Ho  Ho14  1  0.557178  0.568399  0.937212  1
  Ho  Ho15  1  0.934846  0.938038  0.563559  1
  Cd  Cd16  1  0.580706  0.579889  0.579889  1
  Cd  Cd17  1  0.580706  0.579889  0.259515  1
  Cd  Cd18  1  0.580706  0.259515  0.579889  1
  Cd  Cd19  1  0.255864  0.581378  0.581378  1
  Ru  Ru20  1  0.146160  0.139244  0.139244  1
  Ru  Ru21  1  0.146160  0.139244  0.575351  1
  Ru  Ru22  1  0.146160  0.575351  0.139244  1
  Au  Au23  1  0.571481  0.142839  0.142839  1
