# generated using pymatgen
data_Dy3Lu3Al24Ru3Rh5
_symmetry_space_group_name_H-M   'P 1'
_cell_length_a   8.80093365
_cell_length_b   8.76737100
_cell_length_c   9.51117810
_cell_angle_alpha   90.00000085
_cell_angle_beta   90.14453890
_cell_angle_gamma   119.87392814
_symmetry_Int_Tables_number   1
_chemical_formula_structural   Dy3Lu3Al24Ru3Rh5
_chemical_formula_sum   'Dy3 Lu3 Al24 Ru3 Rh5'
_cell_volume   636.37272757
_cell_formula_units_Z   1
loop_
 _symmetry_equiv_pos_site_id
 _symmetry_equiv_pos_as_xyz
  1  'x, y, z'
loop_
 _atom_site_type_symbol
 _atom_site_label
 _atom_site_symmetry_multiplicity
 _atom_site_fract_x
 _atom_site_fract_y
 _atom_site_fract_z
 _atom_site_occupancy
  Dy  Dy0  1  0.809392  0.194177  0.750445  1
  Dy  Dy1  1  0.809392  0.615215  0.750445  1
  Dy  Dy2  1  0.383098  0.191549  0.750575  1
  Lu  Lu3  1  0.192474  0.803057  0.249234  1
  Lu  Lu4  1  0.192474  0.389416  0.249234  1
  Lu  Lu5  1  0.612698  0.806349  0.249529  1
  Al  Al6  1  0.560525  0.438438  0.250556  1
  Al  Al7  1  0.560525  0.122087  0.250556  1
  Al  Al8  1  0.876127  0.438064  0.249564  1
  Al  Al9  1  0.438335  0.562439  0.749386  1
  Al  Al10  1  0.438335  0.875896  0.749386  1
  Al  Al11  1  0.125569  0.562784  0.750912  1
  Al  Al12  1  0.324657  0.162328  0.420360  1
  Al  Al13  1  0.836026  0.161747  0.420827  1
  Al  Al14  1  0.836026  0.674279  0.420827  1
  Al  Al15  1  0.674028  0.837014  0.576210  1
  Al  Al16  1  0.164400  0.837415  0.575725  1
  Al  Al17  1  0.164400  0.326985  0.575725  1
  Al  Al18  1  0.674220  0.837110  0.923643  1
  Al  Al19  1  0.162570  0.835241  0.924426  1
  Al  Al20  1  0.162570  0.327329  0.924426  1
  Al  Al21  1  0.324701  0.162350  0.079798  1
  Al  Al22  1  0.838163  0.164144  0.079010  1
  Al  Al23  1  0.838163  0.674019  0.079010  1
  Al  Al24  1  0.666332  0.333166  0.526635  1
  Al  Al25  1  0.333718  0.666859  0.469507  1
  Al  Al26  1  0.331739  0.665869  0.029053  1
  Al  Al27  1  0.668923  0.334462  0.974633  1
  Al  Al28  1  0.999154  0.999577  0.249994  1
  Al  Al29  1  0.001031  0.000516  0.750002  1
  Ru  Ru30  1  0.999905  0.999953  0.500098  1
  Ru  Ru31  1  0.999990  0.999995  0.999910  1
  Ru  Ru32  1  0.001280  0.500640  0.001501  1
  Rh  Rh33  1  0.499473  0.500473  0.499005  1
  Rh  Rh34  1  0.499473  0.999000  0.499005  1
  Rh  Rh35  1  0.001018  0.500509  0.498865  1
  Rh  Rh36  1  0.499549  0.500555  0.000992  1
  Rh  Rh37  1  0.499549  0.998993  0.000992  1
