# generated using pymatgen
data_Er3Th5(BeSi3)4
_symmetry_space_group_name_H-M   'P 1'
_cell_length_a   7.92663500
_cell_length_b   7.92663551
_cell_length_c   8.36582900
_cell_angle_alpha   90.00000000
_cell_angle_beta   90.00000000
_cell_angle_gamma   120.00001039
_symmetry_Int_Tables_number   1
_chemical_formula_structural   Er3Th5(BeSi3)4
_chemical_formula_sum   'Er3 Th5 Be4 Si12'
_cell_volume   455.21579065
_cell_formula_units_Z   1
loop_
 _symmetry_equiv_pos_site_id
 _symmetry_equiv_pos_as_xyz
  1  'x, y, z'
loop_
 _atom_site_type_symbol
 _atom_site_label
 _atom_site_symmetry_multiplicity
 _atom_site_fract_x
 _atom_site_fract_y
 _atom_site_fract_z
 _atom_site_occupancy
  Er  Er0  1  0.499845  0.500155  0.750000  1
  Er  Er1  1  0.499845  0.999690  0.750000  1
  Er  Er2  1  0.000310  0.500155  0.750000  1
  Th  Th3  1  0.000000  0.000000  0.250000  1
  Th  Th4  1  0.000000  0.000000  0.750000  1
  Th  Th5  1  0.499822  0.500178  0.250000  1
  Th  Th6  1  0.499822  0.999643  0.250000  1
  Th  Th7  1  0.000357  0.500178  0.250000  1
  Be  Be8  1  0.333333  0.666667  0.513527  1
  Be  Be9  1  0.666667  0.333333  0.515038  1
  Be  Be10  1  0.666667  0.333333  0.984962  1
  Be  Be11  1  0.333333  0.666667  0.986473  1
  Si  Si12  1  0.173573  0.826427  0.506629  1
  Si  Si13  1  0.173573  0.347146  0.506629  1
  Si  Si14  1  0.652854  0.826427  0.506629  1
  Si  Si15  1  0.826359  0.173641  0.506596  1
  Si  Si16  1  0.826359  0.652719  0.506596  1
  Si  Si17  1  0.347281  0.173641  0.506596  1
  Si  Si18  1  0.826359  0.173641  0.993404  1
  Si  Si19  1  0.826359  0.652719  0.993404  1
  Si  Si20  1  0.347281  0.173641  0.993404  1
  Si  Si21  1  0.173573  0.826427  0.993371  1
  Si  Si22  1  0.173573  0.347146  0.993371  1
  Si  Si23  1  0.652854  0.826427  0.993371  1
