# generated using pymatgen
data_Al8Fe3CoIr4
_symmetry_space_group_name_H-M   'P 1'
_cell_length_a   5.92082700
_cell_length_b   4.17117700
_cell_length_c   8.34198500
_cell_angle_alpha   90.00000000
_cell_angle_beta   90.00031280
_cell_angle_gamma   90.00000000
_symmetry_Int_Tables_number   1
_chemical_formula_structural   Al8Fe3CoIr4
_chemical_formula_sum   'Al8 Fe3 Co1 Ir4'
_cell_volume   206.02048033
_cell_formula_units_Z   1
loop_
 _symmetry_equiv_pos_site_id
 _symmetry_equiv_pos_as_xyz
  1  'x, y, z'
loop_
 _atom_site_type_symbol
 _atom_site_label
 _atom_site_symmetry_multiplicity
 _atom_site_fract_x
 _atom_site_fract_y
 _atom_site_fract_z
 _atom_site_occupancy
  Al  Al0  1  0.501680  0.750000  0.126453  1
  Al  Al1  1  0.998325  0.750000  0.126457  1
  Al  Al2  1  0.501179  0.250001  0.374893  1
  Al  Al3  1  0.998808  0.250001  0.374896  1
  Al  Al4  1  0.998578  0.750000  0.623527  1
  Al  Al5  1  0.501435  0.750000  0.623530  1
  Al  Al6  1  0.998207  0.250001  0.875101  1
  Al  Al7  1  0.501793  0.250001  0.875105  1
  Fe  Fe8  1  0.750000  0.250001  0.123618  1
  Fe  Fe9  1  0.249992  0.750000  0.374990  1
  Fe  Fe10  1  0.750003  0.250001  0.626446  1
  Co  Co11  1  0.250003  0.750000  0.875012  1
  Ir  Ir12  1  0.249995  0.250001  0.123266  1
  Ir  Ir13  1  0.749996  0.750000  0.374969  1
  Ir  Ir14  1  0.250005  0.250001  0.626714  1
  Ir  Ir15  1  0.750004  0.750000  0.875024  1
