# generated using pymatgen
data_Eu3Al12Os3Pt
_symmetry_space_group_name_H-M   'P 1'
_cell_length_a   8.93761885
_cell_length_b   8.92610111
_cell_length_c   9.74429157
_cell_angle_alpha   90.00000128
_cell_angle_beta   90.16324344
_cell_angle_gamma   119.95738088
_symmetry_Int_Tables_number   1
_chemical_formula_structural   Eu3Al12Os3Pt
_chemical_formula_sum   'Eu6 Al24 Os6 Pt2'
_cell_volume   673.51696102
_cell_formula_units_Z   2
loop_
 _symmetry_equiv_pos_site_id
 _symmetry_equiv_pos_as_xyz
  1  'x, y, z'
loop_
 _atom_site_type_symbol
 _atom_site_label
 _atom_site_symmetry_multiplicity
 _atom_site_fract_x
 _atom_site_fract_y
 _atom_site_fract_z
 _atom_site_occupancy
  Eu  Eu0  1  0.192044  0.386746  0.252743  1
  Eu  Eu1  1  0.807956  0.613254  0.747257  1
  Eu  Eu2  1  0.615720  0.807860  0.252774  1
  Eu  Eu3  1  0.384280  0.192140  0.747226  1
  Eu  Eu4  1  0.192044  0.805300  0.252743  1
  Eu  Eu5  1  0.807956  0.194700  0.747257  1
  Al  Al6  1  0.329303  0.664652  0.009114  1
  Al  Al7  1  0.670697  0.335348  0.990886  1
  Al  Al8  1  0.666486  0.333243  0.507488  1
  Al  Al9  1  0.333514  0.666757  0.492512  1
  Al  Al10  1  0.163141  0.326101  0.572799  1
  Al  Al11  1  0.836859  0.673899  0.427201  1
  Al  Al12  1  0.674742  0.837370  0.573748  1
  Al  Al13  1  0.843342  0.676145  0.074643  1
  Al  Al14  1  0.325258  0.162630  0.426252  1
  Al  Al15  1  0.156658  0.323855  0.925357  1
  Al  Al16  1  0.163141  0.837039  0.572799  1
  Al  Al17  1  0.322515  0.161257  0.077094  1
  Al  Al18  1  0.836859  0.162961  0.427201  1
  Al  Al19  1  0.677485  0.838743  0.922906  1
  Al  Al20  1  0.843342  0.167197  0.074643  1
  Al  Al21  1  0.156658  0.832803  0.925357  1
  Al  Al22  1  0.562491  0.126223  0.252138  1
  Al  Al23  1  0.437509  0.873777  0.747862  1
  Al  Al24  1  0.874822  0.437412  0.248816  1
  Al  Al25  1  0.125178  0.562588  0.751184  1
  Al  Al26  1  0.562491  0.436268  0.252138  1
  Al  Al27  1  0.437509  0.563732  0.747862  1
  Al  Al28  1  0.999829  0.999914  0.250347  1
  Al  Al29  1  0.000171  0.000086  0.749653  1
  Os  Os30  1  0.000000  0.500000  0.000000  1
  Os  Os31  1  0.500000  0.000000  0.500000  1
  Os  Os32  1  0.000000  0.500000  0.500000  1
  Os  Os33  1  0.500000  0.500000  0.500000  1
  Os  Os34  1  0.000000  0.000000  0.000000  1
  Os  Os35  1  0.000000  0.000000  0.500000  1
  Pt  Pt36  1  0.500000  0.000000  0.000000  1
  Pt  Pt37  1  0.500000  0.500000  0.000000  1
