# generated using pymatgen
data_Y16Cd4Ir3Os
_symmetry_space_group_name_H-M   'P 1'
_cell_length_a   9.72304567
_cell_length_b   9.72308797
_cell_length_c   9.72308401
_cell_angle_alpha   59.53678440
_cell_angle_beta   59.53670040
_cell_angle_gamma   59.53672262
_symmetry_Int_Tables_number   1
_chemical_formula_structural   Y16Cd4Ir3Os
_chemical_formula_sum   'Y16 Cd4 Ir3 Os1'
_cell_volume   643.12688868
_cell_formula_units_Z   1
loop_
 _symmetry_equiv_pos_site_id
 _symmetry_equiv_pos_as_xyz
  1  'x, y, z'
loop_
 _atom_site_type_symbol
 _atom_site_label
 _atom_site_symmetry_multiplicity
 _atom_site_fract_x
 _atom_site_fract_y
 _atom_site_fract_z
 _atom_site_occupancy
  Y  Y0  1  0.349332  0.349332  0.349331  1
  Y  Y1  1  0.348680  0.348678  0.956532  1
  Y  Y2  1  0.348680  0.956532  0.348678  1
  Y  Y3  1  0.956531  0.348681  0.348679  1
  Y  Y4  1  0.811227  0.189577  0.189575  1
  Y  Y5  1  0.187948  0.809049  0.809052  1
  Y  Y6  1  0.189577  0.811227  0.189574  1
  Y  Y7  1  0.809049  0.187948  0.809052  1
  Y  Y8  1  0.189575  0.189575  0.811229  1
  Y  Y9  1  0.809052  0.809052  0.187946  1
  Y  Y10  1  0.939243  0.561099  0.561097  1
  Y  Y11  1  0.557312  0.939304  0.939304  1
  Y  Y12  1  0.561099  0.939243  0.561097  1
  Y  Y13  1  0.939304  0.557312  0.939306  1
  Y  Y14  1  0.561097  0.561097  0.939243  1
  Y  Y15  1  0.939304  0.939305  0.557311  1
  Cd  Cd16  1  0.579836  0.579837  0.579836  1
  Cd  Cd17  1  0.580508  0.580508  0.256816  1
  Cd  Cd18  1  0.580509  0.256815  0.580508  1
  Cd  Cd19  1  0.256816  0.580509  0.580508  1
  Ir  Ir20  1  0.143225  0.143226  0.577570  1
  Ir  Ir21  1  0.143226  0.577570  0.143227  1
  Ir  Ir22  1  0.577573  0.143226  0.143227  1
  Os  Os23  1  0.141298  0.141300  0.141302  1
