# generated using pymatgen
data_Er3Tm(Zn2Cd)4
_symmetry_space_group_name_H-M   'P 1'
_cell_length_a   4.39498900
_cell_length_b   7.17053631
_cell_length_c   10.09355269
_cell_angle_alpha   90.00443999
_cell_angle_beta   90.00000000
_cell_angle_gamma   90.00000000
_symmetry_Int_Tables_number   1
_chemical_formula_structural   Er3Tm(Zn2Cd)4
_chemical_formula_sum   'Er3 Tm1 Zn8 Cd4'
_cell_volume   318.09254051
_cell_formula_units_Z   1
loop_
 _symmetry_equiv_pos_site_id
 _symmetry_equiv_pos_as_xyz
  1  'x, y, z'
loop_
 _atom_site_type_symbol
 _atom_site_label
 _atom_site_symmetry_multiplicity
 _atom_site_fract_x
 _atom_site_fract_y
 _atom_site_fract_z
 _atom_site_occupancy
  Er  Er0  1  0.250000  0.802197  0.825964  1
  Er  Er1  1  0.750000  0.698261  0.325984  1
  Er  Er2  1  0.750000  0.197979  0.173737  1
  Tm  Tm3  1  0.250000  0.301825  0.674063  1
  Zn  Zn4  1  0.250000  0.918375  0.142806  1
  Zn  Zn5  1  0.250000  0.418196  0.357103  1
  Zn  Zn6  1  0.750000  0.082293  0.856774  1
  Zn  Zn7  1  0.750000  0.580977  0.643283  1
  Zn  Zn8  1  0.250000  0.191623  0.962731  1
  Zn  Zn9  1  0.250000  0.690107  0.536826  1
  Zn  Zn10  1  0.750000  0.809027  0.036662  1
  Zn  Zn11  1  0.750000  0.308797  0.463589  1
  Cd  Cd12  1  0.250000  0.535690  0.099579  1
  Cd  Cd13  1  0.250000  0.035821  0.400648  1
  Cd  Cd14  1  0.750000  0.464573  0.900456  1
  Cd  Cd15  1  0.750000  0.964261  0.599798  1
