# generated using pymatgen
data_Th2UFe2Si7
_symmetry_space_group_name_H-M   'P 1'
_cell_length_a   12.36801264
_cell_length_b   12.36801304
_cell_length_c   4.09215800
_cell_angle_alpha   90.00000000
_cell_angle_beta   90.00000000
_cell_angle_gamma   160.78754624
_symmetry_Int_Tables_number   1
_chemical_formula_structural   Th2UFe2Si7
_chemical_formula_sum   'Th2 U1 Fe2 Si7'
_cell_volume   205.98853903
_cell_formula_units_Z   1
loop_
 _symmetry_equiv_pos_site_id
 _symmetry_equiv_pos_as_xyz
  1  'x, y, z'
loop_
 _atom_site_type_symbol
 _atom_site_label
 _atom_site_symmetry_multiplicity
 _atom_site_fract_x
 _atom_site_fract_y
 _atom_site_fract_z
 _atom_site_occupancy
  Th  Th0  1  0.318053  0.681947  0.000000  1
  Th  Th1  1  0.681947  0.318053  0.000000  1
  U  U2  1  0.000000  0.000000  0.500000  1
  Fe  Fe3  1  0.124459  0.875541  0.500000  1
  Fe  Fe4  1  0.875541  0.124459  0.500000  1
  Si  Si5  1  0.221568  0.778432  0.500000  1
  Si  Si6  1  0.778432  0.221568  0.500000  1
  Si  Si7  1  0.083367  0.916633  0.000000  1
  Si  Si8  1  0.916633  0.083367  0.000000  1
  Si  Si9  1  0.416154  0.583846  0.500000  1
  Si  Si10  1  0.500000  0.500000  0.000000  1
  Si  Si11  1  0.583846  0.416154  0.500000  1
