# generated using pymatgen
data_Lu3Hg3PtRh
_symmetry_space_group_name_H-M   'P 1'
_cell_length_a   7.63240200
_cell_length_b   7.63240248
_cell_length_c   3.47020100
_cell_angle_alpha   90.00000000
_cell_angle_beta   90.00000000
_cell_angle_gamma   120.00000659
_symmetry_Int_Tables_number   1
_chemical_formula_structural   Lu3Hg3PtRh
_chemical_formula_sum   'Lu3 Hg3 Pt1 Rh1'
_cell_volume   175.06838849
_cell_formula_units_Z   1
loop_
 _symmetry_equiv_pos_site_id
 _symmetry_equiv_pos_as_xyz
  1  'x, y, z'
loop_
 _atom_site_type_symbol
 _atom_site_label
 _atom_site_symmetry_multiplicity
 _atom_site_fract_x
 _atom_site_fract_y
 _atom_site_fract_z
 _atom_site_occupancy
  Lu  Lu0  1  0.574678  0.993497  0.499999  1
  Lu  Lu1  1  0.418818  0.425321  0.499999  1
  Lu  Lu2  1  0.006503  0.581181  0.499999  1
  Hg  Hg3  1  0.231657  0.996431  0.000000  1
  Hg  Hg4  1  0.003569  0.235224  0.000000  1
  Hg  Hg5  1  0.764775  0.768343  0.000000  1
  Pt  Pt6  1  0.666666  0.333334  0.000000  1
  Rh  Rh7  1  0.333334  0.666667  0.000000  1
