# generated using pymatgen
data_Ho4TcMoOs6
_symmetry_space_group_name_H-M   'P 1'
_cell_length_a   5.24142464
_cell_length_b   5.24142382
_cell_length_c   8.93455300
_cell_angle_alpha   90.00000000
_cell_angle_beta   90.00000000
_cell_angle_gamma   116.88649715
_symmetry_Int_Tables_number   1
_chemical_formula_structural   Ho4TcMoOs6
_chemical_formula_sum   'Ho4 Tc1 Mo1 Os6'
_cell_volume   218.92211153
_cell_formula_units_Z   1
loop_
 _symmetry_equiv_pos_site_id
 _symmetry_equiv_pos_as_xyz
  1  'x, y, z'
loop_
 _atom_site_type_symbol
 _atom_site_label
 _atom_site_symmetry_multiplicity
 _atom_site_fract_x
 _atom_site_fract_y
 _atom_site_fract_z
 _atom_site_occupancy
  Ho  Ho0  1  0.329381  0.670619  0.437021  1
  Ho  Ho1  1  0.667603  0.332397  0.564801  1
  Ho  Ho2  1  0.667603  0.332397  0.935199  1
  Ho  Ho3  1  0.329381  0.670619  0.062979  1
  Tc  Tc4  1  0.176066  0.823934  0.750000  1
  Mo  Mo5  1  0.832020  0.167980  0.250000  1
  Os  Os6  1  0.996723  0.003277  0.501984  1
  Os  Os7  1  0.996723  0.003277  0.998016  1
  Os  Os8  1  0.825905  0.654485  0.250000  1
  Os  Os9  1  0.345515  0.174095  0.250000  1
  Os  Os10  1  0.173189  0.340110  0.750000  1
  Os  Os11  1  0.659890  0.826811  0.750000  1
