# generated using pymatgen
data_Dy8Ho2Si6C
_symmetry_space_group_name_H-M   'P 1'
_cell_length_a   8.45505600
_cell_length_b   8.45505612
_cell_length_c   6.39063200
_cell_angle_alpha   90.00000000
_cell_angle_beta   90.00000000
_cell_angle_gamma   119.99999171
_symmetry_Int_Tables_number   1
_chemical_formula_structural   Dy8Ho2Si6C
_chemical_formula_sum   'Dy8 Ho2 Si6 C1'
_cell_volume   395.64662056
_cell_formula_units_Z   1
loop_
 _symmetry_equiv_pos_site_id
 _symmetry_equiv_pos_as_xyz
  1  'x, y, z'
loop_
 _atom_site_type_symbol
 _atom_site_label
 _atom_site_symmetry_multiplicity
 _atom_site_fract_x
 _atom_site_fract_y
 _atom_site_fract_z
 _atom_site_occupancy
  Dy  Dy0  1  0.000000  0.765023  0.270554  1
  Dy  Dy1  1  0.234977  0.234977  0.270554  1
  Dy  Dy2  1  0.765023  0.000000  0.270554  1
  Dy  Dy3  1  0.000000  0.234977  0.729446  1
  Dy  Dy4  1  0.765023  0.765023  0.729446  1
  Dy  Dy5  1  0.234977  0.000000  0.729446  1
  Dy  Dy6  1  0.333333  0.666667  0.000000  1
  Dy  Dy7  1  0.666667  0.333333  0.000000  1
  Ho  Ho8  1  0.666667  0.333333  0.500000  1
  Ho  Ho9  1  0.333333  0.666667  0.500000  1
  Si  Si10  1  0.000000  0.399579  0.255630  1
  Si  Si11  1  0.600421  0.600421  0.255630  1
  Si  Si12  1  0.399579  0.000000  0.255630  1
  Si  Si13  1  0.000000  0.600421  0.744370  1
  Si  Si14  1  0.399579  0.399579  0.744370  1
  Si  Si15  1  0.600421  0.000000  0.744370  1
  C  C16  1  0.000000  0.000000  0.500000  1
