# generated using pymatgen
data_LaPr12Nd3(CdPd)4
_symmetry_space_group_name_H-M   'P 1'
_cell_length_a   10.09512999
_cell_length_b   10.10015374
_cell_length_c   10.10015300
_cell_angle_alpha   59.99999915
_cell_angle_beta   59.98353596
_cell_angle_gamma   59.98353849
_symmetry_Int_Tables_number   1
_chemical_formula_structural   LaPr12Nd3(CdPd)4
_chemical_formula_sum   'La1 Pr12 Nd3 Cd4 Pd4'
_cell_volume   728.02239607
_cell_formula_units_Z   1
loop_
 _symmetry_equiv_pos_site_id
 _symmetry_equiv_pos_as_xyz
  1  'x, y, z'
loop_
 _atom_site_type_symbol
 _atom_site_label
 _atom_site_symmetry_multiplicity
 _atom_site_fract_x
 _atom_site_fract_y
 _atom_site_fract_z
 _atom_site_occupancy
  La  La0  1  0.948526  0.350492  0.350492  1
  Pr  Pr1  1  0.807474  0.192320  0.192320  1
  Pr  Pr2  1  0.192274  0.807506  0.807506  1
  Pr  Pr3  1  0.192274  0.807506  0.192714  1
  Pr  Pr4  1  0.807474  0.192320  0.807885  1
  Pr  Pr5  1  0.192274  0.192714  0.807506  1
  Pr  Pr6  1  0.807474  0.807885  0.192320  1
  Pr  Pr7  1  0.934972  0.565139  0.565139  1
  Pr  Pr8  1  0.565002  0.934919  0.934919  1
  Pr  Pr9  1  0.565002  0.934919  0.565159  1
  Pr  Pr10  1  0.934972  0.565139  0.934751  1
  Pr  Pr11  1  0.565002  0.565159  0.934919  1
  Pr  Pr12  1  0.934972  0.934751  0.565139  1
  Nd  Nd13  1  0.351348  0.350681  0.350681  1
  Nd  Nd14  1  0.351348  0.350681  0.947292  1
  Nd  Nd15  1  0.351348  0.947292  0.350681  1
  Cd  Cd16  1  0.579519  0.580186  0.580186  1
  Cd  Cd17  1  0.579519  0.580186  0.260108  1
  Cd  Cd18  1  0.579519  0.260108  0.580186  1
  Cd  Cd19  1  0.260115  0.579961  0.579961  1
  Pd  Pd20  1  0.143671  0.143622  0.143622  1
  Pd  Pd21  1  0.143671  0.143622  0.569085  1
  Pd  Pd22  1  0.143671  0.569085  0.143622  1
  Pd  Pd23  1  0.568576  0.143808  0.143808  1
