# generated using pymatgen
data_Ac3ZnSn3Ir2
_symmetry_space_group_name_H-M   'P 1'
_cell_length_a   7.84985700
_cell_length_b   7.84985675
_cell_length_c   4.35488000
_cell_angle_alpha   90.00000000
_cell_angle_beta   90.00000000
_cell_angle_gamma   119.99999797
_symmetry_Int_Tables_number   1
_chemical_formula_structural   Ac3ZnSn3Ir2
_chemical_formula_sum   'Ac3 Zn1 Sn3 Ir2'
_cell_volume   232.39688884
_cell_formula_units_Z   1
loop_
 _symmetry_equiv_pos_site_id
 _symmetry_equiv_pos_as_xyz
  1  'x, y, z'
loop_
 _atom_site_type_symbol
 _atom_site_label
 _atom_site_symmetry_multiplicity
 _atom_site_fract_x
 _atom_site_fract_y
 _atom_site_fract_z
 _atom_site_occupancy
  Ac  Ac0  1  0.594945  0.014732  0.000000  1
  Ac  Ac1  1  0.985268  0.580214  0.000000  1
  Ac  Ac2  1  0.419786  0.405055  0.000000  1
  Zn  Zn3  1  0.333333  0.666667  0.500000  1
  Sn  Sn4  1  0.241915  0.003674  0.500000  1
  Sn  Sn5  1  0.996326  0.238241  0.500000  1
  Sn  Sn6  1  0.761759  0.758085  0.500000  1
  Ir  Ir7  1  0.666667  0.333333  0.500000  1
  Ir  Ir8  1  0.000000  0.000000  0.000000  1
