# generated using pymatgen
data_Nd3ZrZn2Ir3
_symmetry_space_group_name_H-M   'P 1'
_cell_length_a   7.24655000
_cell_length_b   7.37297265
_cell_length_c   4.17574700
_cell_angle_alpha   90.00000000
_cell_angle_beta   90.00000000
_cell_angle_gamma   119.43437425
_symmetry_Int_Tables_number   1
_chemical_formula_structural   Nd3ZrZn2Ir3
_chemical_formula_sum   'Nd3 Zr1 Zn2 Ir3'
_cell_volume   194.30587357
_cell_formula_units_Z   1
loop_
 _symmetry_equiv_pos_site_id
 _symmetry_equiv_pos_as_xyz
  1  'x, y, z'
loop_
 _atom_site_type_symbol
 _atom_site_label
 _atom_site_symmetry_multiplicity
 _atom_site_fract_x
 _atom_site_fract_y
 _atom_site_fract_z
 _atom_site_occupancy
  Nd  Nd0  1  0.613881  0.000000  0.000000  1
  Nd  Nd1  1  0.982063  0.563959  0.000000  1
  Nd  Nd2  1  0.418104  0.436041  0.000000  1
  Zr  Zr3  1  0.237531  0.000000  0.500000  1
  Zn  Zn4  1  0.002739  0.244545  0.500000  1
  Zn  Zn5  1  0.758194  0.755455  0.500000  1
  Ir  Ir6  1  0.324902  0.677172  0.500000  1
  Ir  Ir7  1  0.647731  0.322828  0.500000  1
  Ir  Ir8  1  0.014856  0.000000  0.000000  1
