# generated using pymatgen
data_Nd11In9(AgRu)2
_symmetry_space_group_name_H-M   'P 1'
_cell_length_a   13.57998209
_cell_length_b   13.67448340
_cell_length_c   3.78963900
_cell_angle_alpha   90.00000000
_cell_angle_beta   90.00000000
_cell_angle_gamma   111.31436908
_symmetry_Int_Tables_number   1
_chemical_formula_structural   Nd11In9(AgRu)2
_chemical_formula_sum   'Nd11 In9 Ag2 Ru2'
_cell_volume   655.59780823
_cell_formula_units_Z   1
loop_
 _symmetry_equiv_pos_site_id
 _symmetry_equiv_pos_as_xyz
  1  'x, y, z'
loop_
 _atom_site_type_symbol
 _atom_site_label
 _atom_site_symmetry_multiplicity
 _atom_site_fract_x
 _atom_site_fract_y
 _atom_site_fract_z
 _atom_site_occupancy
  Nd  Nd0  1  0.065577  0.416908  0.000000  1
  Nd  Nd1  1  0.934423  0.583092  0.000000  1
  Nd  Nd2  1  0.417203  0.071894  0.000000  1
  Nd  Nd3  1  0.582797  0.928106  0.000000  1
  Nd  Nd4  1  0.613140  0.357457  0.000000  1
  Nd  Nd5  1  0.386860  0.642543  0.000000  1
  Nd  Nd6  1  0.841640  0.159191  0.000000  1
  Nd  Nd7  1  0.158360  0.840809  0.000000  1
  Nd  Nd8  1  0.000000  0.000000  0.000000  1
  Nd  Nd9  1  0.317545  0.298168  0.000000  1
  Nd  Nd10  1  0.682455  0.701832  0.000000  1
  In  In11  1  0.837020  0.366708  0.500000  1
  In  In12  1  0.162980  0.633292  0.500000  1
  In  In13  1  0.365572  0.837321  0.500000  1
  In  In14  1  0.634428  0.162679  0.500000  1
  In  In15  1  0.075216  0.217878  0.500000  1
  In  In16  1  0.924784  0.782122  0.500000  1
  In  In17  1  0.220725  0.077046  0.500000  1
  In  In18  1  0.779275  0.922954  0.500000  1
  In  In19  1  0.500000  0.500000  0.500000  1
  Ag  Ag20  1  0.254693  0.451953  0.500000  1
  Ag  Ag21  1  0.745307  0.548047  0.500000  1
  Ru  Ru22  1  0.445855  0.233840  0.500000  1
  Ru  Ru23  1  0.554145  0.766160  0.500000  1
