# generated using pymatgen
data_Ce2Zn16Co
_symmetry_space_group_name_H-M   'P 1'
_cell_length_a   6.78428522
_cell_length_b   6.84474645
_cell_length_c   6.78428507
_cell_angle_alpha   82.82360688
_cell_angle_beta   97.83216583
_cell_angle_gamma   97.17638284
_symmetry_Int_Tables_number   1
_chemical_formula_structural   Ce2Zn16Co
_chemical_formula_sum   'Ce2 Zn16 Co1'
_cell_volume   307.78464939
_cell_formula_units_Z   1
loop_
 _symmetry_equiv_pos_site_id
 _symmetry_equiv_pos_as_xyz
  1  'x, y, z'
loop_
 _atom_site_type_symbol
 _atom_site_label
 _atom_site_symmetry_multiplicity
 _atom_site_fract_x
 _atom_site_fract_y
 _atom_site_fract_z
 _atom_site_occupancy
  Ce  Ce0  1  0.664862  0.339566  0.335139  1
  Ce  Ce1  1  0.335139  0.660435  0.664862  1
  Zn  Zn2  1  0.288737  0.297369  0.001301  1
  Zn  Zn3  1  0.500000  0.000000  0.000001  1
  Zn  Zn4  1  0.711263  0.702630  0.998701  1
  Zn  Zn5  1  0.904263  0.117265  0.095738  1
  Zn  Zn6  1  0.343870  0.647304  0.149846  1
  Zn  Zn7  1  0.001300  0.702632  0.288737  1
  Zn  Zn8  1  0.299915  0.000000  0.299915  1
  Zn  Zn9  1  0.149846  0.352695  0.343870  1
  Zn  Zn10  1  0.645942  0.832543  0.354058  1
  Zn  Zn11  1  0.000000  0.999999  0.500000  1
  Zn  Zn12  1  0.850153  0.647304  0.656130  1
  Zn  Zn13  1  0.354058  0.167457  0.645943  1
  Zn  Zn14  1  0.700085  0.000000  0.700085  1
  Zn  Zn15  1  0.998700  0.297369  0.711264  1
  Zn  Zn16  1  0.656129  0.352695  0.850154  1
  Zn  Zn17  1  0.095739  0.882735  0.904262  1
  Co  Co18  1  0.000000  0.500000  0.000000  1
