# generated using pymatgen
data_AcLa(GePt)4
_symmetry_space_group_name_H-M   'P 1'
_cell_length_a   4.48803300
_cell_length_b   4.48765898
_cell_length_c   10.09304909
_cell_angle_alpha   89.84612691
_cell_angle_beta   90.00000000
_cell_angle_gamma   90.00000000
_symmetry_Int_Tables_number   1
_chemical_formula_structural   AcLa(GePt)4
_chemical_formula_sum   'Ac1 La1 Ge4 Pt4'
_cell_volume   203.28096228
_cell_formula_units_Z   1
loop_
 _symmetry_equiv_pos_site_id
 _symmetry_equiv_pos_as_xyz
  1  'x, y, z'
loop_
 _atom_site_type_symbol
 _atom_site_label
 _atom_site_symmetry_multiplicity
 _atom_site_fract_x
 _atom_site_fract_y
 _atom_site_fract_z
 _atom_site_occupancy
  Ac  Ac0  1  0.250000  0.250369  0.252303  1
  La  La1  1  0.750000  0.750132  0.746644  1
  Ge  Ge2  1  0.250000  0.748697  0.503081  1
  Ge  Ge3  1  0.750000  0.758406  0.126817  1
  Ge  Ge4  1  0.750000  0.251170  0.503193  1
  Ge  Ge5  1  0.250000  0.241053  0.870136  1
  Pt  Pt6  1  0.750000  0.262791  0.997489  1
  Pt  Pt7  1  0.250000  0.247808  0.623645  1
  Pt  Pt8  1  0.750000  0.752062  0.378807  1
  Pt  Pt9  1  0.250000  0.737513  0.997885  1
