# generated using pymatgen
data_Ho11TmTh4(MgRh)4
_symmetry_space_group_name_H-M   'P 1'
_cell_length_a   9.76078142
_cell_length_b   9.76078107
_cell_length_c   9.77641500
_cell_angle_alpha   59.94699834
_cell_angle_beta   59.94699955
_cell_angle_gamma   59.93123996
_symmetry_Int_Tables_number   1
_chemical_formula_structural   Ho11TmTh4(MgRh)4
_chemical_formula_sum   'Ho11 Tm1 Th4 Mg4 Rh4'
_cell_volume   657.74806355
_cell_formula_units_Z   1
loop_
 _symmetry_equiv_pos_site_id
 _symmetry_equiv_pos_as_xyz
  1  'x, y, z'
loop_
 _atom_site_type_symbol
 _atom_site_label
 _atom_site_symmetry_multiplicity
 _atom_site_fract_x
 _atom_site_fract_y
 _atom_site_fract_z
 _atom_site_occupancy
  Ho  Ho0  1  0.063497  0.436639  0.436832  1
  Ho  Ho1  1  0.436639  0.063497  0.063031  1
  Ho  Ho2  1  0.436639  0.063497  0.436832  1
  Ho  Ho3  1  0.063497  0.436639  0.063031  1
  Ho  Ho4  1  0.437462  0.437462  0.062538  1
  Ho  Ho5  1  0.063920  0.063920  0.436080  1
  Ho  Ho6  1  0.185343  0.817352  0.815374  1
  Ho  Ho7  1  0.817352  0.185343  0.181932  1
  Ho  Ho8  1  0.817352  0.185343  0.815374  1
  Ho  Ho9  1  0.185343  0.817352  0.181932  1
  Ho  Ho10  1  0.817096  0.817096  0.182904  1
  Tm  Tm11  1  0.185090  0.185090  0.814910  1
  Th  Th12  1  0.598377  0.598377  0.597581  1
  Th  Th13  1  0.598377  0.598377  0.205664  1
  Th  Th14  1  0.600239  0.201060  0.599350  1
  Th  Th15  1  0.201060  0.600239  0.599350  1
  Mg  Mg16  1  0.829608  0.829608  0.832603  1
  Mg  Mg17  1  0.829608  0.829608  0.508181  1
  Mg  Mg18  1  0.828503  0.508574  0.831462  1
  Mg  Mg19  1  0.508574  0.828503  0.831462  1
  Rh  Rh20  1  0.393095  0.393095  0.396486  1
  Rh  Rh21  1  0.393095  0.393095  0.817324  1
  Rh  Rh22  1  0.392429  0.817806  0.394883  1
  Rh  Rh23  1  0.817806  0.392429  0.394883  1
