# generated using pymatgen
data_Ta5Nb7Ga4(CuN)4
_symmetry_space_group_name_H-M   'P 1'
_cell_length_a   6.98630299
_cell_length_b   6.98709766
_cell_length_c   6.98471970
_cell_angle_alpha   90.07855768
_cell_angle_beta   90.06457346
_cell_angle_gamma   90.06012340
_symmetry_Int_Tables_number   1
_chemical_formula_structural   Ta5Nb7Ga4(CuN)4
_chemical_formula_sum   'Ta5 Nb7 Ga4 Cu4 N4'
_cell_volume   340.95125157
_cell_formula_units_Z   1
loop_
 _symmetry_equiv_pos_site_id
 _symmetry_equiv_pos_as_xyz
  1  'x, y, z'
loop_
 _atom_site_type_symbol
 _atom_site_label
 _atom_site_symmetry_multiplicity
 _atom_site_fract_x
 _atom_site_fract_y
 _atom_site_fract_z
 _atom_site_occupancy
  Ta  Ta0  1  0.791705  0.958812  0.375807  1
  Ta  Ta1  1  0.707774  0.041589  0.874324  1
  Ta  Ta2  1  0.208423  0.457630  0.125801  1
  Ta  Ta3  1  0.291685  0.542102  0.624743  1
  Ta  Ta4  1  0.957035  0.372969  0.791027  1
  Nb  Nb5  1  0.043063  0.873267  0.709672  1
  Nb  Nb6  1  0.456970  0.126601  0.209180  1
  Nb  Nb7  1  0.543327  0.627376  0.290620  1
  Nb  Nb8  1  0.374816  0.791552  0.958141  1
  Nb  Nb9  1  0.875823  0.707889  0.042213  1
  Nb  Nb10  1  0.124581  0.207808  0.457974  1
  Nb  Nb11  1  0.623803  0.292762  0.541804  1
  Ga  Ga12  1  0.573313  0.426847  0.927166  1
  Ga  Ga13  1  0.426685  0.927234  0.572863  1
  Ga  Ga14  1  0.926401  0.572792  0.427483  1
  Ga  Ga15  1  0.073568  0.072293  0.072701  1
  Cu  Cu16  1  0.177764  0.819733  0.321296  1
  Cu  Cu17  1  0.321062  0.180306  0.821174  1
  Cu  Cu18  1  0.823647  0.319544  0.177359  1
  Cu  Cu19  1  0.678158  0.680330  0.678892  1
  N  N20  1  0.874947  0.122778  0.624921  1
  N  N21  1  0.626547  0.880067  0.123291  1
  N  N22  1  0.124874  0.617728  0.875352  1
  N  N23  1  0.374027  0.379989  0.376193  1
