# generated using pymatgen
data_LiTb11Dy5Cd3IrPt3
_symmetry_space_group_name_H-M   'P 1'
_cell_length_a   9.72303688
_cell_length_b   9.68466950
_cell_length_c   9.68466951
_cell_angle_alpha   59.86543479
_cell_angle_beta   60.03663134
_cell_angle_gamma   60.03663873
_symmetry_Int_Tables_number   1
_chemical_formula_structural   LiTb11Dy5Cd3IrPt3
_chemical_formula_sum   'Li1 Tb11 Dy5 Cd3 Ir1 Pt3'
_cell_volume   644.54420328
_cell_formula_units_Z   1
loop_
 _symmetry_equiv_pos_site_id
 _symmetry_equiv_pos_as_xyz
  1  'x, y, z'
loop_
 _atom_site_type_symbol
 _atom_site_label
 _atom_site_symmetry_multiplicity
 _atom_site_fract_x
 _atom_site_fract_y
 _atom_site_fract_z
 _atom_site_occupancy
  Li  Li0  1  0.820640  0.821152  0.821152  1
  Tb  Tb1  1  0.437943  0.061532  0.061532  1
  Tb  Tb2  1  0.443803  0.059152  0.441213  1
  Tb  Tb3  1  0.060316  0.435874  0.065407  1
  Tb  Tb4  1  0.443803  0.441213  0.059152  1
  Tb  Tb5  1  0.060316  0.065407  0.435874  1
  Tb  Tb6  1  0.187360  0.814399  0.814399  1
  Tb  Tb7  1  0.814922  0.186241  0.186241  1
  Tb  Tb8  1  0.816423  0.186066  0.812052  1
  Tb  Tb9  1  0.186213  0.813043  0.186469  1
  Tb  Tb10  1  0.816423  0.812052  0.186066  1
  Tb  Tb11  1  0.186213  0.186469  0.813043  1
  Dy  Dy12  1  0.603211  0.599169  0.599169  1
  Dy  Dy13  1  0.602904  0.598159  0.201645  1
  Dy  Dy14  1  0.602904  0.201645  0.598159  1
  Dy  Dy15  1  0.192926  0.603133  0.603133  1
  Dy  Dy16  1  0.056879  0.441582  0.441582  1
  Cd  Cd17  1  0.832118  0.832526  0.504099  1
  Cd  Cd18  1  0.832118  0.504099  0.832526  1
  Cd  Cd19  1  0.504929  0.832330  0.832330  1
  Ir  Ir20  1  0.823290  0.393798  0.393798  1
  Pt  Pt21  1  0.391284  0.395283  0.395283  1
  Pt  Pt22  1  0.391533  0.394999  0.820682  1
  Pt  Pt23  1  0.391533  0.820682  0.394999  1
