# generated using pymatgen
data_KBaAlO3
_symmetry_space_group_name_H-M   'P 1'
_cell_length_a   6.47752563
_cell_length_b   6.47752478
_cell_length_c   12.85816700
_cell_angle_alpha   90.00000000
_cell_angle_beta   90.00000000
_cell_angle_gamma   128.02177957
_symmetry_Int_Tables_number   1
_chemical_formula_structural   KBaAlO3
_chemical_formula_sum   'K4 Ba4 Al4 O12'
_cell_volume   425.01122357
_cell_formula_units_Z   4
loop_
 _symmetry_equiv_pos_site_id
 _symmetry_equiv_pos_as_xyz
  1  'x, y, z'
loop_
 _atom_site_type_symbol
 _atom_site_label
 _atom_site_symmetry_multiplicity
 _atom_site_fract_x
 _atom_site_fract_y
 _atom_site_fract_z
 _atom_site_occupancy
  K  K0  1  0.452622  0.547378  0.641737  1
  K  K1  1  0.547378  0.452622  0.358263  1
  K  K2  1  0.047378  0.952622  0.141737  1
  K  K3  1  0.952622  0.047378  0.858263  1
  Ba  Ba4  1  0.644046  0.355954  0.920453  1
  Ba  Ba5  1  0.855954  0.144046  0.420453  1
  Ba  Ba6  1  0.144046  0.855954  0.579547  1
  Ba  Ba7  1  0.355954  0.644046  0.079547  1
  Al  Al8  1  0.223203  0.776797  0.331272  1
  Al  Al9  1  0.723203  0.276797  0.168728  1
  Al  Al10  1  0.776797  0.223203  0.668728  1
  Al  Al11  1  0.276797  0.723203  0.831272  1
  O  O12  1  0.999034  0.500966  0.750000  1
  O  O13  1  0.500966  0.999034  0.250000  1
  O  O14  1  0.000966  0.499034  0.250000  1
  O  O15  1  0.499034  0.000966  0.750000  1
  O  O16  1  0.421715  0.578285  0.874798  1
  O  O17  1  0.578285  0.421715  0.125202  1
  O  O18  1  0.078285  0.921715  0.374798  1
  O  O19  1  0.678067  0.321933  0.563138  1
  O  O20  1  0.178067  0.821933  0.936862  1
  O  O21  1  0.821933  0.178067  0.063138  1
  O  O22  1  0.321933  0.678067  0.436862  1
  O  O23  1  0.921715  0.078285  0.625202  1
