# generated using pymatgen
data_Na4TaNb5Se12
_symmetry_space_group_name_H-M   'P 1'
_cell_length_a   15.69424272
_cell_length_b   15.69424299
_cell_length_c   15.69424300
_cell_angle_alpha   22.52590456
_cell_angle_beta   22.52590215
_cell_angle_gamma   22.52590453
_symmetry_Int_Tables_number   1
_chemical_formula_structural   Na4TaNb5Se12
_chemical_formula_sum   'Na4 Ta1 Nb5 Se12'
_cell_volume   497.66179017
_cell_formula_units_Z   1
loop_
 _symmetry_equiv_pos_site_id
 _symmetry_equiv_pos_as_xyz
  1  'x, y, z'
loop_
 _atom_site_type_symbol
 _atom_site_label
 _atom_site_symmetry_multiplicity
 _atom_site_fract_x
 _atom_site_fract_y
 _atom_site_fract_z
 _atom_site_occupancy
  Na  Na0  1  0.916458  0.916458  0.916458  1
  Na  Na1  1  0.583113  0.583113  0.583113  1
  Na  Na2  1  0.417163  0.417163  0.417163  1
  Na  Na3  1  0.083527  0.083527  0.083527  1
  Ta  Ta4  1  0.333216  0.333216  0.333216  1
  Nb  Nb5  1  0.666685  0.666685  0.666685  1
  Nb  Nb6  1  0.999960  0.999960  0.999960  1
  Nb  Nb7  1  0.833305  0.166727  0.500013  1
  Nb  Nb8  1  0.500013  0.833305  0.166727  1
  Nb  Nb9  1  0.166727  0.500013  0.833305  1
  Se  Se10  1  0.967787  0.626488  0.297324  1
  Se  Se11  1  0.297324  0.967787  0.626488  1
  Se  Se12  1  0.626488  0.297324  0.967787  1
  Se  Se13  1  0.699599  0.370897  0.037645  1
  Se  Se14  1  0.037645  0.699599  0.370897  1
  Se  Se15  1  0.370897  0.037645  0.699599  1
  Se  Se16  1  0.870448  0.535075  0.202938  1
  Se  Se17  1  0.202938  0.870448  0.535075  1
  Se  Se18  1  0.535075  0.202938  0.870448  1
  Se  Se19  1  0.797211  0.464943  0.129479  1
  Se  Se20  1  0.129479  0.797211  0.464943  1
  Se  Se21  1  0.464943  0.129479  0.797211  1
