# generated using pymatgen
data_Sc4Zn2ReRu5
_symmetry_space_group_name_H-M   'P 1'
_cell_length_a   5.29854000
_cell_length_b   5.20921477
_cell_length_c   8.63479200
_cell_angle_alpha   90.00000000
_cell_angle_beta   90.00000000
_cell_angle_gamma   121.53121974
_symmetry_Int_Tables_number   1
_chemical_formula_structural   Sc4Zn2ReRu5
_chemical_formula_sum   'Sc4 Zn2 Re1 Ru5'
_cell_volume   203.14261785
_cell_formula_units_Z   1
loop_
 _symmetry_equiv_pos_site_id
 _symmetry_equiv_pos_as_xyz
  1  'x, y, z'
loop_
 _atom_site_type_symbol
 _atom_site_label
 _atom_site_symmetry_multiplicity
 _atom_site_fract_x
 _atom_site_fract_y
 _atom_site_fract_z
 _atom_site_occupancy
  Sc  Sc0  1  0.328181  0.670161  0.443339  1
  Sc  Sc1  1  0.664778  0.340765  0.569353  1
  Sc  Sc2  1  0.664778  0.340765  0.930647  1
  Sc  Sc3  1  0.328181  0.670161  0.056661  1
  Zn  Zn4  1  0.351034  0.160318  0.250000  1
  Zn  Zn5  1  0.842553  0.647628  0.250000  1
  Re  Re6  1  0.163143  0.330059  0.750000  1
  Ru  Ru7  1  0.165270  0.817910  0.750000  1
  Ru  Ru8  1  0.651932  0.821389  0.750000  1
  Ru  Ru9  1  0.001595  0.024302  0.001759  1
  Ru  Ru10  1  0.836958  0.152239  0.250000  1
  Ru  Ru11  1  0.001595  0.024302  0.498241  1
