# generated using pymatgen
data_K4Yb(SiO3)3
_symmetry_space_group_name_H-M   'P 1'
_cell_length_a   7.12986531
_cell_length_b   7.12986485
_cell_length_c   10.97417300
_cell_angle_alpha   90.00000000
_cell_angle_beta   90.00000000
_cell_angle_gamma   113.05461764
_symmetry_Int_Tables_number   1
_chemical_formula_structural   K4Yb(SiO3)3
_chemical_formula_sum   'K8 Yb2 Si6 O18'
_cell_volume   513.31569703
_cell_formula_units_Z   2
loop_
 _symmetry_equiv_pos_site_id
 _symmetry_equiv_pos_as_xyz
  1  'x, y, z'
loop_
 _atom_site_type_symbol
 _atom_site_label
 _atom_site_symmetry_multiplicity
 _atom_site_fract_x
 _atom_site_fract_y
 _atom_site_fract_z
 _atom_site_occupancy
  K  K0  1  0.346118  0.765106  0.750000  1
  K  K1  1  0.933019  0.066981  0.000000  1
  K  K2  1  0.509585  0.490415  0.000000  1
  K  K3  1  0.234894  0.653882  0.250000  1
  K  K4  1  0.217938  0.220723  0.750000  1
  K  K5  1  0.509585  0.490415  0.500000  1
  K  K6  1  0.779277  0.782062  0.250000  1
  K  K7  1  0.933019  0.066981  0.500000  1
  Yb  Yb8  1  0.723162  0.247188  0.750000  1
  Yb  Yb9  1  0.752812  0.276838  0.250000  1
  Si  Si10  1  0.409934  0.983123  0.032086  1
  Si  Si11  1  0.016877  0.590066  0.967914  1
  Si  Si12  1  0.016877  0.590066  0.532086  1
  Si  Si13  1  0.260279  0.188227  0.250000  1
  Si  Si14  1  0.811773  0.739721  0.750000  1
  Si  Si15  1  0.409934  0.983123  0.467914  1
  O  O16  1  0.951560  0.746292  0.875460  1
  O  O17  1  0.009084  0.399097  0.613693  1
  O  O18  1  0.885514  0.539215  0.093086  1
  O  O19  1  0.253708  0.048440  0.124540  1
  O  O20  1  0.253708  0.048440  0.375460  1
  O  O21  1  0.265354  0.734646  0.000000  1
  O  O22  1  0.460785  0.114486  0.593086  1
  O  O23  1  0.460785  0.114486  0.906914  1
  O  O24  1  0.610164  0.528749  0.750000  1
  O  O25  1  0.265354  0.734646  0.500000  1
  O  O26  1  0.600903  0.990916  0.113693  1
  O  O27  1  0.047996  0.221106  0.250000  1
  O  O28  1  0.778894  0.952004  0.750000  1
  O  O29  1  0.471251  0.389836  0.250000  1
  O  O30  1  0.885514  0.539215  0.406914  1
  O  O31  1  0.009084  0.399097  0.886307  1
  O  O32  1  0.600903  0.990916  0.386307  1
  O  O33  1  0.951560  0.746292  0.624540  1
