# generated using pymatgen
data_Th4Sc6TcSb7
_symmetry_space_group_name_H-M   'P 1'
_cell_length_a   7.89747100
_cell_length_b   7.80824679
_cell_length_c   14.83423400
_cell_angle_alpha   90.00000000
_cell_angle_beta   90.00000000
_cell_angle_gamma   90.72016335
_symmetry_Int_Tables_number   1
_chemical_formula_structural   Th4Sc6TcSb7
_chemical_formula_sum   'Th8 Sc12 Tc2 Sb14'
_cell_volume   914.68675289
_cell_formula_units_Z   2
loop_
 _symmetry_equiv_pos_site_id
 _symmetry_equiv_pos_as_xyz
  1  'x, y, z'
loop_
 _atom_site_type_symbol
 _atom_site_label
 _atom_site_symmetry_multiplicity
 _atom_site_fract_x
 _atom_site_fract_y
 _atom_site_fract_z
 _atom_site_occupancy
  Th  Th0  1  0.000282  0.188384  0.106987  1
  Th  Th1  1  0.999718  0.811616  0.893013  1
  Th  Th2  1  0.527393  0.679509  0.903275  1
  Th  Th3  1  0.999718  0.811616  0.606987  1
  Th  Th4  1  0.472607  0.320491  0.096725  1
  Th  Th5  1  0.000282  0.188384  0.393013  1
  Th  Th6  1  0.472607  0.320491  0.403275  1
  Th  Th7  1  0.527393  0.679509  0.596725  1
  Sc  Sc8  1  0.171510  0.502171  0.750000  1
  Sc  Sc9  1  0.828490  0.497829  0.250000  1
  Sc  Sc10  1  0.315738  0.014955  0.250000  1
  Sc  Sc11  1  0.684262  0.985045  0.750000  1
  Sc  Sc12  1  0.351925  0.150872  0.625830  1
  Sc  Sc13  1  0.648075  0.849128  0.374170  1
  Sc  Sc14  1  0.153003  0.634340  0.369242  1
  Sc  Sc15  1  0.648075  0.849128  0.125830  1
  Sc  Sc16  1  0.846997  0.365660  0.630758  1
  Sc  Sc17  1  0.351925  0.150872  0.874170  1
  Sc  Sc18  1  0.846997  0.365660  0.869242  1
  Sc  Sc19  1  0.153003  0.634340  0.130758  1
  Tc  Tc20  1  0.179559  0.355999  0.250000  1
  Tc  Tc21  1  0.820441  0.644001  0.750000  1
  Sb  Sb22  1  0.196825  0.450856  0.548337  1
  Sb  Sb23  1  0.803175  0.549144  0.451663  1
  Sb  Sb24  1  0.301611  0.940791  0.456846  1
  Sb  Sb25  1  0.803175  0.549144  0.048337  1
  Sb  Sb26  1  0.698389  0.059209  0.543154  1
  Sb  Sb27  1  0.196825  0.450856  0.951663  1
  Sb  Sb28  1  0.698389  0.059209  0.956846  1
  Sb  Sb29  1  0.301611  0.940791  0.043154  1
  Sb  Sb30  1  0.041193  0.141208  0.750000  1
  Sb  Sb31  1  0.958807  0.858792  0.250000  1
  Sb  Sb32  1  0.453571  0.620606  0.250000  1
  Sb  Sb33  1  0.546429  0.379394  0.750000  1
  Sb  Sb34  1  0.325061  0.849441  0.750000  1
  Sb  Sb35  1  0.674939  0.150559  0.250000  1
