# generated using pymatgen
data_Lu3Hf(Al3Co)6
_symmetry_space_group_name_H-M   'P 1'
_cell_length_a   7.31786962
_cell_length_b   7.31225930
_cell_length_c   9.15446900
_cell_angle_alpha   90.00000000
_cell_angle_beta   90.00000000
_cell_angle_gamma   119.30318848
_symmetry_Int_Tables_number   1
_chemical_formula_structural   Lu3Hf(Al3Co)6
_chemical_formula_sum   'Lu3 Hf1 Al18 Co6'
_cell_volume   427.17598610
_cell_formula_units_Z   1
loop_
 _symmetry_equiv_pos_site_id
 _symmetry_equiv_pos_as_xyz
  1  'x, y, z'
loop_
 _atom_site_type_symbol
 _atom_site_label
 _atom_site_symmetry_multiplicity
 _atom_site_fract_x
 _atom_site_fract_y
 _atom_site_fract_z
 _atom_site_occupancy
  Lu  Lu0  1  0.006873  0.325858  0.750000  1
  Lu  Lu1  1  0.672891  0.993913  0.250000  1
  Lu  Lu2  1  0.326804  0.007720  0.750000  1
  Hf  Hf3  1  0.995965  0.673624  0.250000  1
  Al  Al4  1  0.120591  0.117784  0.250000  1
  Al  Al5  1  0.875100  0.874323  0.750000  1
  Al  Al6  1  0.996265  0.337386  0.075636  1
  Al  Al7  1  0.002888  0.664713  0.930980  1
  Al  Al8  1  0.002888  0.664713  0.569020  1
  Al  Al9  1  0.333441  0.994935  0.424376  1
  Al  Al10  1  0.996265  0.337386  0.424364  1
  Al  Al11  1  0.664093  0.002078  0.571581  1
  Al  Al12  1  0.664093  0.002078  0.928419  1
  Al  Al13  1  0.333441  0.994935  0.075624  1
  Al  Al14  1  0.332174  0.332327  0.541285  1
  Al  Al15  1  0.670840  0.669039  0.450490  1
  Al  Al16  1  0.670840  0.669039  0.049510  1
  Al  Al17  1  0.332174  0.332327  0.958715  1
  Al  Al18  1  0.335556  0.557022  0.250000  1
  Al  Al19  1  0.661032  0.445002  0.750000  1
  Al  Al20  1  0.562398  0.343957  0.250000  1
  Al  Al21  1  0.443385  0.660001  0.750000  1
  Co  Co22  1  0.672270  0.329067  0.001113  1
  Co  Co23  1  0.327991  0.671773  0.001880  1
  Co  Co24  1  0.327991  0.671773  0.498120  1
  Co  Co25  1  0.672270  0.329067  0.498887  1
  Co  Co26  1  0.999739  0.999079  0.001076  1
  Co  Co27  1  0.999739  0.999079  0.498924  1
