# generated using pymatgen
data_TbHo11Ir3Pd
_symmetry_space_group_name_H-M   'P 1'
_cell_length_a   6.39249100
_cell_length_b   7.18380171
_cell_length_c   9.30952800
_cell_angle_alpha   90.00000000
_cell_angle_beta   90.00000000
_cell_angle_gamma   90.09248998
_symmetry_Int_Tables_number   1
_chemical_formula_structural   TbHo11Ir3Pd
_chemical_formula_sum   'Tb1 Ho11 Ir3 Pd1'
_cell_volume   427.51519787
_cell_formula_units_Z   1
loop_
 _symmetry_equiv_pos_site_id
 _symmetry_equiv_pos_as_xyz
  1  'x, y, z'
loop_
 _atom_site_type_symbol
 _atom_site_label
 _atom_site_symmetry_multiplicity
 _atom_site_fract_x
 _atom_site_fract_y
 _atom_site_fract_z
 _atom_site_occupancy
  Tb  Tb0  1  0.865111  0.524883  0.250000  1
  Ho  Ho1  1  0.333949  0.675489  0.059397  1
  Ho  Ho2  1  0.173748  0.183467  0.440785  1
  Ho  Ho3  1  0.674251  0.320473  0.563486  1
  Ho  Ho4  1  0.824224  0.822029  0.934745  1
  Ho  Ho5  1  0.674251  0.320473  0.936514  1
  Ho  Ho6  1  0.824224  0.822029  0.565255  1
  Ho  Ho7  1  0.333949  0.675489  0.440603  1
  Ho  Ho8  1  0.173748  0.183467  0.059215  1
  Ho  Ho9  1  0.625405  0.036855  0.250000  1
  Ho  Ho10  1  0.129799  0.467048  0.750000  1
  Ho  Ho11  1  0.368859  0.965676  0.750000  1
  Ir  Ir12  1  0.447320  0.383804  0.250000  1
  Ir  Ir13  1  0.954068  0.116513  0.750000  1
  Ir  Ir14  1  0.545161  0.615683  0.750000  1
  Pd  Pd15  1  0.051934  0.886621  0.250000  1
