# generated using pymatgen
data_Dy2HoCdSi2Ag3
_symmetry_space_group_name_H-M   'P 1'
_cell_length_a   7.22269211
_cell_length_b   7.22269275
_cell_length_c   4.21155800
_cell_angle_alpha   90.00000000
_cell_angle_beta   90.00000000
_cell_angle_gamma   119.98033181
_symmetry_Int_Tables_number   1
_chemical_formula_structural   Dy2HoCdSi2Ag3
_chemical_formula_sum   'Dy2 Ho1 Cd1 Si2 Ag3'
_cell_volume   190.30828649
_cell_formula_units_Z   1
loop_
 _symmetry_equiv_pos_site_id
 _symmetry_equiv_pos_as_xyz
  1  'x, y, z'
loop_
 _atom_site_type_symbol
 _atom_site_label
 _atom_site_symmetry_multiplicity
 _atom_site_fract_x
 _atom_site_fract_y
 _atom_site_fract_z
 _atom_site_occupancy
  Dy  Dy0  1  0.573753  0.999960  0.500000  1
  Dy  Dy1  1  0.999960  0.573753  0.500000  1
  Ho  Ho2  1  0.426440  0.426440  0.500000  1
  Cd  Cd3  1  0.000224  0.000224  0.500000  1
  Si  Si4  1  0.666335  0.333495  0.000000  1
  Si  Si5  1  0.333495  0.666335  0.000000  1
  Ag  Ag6  1  0.735629  0.735629  0.000000  1
  Ag  Ag7  1  0.263993  0.000171  0.000000  1
  Ag  Ag8  1  0.000171  0.263993  0.000000  1
