# generated using pymatgen
data_TmLuFe6
_symmetry_space_group_name_H-M   'P 1'
_cell_length_a   5.02681811
_cell_length_b   5.02681799
_cell_length_c   16.25206124
_cell_angle_alpha   98.89659493
_cell_angle_beta   98.89659540
_cell_angle_gamma   59.99999678
_symmetry_Int_Tables_number   1
_chemical_formula_structural   TmLuFe6
_chemical_formula_sum   'Tm3 Lu3 Fe18'
_cell_volume   349.93538507
_cell_formula_units_Z   3
loop_
 _symmetry_equiv_pos_site_id
 _symmetry_equiv_pos_as_xyz
  1  'x, y, z'
loop_
 _atom_site_type_symbol
 _atom_site_label
 _atom_site_symmetry_multiplicity
 _atom_site_fract_x
 _atom_site_fract_y
 _atom_site_fract_z
 _atom_site_occupancy
  Tm  Tm0  1  0.571177  0.571177  0.713529  1
  Tm  Tm1  1  0.999992  0.999992  0.999974  1
  Tm  Tm2  1  0.499783  0.499783  0.499349  1
  Lu  Lu3  1  0.428827  0.428827  0.286483  1
  Lu  Lu4  1  0.928879  0.928879  0.786638  1
  Lu  Lu5  1  0.071249  0.071249  0.213745  1
  Fe  Fe6  1  0.457522  0.959206  0.375933  1
  Fe  Fe7  1  0.958146  0.459166  0.876479  1
  Fe  Fe8  1  0.959206  0.959206  0.375933  1
  Fe  Fe9  1  0.459166  0.459166  0.876479  1
  Fe  Fe10  1  0.959206  0.457522  0.375933  1
  Fe  Fe11  1  0.459166  0.958146  0.876479  1
  Fe  Fe12  1  0.042454  0.540978  0.124411  1
  Fe  Fe13  1  0.542065  0.040573  0.623212  1
  Fe  Fe14  1  0.540978  0.540978  0.124411  1
  Fe  Fe15  1  0.040573  0.040573  0.623212  1
  Fe  Fe16  1  0.540978  0.042454  0.124411  1
  Fe  Fe17  1  0.040573  0.542065  0.623212  1
  Fe  Fe18  1  0.333744  0.333744  0.001233  1
  Fe  Fe19  1  0.833399  0.833399  0.500198  1
  Fe  Fe20  1  0.166207  0.166207  0.498623  1
  Fe  Fe21  1  0.666637  0.666637  0.999911  1
  Fe  Fe22  1  0.750115  0.750115  0.250347  1
  Fe  Fe23  1  0.249957  0.249957  0.749870  1
