# generated using pymatgen
data_Er7Tm(Sc3Sn4)4
_symmetry_space_group_name_H-M   'P 1'
_cell_length_a   7.65928200
_cell_length_b   7.93536500
_cell_length_c   14.79393601
_cell_angle_alpha   89.99797835
_cell_angle_beta   89.99716870
_cell_angle_gamma   90.00202069
_symmetry_Int_Tables_number   1
_chemical_formula_structural   Er7Tm(Sc3Sn4)4
_chemical_formula_sum   'Er7 Tm1 Sc12 Sn16'
_cell_volume   899.16356879
_cell_formula_units_Z   1
loop_
 _symmetry_equiv_pos_site_id
 _symmetry_equiv_pos_as_xyz
  1  'x, y, z'
loop_
 _atom_site_type_symbol
 _atom_site_label
 _atom_site_symmetry_multiplicity
 _atom_site_fract_x
 _atom_site_fract_y
 _atom_site_fract_z
 _atom_site_occupancy
  Er  Er0  1  0.994294  0.178170  0.093735  1
  Er  Er1  1  0.005706  0.821815  0.906261  1
  Er  Er2  1  0.505723  0.678231  0.906322  1
  Er  Er3  1  0.005701  0.821798  0.593731  1
  Er  Er4  1  0.494275  0.321781  0.093722  1
  Er  Er5  1  0.994302  0.178170  0.406272  1
  Er  Er6  1  0.494255  0.321774  0.406296  1
  Tm  Tm7  1  0.505736  0.678296  0.593756  1
  Sc  Sc8  1  0.164422  0.496491  0.749979  1
  Sc  Sc9  1  0.835604  0.503543  0.249999  1
  Sc  Sc10  1  0.335607  0.996469  0.250009  1
  Sc  Sc11  1  0.664363  0.003505  0.749975  1
  Sc  Sc12  1  0.336159  0.161244  0.627422  1
  Sc  Sc13  1  0.663810  0.838708  0.372599  1
  Sc  Sc14  1  0.163858  0.661273  0.372586  1
  Sc  Sc15  1  0.663852  0.838755  0.127415  1
  Sc  Sc16  1  0.836110  0.338793  0.627419  1
  Sc  Sc17  1  0.336153  0.161245  0.872566  1
  Sc  Sc18  1  0.836158  0.338738  0.872566  1
  Sc  Sc19  1  0.163844  0.661266  0.127419  1
  Sn  Sn20  1  0.026779  0.122972  0.749997  1
  Sn  Sn21  1  0.973191  0.877014  0.250002  1
  Sn  Sn22  1  0.473216  0.622969  0.250005  1
  Sn  Sn23  1  0.526786  0.377131  0.749983  1
  Sn  Sn24  1  0.306967  0.848328  0.749900  1
  Sn  Sn25  1  0.693184  0.151550  0.249993  1
  Sn  Sn26  1  0.193184  0.348465  0.250000  1
  Sn  Sn27  1  0.806710  0.651558  0.749950  1
  Sn  Sn28  1  0.182311  0.458449  0.542297  1
  Sn  Sn29  1  0.817780  0.541685  0.457767  1
  Sn  Sn30  1  0.317951  0.958268  0.457739  1
  Sn  Sn31  1  0.817900  0.541642  0.042282  1
  Sn  Sn32  1  0.682021  0.041546  0.542303  1
  Sn  Sn33  1  0.182072  0.458344  0.957723  1
  Sn  Sn34  1  0.682096  0.041659  0.957720  1
  Sn  Sn35  1  0.317922  0.958357  0.042289  1
