# generated using pymatgen
data_TbTmB6Os
_symmetry_space_group_name_H-M   'P 1'
_cell_length_a   3.64097400
_cell_length_b   9.12465700
_cell_length_c   11.52154300
_cell_angle_alpha   90.00000000
_cell_angle_beta   90.00000000
_cell_angle_gamma   90.00000000
_symmetry_Int_Tables_number   1
_chemical_formula_structural   TbTmB6Os
_chemical_formula_sum   'Tb4 Tm4 B24 Os4'
_cell_volume   382.77606261
_cell_formula_units_Z   4
loop_
 _symmetry_equiv_pos_site_id
 _symmetry_equiv_pos_as_xyz
  1  'x, y, z'
loop_
 _atom_site_type_symbol
 _atom_site_label
 _atom_site_symmetry_multiplicity
 _atom_site_fract_x
 _atom_site_fract_y
 _atom_site_fract_z
 _atom_site_occupancy
  Tb  Tb0  1  0.000000  0.322265  0.413727  1
  Tb  Tb1  1  0.000000  0.677735  0.586273  1
  Tb  Tb2  1  0.000000  0.822265  0.086273  1
  Tb  Tb3  1  0.000000  0.177735  0.913727  1
  Tm  Tm4  1  0.000000  0.944292  0.373165  1
  Tm  Tm5  1  0.000000  0.055708  0.626836  1
  Tm  Tm6  1  0.000000  0.444292  0.126835  1
  Tm  Tm7  1  0.000000  0.555708  0.873164  1
  B  B8  1  0.500000  0.554331  0.432613  1
  B  B9  1  0.500000  0.445669  0.567387  1
  B  B10  1  0.500000  0.054331  0.067387  1
  B  B11  1  0.500000  0.945669  0.932613  1
  B  B12  1  0.500000  0.749037  0.419608  1
  B  B13  1  0.500000  0.250963  0.580392  1
  B  B14  1  0.500000  0.249037  0.080392  1
  B  B15  1  0.500000  0.750963  0.919608  1
  B  B16  1  0.500000  0.791751  0.266768  1
  B  B17  1  0.500000  0.208249  0.733232  1
  B  B18  1  0.500000  0.291750  0.233232  1
  B  B19  1  0.500000  0.708249  0.766768  1
  B  B20  1  0.500000  0.631383  0.185144  1
  B  B21  1  0.500000  0.368617  0.814856  1
  B  B22  1  0.500000  0.131383  0.314856  1
  B  B23  1  0.500000  0.868617  0.685144  1
  B  B24  1  0.500000  0.983323  0.213688  1
  B  B25  1  0.500000  0.016677  0.786312  1
  B  B26  1  0.500000  0.483323  0.286312  1
  B  B27  1  0.500000  0.516677  0.713688  1
  B  B28  1  0.500000  0.605603  0.029242  1
  B  B29  1  0.500000  0.394397  0.970758  1
  B  B30  1  0.500000  0.105603  0.470758  1
  B  B31  1  0.500000  0.894397  0.529242  1
  Os  Os32  1  0.000000  0.638244  0.320621  1
  Os  Os33  1  0.000000  0.361756  0.679379  1
  Os  Os34  1  0.000000  0.138244  0.179379  1
  Os  Os35  1  0.000000  0.861756  0.820621  1
