# generated using pymatgen
data_La3Nd13Cd4CoNi3
_symmetry_space_group_name_H-M   'P 1'
_cell_length_a   9.87958085
_cell_length_b   9.89915953
_cell_length_c   9.89916021
_cell_angle_alpha   59.83508948
_cell_angle_beta   59.89476121
_cell_angle_gamma   59.89476713
_symmetry_Int_Tables_number   1
_chemical_formula_structural   La3Nd13Cd4CoNi3
_chemical_formula_sum   'La3 Nd13 Cd4 Co1 Ni3'
_cell_volume   682.62955954
_cell_formula_units_Z   1
loop_
 _symmetry_equiv_pos_site_id
 _symmetry_equiv_pos_as_xyz
  1  'x, y, z'
loop_
 _atom_site_type_symbol
 _atom_site_label
 _atom_site_symmetry_multiplicity
 _atom_site_fract_x
 _atom_site_fract_y
 _atom_site_fract_z
 _atom_site_occupancy
  La  La0  1  0.595870  0.597786  0.597786  1
  La  La1  1  0.593661  0.595814  0.208757  1
  La  La2  1  0.593661  0.208757  0.595814  1
  Nd  Nd3  1  0.202642  0.598504  0.598504  1
  Nd  Nd4  1  0.067794  0.438177  0.438177  1
  Nd  Nd5  1  0.439091  0.060419  0.060419  1
  Nd  Nd6  1  0.438979  0.065892  0.438345  1
  Nd  Nd7  1  0.060896  0.437904  0.059832  1
  Nd  Nd8  1  0.438979  0.438345  0.065892  1
  Nd  Nd9  1  0.060896  0.059832  0.437904  1
  Nd  Nd10  1  0.189166  0.813358  0.813358  1
  Nd  Nd11  1  0.810377  0.186704  0.186704  1
  Nd  Nd12  1  0.813294  0.188592  0.812489  1
  Nd  Nd13  1  0.186896  0.810255  0.186365  1
  Nd  Nd14  1  0.813294  0.812489  0.188592  1
  Nd  Nd15  1  0.186896  0.186365  0.810255  1
  Cd  Cd16  1  0.830498  0.829596  0.829596  1
  Cd  Cd17  1  0.831745  0.829906  0.508616  1
  Cd  Cd18  1  0.831745  0.508616  0.829906  1
  Cd  Cd19  1  0.508957  0.830193  0.830193  1
  Co  Co20  1  0.395537  0.392101  0.392101  1
  Ni  Ni21  1  0.392129  0.393142  0.824564  1
  Ni  Ni22  1  0.392129  0.824564  0.393142  1
  Ni  Ni23  1  0.824867  0.392689  0.392689  1
