# generated using pymatgen
data_Tb5HoMgCo17P12
_symmetry_space_group_name_H-M   'P 1'
_cell_length_a   3.72346500
_cell_length_b   10.58813700
_cell_length_c   12.26340200
_cell_angle_alpha   90.00106367
_cell_angle_beta   90.00000000
_cell_angle_gamma   90.00000000
_symmetry_Int_Tables_number   1
_chemical_formula_structural   Tb5HoMgCo17P12
_chemical_formula_sum   'Tb5 Ho1 Mg1 Co17 P12'
_cell_volume   483.47919768
_cell_formula_units_Z   1
loop_
 _symmetry_equiv_pos_site_id
 _symmetry_equiv_pos_as_xyz
  1  'x, y, z'
loop_
 _atom_site_type_symbol
 _atom_site_label
 _atom_site_symmetry_multiplicity
 _atom_site_fract_x
 _atom_site_fract_y
 _atom_site_fract_z
 _atom_site_occupancy
  Tb  Tb0  1  0.000000  0.500208  0.525324  1
  Tb  Tb1  1  0.500000  0.999843  0.478788  1
  Tb  Tb2  1  0.500000  0.821138  0.207227  1
  Tb  Tb3  1  0.500000  0.178789  0.207061  1
  Tb  Tb4  1  0.000000  0.317318  0.794673  1
  Ho  Ho5  1  0.000000  0.682940  0.794659  1
  Mg  Mg6  1  0.500000  0.500034  0.152558  1
  Co  Co7  1  0.000000  0.999960  0.838952  1
  Co  Co8  1  0.500000  0.500703  0.704487  1
  Co  Co9  1  0.000000  0.999913  0.296130  1
  Co  Co10  1  0.000000  0.500351  0.985604  1
  Co  Co11  1  0.500000  0.999683  0.012113  1
  Co  Co12  1  0.500000  0.329470  0.992827  1
  Co  Co13  1  0.500000  0.670844  0.992526  1
  Co  Co14  1  0.000000  0.163091  0.001742  1
  Co  Co15  1  0.000000  0.836597  0.001391  1
  Co  Co16  1  0.500000  0.295604  0.432800  1
  Co  Co17  1  0.500000  0.704452  0.433124  1
  Co  Co18  1  0.000000  0.202139  0.570661  1
  Co  Co19  1  0.000000  0.797691  0.571085  1
  Co  Co20  1  0.500000  0.879786  0.709404  1
  Co  Co21  1  0.500000  0.119504  0.709023  1
  Co  Co22  1  0.000000  0.622542  0.293462  1
  Co  Co23  1  0.000000  0.377568  0.293423  1
  P  P24  1  0.500000  0.500669  0.883145  1
  P  P25  1  0.000000  0.999839  0.115833  1
  P  P26  1  0.500000  0.499979  0.352972  1
  P  P27  1  0.000000  0.000002  0.656148  1
  P  P28  1  0.500000  0.308891  0.616920  1
  P  P29  1  0.500000  0.691107  0.617644  1
  P  P30  1  0.000000  0.189868  0.386072  1
  P  P31  1  0.000000  0.809975  0.386272  1
  P  P32  1  0.500000  0.849322  0.890258  1
  P  P33  1  0.500000  0.150056  0.890629  1
  P  P34  1  0.000000  0.662581  0.102601  1
  P  P35  1  0.000000  0.337543  0.102462  1
