# generated using pymatgen
data_Tb9Y7Cd4OsPd3
_symmetry_space_group_name_H-M   'P 1'
_cell_length_a   9.75475329
_cell_length_b   9.75475245
_cell_length_c   9.75394075
_cell_angle_alpha   59.45841849
_cell_angle_beta   59.45842252
_cell_angle_gamma   59.50755422
_symmetry_Int_Tables_number   1
_chemical_formula_structural   Tb9Y7Cd4OsPd3
_chemical_formula_sum   'Tb9 Y7 Cd4 Os1 Pd3'
_cell_volume   648.45222155
_cell_formula_units_Z   1
loop_
 _symmetry_equiv_pos_site_id
 _symmetry_equiv_pos_as_xyz
  1  'x, y, z'
loop_
 _atom_site_type_symbol
 _atom_site_label
 _atom_site_symmetry_multiplicity
 _atom_site_fract_x
 _atom_site_fract_y
 _atom_site_fract_z
 _atom_site_occupancy
  Tb  Tb0  1  0.353214  0.353214  0.353274  1
  Tb  Tb1  1  0.350027  0.350027  0.945966  1
  Tb  Tb2  1  0.350264  0.946035  0.349891  1
  Tb  Tb3  1  0.946035  0.350264  0.349891  1
  Tb  Tb4  1  0.815775  0.188497  0.188939  1
  Tb  Tb5  1  0.188412  0.809773  0.810144  1
  Tb  Tb6  1  0.188497  0.815775  0.188939  1
  Tb  Tb7  1  0.809773  0.188412  0.810144  1
  Tb  Tb8  1  0.188913  0.188913  0.815703  1
  Y  Y9  1  0.809611  0.809611  0.188640  1
  Y  Y10  1  0.934586  0.565967  0.566019  1
  Y  Y11  1  0.558728  0.936927  0.936935  1
  Y  Y12  1  0.565967  0.934586  0.566019  1
  Y  Y13  1  0.936927  0.558728  0.936935  1
  Y  Y14  1  0.565859  0.565859  0.934910  1
  Y  Y15  1  0.937070  0.937070  0.558682  1
  Cd  Cd16  1  0.580582  0.580582  0.580037  1
  Cd  Cd17  1  0.581585  0.581585  0.253471  1
  Cd  Cd18  1  0.581230  0.253610  0.581479  1
  Cd  Cd19  1  0.253610  0.581230  0.581479  1
  Os  Os20  1  0.143851  0.143851  0.143874  1
  Pd  Pd21  1  0.144637  0.144637  0.569668  1
  Pd  Pd22  1  0.145546  0.569300  0.144480  1
  Pd  Pd23  1  0.569300  0.145546  0.144480  1
