# generated using pymatgen
data_La9Yb(Si3H)2
_symmetry_space_group_name_H-M   'P 1'
_cell_length_a   9.04255235
_cell_length_b   9.04255157
_cell_length_c   9.04255144
_cell_angle_alpha   127.68134861
_cell_angle_beta   127.68135009
_cell_angle_gamma   77.14180564
_symmetry_Int_Tables_number   1
_chemical_formula_structural   La9Yb(Si3H)2
_chemical_formula_sum   'La9 Yb1 Si6 H2'
_cell_volume   449.43616074
_cell_formula_units_Z   1
loop_
 _symmetry_equiv_pos_site_id
 _symmetry_equiv_pos_as_xyz
  1  'x, y, z'
loop_
 _atom_site_type_symbol
 _atom_site_label
 _atom_site_symmetry_multiplicity
 _atom_site_fract_x
 _atom_site_fract_y
 _atom_site_fract_z
 _atom_site_occupancy
  La  La0  1  0.000000  0.000000  0.000000  1
  La  La1  1  0.524841  0.026416  0.849438  1
  La  La2  1  0.176979  0.675405  0.150562  1
  La  La3  1  0.026416  0.176979  0.501574  1
  La  La4  1  0.675405  0.524841  0.498426  1
  La  La5  1  0.475159  0.973584  0.150562  1
  La  La6  1  0.823021  0.324595  0.849438  1
  La  La7  1  0.973584  0.823021  0.498426  1
  La  La8  1  0.324595  0.475159  0.501574  1
  Yb  Yb9  1  0.500000  0.500000  0.000000  1
  Si  Si10  1  0.248866  0.248866  0.000000  1
  Si  Si11  1  0.751134  0.751134  0.000000  1
  Si  Si12  1  0.890230  0.386201  0.276431  1
  Si  Si13  1  0.109770  0.613799  0.723569  1
  Si  Si14  1  0.386201  0.109770  0.495971  1
  Si  Si15  1  0.613799  0.890230  0.504029  1
  H  H16  1  0.250000  0.750000  0.500000  1
  H  H17  1  0.750000  0.250000  0.500000  1
