# generated using pymatgen
data_ErTa3Ti2(B2Ru5)2
_symmetry_space_group_name_H-M   'P 1'
_cell_length_a   9.38945242
_cell_length_b   9.38945222
_cell_length_c   3.05860900
_cell_angle_alpha   90.00000000
_cell_angle_beta   90.00000000
_cell_angle_gamma   90.24788178
_symmetry_Int_Tables_number   1
_chemical_formula_structural   ErTa3Ti2(B2Ru5)2
_chemical_formula_sum   'Er1 Ta3 Ti2 B4 Ru10'
_cell_volume   269.64999662
_cell_formula_units_Z   1
loop_
 _symmetry_equiv_pos_site_id
 _symmetry_equiv_pos_as_xyz
  1  'x, y, z'
loop_
 _atom_site_type_symbol
 _atom_site_label
 _atom_site_symmetry_multiplicity
 _atom_site_fract_x
 _atom_site_fract_y
 _atom_site_fract_z
 _atom_site_occupancy
  Er  Er0  1  0.824344  0.675656  0.000000  1
  Ta  Ta1  1  0.177897  0.322103  0.000000  1
  Ta  Ta2  1  0.324418  0.821755  0.000000  1
  Ta  Ta3  1  0.678245  0.175582  0.000000  1
  Ti  Ti4  1  0.501222  0.500492  0.000000  1
  Ti  Ti5  1  0.999508  0.998778  0.000000  1
  B  B6  1  0.620816  0.879184  0.000000  1
  B  B7  1  0.375068  0.124932  0.000000  1
  B  B8  1  0.125765  0.621782  0.000000  1
  B  B9  1  0.878218  0.374235  0.000000  1
  Ru  Ru10  1  0.557283  0.722397  0.500000  1
  Ru  Ru11  1  0.425910  0.285757  0.500000  1
  Ru  Ru12  1  0.083008  0.785546  0.500000  1
  Ru  Ru13  1  0.931081  0.213672  0.500000  1
  Ru  Ru14  1  0.286328  0.568919  0.500000  1
  Ru  Ru15  1  0.714454  0.416992  0.500000  1
  Ru  Ru16  1  0.214243  0.074090  0.500000  1
  Ru  Ru17  1  0.777603  0.942717  0.500000  1
  Ru  Ru18  1  0.495892  0.004108  0.500000  1
  Ru  Ru19  1  0.008694  0.491306  0.500000  1
