# generated using pymatgen
data_Hf3Mg(AsRh5)2
_symmetry_space_group_name_H-M   'P 1'
_cell_length_a   4.06320900
_cell_length_b   5.56977736
_cell_length_c   10.85250402
_cell_angle_alpha   90.49079601
_cell_angle_beta   90.00000000
_cell_angle_gamma   90.00000000
_symmetry_Int_Tables_number   1
_chemical_formula_structural   Hf3Mg(AsRh5)2
_chemical_formula_sum   'Hf3 Mg1 As2 Rh10'
_cell_volume   245.59584691
_cell_formula_units_Z   1
loop_
 _symmetry_equiv_pos_site_id
 _symmetry_equiv_pos_as_xyz
  1  'x, y, z'
loop_
 _atom_site_type_symbol
 _atom_site_label
 _atom_site_symmetry_multiplicity
 _atom_site_fract_x
 _atom_site_fract_y
 _atom_site_fract_z
 _atom_site_occupancy
  Hf  Hf0  1  0.500000  0.670157  0.637100  1
  Hf  Hf1  1  0.500000  0.174184  0.858195  1
  Hf  Hf2  1  0.500000  0.825866  0.146530  1
  Mg  Mg3  1  0.500000  0.331234  0.357099  1
  As  As4  1  0.000000  0.006805  0.496932  1
  As  As5  1  0.000000  0.499861  0.001441  1
  Rh  Rh6  1  0.500000  0.314159  0.104783  1
  Rh  Rh7  1  0.500000  0.687095  0.894294  1
  Rh  Rh8  1  0.500000  0.817340  0.395702  1
  Rh  Rh9  1  0.500000  0.181451  0.606253  1
  Rh  Rh10  1  0.000000  0.931201  0.742771  1
  Rh  Rh11  1  0.000000  0.067465  0.259419  1
  Rh  Rh12  1  0.000000  0.431735  0.757201  1
  Rh  Rh13  1  0.000000  0.569647  0.242043  1
  Rh  Rh14  1  0.000000  0.491141  0.499680  1
  Rh  Rh15  1  0.000000  0.000660  0.000557  1
