# generated using pymatgen
data_Tb5TcSb2
_symmetry_space_group_name_H-M   'P 1'
_cell_length_a   7.91608800
_cell_length_b   9.02337900
_cell_length_c   12.22864800
_cell_angle_alpha   90.00000000
_cell_angle_beta   90.00000000
_cell_angle_gamma   90.00000000
_symmetry_Int_Tables_number   1
_chemical_formula_structural   Tb5TcSb2
_chemical_formula_sum   'Tb20 Tc4 Sb8'
_cell_volume   873.49064179
_cell_formula_units_Z   4
loop_
 _symmetry_equiv_pos_site_id
 _symmetry_equiv_pos_as_xyz
  1  'x, y, z'
loop_
 _atom_site_type_symbol
 _atom_site_label
 _atom_site_symmetry_multiplicity
 _atom_site_fract_x
 _atom_site_fract_y
 _atom_site_fract_z
 _atom_site_occupancy
  Tb  Tb0  1  0.156547  0.750000  0.210464  1
  Tb  Tb1  1  0.656547  0.250000  0.289536  1
  Tb  Tb2  1  0.843453  0.250000  0.789536  1
  Tb  Tb3  1  0.343453  0.750000  0.710464  1
  Tb  Tb4  1  0.452405  0.750000  0.996134  1
  Tb  Tb5  1  0.952405  0.250000  0.503866  1
  Tb  Tb6  1  0.547595  0.250000  0.003866  1
  Tb  Tb7  1  0.047595  0.750000  0.496134  1
  Tb  Tb8  1  0.625848  0.750000  0.303837  1
  Tb  Tb9  1  0.125848  0.250000  0.196163  1
  Tb  Tb10  1  0.374152  0.250000  0.696163  1
  Tb  Tb11  1  0.874152  0.750000  0.803837  1
  Tb  Tb12  1  0.820504  0.962119  0.066820  1
  Tb  Tb13  1  0.320504  0.037881  0.433180  1
  Tb  Tb14  1  0.179496  0.462119  0.933180  1
  Tb  Tb15  1  0.679496  0.537881  0.566820  1
  Tb  Tb16  1  0.179496  0.037881  0.933180  1
  Tb  Tb17  1  0.679496  0.962119  0.566820  1
  Tb  Tb18  1  0.820504  0.537881  0.066820  1
  Tb  Tb19  1  0.320504  0.462119  0.433180  1
  Tc  Tc20  1  0.421011  0.750000  0.487506  1
  Tc  Tc21  1  0.921011  0.250000  0.012494  1
  Tc  Tc22  1  0.578989  0.250000  0.512494  1
  Tc  Tc23  1  0.078989  0.750000  0.987506  1
  Sb  Sb24  1  0.927760  0.994587  0.328303  1
  Sb  Sb25  1  0.427760  0.005413  0.171697  1
  Sb  Sb26  1  0.072240  0.494587  0.671697  1
  Sb  Sb27  1  0.572240  0.505413  0.828303  1
  Sb  Sb28  1  0.072240  0.005413  0.671697  1
  Sb  Sb29  1  0.572240  0.994587  0.828303  1
  Sb  Sb30  1  0.927760  0.505413  0.328303  1
  Sb  Sb31  1  0.427760  0.494587  0.171697  1
