# generated using pymatgen
data_Dy11Th5(MgOs)4
_symmetry_space_group_name_H-M   'P 1'
_cell_length_a   9.78121094
_cell_length_b   9.84250736
_cell_length_c   9.84250725
_cell_angle_alpha   59.76272331
_cell_angle_beta   60.20578672
_cell_angle_gamma   60.20579775
_symmetry_Int_Tables_number   1
_chemical_formula_structural   Dy11Th5(MgOs)4
_chemical_formula_sum   'Dy11 Th5 Mg4 Os4'
_cell_volume   670.87778308
_cell_formula_units_Z   1
loop_
 _symmetry_equiv_pos_site_id
 _symmetry_equiv_pos_as_xyz
  1  'x, y, z'
loop_
 _atom_site_type_symbol
 _atom_site_label
 _atom_site_symmetry_multiplicity
 _atom_site_fract_x
 _atom_site_fract_y
 _atom_site_fract_z
 _atom_site_occupancy
  Dy  Dy0  1  0.186912  0.813088  0.813088  1
  Dy  Dy1  1  0.191483  0.809724  0.185244  1
  Dy  Dy2  1  0.813551  0.185244  0.809724  1
  Dy  Dy3  1  0.191483  0.185244  0.809724  1
  Dy  Dy4  1  0.813551  0.809724  0.185244  1
  Dy  Dy5  1  0.933609  0.566391  0.566391  1
  Dy  Dy6  1  0.564245  0.935755  0.935755  1
  Dy  Dy7  1  0.562044  0.937681  0.562677  1
  Dy  Dy8  1  0.937598  0.562677  0.937681  1
  Dy  Dy9  1  0.562044  0.562677  0.937681  1
  Dy  Dy10  1  0.937598  0.937681  0.562677  1
  Th  Th11  1  0.340895  0.349067  0.349067  1
  Th  Th12  1  0.346420  0.346193  0.960967  1
  Th  Th13  1  0.346420  0.960967  0.346193  1
  Th  Th14  1  0.960971  0.349067  0.349067  1
  Th  Th15  1  0.815856  0.184144  0.184144  1
  Mg  Mg16  1  0.581231  0.579505  0.579505  1
  Mg  Mg17  1  0.579684  0.581883  0.258747  1
  Mg  Mg18  1  0.579684  0.258747  0.581883  1
  Mg  Mg19  1  0.259758  0.579505  0.579505  1
  Os  Os20  1  0.130053  0.146518  0.146518  1
  Os  Os21  1  0.144001  0.140688  0.571312  1
  Os  Os22  1  0.144001  0.571312  0.140688  1
  Os  Os23  1  0.576911  0.146518  0.146518  1
