# generated using pymatgen
data_Tm4Al2Ga3Si
_symmetry_space_group_name_H-M   'P 1'
_cell_length_a   6.91534925
_cell_length_b   6.91534990
_cell_length_c   4.35613200
_cell_angle_alpha   90.00000000
_cell_angle_beta   90.00000000
_cell_angle_gamma   90.52992671
_symmetry_Int_Tables_number   1
_chemical_formula_structural   Tm4Al2Ga3Si
_chemical_formula_sum   'Tm4 Al2 Ga3 Si1'
_cell_volume   208.31029454
_cell_formula_units_Z   1
loop_
 _symmetry_equiv_pos_site_id
 _symmetry_equiv_pos_as_xyz
  1  'x, y, z'
loop_
 _atom_site_type_symbol
 _atom_site_label
 _atom_site_symmetry_multiplicity
 _atom_site_fract_x
 _atom_site_fract_y
 _atom_site_fract_z
 _atom_site_occupancy
  Tm  Tm0  1  0.828712  0.673797  0.500000  1
  Tm  Tm1  1  0.173797  0.328712  0.500000  1
  Tm  Tm2  1  0.673157  0.173157  0.500000  1
  Tm  Tm3  1  0.325060  0.825060  0.500000  1
  Al  Al4  1  0.001364  0.997464  0.000000  1
  Al  Al5  1  0.497464  0.501364  0.000000  1
  Ga  Ga6  1  0.629048  0.871272  0.000000  1
  Ga  Ga7  1  0.371272  0.129048  0.000000  1
  Ga  Ga8  1  0.873323  0.373323  0.000000  1
  Si  Si9  1  0.126804  0.626804  0.000000  1
