# generated using pymatgen
data_ScBPd6Au
_symmetry_space_group_name_H-M   'P 1'
_cell_length_a   5.78034868
_cell_length_b   5.78034858
_cell_length_c   5.78034800
_cell_angle_alpha   60.00000334
_cell_angle_beta   60.00000391
_cell_angle_gamma   60.00000203
_symmetry_Int_Tables_number   1
_chemical_formula_structural   ScBPd6Au
_chemical_formula_sum   'Sc1 B1 Pd6 Au1'
_cell_volume   136.56741350
_cell_formula_units_Z   1
loop_
 _symmetry_equiv_pos_site_id
 _symmetry_equiv_pos_as_xyz
  1  'x, y, z'
loop_
 _atom_site_type_symbol
 _atom_site_label
 _atom_site_symmetry_multiplicity
 _atom_site_fract_x
 _atom_site_fract_y
 _atom_site_fract_z
 _atom_site_occupancy
  Sc  Sc0  1  0.750000  0.750000  0.750000  1
  B  B1  1  0.500000  0.500000  0.500000  1
  Pd  Pd2  1  0.755586  0.244414  0.244414  1
  Pd  Pd3  1  0.244414  0.755586  0.244414  1
  Pd  Pd4  1  0.755586  0.755586  0.244414  1
  Pd  Pd5  1  0.244414  0.244414  0.755586  1
  Pd  Pd6  1  0.755586  0.244414  0.755586  1
  Pd  Pd7  1  0.244414  0.755586  0.755586  1
  Au  Au8  1  0.250000  0.250000  0.250000  1
