# generated using pymatgen
data_YEr3Al18(CoPt2)2
_symmetry_space_group_name_H-M   'P 1'
_cell_length_a   7.52668901
_cell_length_b   7.52606831
_cell_length_c   9.36507113
_cell_angle_alpha   90.01311825
_cell_angle_beta   90.00564309
_cell_angle_gamma   119.39352504
_symmetry_Int_Tables_number   1
_chemical_formula_structural   YEr3Al18(CoPt2)2
_chemical_formula_sum   'Y1 Er3 Al18 Co2 Pt4'
_cell_volume   462.20600869
_cell_formula_units_Z   1
loop_
 _symmetry_equiv_pos_site_id
 _symmetry_equiv_pos_as_xyz
  1  'x, y, z'
loop_
 _atom_site_type_symbol
 _atom_site_label
 _atom_site_symmetry_multiplicity
 _atom_site_fract_x
 _atom_site_fract_y
 _atom_site_fract_z
 _atom_site_occupancy
  Y  Y0  1  0.326063  0.005359  0.749812  1
  Er  Er1  1  0.994318  0.674337  0.250261  1
  Er  Er2  1  0.005382  0.326019  0.750231  1
  Er  Er3  1  0.674606  0.994503  0.249765  1
  Al  Al4  1  0.136487  0.136668  0.250023  1
  Al  Al5  1  0.862538  0.862972  0.749955  1
  Al  Al6  1  0.340373  0.333708  0.552755  1
  Al  Al7  1  0.659612  0.666546  0.054242  1
  Al  Al8  1  0.333238  0.340612  0.947229  1
  Al  Al9  1  0.666622  0.659631  0.445779  1
  Al  Al10  1  0.340445  0.555676  0.242830  1
  Al  Al11  1  0.660083  0.445732  0.742674  1
  Al  Al12  1  0.555766  0.340559  0.257226  1
  Al  Al13  1  0.445168  0.658907  0.757223  1
  Al  Al14  1  0.007830  0.344682  0.075831  1
  Al  Al15  1  0.991383  0.654754  0.574560  1
  Al  Al16  1  0.344862  0.007944  0.423661  1
  Al  Al17  1  0.655728  0.991880  0.925427  1
  Al  Al18  1  0.010756  0.663773  0.925040  1
  Al  Al19  1  0.988567  0.335863  0.423714  1
  Al  Al20  1  0.664810  0.011520  0.574952  1
  Al  Al21  1  0.335836  0.988529  0.076857  1
  Co  Co22  1  0.329338  0.670326  0.999995  1
  Co  Co23  1  0.670756  0.329593  0.499966  1
  Pt  Pt24  1  0.999938  0.999741  0.000025  1
  Pt  Pt25  1  0.999483  0.000236  0.499984  1
  Pt  Pt26  1  0.672347  0.327836  0.999945  1
  Pt  Pt27  1  0.327666  0.672094  0.500037  1
