# generated using pymatgen
data_Y7LuSc2(In2Rh)4
_symmetry_space_group_name_H-M   'P 1'
_cell_length_a   3.61866500
_cell_length_b   7.96322982
_cell_length_c   18.11665297
_cell_angle_alpha   90.11182474
_cell_angle_beta   90.00000000
_cell_angle_gamma   90.00000000
_symmetry_Int_Tables_number   1
_chemical_formula_structural   Y7LuSc2(In2Rh)4
_chemical_formula_sum   'Y7 Lu1 Sc2 In8 Rh4'
_cell_volume   522.05320656
_cell_formula_units_Z   1
loop_
 _symmetry_equiv_pos_site_id
 _symmetry_equiv_pos_as_xyz
  1  'x, y, z'
loop_
 _atom_site_type_symbol
 _atom_site_label
 _atom_site_symmetry_multiplicity
 _atom_site_fract_x
 _atom_site_fract_y
 _atom_site_fract_z
 _atom_site_occupancy
  Y  Y0  1  0.000000  0.999148  0.000398  1
  Y  Y1  1  0.000000  0.499834  0.499095  1
  Y  Y2  1  0.000000  0.752781  0.785797  1
  Y  Y3  1  0.000000  0.246887  0.214223  1
  Y  Y4  1  0.000000  0.250229  0.721744  1
  Y  Y5  1  0.000000  0.749260  0.278995  1
  Y  Y6  1  0.000000  0.879417  0.588915  1
  Lu  Lu7  1  0.000000  0.121239  0.408250  1
  Sc  Sc8  1  0.000000  0.380277  0.909449  1
  Sc  Sc9  1  0.000000  0.618514  0.090902  1
  In  In10  1  0.500000  0.800373  0.433135  1
  In  In11  1  0.500000  0.204328  0.566144  1
  In  In12  1  0.500000  0.312114  0.058808  1
  In  In13  1  0.500000  0.686520  0.941279  1
  In  In14  1  0.500000  0.919595  0.148574  1
  In  In15  1  0.500000  0.079072  0.852377  1
  In  In16  1  0.500000  0.427817  0.345801  1
  In  In17  1  0.500000  0.570328  0.654308  1
  Rh  Rh18  1  0.500000  0.970695  0.698081  1
  Rh  Rh19  1  0.500000  0.032247  0.303578  1
  Rh  Rh20  1  0.500000  0.467321  0.811097  1
  Rh  Rh21  1  0.500000  0.532005  0.189050  1
