# generated using pymatgen
data_LaSi2Ir2Rh
_symmetry_space_group_name_H-M   'P 1'
_cell_length_a   5.67952089
_cell_length_b   6.74967176
_cell_length_c   6.74967098
_cell_angle_alpha   64.80414413
_cell_angle_beta   65.11959195
_cell_angle_gamma   65.11958720
_symmetry_Int_Tables_number   1
_chemical_formula_structural   LaSi2Ir2Rh
_chemical_formula_sum   'La2 Si4 Ir4 Rh2'
_cell_volume   202.99085108
_cell_formula_units_Z   2
loop_
 _symmetry_equiv_pos_site_id
 _symmetry_equiv_pos_as_xyz
  1  'x, y, z'
loop_
 _atom_site_type_symbol
 _atom_site_label
 _atom_site_symmetry_multiplicity
 _atom_site_fract_x
 _atom_site_fract_y
 _atom_site_fract_z
 _atom_site_occupancy
  La  La0  1  0.533781  0.750000  0.750000  1
  La  La1  1  0.466219  0.250000  0.250000  1
  Si  Si2  1  0.223407  0.578700  0.578700  1
  Si  Si3  1  0.776593  0.421300  0.421300  1
  Si  Si4  1  0.119192  0.078700  0.078700  1
  Si  Si5  1  0.880808  0.921300  0.921300  1
  Ir  Ir6  1  0.500000  0.217694  0.782306  1
  Ir  Ir7  1  0.000000  0.717694  0.282306  1
  Ir  Ir8  1  0.500000  0.782306  0.217694  1
  Ir  Ir9  1  0.000000  0.282306  0.717694  1
  Rh  Rh10  1  0.000000  0.500000  0.000000  1
  Rh  Rh11  1  0.000000  0.000000  0.500000  1
