# generated using pymatgen
data_LiHf4Os2Rh
_symmetry_space_group_name_H-M   'P 1'
_cell_length_a   6.62137500
_cell_length_b   4.58067300
_cell_length_c   9.18068100
_cell_angle_alpha   90.00000000
_cell_angle_beta   89.99987702
_cell_angle_gamma   90.00000000
_symmetry_Int_Tables_number   1
_chemical_formula_structural   LiHf4Os2Rh
_chemical_formula_sum   'Li2 Hf8 Os4 Rh2'
_cell_volume   278.45330180
_cell_formula_units_Z   2
loop_
 _symmetry_equiv_pos_site_id
 _symmetry_equiv_pos_as_xyz
  1  'x, y, z'
loop_
 _atom_site_type_symbol
 _atom_site_label
 _atom_site_symmetry_multiplicity
 _atom_site_fract_x
 _atom_site_fract_y
 _atom_site_fract_z
 _atom_site_occupancy
  Li  Li0  1  0.249996  0.249999  0.125629  1
  Li  Li1  1  0.749995  0.750000  0.374376  1
  Hf  Hf2  1  0.499801  0.750000  0.124374  1
  Hf  Hf3  1  0.000197  0.750000  0.124375  1
  Hf  Hf4  1  0.500200  0.249999  0.375626  1
  Hf  Hf5  1  0.999802  0.249999  0.375626  1
  Hf  Hf6  1  0.999720  0.750000  0.625423  1
  Hf  Hf7  1  0.500281  0.750000  0.625424  1
  Hf  Hf8  1  0.000279  0.249999  0.874573  1
  Hf  Hf9  1  0.499723  0.249999  0.874574  1
  Os  Os10  1  0.750001  0.249999  0.127890  1
  Os  Os11  1  0.250001  0.750000  0.372111  1
  Os  Os12  1  0.749999  0.249999  0.621187  1
  Os  Os13  1  0.250001  0.750000  0.878815  1
  Rh  Rh14  1  0.249998  0.249999  0.628065  1
  Rh  Rh15  1  0.750002  0.750000  0.871932  1
