# generated using pymatgen
data_Y6Co15Re2NiP12
_symmetry_space_group_name_H-M   'P 1'
_cell_length_a   3.73629800
_cell_length_b   10.51897400
_cell_length_c   12.23810000
_cell_angle_alpha   90.00000000
_cell_angle_beta   90.00000000
_cell_angle_gamma   90.00000000
_symmetry_Int_Tables_number   1
_chemical_formula_structural   Y6Co15Re2NiP12
_chemical_formula_sum   'Y6 Co15 Re2 Ni1 P12'
_cell_volume   480.98206954
_cell_formula_units_Z   1
loop_
 _symmetry_equiv_pos_site_id
 _symmetry_equiv_pos_as_xyz
  1  'x, y, z'
loop_
 _atom_site_type_symbol
 _atom_site_label
 _atom_site_symmetry_multiplicity
 _atom_site_fract_x
 _atom_site_fract_y
 _atom_site_fract_z
 _atom_site_occupancy
  Y  Y0  1  0.000000  0.500000  0.522468  1
  Y  Y1  1  0.500000  0.000000  0.476103  1
  Y  Y2  1  0.500000  0.818067  0.206210  1
  Y  Y3  1  0.500000  0.181933  0.206210  1
  Y  Y4  1  0.000000  0.683071  0.794587  1
  Y  Y5  1  0.000000  0.316929  0.794587  1
  Co  Co6  1  0.000000  0.000000  0.297531  1
  Co  Co7  1  0.000000  0.500000  0.988323  1
  Co  Co8  1  0.500000  0.000000  0.012275  1
  Co  Co9  1  0.500000  0.332254  0.989958  1
  Co  Co10  1  0.500000  0.667746  0.989958  1
  Co  Co11  1  0.000000  0.167513  0.009869  1
  Co  Co12  1  0.000000  0.832487  0.009869  1
  Co  Co13  1  0.500000  0.297923  0.430904  1
  Co  Co14  1  0.500000  0.702077  0.430904  1
  Co  Co15  1  0.000000  0.201914  0.569025  1
  Co  Co16  1  0.000000  0.798086  0.569025  1
  Co  Co17  1  0.500000  0.879341  0.709230  1
  Co  Co18  1  0.500000  0.120659  0.709230  1
  Co  Co19  1  0.000000  0.620371  0.290789  1
  Co  Co20  1  0.000000  0.379629  0.290789  1
  Re  Re21  1  0.500000  0.500000  0.155601  1
  Re  Re22  1  0.000000  0.000000  0.844260  1
  Ni  Ni23  1  0.500000  0.500000  0.702012  1
  P  P24  1  0.500000  0.500000  0.881697  1
  P  P25  1  0.000000  0.000000  0.119644  1
  P  P26  1  0.500000  0.500000  0.348323  1
  P  P27  1  0.000000  0.000000  0.651405  1
  P  P28  1  0.500000  0.310361  0.615141  1
  P  P29  1  0.500000  0.689639  0.615141  1
  P  P30  1  0.000000  0.188715  0.384085  1
  P  P31  1  0.000000  0.811285  0.384085  1
  P  P32  1  0.500000  0.846378  0.892935  1
  P  P33  1  0.500000  0.153622  0.892935  1
  P  P34  1  0.000000  0.654277  0.107445  1
  P  P35  1  0.000000  0.345723  0.107445  1
