# generated using pymatgen
data_Sc4Al6OsPt
_symmetry_space_group_name_H-M   'P 1'
_cell_length_a   5.31976100
_cell_length_b   5.31976247
_cell_length_c   8.51989800
_cell_angle_alpha   90.00000000
_cell_angle_beta   90.00000000
_cell_angle_gamma   120.00000951
_symmetry_Int_Tables_number   1
_chemical_formula_structural   Sc4Al6OsPt
_chemical_formula_sum   'Sc4 Al6 Os1 Pt1'
_cell_volume   208.80906470
_cell_formula_units_Z   1
loop_
 _symmetry_equiv_pos_site_id
 _symmetry_equiv_pos_as_xyz
  1  'x, y, z'
loop_
 _atom_site_type_symbol
 _atom_site_label
 _atom_site_symmetry_multiplicity
 _atom_site_fract_x
 _atom_site_fract_y
 _atom_site_fract_z
 _atom_site_occupancy
  Sc  Sc0  1  0.333333  0.666667  0.061761  1
  Sc  Sc1  1  0.666667  0.333333  0.550640  1
  Sc  Sc2  1  0.333333  0.666667  0.449360  1
  Sc  Sc3  1  0.666667  0.333333  0.938239  1
  Al  Al4  1  0.833086  0.666171  0.248401  1
  Al  Al5  1  0.166914  0.833086  0.751599  1
  Al  Al6  1  0.666171  0.833086  0.751599  1
  Al  Al7  1  0.333829  0.166914  0.248401  1
  Al  Al8  1  0.833086  0.166914  0.248401  1
  Al  Al9  1  0.166914  0.333829  0.751599  1
  Os  Os10  1  0.000000  0.000000  0.000000  1
  Pt  Pt11  1  0.000000  0.000000  0.500000  1
