# generated using pymatgen
data_UPaNi10
_symmetry_space_group_name_H-M   'P 1'
_cell_length_a   3.93295900
_cell_length_b   4.77898600
_cell_length_c   8.22748300
_cell_angle_alpha   90.00000000
_cell_angle_beta   90.00000000
_cell_angle_gamma   90.00000000
_symmetry_Int_Tables_number   1
_chemical_formula_structural   UPaNi10
_chemical_formula_sum   'U1 Pa1 Ni10'
_cell_volume   154.64011746
_cell_formula_units_Z   1
loop_
 _symmetry_equiv_pos_site_id
 _symmetry_equiv_pos_as_xyz
  1  'x, y, z'
loop_
 _atom_site_type_symbol
 _atom_site_label
 _atom_site_symmetry_multiplicity
 _atom_site_fract_x
 _atom_site_fract_y
 _atom_site_fract_z
 _atom_site_occupancy
  U  U0  1  0.000000  0.000000  0.500000  1
  Pa  Pa1  1  0.000000  0.500000  0.000000  1
  Ni  Ni2  1  0.000000  0.500000  0.325377  1
  Ni  Ni3  1  0.000000  0.000000  0.837625  1
  Ni  Ni4  1  0.000000  0.000000  0.162375  1
  Ni  Ni5  1  0.000000  0.500000  0.674623  1
  Ni  Ni6  1  0.500000  0.500000  0.500000  1
  Ni  Ni7  1  0.500000  0.000000  0.000000  1
  Ni  Ni8  1  0.500000  0.748540  0.247638  1
  Ni  Ni9  1  0.500000  0.251460  0.752362  1
  Ni  Ni10  1  0.500000  0.251460  0.247638  1
  Ni  Ni11  1  0.500000  0.748540  0.752362  1
