# generated using pymatgen
data_Pr2Nd2CrMo5O24
_symmetry_space_group_name_H-M   'P 1'
_cell_length_a   7.62144938
_cell_length_b   7.62144906
_cell_length_c   10.96605354
_cell_angle_alpha   89.79027663
_cell_angle_beta   89.79027231
_cell_angle_gamma   90.31473526
_symmetry_Int_Tables_number   1
_chemical_formula_structural   Pr2Nd2CrMo5O24
_chemical_formula_sum   'Pr2 Nd2 Cr1 Mo5 O24'
_cell_volume   636.96134730
_cell_formula_units_Z   1
loop_
 _symmetry_equiv_pos_site_id
 _symmetry_equiv_pos_as_xyz
  1  'x, y, z'
loop_
 _atom_site_type_symbol
 _atom_site_label
 _atom_site_symmetry_multiplicity
 _atom_site_fract_x
 _atom_site_fract_y
 _atom_site_fract_z
 _atom_site_occupancy
  Pr  Pr0  1  0.687231  0.806840  0.263641  1
  Pr  Pr1  1  0.306840  0.187231  0.263641  1
  Nd  Nd2  1  0.189287  0.689287  0.733305  1
  Nd  Nd3  1  0.810952  0.310952  0.739536  1
  Cr  Cr4  1  0.210084  0.710084  0.356537  1
  Mo  Mo5  1  0.789366  0.289366  0.356856  1
  Mo  Mo6  1  0.710042  0.791781  0.644822  1
  Mo  Mo7  1  0.291781  0.210042  0.644822  1
  Mo  Mo8  1  0.002691  0.996918  0.998714  1
  Mo  Mo9  1  0.496918  0.502691  0.998714  1
  O  O10  1  0.996587  0.223851  0.297123  1
  O  O11  1  0.015537  0.768257  0.303484  1
  O  O12  1  0.224718  0.000426  0.701196  1
  O  O13  1  0.500426  0.724718  0.701196  1
  O  O14  1  0.774232  0.999537  0.704385  1
  O  O15  1  0.499537  0.274232  0.704385  1
  O  O16  1  0.268257  0.515537  0.303484  1
  O  O17  1  0.723851  0.496587  0.297123  1
  O  O18  1  0.189877  0.041907  0.091692  1
  O  O19  1  0.818848  0.951554  0.096513  1
  O  O20  1  0.045195  0.812500  0.902298  1
  O  O21  1  0.312500  0.545195  0.902298  1
  O  O22  1  0.956577  0.184772  0.905442  1
  O  O23  1  0.684772  0.456577  0.905442  1
  O  O24  1  0.451554  0.318848  0.096513  1
  O  O25  1  0.541907  0.689877  0.091692  1
  O  O26  1  0.625118  0.125118  0.311873  1
  O  O27  1  0.363580  0.863580  0.311671  1
  O  O28  1  0.127519  0.373211  0.689389  1
  O  O29  1  0.873211  0.627519  0.689389  1
  O  O30  1  0.201289  0.701289  0.507850  1
  O  O31  1  0.801806  0.301806  0.518656  1
  O  O32  1  0.701608  0.806305  0.483163  1
  O  O33  1  0.306305  0.201608  0.483163  1
