# generated using pymatgen
data_Er3ScHgAu4
_symmetry_space_group_name_H-M   'P 1'
_cell_length_a   7.94912889
_cell_length_b   7.94913001
_cell_length_c   7.94912891
_cell_angle_alpha   65.76167986
_cell_angle_beta   65.76167876
_cell_angle_gamma   65.76166560
_symmetry_Int_Tables_number   1
_chemical_formula_structural   Er3ScHgAu4
_chemical_formula_sum   'Er6 Sc2 Hg2 Au8'
_cell_volume   399.55906536
_cell_formula_units_Z   2
loop_
 _symmetry_equiv_pos_site_id
 _symmetry_equiv_pos_as_xyz
  1  'x, y, z'
loop_
 _atom_site_type_symbol
 _atom_site_label
 _atom_site_symmetry_multiplicity
 _atom_site_fract_x
 _atom_site_fract_y
 _atom_site_fract_z
 _atom_site_occupancy
  Er  Er0  1  0.892926  0.189936  0.609916  1
  Er  Er1  1  0.609916  0.892926  0.189936  1
  Er  Er2  1  0.189936  0.609916  0.892926  1
  Er  Er3  1  0.107074  0.810064  0.390084  1
  Er  Er4  1  0.390084  0.107074  0.810064  1
  Er  Er5  1  0.810064  0.390084  0.107074  1
  Sc  Sc6  1  0.662183  0.662183  0.662183  1
  Sc  Sc7  1  0.337817  0.337817  0.337817  1
  Hg  Hg8  1  0.000000  0.000000  0.000000  1
  Hg  Hg9  1  0.500000  0.500000  0.500000  1
  Au  Au10  1  0.807802  0.807802  0.807802  1
  Au  Au11  1  0.192198  0.192198  0.192198  1
  Au  Au12  1  0.936868  0.552248  0.318055  1
  Au  Au13  1  0.318055  0.936868  0.552248  1
  Au  Au14  1  0.552248  0.318055  0.936868  1
  Au  Au15  1  0.063132  0.447752  0.681945  1
  Au  Au16  1  0.681945  0.063132  0.447752  1
  Au  Au17  1  0.447752  0.681945  0.063132  1
