# generated using pymatgen
data_Cs3Dy(PS4)2
_symmetry_space_group_name_H-M   'P 1'
_cell_length_a   10.07011411
_cell_length_b   7.00048000
_cell_length_c   12.03038821
_cell_angle_alpha   90.00000000
_cell_angle_beta   88.80950896
_cell_angle_gamma   90.00000000
_symmetry_Int_Tables_number   1
_chemical_formula_structural   Cs3Dy(PS4)2
_chemical_formula_sum   'Cs6 Dy2 P4 S16'
_cell_volume   847.90676100
_cell_formula_units_Z   2
loop_
 _symmetry_equiv_pos_site_id
 _symmetry_equiv_pos_as_xyz
  1  'x, y, z'
loop_
 _atom_site_type_symbol
 _atom_site_label
 _atom_site_symmetry_multiplicity
 _atom_site_fract_x
 _atom_site_fract_y
 _atom_site_fract_z
 _atom_site_occupancy
  Cs  Cs0  1  0.363115  0.803063  0.086484  1
  Cs  Cs1  1  0.395944  0.308313  0.343643  1
  Cs  Cs2  1  0.836384  0.307948  0.432713  1
  Cs  Cs3  1  0.163616  0.807948  0.567288  1
  Cs  Cs4  1  0.604056  0.808313  0.656357  1
  Cs  Cs5  1  0.636886  0.303063  0.913516  1
  Dy  Dy6  1  0.890231  0.786648  0.144522  1
  Dy  Dy7  1  0.109769  0.286648  0.855478  1
  P  P8  1  0.081623  0.329916  0.148344  1
  P  P9  1  0.642117  0.808493  0.305342  1
  P  P10  1  0.357883  0.308492  0.694658  1
  P  P11  1  0.918377  0.829916  0.851656  1
  S  S12  1  0.938017  0.399297  0.035209  1
  S  S13  1  0.254046  0.306071  0.054686  1
  S  S14  1  0.670683  0.038796  0.200874  1
  S  S15  1  0.664859  0.567747  0.206015  1
  S  S16  1  0.050932  0.085522  0.240251  1
  S  S17  1  0.085359  0.561519  0.254179  1
  S  S18  1  0.462317  0.812558  0.383917  1
  S  S19  1  0.806426  0.806391  0.403588  1
  S  S20  1  0.193575  0.306390  0.596412  1
  S  S21  1  0.537682  0.312557  0.616083  1
  S  S22  1  0.914641  0.061518  0.745821  1
  S  S23  1  0.949068  0.585522  0.759749  1
  S  S24  1  0.335141  0.067748  0.793985  1
  S  S25  1  0.329317  0.538794  0.799126  1
  S  S26  1  0.745953  0.806072  0.945314  1
  S  S27  1  0.061983  0.899297  0.964790  1
