# generated using pymatgen
data_Zr10Tl2Si2SnBi3
_symmetry_space_group_name_H-M   'P 1'
_cell_length_a   8.80249357
_cell_length_b   8.81314988
_cell_length_c   5.93166600
_cell_angle_alpha   90.00000000
_cell_angle_beta   90.00000000
_cell_angle_gamma   120.04005538
_symmetry_Int_Tables_number   1
_chemical_formula_structural   Zr10Tl2Si2SnBi3
_chemical_formula_sum   'Zr10 Tl2 Si2 Sn1 Bi3'
_cell_volume   398.35361212
_cell_formula_units_Z   1
loop_
 _symmetry_equiv_pos_site_id
 _symmetry_equiv_pos_as_xyz
  1  'x, y, z'
loop_
 _atom_site_type_symbol
 _atom_site_label
 _atom_site_symmetry_multiplicity
 _atom_site_fract_x
 _atom_site_fract_y
 _atom_site_fract_z
 _atom_site_occupancy
  Zr  Zr0  1  0.669901  0.333805  0.004306  1
  Zr  Zr1  1  0.330099  0.663905  0.004306  1
  Zr  Zr2  1  0.330099  0.663905  0.495694  1
  Zr  Zr3  1  0.669901  0.333805  0.495694  1
  Zr  Zr4  1  0.749682  0.749002  0.750000  1
  Zr  Zr5  1  0.250318  0.999320  0.750000  1
  Zr  Zr6  1  0.000000  0.253261  0.750000  1
  Zr  Zr7  1  0.256248  0.260218  0.250000  1
  Zr  Zr8  1  0.743752  0.003971  0.250000  1
  Zr  Zr9  1  0.000000  0.738533  0.250000  1
  Tl  Tl10  1  0.611310  0.611483  0.250000  1
  Tl  Tl11  1  0.388690  0.000173  0.250000  1
  Si  Si12  1  0.000000  0.999244  0.005915  1
  Si  Si13  1  0.000000  0.999244  0.494085  1
  Sn  Sn14  1  0.000000  0.391487  0.250000  1
  Bi  Bi15  1  0.399959  0.398124  0.750000  1
  Bi  Bi16  1  0.600041  0.998166  0.750000  1
  Bi  Bi17  1  0.000000  0.602354  0.750000  1
