# generated using pymatgen
data_Dy3Y3NiCl10
_symmetry_space_group_name_H-M   'P 1'
_cell_length_a   7.01235618
_cell_length_b   8.82202749
_cell_length_c   8.87760200
_cell_angle_alpha   108.27759799
_cell_angle_beta   96.37529489
_cell_angle_gamma   105.65181292
_symmetry_Int_Tables_number   1
_chemical_formula_structural   Dy3Y3NiCl10
_chemical_formula_sum   'Dy3 Y3 Ni1 Cl10'
_cell_volume   490.52042744
_cell_formula_units_Z   1
loop_
 _symmetry_equiv_pos_site_id
 _symmetry_equiv_pos_as_xyz
  1  'x, y, z'
loop_
 _atom_site_type_symbol
 _atom_site_label
 _atom_site_symmetry_multiplicity
 _atom_site_fract_x
 _atom_site_fract_y
 _atom_site_fract_z
 _atom_site_occupancy
  Dy  Dy0  1  0.968268  0.301957  0.096606  1
  Dy  Dy1  1  0.638077  0.862505  0.816749  1
  Dy  Dy2  1  0.362216  0.137718  0.183252  1
  Y  Y3  1  0.866587  0.948606  0.247759  1
  Y  Y4  1  0.133913  0.050763  0.752167  1
  Y  Y5  1  0.031366  0.696674  0.902937  1
  Ni  Ni6  1  0.000815  0.999867  0.000489  1
  Cl  Cl7  1  0.648491  0.549761  0.730811  1
  Cl  Cl8  1  0.348592  0.450233  0.268683  1
  Cl  Cl9  1  0.754771  0.920488  0.547247  1
  Cl  Cl10  1  0.245970  0.080202  0.453022  1
  Cl  Cl11  1  0.914234  0.630429  0.169230  1
  Cl  Cl12  1  0.084861  0.369252  0.831072  1
  Cl  Cl13  1  0.548880  0.175272  0.918545  1
  Cl  Cl14  1  0.451989  0.825998  0.082087  1
  Cl  Cl15  1  0.218754  0.747805  0.656498  1
  Cl  Cl16  1  0.782219  0.252470  0.342846  1
