# generated using pymatgen
data_Tm12ZnCo4Bi
_symmetry_space_group_name_H-M   'P 1'
_cell_length_a   8.26802095
_cell_length_b   8.26802034
_cell_length_c   8.26802041
_cell_angle_alpha   109.90975502
_cell_angle_beta   111.40591719
_cell_angle_gamma   107.12679951
_symmetry_Int_Tables_number   1
_chemical_formula_structural   Tm12ZnCo4Bi
_chemical_formula_sum   'Tm12 Zn1 Co4 Bi1'
_cell_volume   434.47271667
_cell_formula_units_Z   1
loop_
 _symmetry_equiv_pos_site_id
 _symmetry_equiv_pos_as_xyz
  1  'x, y, z'
loop_
 _atom_site_type_symbol
 _atom_site_label
 _atom_site_symmetry_multiplicity
 _atom_site_fract_x
 _atom_site_fract_y
 _atom_site_fract_z
 _atom_site_occupancy
  Tm  Tm0  1  0.285824  0.182318  0.468142  1
  Tm  Tm1  1  0.714176  0.817682  0.531858  1
  Tm  Tm2  1  0.285824  0.817682  0.103506  1
  Tm  Tm3  1  0.714176  0.182318  0.896494  1
  Tm  Tm4  1  0.621691  0.313354  0.308337  1
  Tm  Tm5  1  0.378309  0.686646  0.691663  1
  Tm  Tm6  1  0.005017  0.313354  0.691663  1
  Tm  Tm7  1  0.994983  0.686646  0.308337  1
  Tm  Tm8  1  0.219223  0.426049  0.206826  1
  Tm  Tm9  1  0.780777  0.573951  0.793174  1
  Tm  Tm10  1  0.219223  0.012397  0.793174  1
  Tm  Tm11  1  0.780777  0.987603  0.206826  1
  Zn  Zn12  1  0.000000  0.000000  0.000000  1
  Co  Co13  1  0.000000  0.376637  0.376637  1
  Co  Co14  1  0.000000  0.623363  0.623363  1
  Co  Co15  1  0.387432  0.887432  0.500000  1
  Co  Co16  1  0.612568  0.112568  0.500000  1
  Bi  Bi17  1  0.500000  0.500000  0.000000  1
