# generated using pymatgen
data_PrNd2Dy(AsPt)4
_symmetry_space_group_name_H-M   'P 1'
_cell_length_a   4.32709900
_cell_length_b   4.32709955
_cell_length_c   16.08702100
_cell_angle_alpha   90.00000000
_cell_angle_beta   90.00000000
_cell_angle_gamma   120.00000347
_symmetry_Int_Tables_number   1
_chemical_formula_structural   PrNd2Dy(AsPt)4
_chemical_formula_sum   'Pr1 Nd2 Dy1 As4 Pt4'
_cell_volume   260.85547904
_cell_formula_units_Z   1
loop_
 _symmetry_equiv_pos_site_id
 _symmetry_equiv_pos_as_xyz
  1  'x, y, z'
loop_
 _atom_site_type_symbol
 _atom_site_label
 _atom_site_symmetry_multiplicity
 _atom_site_fract_x
 _atom_site_fract_y
 _atom_site_fract_z
 _atom_site_occupancy
  Pr  Pr0  1  0.000000  0.000000  0.505627  1
  Nd  Nd1  1  0.000000  0.000000  0.994464  1
  Nd  Nd2  1  0.000000  0.000000  0.249819  1
  Dy  Dy3  1  0.000000  0.000000  0.750172  1
  As  As4  1  0.333333  0.666667  0.878373  1
  As  As5  1  0.666667  0.333333  0.119795  1
  As  As6  1  0.666667  0.333333  0.379026  1
  As  As7  1  0.333333  0.666667  0.622988  1
  Pt  Pt8  1  0.333333  0.666667  0.373810  1
  Pt  Pt9  1  0.666667  0.333333  0.645578  1
  Pt  Pt10  1  0.666667  0.333333  0.855738  1
  Pt  Pt11  1  0.333333  0.666667  0.124612  1
