# generated using pymatgen
data_YbTmReOs3
_symmetry_space_group_name_H-M   'P 1'
_cell_length_a   5.34037217
_cell_length_b   5.34037088
_cell_length_c   8.61966255
_cell_angle_alpha   90.20450102
_cell_angle_beta   89.79549652
_cell_angle_gamma   118.63009039
_symmetry_Int_Tables_number   1
_chemical_formula_structural   YbTmReOs3
_chemical_formula_sum   'Yb2 Tm2 Re2 Os6'
_cell_volume   215.77003403
_cell_formula_units_Z   2
loop_
 _symmetry_equiv_pos_site_id
 _symmetry_equiv_pos_as_xyz
  1  'x, y, z'
loop_
 _atom_site_type_symbol
 _atom_site_label
 _atom_site_symmetry_multiplicity
 _atom_site_fract_x
 _atom_site_fract_y
 _atom_site_fract_z
 _atom_site_occupancy
  Yb  Yb0  1  0.666055  0.333945  0.938835  1
  Yb  Yb1  1  0.332122  0.667878  0.058274  1
  Tm  Tm2  1  0.332018  0.667982  0.428562  1
  Tm  Tm3  1  0.666711  0.333289  0.574085  1
  Re  Re4  1  0.994937  0.005063  0.501016  1
  Re  Re5  1  0.829394  0.170606  0.250271  1
  Os  Os6  1  0.995062  0.004938  0.999707  1
  Os  Os7  1  0.829002  0.652769  0.254536  1
  Os  Os8  1  0.347231  0.170998  0.254536  1
  Os  Os9  1  0.176032  0.823968  0.746143  1
  Os  Os10  1  0.173813  0.342377  0.747017  1
  Os  Os11  1  0.657623  0.826187  0.747017  1
