# generated using pymatgen
data_Th3AlIn2CuRh2
_symmetry_space_group_name_H-M   'P 1'
_cell_length_a   7.44907100
_cell_length_b   7.53377263
_cell_length_c   4.09643300
_cell_angle_alpha   90.00000000
_cell_angle_beta   90.00000000
_cell_angle_gamma   119.62876568
_symmetry_Int_Tables_number   1
_chemical_formula_structural   Th3AlIn2CuRh2
_chemical_formula_sum   'Th3 Al1 In2 Cu1 Rh2'
_cell_volume   199.83133784
_cell_formula_units_Z   1
loop_
 _symmetry_equiv_pos_site_id
 _symmetry_equiv_pos_as_xyz
  1  'x, y, z'
loop_
 _atom_site_type_symbol
 _atom_site_label
 _atom_site_symmetry_multiplicity
 _atom_site_fract_x
 _atom_site_fract_y
 _atom_site_fract_z
 _atom_site_occupancy
  Th  Th0  1  0.992289  0.413450  0.500000  1
  Th  Th1  1  0.578839  0.586550  0.500000  1
  Th  Th2  1  0.429391  0.000000  0.500000  1
  Al  Al3  1  0.760956  0.000000  0.000000  1
  In  In4  1  0.999143  0.760910  0.000000  1
  In  In5  1  0.238233  0.239090  0.000000  1
  Cu  Cu6  1  0.975568  0.000000  0.500000  1
  Rh  Rh7  1  0.352735  0.679889  0.000000  1
  Rh  Rh8  1  0.672847  0.320111  0.000000  1
