# generated using pymatgen
data_KCrTe3O8
_symmetry_space_group_name_H-M   'P 1'
_cell_length_a   5.61478303
_cell_length_b   7.48238224
_cell_length_c   10.89704464
_cell_angle_alpha   99.06908681
_cell_angle_beta   89.57034901
_cell_angle_gamma   108.51031220
_symmetry_Int_Tables_number   1
_chemical_formula_structural   KCrTe3O8
_chemical_formula_sum   'K2 Cr2 Te6 O16'
_cell_volume   428.25260005
_cell_formula_units_Z   2
loop_
 _symmetry_equiv_pos_site_id
 _symmetry_equiv_pos_as_xyz
  1  'x, y, z'
loop_
 _atom_site_type_symbol
 _atom_site_label
 _atom_site_symmetry_multiplicity
 _atom_site_fract_x
 _atom_site_fract_y
 _atom_site_fract_z
 _atom_site_occupancy
  K  K0  1  0.834698  0.115577  0.168366  1
  K  K1  1  0.165302  0.884423  0.831634  1
  Cr  Cr2  1  0.500000  0.500000  0.000000  1
  Cr  Cr3  1  0.000000  0.500000  0.500000  1
  Te  Te4  1  0.226287  0.986715  0.413364  1
  Te  Te5  1  0.773713  0.013285  0.586636  1
  Te  Te6  1  0.056473  0.661330  0.144411  1
  Te  Te7  1  0.943527  0.338670  0.855589  1
  Te  Te8  1  0.522167  0.533656  0.337091  1
  Te  Te9  1  0.477833  0.466344  0.662909  1
  O  O10  1  0.177881  0.723418  0.414899  1
  O  O11  1  0.822119  0.276582  0.585101  1
  O  O12  1  0.242183  0.925426  0.219886  1
  O  O13  1  0.757817  0.074574  0.780114  1
  O  O14  1  0.880497  0.971495  0.393108  1
  O  O15  1  0.119503  0.028505  0.606892  1
  O  O16  1  0.260682  0.660146  0.003052  1
  O  O17  1  0.739318  0.339854  0.996948  1
  O  O18  1  0.798277  0.731018  0.072695  1
  O  O19  1  0.201723  0.268982  0.927305  1
  O  O20  1  0.387644  0.432782  0.170616  1
  O  O21  1  0.612356  0.567218  0.829384  1
  O  O22  1  0.245959  0.372055  0.415375  1
  O  O23  1  0.754041  0.627945  0.584625  1
  O  O24  1  0.745198  0.390241  0.349818  1
  O  O25  1  0.254802  0.609759  0.650182  1
