# generated using pymatgen
data_Pr16MgHg3Ru3Rh
_symmetry_space_group_name_H-M   'P 1'
_cell_length_a   9.97001995
_cell_length_b   10.05241452
_cell_length_c   10.05255887
_cell_angle_alpha   59.77353990
_cell_angle_beta   59.61499483
_cell_angle_gamma   59.61557539
_symmetry_Int_Tables_number   1
_chemical_formula_structural   Pr16MgHg3Ru3Rh
_chemical_formula_sum   'Pr16 Mg1 Hg3 Ru3 Rh1'
_cell_volume   707.03017538
_cell_formula_units_Z   1
loop_
 _symmetry_equiv_pos_site_id
 _symmetry_equiv_pos_as_xyz
  1  'x, y, z'
loop_
 _atom_site_type_symbol
 _atom_site_label
 _atom_site_symmetry_multiplicity
 _atom_site_fract_x
 _atom_site_fract_y
 _atom_site_fract_z
 _atom_site_occupancy
  Pr  Pr0  1  0.344584  0.347123  0.347124  1
  Pr  Pr1  1  0.344496  0.346393  0.960058  1
  Pr  Pr2  1  0.344496  0.960068  0.346389  1
  Pr  Pr3  1  0.953280  0.348053  0.348053  1
  Pr  Pr4  1  0.808395  0.192832  0.192849  1
  Pr  Pr5  1  0.188187  0.811366  0.811364  1
  Pr  Pr6  1  0.188729  0.810688  0.189181  1
  Pr  Pr7  1  0.809219  0.193101  0.806427  1
  Pr  Pr8  1  0.188725  0.189184  0.810689  1
  Pr  Pr9  1  0.809224  0.806404  0.193100  1
  Pr  Pr10  1  0.938413  0.562292  0.562293  1
  Pr  Pr11  1  0.559173  0.939388  0.939378  1
  Pr  Pr12  1  0.559468  0.939135  0.563969  1
  Pr  Pr13  1  0.939482  0.560886  0.939237  1
  Pr  Pr14  1  0.559456  0.563968  0.939134  1
  Pr  Pr15  1  0.939493  0.939227  0.560896  1
  Mg  Mg16  1  0.289036  0.569782  0.569770  1
  Hg  Hg17  1  0.580271  0.586047  0.586046  1
  Hg  Hg18  1  0.580211  0.586177  0.247404  1
  Hg  Hg19  1  0.580204  0.247403  0.586181  1
  Ru  Ru20  1  0.138247  0.138426  0.138432  1
  Ru  Ru21  1  0.138850  0.138106  0.583899  1
  Ru  Ru22  1  0.138906  0.583897  0.138085  1
  Rh  Rh23  1  0.579455  0.140056  0.140039  1
