# generated using pymatgen
data_Li2LaDy2Al7
_symmetry_space_group_name_H-M   'P 1'
_cell_length_a   9.41860479
_cell_length_b   9.41860402
_cell_length_c   9.41860478
_cell_angle_alpha   34.45275205
_cell_angle_beta   34.45276012
_cell_angle_gamma   34.45274645
_symmetry_Int_Tables_number   1
_chemical_formula_structural   Li2LaDy2Al7
_chemical_formula_sum   'Li2 La1 Dy2 Al7'
_cell_volume   238.54091772
_cell_formula_units_Z   1
loop_
 _symmetry_equiv_pos_site_id
 _symmetry_equiv_pos_as_xyz
  1  'x, y, z'
loop_
 _atom_site_type_symbol
 _atom_site_label
 _atom_site_symmetry_multiplicity
 _atom_site_fract_x
 _atom_site_fract_y
 _atom_site_fract_z
 _atom_site_occupancy
  Li  Li0  1  0.664613  0.664613  0.664613  1
  Li  Li1  1  0.335387  0.335387  0.335387  1
  La  La2  1  0.000000  0.000000  0.000000  1
  Dy  Dy3  1  0.141353  0.141353  0.141353  1
  Dy  Dy4  1  0.858647  0.858647  0.858647  1
  Al  Al5  1  0.413144  0.413144  0.922282  1
  Al  Al6  1  0.922282  0.413144  0.413144  1
  Al  Al7  1  0.500000  0.500000  0.500000  1
  Al  Al8  1  0.586856  0.586856  0.077718  1
  Al  Al9  1  0.413144  0.922282  0.413144  1
  Al  Al10  1  0.077718  0.586856  0.586856  1
  Al  Al11  1  0.586856  0.077718  0.586856  1
