# generated using pymatgen
data_Li2LaTb2Al7
_symmetry_space_group_name_H-M   'P 1'
_cell_length_a   9.43773527
_cell_length_b   9.43773501
_cell_length_c   9.43773470
_cell_angle_alpha   34.44747635
_cell_angle_beta   34.44747743
_cell_angle_gamma   34.44747075
_symmetry_Int_Tables_number   1
_chemical_formula_structural   Li2LaTb2Al7
_chemical_formula_sum   'Li2 La1 Tb2 Al7'
_cell_volume   239.93081882
_cell_formula_units_Z   1
loop_
 _symmetry_equiv_pos_site_id
 _symmetry_equiv_pos_as_xyz
  1  'x, y, z'
loop_
 _atom_site_type_symbol
 _atom_site_label
 _atom_site_symmetry_multiplicity
 _atom_site_fract_x
 _atom_site_fract_y
 _atom_site_fract_z
 _atom_site_occupancy
  Li  Li0  1  0.664594  0.664594  0.664594  1
  Li  Li1  1  0.335406  0.335406  0.335406  1
  La  La2  1  0.000000  0.000000  0.000000  1
  Tb  Tb3  1  0.141258  0.141258  0.141258  1
  Tb  Tb4  1  0.858742  0.858742  0.858742  1
  Al  Al5  1  0.413380  0.413380  0.922436  1
  Al  Al6  1  0.922436  0.413380  0.413380  1
  Al  Al7  1  0.500000  0.500000  0.500000  1
  Al  Al8  1  0.586620  0.586620  0.077564  1
  Al  Al9  1  0.413380  0.922436  0.413380  1
  Al  Al10  1  0.077564  0.586620  0.586620  1
  Al  Al11  1  0.586620  0.077564  0.586620  1
