# generated using pymatgen
data_CaYb(PrTl)2
_symmetry_space_group_name_H-M   'P 1'
_cell_length_a   5.55371000
_cell_length_b   5.55371005
_cell_length_c   6.99549800
_cell_angle_alpha   90.00000000
_cell_angle_beta   90.00000000
_cell_angle_gamma   119.99999972
_symmetry_Int_Tables_number   1
_chemical_formula_structural   CaYb(PrTl)2
_chemical_formula_sum   'Ca1 Yb1 Pr2 Tl2'
_cell_volume   186.85970979
_cell_formula_units_Z   1
loop_
 _symmetry_equiv_pos_site_id
 _symmetry_equiv_pos_as_xyz
  1  'x, y, z'
loop_
 _atom_site_type_symbol
 _atom_site_label
 _atom_site_symmetry_multiplicity
 _atom_site_fract_x
 _atom_site_fract_y
 _atom_site_fract_z
 _atom_site_occupancy
  Ca  Ca0  1  0.000000  0.000000  0.000000  1
  Yb  Yb1  1  0.000000  0.000000  0.500000  1
  Pr  Pr2  1  0.333333  0.666667  0.746474  1
  Pr  Pr3  1  0.666667  0.333333  0.253526  1
  Tl  Tl4  1  0.666667  0.333333  0.755908  1
  Tl  Tl5  1  0.333333  0.666667  0.244092  1
