# generated using pymatgen
data_Pr2Er2ScGa4
_symmetry_space_group_name_H-M   'P 1'
_cell_length_a   7.56676100
_cell_length_b   7.86456200
_cell_length_c   15.15619800
_cell_angle_alpha   90.00000000
_cell_angle_beta   90.00000000
_cell_angle_gamma   90.00000000
_symmetry_Int_Tables_number   1
_chemical_formula_structural   Pr2Er2ScGa4
_chemical_formula_sum   'Pr8 Er8 Sc4 Ga16'
_cell_volume   901.93414291
_cell_formula_units_Z   4
loop_
 _symmetry_equiv_pos_site_id
 _symmetry_equiv_pos_as_xyz
  1  'x, y, z'
loop_
 _atom_site_type_symbol
 _atom_site_label
 _atom_site_symmetry_multiplicity
 _atom_site_fract_x
 _atom_site_fract_y
 _atom_site_fract_z
 _atom_site_occupancy
  Pr  Pr0  1  0.017276  0.177918  0.403230  1
  Pr  Pr1  1  0.517276  0.322082  0.403230  1
  Pr  Pr2  1  0.482724  0.677918  0.903230  1
  Pr  Pr3  1  0.482724  0.677918  0.596770  1
  Pr  Pr4  1  0.982724  0.822082  0.596770  1
  Pr  Pr5  1  0.982724  0.822082  0.903230  1
  Pr  Pr6  1  0.517276  0.322082  0.096770  1
  Pr  Pr7  1  0.017276  0.177918  0.096770  1
  Er  Er8  1  0.325478  0.175899  0.624194  1
  Er  Er9  1  0.674522  0.824101  0.375806  1
  Er  Er10  1  0.174522  0.675899  0.375806  1
  Er  Er11  1  0.825478  0.324101  0.875806  1
  Er  Er12  1  0.825478  0.324101  0.624194  1
  Er  Er13  1  0.325478  0.175899  0.875806  1
  Er  Er14  1  0.174522  0.675899  0.124194  1
  Er  Er15  1  0.674522  0.824101  0.124194  1
  Sc  Sc16  1  0.657995  0.992395  0.750000  1
  Sc  Sc17  1  0.842005  0.492395  0.250000  1
  Sc  Sc18  1  0.342005  0.007605  0.250000  1
  Sc  Sc19  1  0.157995  0.507605  0.750000  1
  Ga  Ga20  1  0.281773  0.874664  0.750000  1
  Ga  Ga21  1  0.474375  0.609454  0.250000  1
  Ga  Ga22  1  0.025625  0.109454  0.750000  1
  Ga  Ga23  1  0.525625  0.390546  0.750000  1
  Ga  Ga24  1  0.153584  0.467735  0.540980  1
  Ga  Ga25  1  0.974375  0.890546  0.250000  1
  Ga  Ga26  1  0.718227  0.125336  0.250000  1
  Ga  Ga27  1  0.846416  0.532265  0.040980  1
  Ga  Ga28  1  0.346416  0.967735  0.040980  1
  Ga  Ga29  1  0.153584  0.467735  0.959020  1
  Ga  Ga30  1  0.653584  0.032265  0.540980  1
  Ga  Ga31  1  0.346416  0.967735  0.459020  1
  Ga  Ga32  1  0.846416  0.532265  0.459020  1
  Ga  Ga33  1  0.781773  0.625336  0.750000  1
  Ga  Ga34  1  0.218227  0.374664  0.250000  1
  Ga  Ga35  1  0.653584  0.032265  0.959020  1
