# generated using pymatgen
data_La3Sb5Pd5Au
_symmetry_space_group_name_H-M   'P 1'
_cell_length_a   13.51222400
_cell_length_b   4.51003400
_cell_length_c   10.27535500
_cell_angle_alpha   90.00000000
_cell_angle_beta   90.00000000
_cell_angle_gamma   90.00000000
_symmetry_Int_Tables_number   1
_chemical_formula_structural   La3Sb5Pd5Au
_chemical_formula_sum   'La6 Sb10 Pd10 Au2'
_cell_volume   626.18619262
_cell_formula_units_Z   2
loop_
 _symmetry_equiv_pos_site_id
 _symmetry_equiv_pos_as_xyz
  1  'x, y, z'
loop_
 _atom_site_type_symbol
 _atom_site_label
 _atom_site_symmetry_multiplicity
 _atom_site_fract_x
 _atom_site_fract_y
 _atom_site_fract_z
 _atom_site_occupancy
  La  La0  1  0.571654  0.250000  0.753102  1
  La  La1  1  0.750000  0.749998  0.244712  1
  La  La2  1  0.250000  0.250000  0.755288  1
  La  La3  1  0.928347  0.250000  0.753102  1
  La  La4  1  0.071653  0.749998  0.246898  1
  La  La5  1  0.428347  0.749998  0.246898  1
  Sb  Sb6  1  0.588189  0.250000  0.128378  1
  Sb  Sb7  1  0.911811  0.250000  0.128378  1
  Sb  Sb8  1  0.088189  0.749998  0.871623  1
  Sb  Sb9  1  0.411812  0.749998  0.871623  1
  Sb  Sb10  1  0.250000  0.250000  0.178479  1
  Sb  Sb11  1  0.750000  0.749998  0.821521  1
  Sb  Sb12  1  0.389093  0.250000  0.480944  1
  Sb  Sb13  1  0.110906  0.250000  0.480944  1
  Sb  Sb14  1  0.889094  0.749998  0.519057  1
  Sb  Sb15  1  0.610906  0.749998  0.519057  1
  Pd  Pd16  1  0.577613  0.250000  0.383456  1
  Pd  Pd17  1  0.922388  0.250000  0.383456  1
  Pd  Pd18  1  0.077612  0.749998  0.616544  1
  Pd  Pd19  1  0.422387  0.749998  0.616544  1
  Pd  Pd20  1  0.250000  0.749998  0.023581  1
  Pd  Pd21  1  0.750000  0.250000  0.976419  1
  Pd  Pd22  1  0.406338  0.250000  0.013394  1
  Pd  Pd23  1  0.093661  0.250000  0.013394  1
  Pd  Pd24  1  0.906339  0.749998  0.986606  1
  Pd  Pd25  1  0.593662  0.749998  0.986606  1
  Au  Au26  1  0.250000  0.749998  0.464148  1
  Au  Au27  1  0.750000  0.250000  0.535851  1
