# generated using pymatgen
data_Ho3ErSc4(ReB6)4
_symmetry_space_group_name_H-M   'P 1'
_cell_length_a   3.57833200
_cell_length_b   8.99747900
_cell_length_c   11.36773000
_cell_angle_alpha   90.00101346
_cell_angle_beta   90.00000000
_cell_angle_gamma   90.00000000
_symmetry_Int_Tables_number   1
_chemical_formula_structural   Ho3ErSc4(ReB6)4
_chemical_formula_sum   'Ho3 Er1 Sc4 Re4 B24'
_cell_volume   365.99506020
_cell_formula_units_Z   1
loop_
 _symmetry_equiv_pos_site_id
 _symmetry_equiv_pos_as_xyz
  1  'x, y, z'
loop_
 _atom_site_type_symbol
 _atom_site_label
 _atom_site_symmetry_multiplicity
 _atom_site_fract_x
 _atom_site_fract_y
 _atom_site_fract_z
 _atom_site_occupancy
  Ho  Ho0  1  0.000000  0.321818  0.413942  1
  Ho  Ho1  1  0.000000  0.678147  0.586040  1
  Ho  Ho2  1  0.000000  0.821805  0.086018  1
  Er  Er3  1  0.000000  0.178151  0.913967  1
  Sc  Sc4  1  0.000000  0.944167  0.370395  1
  Sc  Sc5  1  0.000000  0.055849  0.629607  1
  Sc  Sc6  1  0.000000  0.444136  0.129528  1
  Sc  Sc7  1  0.000000  0.555777  0.870464  1
  Re  Re8  1  0.000000  0.640642  0.318628  1
  Re  Re9  1  0.000000  0.359301  0.681512  1
  Re  Re10  1  0.000000  0.140633  0.181274  1
  Re  Re11  1  0.000000  0.859537  0.818596  1
  B  B12  1  0.500000  0.554227  0.432851  1
  B  B13  1  0.500000  0.445767  0.567166  1
  B  B14  1  0.500000  0.054296  0.067015  1
  B  B15  1  0.500000  0.945931  0.932844  1
  B  B16  1  0.500000  0.754509  0.418822  1
  B  B17  1  0.500000  0.245477  0.581207  1
  B  B18  1  0.500000  0.254457  0.081024  1
  B  B19  1  0.500000  0.745528  0.918779  1
  B  B20  1  0.500000  0.795313  0.264775  1
  B  B21  1  0.500000  0.204630  0.735360  1
  B  B22  1  0.500000  0.295341  0.235176  1
  B  B23  1  0.500000  0.704666  0.764824  1
  B  B24  1  0.500000  0.629309  0.182978  1
  B  B25  1  0.500000  0.370539  0.817108  1
  B  B26  1  0.500000  0.129325  0.316993  1
  B  B27  1  0.500000  0.870702  0.683046  1
  B  B28  1  0.500000  0.981337  0.213553  1
  B  B29  1  0.500000  0.018834  0.786546  1
  B  B30  1  0.500000  0.481295  0.286374  1
  B  B31  1  0.500000  0.518684  0.713626  1
  B  B32  1  0.500000  0.595746  0.026221  1
  B  B33  1  0.500000  0.404098  0.973716  1
  B  B34  1  0.500000  0.095724  0.473794  1
  B  B35  1  0.500000  0.904303  0.526231  1
