# generated using pymatgen
data_Tb10Tl5CuPPb
_symmetry_space_group_name_H-M   'P 1'
_cell_length_a   9.17751611
_cell_length_b   9.17751684
_cell_length_c   6.82119964
_cell_angle_alpha   89.92517823
_cell_angle_beta   89.92518323
_cell_angle_gamma   119.81387610
_symmetry_Int_Tables_number   1
_chemical_formula_structural   Tb10Tl5CuPPb
_chemical_formula_sum   'Tb10 Tl5 Cu1 P1 Pb1'
_cell_volume   498.48458809
_cell_formula_units_Z   1
loop_
 _symmetry_equiv_pos_site_id
 _symmetry_equiv_pos_as_xyz
  1  'x, y, z'
loop_
 _atom_site_type_symbol
 _atom_site_label
 _atom_site_symmetry_multiplicity
 _atom_site_fract_x
 _atom_site_fract_y
 _atom_site_fract_z
 _atom_site_occupancy
  Tb  Tb0  1  0.247771  0.001640  0.235319  1
  Tb  Tb1  1  0.755066  0.000724  0.763500  1
  Tb  Tb2  1  0.001640  0.247771  0.235319  1
  Tb  Tb3  1  0.000724  0.755066  0.763500  1
  Tb  Tb4  1  0.754622  0.754622  0.239868  1
  Tb  Tb5  1  0.244415  0.244415  0.764065  1
  Tb  Tb6  1  0.333371  0.664576  0.001423  1
  Tb  Tb7  1  0.664576  0.333371  0.001423  1
  Tb  Tb8  1  0.663528  0.330733  0.498688  1
  Tb  Tb9  1  0.330733  0.663528  0.498688  1
  Tl  Tl10  1  0.597913  0.999711  0.249281  1
  Tl  Tl11  1  0.402855  0.998385  0.751079  1
  Tl  Tl12  1  0.999711  0.597913  0.249281  1
  Tl  Tl13  1  0.998385  0.402855  0.751079  1
  Tl  Tl14  1  0.398502  0.398502  0.249372  1
  Cu  Cu15  1  0.003158  0.003158  0.498402  1
  P  P16  1  0.999498  0.999498  0.000386  1
  Pb  Pb17  1  0.603533  0.603533  0.749325  1
