# generated using pymatgen
data_Ce4As3O4
_symmetry_space_group_name_H-M   'P 1'
_cell_length_a   6.80559167
_cell_length_b   6.80559106
_cell_length_c   8.01029100
_cell_angle_alpha   89.99985903
_cell_angle_beta   90.00014020
_cell_angle_gamma   145.62018229
_symmetry_Int_Tables_number   1
_chemical_formula_structural   Ce4As3O4
_chemical_formula_sum   'Ce4 As3 O4'
_cell_volume   209.49786915
_cell_formula_units_Z   1
loop_
 _symmetry_equiv_pos_site_id
 _symmetry_equiv_pos_as_xyz
  1  'x, y, z'
loop_
 _atom_site_type_symbol
 _atom_site_label
 _atom_site_symmetry_multiplicity
 _atom_site_fract_x
 _atom_site_fract_y
 _atom_site_fract_z
 _atom_site_occupancy
  Ce  Ce0  1  0.311649  0.688351  0.239756  1
  Ce  Ce1  1  0.992388  0.007612  0.500020  1
  Ce  Ce2  1  0.004019  0.995981  0.000038  1
  Ce  Ce3  1  0.311734  0.688266  0.760184  1
  As  As4  1  0.637279  0.362721  0.677212  1
  As  As5  1  0.637203  0.362797  0.322835  1
  As  As6  1  0.685437  0.314563  0.999868  1
  O  O7  1  0.414482  0.585518  0.999735  1
  O  O8  1  0.907766  0.092234  0.753081  1
  O  O9  1  0.907967  0.092033  0.246846  1
  O  O10  1  0.387968  0.612032  0.500424  1
