# generated using pymatgen
data_Tm3Th(CdNi2)2
_symmetry_space_group_name_H-M   'P 1'
_cell_length_a   7.40514896
_cell_length_b   7.40514908
_cell_length_c   3.61465900
_cell_angle_alpha   90.00000000
_cell_angle_beta   90.00000000
_cell_angle_gamma   91.38450695
_symmetry_Int_Tables_number   1
_chemical_formula_structural   Tm3Th(CdNi2)2
_chemical_formula_sum   'Tm3 Th1 Cd2 Ni4'
_cell_volume   198.15641300
_cell_formula_units_Z   1
loop_
 _symmetry_equiv_pos_site_id
 _symmetry_equiv_pos_as_xyz
  1  'x, y, z'
loop_
 _atom_site_type_symbol
 _atom_site_label
 _atom_site_symmetry_multiplicity
 _atom_site_fract_x
 _atom_site_fract_y
 _atom_site_fract_z
 _atom_site_occupancy
  Tm  Tm0  1  0.827950  0.669722  0.500000  1
  Tm  Tm1  1  0.169722  0.327950  0.500000  1
  Tm  Tm2  1  0.673813  0.173813  0.500000  1
  Th  Th3  1  0.327818  0.827818  0.500000  1
  Cd  Cd4  1  0.989254  0.006141  0.000000  1
  Cd  Cd5  1  0.506141  0.489254  0.000000  1
  Ni  Ni6  1  0.376255  0.119839  0.000000  1
  Ni  Ni7  1  0.882625  0.382625  0.000000  1
  Ni  Ni8  1  0.126584  0.626584  0.000000  1
  Ni  Ni9  1  0.619839  0.876255  0.000000  1
