# generated using pymatgen
data_TbDy5Al24(OsRh)4
_symmetry_space_group_name_H-M   'P 1'
_cell_length_a   8.76670800
_cell_length_b   8.84389239
_cell_length_c   9.57678000
_cell_angle_alpha   90.00000000
_cell_angle_beta   90.00000000
_cell_angle_gamma   119.71170921
_symmetry_Int_Tables_number   1
_chemical_formula_structural   TbDy5Al24(OsRh)4
_chemical_formula_sum   'Tb1 Dy5 Al24 Os4 Rh4'
_cell_volume   644.88822461
_cell_formula_units_Z   1
loop_
 _symmetry_equiv_pos_site_id
 _symmetry_equiv_pos_as_xyz
  1  'x, y, z'
loop_
 _atom_site_type_symbol
 _atom_site_label
 _atom_site_symmetry_multiplicity
 _atom_site_fract_x
 _atom_site_fract_y
 _atom_site_fract_z
 _atom_site_occupancy
  Tb  Tb0  1  0.190706  0.381413  0.250000  1
  Dy  Dy1  1  0.809038  0.618075  0.750000  1
  Dy  Dy2  1  0.613949  0.812944  0.250000  1
  Dy  Dy3  1  0.386107  0.187081  0.750000  1
  Dy  Dy4  1  0.198994  0.812944  0.250000  1
  Dy  Dy5  1  0.800975  0.187081  0.750000  1
  Al  Al6  1  0.333706  0.667412  0.024572  1
  Al  Al7  1  0.666390  0.332779  0.975170  1
  Al  Al8  1  0.666390  0.332779  0.524830  1
  Al  Al9  1  0.333706  0.667412  0.475428  1
  Al  Al10  1  0.162885  0.325773  0.577809  1
  Al  Al11  1  0.837139  0.674277  0.422511  1
  Al  Al12  1  0.671980  0.836463  0.576502  1
  Al  Al13  1  0.837139  0.674277  0.077489  1
  Al  Al14  1  0.328133  0.163443  0.423714  1
  Al  Al15  1  0.162885  0.325773  0.922191  1
  Al  Al16  1  0.164482  0.836463  0.576502  1
  Al  Al17  1  0.328133  0.163443  0.076286  1
  Al  Al18  1  0.835311  0.163443  0.423714  1
  Al  Al19  1  0.671980  0.836463  0.923498  1
  Al  Al20  1  0.835311  0.163443  0.076286  1
  Al  Al21  1  0.164482  0.836463  0.923498  1
  Al  Al22  1  0.563675  0.127351  0.250000  1
  Al  Al23  1  0.436323  0.872645  0.750000  1
  Al  Al24  1  0.877893  0.440049  0.250000  1
  Al  Al25  1  0.121915  0.560097  0.750000  1
  Al  Al26  1  0.562156  0.440049  0.250000  1
  Al  Al27  1  0.438182  0.560097  0.750000  1
  Al  Al28  1  0.000800  0.001599  0.250000  1
  Al  Al29  1  0.998911  0.997823  0.750000  1
  Os  Os30  1  0.500016  0.000032  0.999959  1
  Os  Os31  1  0.500016  0.000032  0.500041  1
  Os  Os32  1  0.000065  0.000131  0.000370  1
  Os  Os33  1  0.000065  0.000131  0.499630  1
  Rh  Rh34  1  0.000110  0.500080  0.999996  1
  Rh  Rh35  1  0.499971  0.500080  0.999996  1
  Rh  Rh36  1  0.000110  0.500080  0.500004  1
  Rh  Rh37  1  0.499971  0.500080  0.500004  1
