# generated using pymatgen
data_Dy4Y4Ti11Si16Ru
_symmetry_space_group_name_H-M   'P 1'
_cell_length_a   7.03333922
_cell_length_b   7.03328011
_cell_length_c   12.89553029
_cell_angle_alpha   89.98270778
_cell_angle_beta   90.02251013
_cell_angle_gamma   89.88107694
_symmetry_Int_Tables_number   1
_chemical_formula_structural   Dy4Y4Ti11Si16Ru
_chemical_formula_sum   'Dy4 Y4 Ti11 Si16 Ru1'
_cell_volume   637.90748062
_cell_formula_units_Z   1
loop_
 _symmetry_equiv_pos_site_id
 _symmetry_equiv_pos_as_xyz
  1  'x, y, z'
loop_
 _atom_site_type_symbol
 _atom_site_label
 _atom_site_symmetry_multiplicity
 _atom_site_fract_x
 _atom_site_fract_y
 _atom_site_fract_z
 _atom_site_occupancy
  Dy  Dy0  1  0.840508  0.499724  0.285042  1
  Dy  Dy1  1  0.503082  0.159196  0.218045  1
  Dy  Dy2  1  0.499761  0.840681  0.714904  1
  Dy  Dy3  1  0.341819  0.001429  0.468187  1
  Y  Y4  1  0.996060  0.659560  0.032691  1
  Y  Y5  1  0.001657  0.341586  0.531735  1
  Y  Y6  1  0.659546  0.996059  0.967344  1
  Y  Y7  1  0.159210  0.503239  0.781959  1
  Ti  Ti8  1  0.344237  0.507564  0.374405  1
  Ti  Ti9  1  0.849230  0.995759  0.375667  1
  Ti  Ti10  1  0.006365  0.151926  0.124731  1
  Ti  Ti11  1  0.995883  0.849369  0.624243  1
  Ti  Ti12  1  0.507686  0.344073  0.625500  1
  Ti  Ti13  1  0.151908  0.006380  0.875236  1
  Ti  Ti14  1  0.825029  0.172360  0.748591  1
  Ti  Ti15  1  0.172535  0.825170  0.251489  1
  Ti  Ti16  1  0.326220  0.326090  0.000078  1
  Ti  Ti17  1  0.492596  0.651290  0.127979  1
  Ti  Ti18  1  0.651248  0.492644  0.871969  1
  Si  Si19  1  0.046712  0.712995  0.435505  1
  Si  Si20  1  0.952106  0.291186  0.934449  1
  Si  Si21  1  0.712766  0.046493  0.564501  1
  Si  Si22  1  0.208097  0.452972  0.184523  1
  Si  Si23  1  0.790073  0.550303  0.682133  1
  Si  Si24  1  0.453093  0.207908  0.815508  1
  Si  Si25  1  0.550070  0.790349  0.317921  1
  Si  Si26  1  0.291334  0.952260  0.065695  1
  Si  Si27  1  0.797379  0.868738  0.185582  1
  Si  Si28  1  0.300427  0.627119  0.565581  1
  Si  Si29  1  0.703281  0.369267  0.065491  1
  Si  Si30  1  0.626675  0.300271  0.434283  1
  Si  Si31  1  0.369439  0.703402  0.934616  1
  Si  Si32  1  0.130933  0.203282  0.315803  1
  Si  Si33  1  0.203463  0.130510  0.684196  1
  Si  Si34  1  0.868569  0.797542  0.814415  1
  Ru  Ru35  1  0.671004  0.671305  0.500005  1
