# generated using pymatgen
data_Gd8Mn(CuSi4)3
_symmetry_space_group_name_H-M   'P 1'
_cell_length_a   8.05761100
_cell_length_b   8.05761177
_cell_length_c   8.38933200
_cell_angle_alpha   90.00000000
_cell_angle_beta   90.00000000
_cell_angle_gamma   119.99999272
_symmetry_Int_Tables_number   1
_chemical_formula_structural   Gd8Mn(CuSi4)3
_chemical_formula_sum   'Gd8 Mn1 Cu3 Si12'
_cell_volume   471.70521822
_cell_formula_units_Z   1
loop_
 _symmetry_equiv_pos_site_id
 _symmetry_equiv_pos_as_xyz
  1  'x, y, z'
loop_
 _atom_site_type_symbol
 _atom_site_label
 _atom_site_symmetry_multiplicity
 _atom_site_fract_x
 _atom_site_fract_y
 _atom_site_fract_z
 _atom_site_occupancy
  Gd  Gd0  1  0.000000  0.000000  0.249625  1
  Gd  Gd1  1  0.000000  0.000000  0.750537  1
  Gd  Gd2  1  0.497688  0.502312  0.245048  1
  Gd  Gd3  1  0.497688  0.995377  0.245048  1
  Gd  Gd4  1  0.004623  0.502312  0.245048  1
  Gd  Gd5  1  0.497181  0.502819  0.754940  1
  Gd  Gd6  1  0.497181  0.994360  0.754940  1
  Gd  Gd7  1  0.005640  0.502819  0.754940  1
  Mn  Mn8  1  0.333333  0.666667  0.000316  1
  Cu  Cu9  1  0.333333  0.666667  0.498059  1
  Cu  Cu10  1  0.666667  0.333333  0.500714  1
  Cu  Cu11  1  0.666667  0.333333  0.999764  1
  Si  Si12  1  0.168457  0.831543  0.499938  1
  Si  Si13  1  0.168457  0.336916  0.499938  1
  Si  Si14  1  0.663084  0.831543  0.499938  1
  Si  Si15  1  0.831190  0.168810  0.500197  1
  Si  Si16  1  0.831190  0.662380  0.500197  1
  Si  Si17  1  0.337620  0.168810  0.500197  1
  Si  Si18  1  0.832231  0.167769  0.999609  1
  Si  Si19  1  0.832231  0.664459  0.999609  1
  Si  Si20  1  0.335541  0.167769  0.999609  1
  Si  Si21  1  0.170469  0.829531  0.000597  1
  Si  Si22  1  0.170469  0.340940  0.000597  1
  Si  Si23  1  0.659060  0.829531  0.000597  1
