# generated using pymatgen
data_Nd4CdPbAu4
_symmetry_space_group_name_H-M   'P 1'
_cell_length_a   3.84684400
_cell_length_b   8.25716900
_cell_length_c   8.25716900
_cell_angle_alpha   90.00000000
_cell_angle_beta   90.00000000
_cell_angle_gamma   90.00000000
_symmetry_Int_Tables_number   1
_chemical_formula_structural   Nd4CdPbAu4
_chemical_formula_sum   'Nd4 Cd1 Pb1 Au4'
_cell_volume   262.28105486
_cell_formula_units_Z   1
loop_
 _symmetry_equiv_pos_site_id
 _symmetry_equiv_pos_as_xyz
  1  'x, y, z'
loop_
 _atom_site_type_symbol
 _atom_site_label
 _atom_site_symmetry_multiplicity
 _atom_site_fract_x
 _atom_site_fract_y
 _atom_site_fract_z
 _atom_site_occupancy
  Nd  Nd0  1  0.500000  0.174264  0.668978  1
  Nd  Nd1  1  0.500000  0.825736  0.331022  1
  Nd  Nd2  1  0.500000  0.331022  0.174264  1
  Nd  Nd3  1  0.500000  0.668978  0.825736  1
  Cd  Cd4  1  0.000000  0.500000  0.500000  1
  Pb  Pb5  1  0.000000  0.000000  0.000000  1
  Au  Au6  1  0.000000  0.620340  0.131730  1
  Au  Au7  1  0.000000  0.379660  0.868270  1
  Au  Au8  1  0.000000  0.868270  0.620340  1
  Au  Au9  1  0.000000  0.131730  0.379660  1
