# generated using pymatgen
data_Er5Tm3Re2(B12Rh)2
_symmetry_space_group_name_H-M   'P 1'
_cell_length_a   3.64871100
_cell_length_b   9.09244063
_cell_length_c   11.47993700
_cell_angle_alpha   90.41225839
_cell_angle_beta   90.00000000
_cell_angle_gamma   90.00000000
_symmetry_Int_Tables_number   1
_chemical_formula_structural   Er5Tm3Re2(B12Rh)2
_chemical_formula_sum   'Er5 Tm3 Re2 B24 Rh2'
_cell_volume   380.84495100
_cell_formula_units_Z   1
loop_
 _symmetry_equiv_pos_site_id
 _symmetry_equiv_pos_as_xyz
  1  'x, y, z'
loop_
 _atom_site_type_symbol
 _atom_site_label
 _atom_site_symmetry_multiplicity
 _atom_site_fract_x
 _atom_site_fract_y
 _atom_site_fract_z
 _atom_site_occupancy
  Er  Er0  1  0.500000  0.317939  0.410837  1
  Er  Er1  1  0.500000  0.682052  0.589228  1
  Er  Er2  1  0.500000  0.173941  0.917295  1
  Er  Er3  1  0.500000  0.826029  0.082618  1
  Er  Er4  1  0.500000  0.442696  0.126605  1
  Tm  Tm5  1  0.500000  0.557430  0.873274  1
  Tm  Tm6  1  0.500000  0.054493  0.627974  1
  Tm  Tm7  1  0.500000  0.945480  0.372059  1
  Re  Re8  1  0.500000  0.138824  0.179996  1
  Re  Re9  1  0.500000  0.860883  0.820003  1
  B  B10  1  0.000000  0.106726  0.471243  1
  B  B11  1  0.000000  0.893271  0.528769  1
  B  B12  1  0.000000  0.394512  0.970533  1
  B  B13  1  0.000000  0.605737  0.029038  1
  B  B14  1  0.000000  0.131764  0.315311  1
  B  B15  1  0.000000  0.868190  0.684720  1
  B  B16  1  0.000000  0.367563  0.816860  1
  B  B17  1  0.000000  0.632681  0.183214  1
  B  B18  1  0.000000  0.053003  0.067220  1
  B  B19  1  0.000000  0.946931  0.932753  1
  B  B20  1  0.000000  0.445632  0.565602  1
  B  B21  1  0.000000  0.554390  0.434411  1
  B  B22  1  0.000000  0.483353  0.287795  1
  B  B23  1  0.000000  0.516754  0.712387  1
  B  B24  1  0.000000  0.017475  0.786751  1
  B  B25  1  0.000000  0.982502  0.213257  1
  B  B26  1  0.000000  0.248816  0.080965  1
  B  B27  1  0.000000  0.750941  0.919022  1
  B  B28  1  0.000000  0.250472  0.578491  1
  B  B29  1  0.000000  0.749542  0.421511  1
  B  B30  1  0.000000  0.293282  0.235029  1
  B  B31  1  0.000000  0.706490  0.765048  1
  B  B32  1  0.000000  0.208272  0.734871  1
  B  B33  1  0.000000  0.791769  0.265147  1
  Rh  Rh34  1  0.500000  0.361821  0.678715  1
  Rh  Rh35  1  0.500000  0.638345  0.321447  1
