# generated using pymatgen
data_RbVPSe5
_symmetry_space_group_name_H-M   'P 1'
_cell_length_a   10.15594247
_cell_length_b   10.15594229
_cell_length_c   7.21373457
_cell_angle_alpha   80.57160787
_cell_angle_beta   80.57160967
_cell_angle_gamma   42.36567854
_symmetry_Int_Tables_number   1
_chemical_formula_structural   RbVPSe5
_chemical_formula_sum   'Rb2 V2 P2 Se10'
_cell_volume   493.58537967
_cell_formula_units_Z   2
loop_
 _symmetry_equiv_pos_site_id
 _symmetry_equiv_pos_as_xyz
  1  'x, y, z'
loop_
 _atom_site_type_symbol
 _atom_site_label
 _atom_site_symmetry_multiplicity
 _atom_site_fract_x
 _atom_site_fract_y
 _atom_site_fract_z
 _atom_site_occupancy
  Rb  Rb0  1  0.735030  0.735030  0.768950  1
  Rb  Rb1  1  0.264970  0.264970  0.231050  1
  V  V2  1  0.714288  0.285712  0.000000  1
  V  V3  1  0.285712  0.714288  0.000000  1
  P  P4  1  0.865759  0.865759  0.208804  1
  P  P5  1  0.134241  0.134241  0.791196  1
  Se  Se6  1  0.078606  0.078606  0.094462  1
  Se  Se7  1  0.557718  0.557718  0.174281  1
  Se  Se8  1  0.325043  0.838664  0.685631  1
  Se  Se9  1  0.921394  0.921394  0.905538  1
  Se  Se10  1  0.674957  0.161336  0.314369  1
  Se  Se11  1  0.838664  0.325043  0.685631  1
  Se  Se12  1  0.442282  0.442282  0.825719  1
  Se  Se13  1  0.749191  0.749191  0.259841  1
  Se  Se14  1  0.161336  0.674957  0.314369  1
  Se  Se15  1  0.250809  0.250809  0.740159  1
