# generated using pymatgen
data_Tm5W2C7
_symmetry_space_group_name_H-M   'P 1'
_cell_length_a   8.32307677
_cell_length_b   8.32307751
_cell_length_c   3.37535400
_cell_angle_alpha   90.00000000
_cell_angle_beta   90.00000000
_cell_angle_gamma   122.09691961
_symmetry_Int_Tables_number   1
_chemical_formula_structural   Tm5W2C7
_chemical_formula_sum   'Tm5 W2 C7'
_cell_volume   198.08324105
_cell_formula_units_Z   1
loop_
 _symmetry_equiv_pos_site_id
 _symmetry_equiv_pos_as_xyz
  1  'x, y, z'
loop_
 _atom_site_type_symbol
 _atom_site_label
 _atom_site_symmetry_multiplicity
 _atom_site_fract_x
 _atom_site_fract_y
 _atom_site_fract_z
 _atom_site_occupancy
  Tm  Tm0  1  0.333336  0.075723  0.500000  1
  Tm  Tm1  1  0.666664  0.924277  0.500000  1
  Tm  Tm2  1  0.075723  0.333336  0.500000  1
  Tm  Tm3  1  0.924277  0.666664  0.500000  1
  Tm  Tm4  1  0.500000  0.500000  0.000000  1
  W  W5  1  0.286763  0.713237  0.000000  1
  W  W6  1  0.713237  0.286763  0.000000  1
  C  C7  1  0.168250  0.168250  0.000000  1
  C  C8  1  0.831750  0.831750  0.000000  1
  C  C9  1  0.000000  0.000000  0.000000  1
  C  C10  1  0.376765  0.623235  0.500000  1
  C  C11  1  0.623235  0.376765  0.500000  1
  C  C12  1  0.500000  0.000000  0.000000  1
  C  C13  1  0.000000  0.500000  0.000000  1
