# generated using pymatgen
data_YbHoEr(BPt2)3
_symmetry_space_group_name_H-M   'P 1'
_cell_length_a   5.38043311
_cell_length_b   5.39637777
_cell_length_c   7.80969700
_cell_angle_alpha   90.00000000
_cell_angle_beta   90.00000000
_cell_angle_gamma   120.09131764
_symmetry_Int_Tables_number   1
_chemical_formula_structural   YbHoEr(BPt2)3
_chemical_formula_sum   'Yb1 Ho1 Er1 B3 Pt6'
_cell_volume   196.19323762
_cell_formula_units_Z   1
loop_
 _symmetry_equiv_pos_site_id
 _symmetry_equiv_pos_as_xyz
  1  'x, y, z'
loop_
 _atom_site_type_symbol
 _atom_site_label
 _atom_site_symmetry_multiplicity
 _atom_site_fract_x
 _atom_site_fract_y
 _atom_site_fract_z
 _atom_site_occupancy
  Yb  Yb0  1  0.000000  0.500000  0.166690  1
  Ho  Ho1  1  0.500000  0.500000  0.836661  1
  Er  Er2  1  0.500000  0.000000  0.496639  1
  B  B3  1  0.500000  0.500000  0.331182  1
  B  B4  1  0.500000  0.000000  0.002169  1
  B  B5  1  0.000000  0.500000  0.666652  1
  Pt  Pt6  1  0.153980  0.852393  0.832026  1
  Pt  Pt7  1  0.153893  0.301487  0.501248  1
  Pt  Pt8  1  0.702644  0.851376  0.166730  1
  Pt  Pt9  1  0.846020  0.147607  0.832026  1
  Pt  Pt10  1  0.846107  0.698513  0.501248  1
  Pt  Pt11  1  0.297356  0.148624  0.166730  1
