# generated using pymatgen
data_Dy2Er10Co4CuBi
_symmetry_space_group_name_H-M   'P 1'
_cell_length_a   8.28488199
_cell_length_b   8.28487978
_cell_length_c   8.27504605
_cell_angle_alpha   109.97118048
_cell_angle_beta   111.21696203
_cell_angle_gamma   107.30072794
_symmetry_Int_Tables_number   1
_chemical_formula_structural   Dy2Er10Co4CuBi
_chemical_formula_sum   'Dy2 Er10 Co4 Cu1 Bi1'
_cell_volume   436.43765527
_cell_formula_units_Z   1
loop_
 _symmetry_equiv_pos_site_id
 _symmetry_equiv_pos_as_xyz
  1  'x, y, z'
loop_
 _atom_site_type_symbol
 _atom_site_label
 _atom_site_symmetry_multiplicity
 _atom_site_fract_x
 _atom_site_fract_y
 _atom_site_fract_z
 _atom_site_occupancy
  Dy  Dy0  1  0.287896  0.183276  0.471172  1
  Dy  Dy1  1  0.712104  0.816724  0.528828  1
  Er  Er2  1  0.287536  0.816976  0.104512  1
  Er  Er3  1  0.712464  0.183024  0.895488  1
  Er  Er4  1  0.622031  0.312875  0.308069  1
  Er  Er5  1  0.377969  0.687125  0.691931  1
  Er  Er6  1  0.004808  0.313962  0.691931  1
  Er  Er7  1  0.995192  0.686038  0.308069  1
  Er  Er8  1  0.211542  0.413790  0.200736  1
  Er  Er9  1  0.788458  0.586210  0.799264  1
  Er  Er10  1  0.213054  0.010806  0.799264  1
  Er  Er11  1  0.786946  0.989194  0.200736  1
  Co  Co12  1  0.999161  0.376270  0.375431  1
  Co  Co13  1  0.000839  0.623730  0.624569  1
  Co  Co14  1  0.386883  0.886883  0.500000  1
  Co  Co15  1  0.613117  0.113117  0.500000  1
  Cu  Cu16  1  0.000000  0.000000  0.000000  1
  Bi  Bi17  1  0.500000  0.500000  0.000000  1
