# generated using pymatgen
data_Nd11Ho(GaIr)8
_symmetry_space_group_name_H-M   'P 1'
_cell_length_a   5.75807700
_cell_length_b   8.15534080
_cell_length_c   13.66613500
_cell_angle_alpha   89.99590410
_cell_angle_beta   90.00056718
_cell_angle_gamma   89.94487052
_symmetry_Int_Tables_number   1
_chemical_formula_structural   Nd11Ho(GaIr)8
_chemical_formula_sum   'Nd11 Ho1 Ga8 Ir8'
_cell_volume   641.74883166
_cell_formula_units_Z   1
loop_
 _symmetry_equiv_pos_site_id
 _symmetry_equiv_pos_as_xyz
  1  'x, y, z'
loop_
 _atom_site_type_symbol
 _atom_site_label
 _atom_site_symmetry_multiplicity
 _atom_site_fract_x
 _atom_site_fract_y
 _atom_site_fract_z
 _atom_site_occupancy
  Nd  Nd0  1  0.146017  0.893961  0.599310  1
  Nd  Nd1  1  0.854106  0.104100  0.098309  1
  Nd  Nd2  1  0.145986  0.604896  0.401601  1
  Nd  Nd3  1  0.853326  0.396497  0.901145  1
  Nd  Nd4  1  0.854110  0.104096  0.401691  1
  Nd  Nd5  1  0.146019  0.893962  0.900699  1
  Nd  Nd6  1  0.853321  0.396501  0.598855  1
  Nd  Nd7  1  0.145981  0.604898  0.098398  1
  Nd  Nd8  1  0.372793  0.253733  0.750001  1
  Nd  Nd9  1  0.627607  0.746453  0.249996  1
  Nd  Nd10  1  0.372512  0.246386  0.250000  1
  Ho  Ho11  1  0.625060  0.756517  0.750004  1
  Ga  Ga12  1  0.866794  0.100326  0.750000  1
  Ga  Ga13  1  0.132569  0.897867  0.249997  1
  Ga  Ga14  1  0.867786  0.397264  0.249998  1
  Ga  Ga15  1  0.133407  0.605003  0.749999  1
  Ga  Ga16  1  0.378199  0.250055  0.500094  1
  Ga  Ga17  1  0.622170  0.749929  0.999382  1
  Ga  Ga18  1  0.622185  0.749929  0.500613  1
  Ga  Ga19  1  0.378216  0.250041  0.999900  1
  Ir  Ir20  1  0.645013  0.028499  0.593642  1
  Ir  Ir21  1  0.353920  0.968835  0.092185  1
  Ir  Ir22  1  0.645939  0.469005  0.408076  1
  Ir  Ir23  1  0.356057  0.532451  0.906485  1
  Ir  Ir24  1  0.353904  0.968838  0.407818  1
  Ir  Ir25  1  0.645019  0.028505  0.906358  1
  Ir  Ir26  1  0.356055  0.532452  0.593521  1
  Ir  Ir27  1  0.645930  0.469001  0.091921  1
