# generated using pymatgen
data_Sc11Si16Mo9
_symmetry_space_group_name_H-M   'P 1'
_cell_length_a   6.82690912
_cell_length_b   6.82690894
_cell_length_c   12.56158243
_cell_angle_alpha   90.01862086
_cell_angle_beta   89.98137788
_cell_angle_gamma   89.76044051
_symmetry_Int_Tables_number   1
_chemical_formula_structural   Sc11Si16Mo9
_chemical_formula_sum   'Sc11 Si16 Mo9'
_cell_volume   585.44856029
_cell_formula_units_Z   1
loop_
 _symmetry_equiv_pos_site_id
 _symmetry_equiv_pos_as_xyz
  1  'x, y, z'
loop_
 _atom_site_type_symbol
 _atom_site_label
 _atom_site_symmetry_multiplicity
 _atom_site_fract_x
 _atom_site_fract_y
 _atom_site_fract_z
 _atom_site_occupancy
  Sc  Sc0  1  0.002762  0.337365  0.216301  1
  Sc  Sc1  1  0.162028  0.498071  0.469218  1
  Sc  Sc2  1  0.843595  0.496919  0.969462  1
  Sc  Sc3  1  0.498071  0.162028  0.530782  1
  Sc  Sc4  1  0.496919  0.843595  0.030538  1
  Sc  Sc5  1  0.002429  0.661170  0.720562  1
  Sc  Sc6  1  0.337365  0.002762  0.783699  1
  Sc  Sc7  1  0.661170  0.002429  0.279438  1
  Sc  Sc8  1  0.331149  0.668158  0.248049  1
  Sc  Sc9  1  0.668158  0.331149  0.751951  1
  Sc  Sc10  1  0.832087  0.832087  0.500000  1
  Si  Si11  1  0.045838  0.293775  0.815965  1
  Si  Si12  1  0.206384  0.534139  0.058920  1
  Si  Si13  1  0.798066  0.456243  0.561547  1
  Si  Si14  1  0.534139  0.206384  0.941080  1
  Si  Si15  1  0.456243  0.798066  0.438453  1
  Si  Si16  1  0.957494  0.701839  0.310616  1
  Si  Si17  1  0.293775  0.045838  0.184035  1
  Si  Si18  1  0.701839  0.957494  0.689384  1
  Si  Si19  1  0.292467  0.367371  0.678289  1
  Si  Si20  1  0.130469  0.798884  0.929321  1
  Si  Si21  1  0.867708  0.207571  0.427498  1
  Si  Si22  1  0.798884  0.130469  0.070679  1
  Si  Si23  1  0.207571  0.867708  0.572502  1
  Si  Si24  1  0.707748  0.632268  0.177988  1
  Si  Si25  1  0.367371  0.292467  0.321711  1
  Si  Si26  1  0.632268  0.707748  0.822012  1
  Mo  Mo27  1  0.998021  0.155679  0.624298  1
  Mo  Mo28  1  0.344509  0.500315  0.872115  1
  Mo  Mo29  1  0.655553  0.503698  0.373850  1
  Mo  Mo30  1  0.500315  0.344509  0.127885  1
  Mo  Mo31  1  0.503698  0.655553  0.626150  1
  Mo  Mo32  1  0.004037  0.836568  0.121442  1
  Mo  Mo33  1  0.155679  0.998021  0.375702  1
  Mo  Mo34  1  0.836568  0.004037  0.878558  1
  Mo  Mo35  1  0.167626  0.167626  0.000000  1
