# generated using pymatgen
data_TmLu19Ir12
_symmetry_space_group_name_H-M   'P 1'
_cell_length_a   10.66380101
_cell_length_b   10.66495102
_cell_length_c   6.26232901
_cell_angle_alpha   89.99392699
_cell_angle_beta   90.00424504
_cell_angle_gamma   90.00390064
_symmetry_Int_Tables_number   1
_chemical_formula_structural   TmLu19Ir12
_chemical_formula_sum   'Tm1 Lu19 Ir12'
_cell_volume   712.20787961
_cell_formula_units_Z   1
loop_
 _symmetry_equiv_pos_site_id
 _symmetry_equiv_pos_as_xyz
  1  'x, y, z'
loop_
 _atom_site_type_symbol
 _atom_site_label
 _atom_site_symmetry_multiplicity
 _atom_site_fract_x
 _atom_site_fract_y
 _atom_site_fract_z
 _atom_site_occupancy
  Tm  Tm0  1  0.087579  0.290934  0.123524  1
  Lu  Lu1  1  0.291305  0.087404  0.376906  1
  Lu  Lu2  1  0.291213  0.912483  0.876826  1
  Lu  Lu3  1  0.708772  0.087515  0.876765  1
  Lu  Lu4  1  0.708781  0.912474  0.376796  1
  Lu  Lu5  1  0.587519  0.791228  0.876794  1
  Lu  Lu6  1  0.587518  0.208775  0.376792  1
  Lu  Lu7  1  0.412473  0.791217  0.376792  1
  Lu  Lu8  1  0.412506  0.208773  0.876759  1
  Lu  Lu9  1  0.208828  0.412558  0.623217  1
  Lu  Lu10  1  0.208829  0.587655  0.123207  1
  Lu  Lu11  1  0.791095  0.412529  0.123199  1
  Lu  Lu12  1  0.791192  0.587526  0.623209  1
  Lu  Lu13  1  0.912470  0.708808  0.123213  1
  Lu  Lu14  1  0.912400  0.291230  0.623232  1
  Lu  Lu15  1  0.087534  0.708783  0.623203  1
  Lu  Lu16  1  0.999981  0.999976  0.500047  1
  Lu  Lu17  1  0.999932  0.999845  0.999950  1
  Lu  Lu18  1  0.500016  0.500022  0.999940  1
  Lu  Lu19  1  0.500016  0.500007  0.499986  1
  Ir  Ir20  1  0.846069  0.153614  0.250111  1
  Ir  Ir21  1  0.846297  0.846246  0.750005  1
  Ir  Ir22  1  0.153839  0.153508  0.749342  1
  Ir  Ir23  1  0.153704  0.846281  0.249992  1
  Ir  Ir24  1  0.653713  0.346282  0.749996  1
  Ir  Ir25  1  0.653724  0.653713  0.250022  1
  Ir  Ir26  1  0.346621  0.346364  0.250192  1
  Ir  Ir27  1  0.346295  0.653718  0.750004  1
  Ir  Ir28  1  0.500028  0.999998  0.121686  1
  Ir  Ir29  1  0.499991  0.999996  0.621698  1
  Ir  Ir30  1  0.999883  0.500283  0.878001  1
  Ir  Ir31  1  0.999875  0.500256  0.378594  1
