# generated using pymatgen
data_TbDyTm6(WO6)4
_symmetry_space_group_name_H-M   'P 1'
_cell_length_a   5.35652000
_cell_length_b   7.65472090
_cell_length_c   11.39460804
_cell_angle_alpha   75.27485688
_cell_angle_beta   90.00000000
_cell_angle_gamma   90.00000000
_symmetry_Int_Tables_number   1
_chemical_formula_structural   TbDyTm6(WO6)4
_chemical_formula_sum   'Tb1 Dy1 Tm6 W4 O24'
_cell_volume   451.86442243
_cell_formula_units_Z   1
loop_
 _symmetry_equiv_pos_site_id
 _symmetry_equiv_pos_as_xyz
  1  'x, y, z'
loop_
 _atom_site_type_symbol
 _atom_site_label
 _atom_site_symmetry_multiplicity
 _atom_site_fract_x
 _atom_site_fract_y
 _atom_site_fract_z
 _atom_site_occupancy
  Tb  Tb0  1  0.684385  0.500000  0.750000  1
  Dy  Dy1  1  0.315505  0.500000  0.250000  1
  Tm  Tm2  1  0.740999  0.000000  0.750000  1
  Tm  Tm3  1  0.259419  0.000000  0.250000  1
  Tm  Tm4  1  0.184620  0.795993  0.578005  1
  Tm  Tm5  1  0.815531  0.795529  0.078375  1
  Tm  Tm6  1  0.184620  0.204007  0.921995  1
  Tm  Tm7  1  0.815531  0.204471  0.421625  1
  W  W8  1  0.255113  0.724884  0.885374  1
  W  W9  1  0.744847  0.724867  0.384982  1
  W  W10  1  0.255113  0.275116  0.614626  1
  W  W11  1  0.744847  0.275133  0.115018  1
  O  O12  1  0.041317  0.941487  0.895754  1
  O  O13  1  0.536901  0.847547  0.930839  1
  O  O14  1  0.958616  0.941882  0.395382  1
  O  O15  1  0.458942  0.793574  0.725975  1
  O  O16  1  0.463279  0.847657  0.430573  1
  O  O17  1  0.981256  0.714195  0.769721  1
  O  O18  1  0.540898  0.793357  0.225729  1
  O  O19  1  0.852645  0.636076  0.548719  1
  O  O20  1  0.357213  0.488624  0.886625  1
  O  O21  1  0.019610  0.713495  0.269949  1
  O  O22  1  0.357213  0.511376  0.613375  1
  O  O23  1  0.852645  0.363924  0.951281  1
  O  O24  1  0.147621  0.636080  0.049325  1
  O  O25  1  0.641436  0.488800  0.386080  1
  O  O26  1  0.981256  0.285805  0.730279  1
  O  O27  1  0.641436  0.511200  0.113920  1
  O  O28  1  0.147621  0.363920  0.450675  1
  O  O29  1  0.458942  0.206426  0.774025  1
  O  O30  1  0.019610  0.286505  0.230051  1
  O  O31  1  0.536901  0.152453  0.569161  1
  O  O32  1  0.540898  0.206643  0.274271  1
  O  O33  1  0.041317  0.058513  0.604246  1
  O  O34  1  0.463279  0.152343  0.069427  1
  O  O35  1  0.958616  0.058118  0.104618  1
