# generated using pymatgen
data_TmFe4P3Ru
_symmetry_space_group_name_H-M   'P 1'
_cell_length_a   3.69551000
_cell_length_b   10.32346200
_cell_length_c   11.77595100
_cell_angle_alpha   90.00000000
_cell_angle_beta   90.00000000
_cell_angle_gamma   90.00000000
_symmetry_Int_Tables_number   1
_chemical_formula_structural   TmFe4P3Ru
_chemical_formula_sum   'Tm4 Fe16 P12 Ru4'
_cell_volume   449.25791291
_cell_formula_units_Z   4
loop_
 _symmetry_equiv_pos_site_id
 _symmetry_equiv_pos_as_xyz
  1  'x, y, z'
loop_
 _atom_site_type_symbol
 _atom_site_label
 _atom_site_symmetry_multiplicity
 _atom_site_fract_x
 _atom_site_fract_y
 _atom_site_fract_z
 _atom_site_occupancy
  Tm  Tm0  1  0.250000  0.581655  0.703884  1
  Tm  Tm1  1  0.250000  0.918345  0.203884  1
  Tm  Tm2  1  0.750000  0.418345  0.296116  1
  Tm  Tm3  1  0.750000  0.081655  0.796116  1
  Fe  Fe4  1  0.250000  0.405652  0.488877  1
  Fe  Fe5  1  0.250000  0.094348  0.988877  1
  Fe  Fe6  1  0.750000  0.594348  0.511123  1
  Fe  Fe7  1  0.750000  0.905652  0.011123  1
  Fe  Fe8  1  0.250000  0.220024  0.175436  1
  Fe  Fe9  1  0.250000  0.279976  0.675436  1
  Fe  Fe10  1  0.750000  0.779976  0.824564  1
  Fe  Fe11  1  0.750000  0.720024  0.324564  1
  Fe  Fe12  1  0.250000  0.877480  0.704257  1
  Fe  Fe13  1  0.250000  0.622520  0.204257  1
  Fe  Fe14  1  0.750000  0.122520  0.295743  1
  Fe  Fe15  1  0.750000  0.377480  0.795743  1
  Fe  Fe16  1  0.250000  0.462669  0.932193  1
  Fe  Fe17  1  0.250000  0.037331  0.432193  1
  Fe  Fe18  1  0.750000  0.537331  0.067807  1
  Fe  Fe19  1  0.750000  0.962669  0.567807  1
  P  P20  1  0.250000  0.424824  0.115229  1
  P  P21  1  0.250000  0.075176  0.615229  1
  P  P22  1  0.750000  0.575176  0.884771  1
  P  P23  1  0.750000  0.924824  0.384771  1
  P  P24  1  0.250000  0.265491  0.867178  1
  P  P25  1  0.250000  0.234509  0.367178  1
  P  P26  1  0.750000  0.734509  0.132822  1
  P  P27  1  0.750000  0.765491  0.632822  1
  P  P28  1  0.250000  0.595048  0.394754  1
  P  P29  1  0.250000  0.904952  0.894754  1
  P  P30  1  0.750000  0.404952  0.605246  1
  P  P31  1  0.750000  0.095048  0.105246  1
  Ru  Ru32  1  0.250000  0.708049  0.988349  1
  Ru  Ru33  1  0.250000  0.791951  0.488349  1
  Ru  Ru34  1  0.750000  0.291951  0.011651  1
  Ru  Ru35  1  0.750000  0.208049  0.511651  1
