# generated using pymatgen
data_Nd5Y3(Ho3Sn4)4
_symmetry_space_group_name_H-M   'P 1'
_cell_length_a   8.09489410
_cell_length_b   8.25157234
_cell_length_c   15.56805100
_cell_angle_alpha   89.99787525
_cell_angle_beta   89.94234956
_cell_angle_gamma   90.05150561
_symmetry_Int_Tables_number   1
_chemical_formula_structural   Nd5Y3(Ho3Sn4)4
_chemical_formula_sum   'Nd5 Y3 Ho12 Sn16'
_cell_volume   1039.87642595
_cell_formula_units_Z   1
loop_
 _symmetry_equiv_pos_site_id
 _symmetry_equiv_pos_as_xyz
  1  'x, y, z'
loop_
 _atom_site_type_symbol
 _atom_site_label
 _atom_site_symmetry_multiplicity
 _atom_site_fract_x
 _atom_site_fract_y
 _atom_site_fract_z
 _atom_site_occupancy
  Nd  Nd0  1  0.516943  0.320622  0.902905  1
  Nd  Nd1  1  0.017222  0.178985  0.596944  1
  Nd  Nd2  1  0.482422  0.679145  0.402887  1
  Nd  Nd3  1  0.982750  0.821445  0.096866  1
  Nd  Nd4  1  0.482579  0.679303  0.097487  1
  Y  Y5  1  0.981695  0.820999  0.402438  1
  Y  Y6  1  0.518343  0.320746  0.597797  1
  Y  Y7  1  0.018265  0.179157  0.902074  1
  Ho  Ho8  1  0.364160  0.836225  0.877263  1
  Ho  Ho9  1  0.864771  0.663978  0.622561  1
  Ho  Ho10  1  0.635407  0.164170  0.377861  1
  Ho  Ho11  1  0.135547  0.335645  0.122746  1
  Ho  Ho12  1  0.635755  0.164028  0.122455  1
  Ho  Ho13  1  0.135368  0.335873  0.377670  1
  Ho  Ho14  1  0.364525  0.835983  0.622424  1
  Ho  Ho15  1  0.864003  0.664213  0.877192  1
  Ho  Ho16  1  0.197333  0.502885  0.749759  1
  Ho  Ho17  1  0.697516  0.997083  0.750004  1
  Ho  Ho18  1  0.802797  0.496727  0.250302  1
  Ho  Ho19  1  0.302337  0.003101  0.250470  1
  Sn  Sn20  1  0.298096  0.041099  0.041012  1
  Sn  Sn21  1  0.798601  0.460932  0.458841  1
  Sn  Sn22  1  0.701308  0.960290  0.541296  1
  Sn  Sn23  1  0.198479  0.538194  0.957727  1
  Sn  Sn24  1  0.702821  0.962621  0.957189  1
  Sn  Sn25  1  0.202565  0.537653  0.542622  1
  Sn  Sn26  1  0.297308  0.037819  0.457525  1
  Sn  Sn27  1  0.800610  0.459949  0.041839  1
  Sn  Sn28  1  0.562824  0.622199  0.749614  1
  Sn  Sn29  1  0.063051  0.878049  0.750059  1
  Sn  Sn30  1  0.436922  0.376839  0.250083  1
  Sn  Sn31  1  0.936975  0.122224  0.250387  1
  Sn  Sn32  1  0.326724  0.144401  0.749120  1
  Sn  Sn33  1  0.826578  0.355580  0.750746  1
  Sn  Sn34  1  0.675322  0.857521  0.250632  1
  Sn  Sn35  1  0.172079  0.644322  0.251201  1
