# generated using pymatgen
data_Pa2Mn2(Pd3Pt)3
_symmetry_space_group_name_H-M   'P 1'
_cell_length_a   7.02857464
_cell_length_b   7.02857551
_cell_length_c   7.01290378
_cell_angle_alpha   109.83166036
_cell_angle_beta   109.83165728
_cell_angle_gamma   108.84446701
_symmetry_Int_Tables_number   1
_chemical_formula_structural   Pa2Mn2(Pd3Pt)3
_chemical_formula_sum   'Pa2 Mn2 Pd9 Pt3'
_cell_volume   266.36240560
_cell_formula_units_Z   1
loop_
 _symmetry_equiv_pos_site_id
 _symmetry_equiv_pos_as_xyz
  1  'x, y, z'
loop_
 _atom_site_type_symbol
 _atom_site_label
 _atom_site_symmetry_multiplicity
 _atom_site_fract_x
 _atom_site_fract_y
 _atom_site_fract_z
 _atom_site_occupancy
  Pa  Pa0  1  0.249939  0.249939  0.499880  1
  Pa  Pa1  1  0.750061  0.750061  0.500120  1
  Mn  Mn2  1  0.251061  0.748939  0.000000  1
  Mn  Mn3  1  0.748939  0.251061  0.000000  1
  Pd  Pd4  1  0.499509  0.247146  0.247693  1
  Pd  Pd5  1  0.500491  0.752854  0.752307  1
  Pd  Pd6  1  0.999452  0.251815  0.752307  1
  Pd  Pd7  1  0.251815  0.999452  0.752307  1
  Pd  Pd8  1  0.000548  0.748185  0.247693  1
  Pd  Pd9  1  0.748185  0.000548  0.247693  1
  Pd  Pd10  1  0.247146  0.499509  0.247693  1
  Pd  Pd11  1  0.752854  0.500491  0.752307  1
  Pd  Pd12  1  0.000000  0.000000  0.000000  1
  Pt  Pt13  1  0.500000  0.000000  0.500000  1
  Pt  Pt14  1  0.000000  0.500000  0.500000  1
  Pt  Pt15  1  0.500000  0.500000  0.000000  1
