# generated using pymatgen
data_Ho3Lu2ThGa4
_symmetry_space_group_name_H-M   'P 1'
_cell_length_a   7.57399478
_cell_length_b   7.57399478
_cell_length_c   4.35083100
_cell_angle_alpha   90.00000000
_cell_angle_beta   90.00000000
_cell_angle_gamma   89.41773460
_symmetry_Int_Tables_number   1
_chemical_formula_structural   Ho3Lu2ThGa4
_chemical_formula_sum   'Ho3 Lu2 Th1 Ga4'
_cell_volume   249.57425900
_cell_formula_units_Z   1
loop_
 _symmetry_equiv_pos_site_id
 _symmetry_equiv_pos_as_xyz
  1  'x, y, z'
loop_
 _atom_site_type_symbol
 _atom_site_label
 _atom_site_symmetry_multiplicity
 _atom_site_fract_x
 _atom_site_fract_y
 _atom_site_fract_z
 _atom_site_occupancy
  Ho  Ho0  1  0.676551  0.176551  0.500000  1
  Ho  Ho1  1  0.175164  0.324792  0.500000  1
  Ho  Ho2  1  0.824792  0.675164  0.500000  1
  Lu  Lu3  1  0.997830  0.002088  0.000000  1
  Lu  Lu4  1  0.502088  0.497830  0.000000  1
  Th  Th5  1  0.325758  0.825758  0.500000  1
  Ga  Ga6  1  0.877593  0.377593  0.000000  1
  Ga  Ga7  1  0.378683  0.123854  0.000000  1
  Ga  Ga8  1  0.623854  0.878683  0.000000  1
  Ga  Ga9  1  0.117687  0.617687  0.000000  1
