# generated using pymatgen
data_Pr8Zn8Ir3PdRh4
_symmetry_space_group_name_H-M   'P 1'
_cell_length_a   4.06027100
_cell_length_b   7.38082454
_cell_length_c   16.72790292
_cell_angle_alpha   89.94478897
_cell_angle_beta   90.00000000
_cell_angle_gamma   90.00000000
_symmetry_Int_Tables_number   1
_chemical_formula_structural   Pr8Zn8Ir3PdRh4
_chemical_formula_sum   'Pr8 Zn8 Ir3 Pd1 Rh4'
_cell_volume   501.30403524
_cell_formula_units_Z   1
loop_
 _symmetry_equiv_pos_site_id
 _symmetry_equiv_pos_as_xyz
  1  'x, y, z'
loop_
 _atom_site_type_symbol
 _atom_site_label
 _atom_site_symmetry_multiplicity
 _atom_site_fract_x
 _atom_site_fract_y
 _atom_site_fract_z
 _atom_site_occupancy
  Pr  Pr0  1  0.750000  0.452503  0.215791  1
  Pr  Pr1  1  0.750000  0.952866  0.283102  1
  Pr  Pr2  1  0.750000  0.832359  0.060643  1
  Pr  Pr3  1  0.250000  0.044727  0.720476  1
  Pr  Pr4  1  0.250000  0.167969  0.940498  1
  Pr  Pr5  1  0.250000  0.546830  0.784877  1
  Pr  Pr6  1  0.750000  0.333753  0.435114  1
  Pr  Pr7  1  0.250000  0.672447  0.559952  1
  Zn  Zn8  1  0.250000  0.995668  0.436782  1
  Zn  Zn9  1  0.750000  0.500171  0.939921  1
  Zn  Zn10  1  0.750000  0.999185  0.560359  1
  Zn  Zn11  1  0.250000  0.624111  0.348726  1
  Zn  Zn12  1  0.750000  0.377860  0.654050  1
  Zn  Zn13  1  0.750000  0.874791  0.850819  1
  Zn  Zn14  1  0.250000  0.498456  0.059661  1
  Zn  Zn15  1  0.250000  0.125186  0.150049  1
  Ir  Ir16  1  0.750000  0.257936  0.065627  1
  Ir  Ir17  1  0.250000  0.244376  0.314867  1
  Ir  Ir18  1  0.750000  0.255020  0.812018  1
  Pd  Pd19  1  0.250000  0.242324  0.566189  1
  Rh  Rh20  1  0.250000  0.742933  0.934957  1
  Rh  Rh21  1  0.750000  0.754017  0.684400  1
  Rh  Rh22  1  0.750000  0.756469  0.435111  1
  Rh  Rh23  1  0.250000  0.748042  0.186011  1
