# generated using pymatgen
data_TbHo17(BiO)10
_symmetry_space_group_name_H-M   'P 1'
_cell_length_a   9.98746100
_cell_length_b   9.98746100
_cell_length_c   8.91668600
_cell_angle_alpha   90.00000000
_cell_angle_beta   90.00000000
_cell_angle_gamma   90.00000000
_symmetry_Int_Tables_number   1
_chemical_formula_structural   TbHo17(BiO)10
_chemical_formula_sum   'Tb1 Ho17 Bi10 O10'
_cell_volume   889.43387542
_cell_formula_units_Z   1
loop_
 _symmetry_equiv_pos_site_id
 _symmetry_equiv_pos_as_xyz
  1  'x, y, z'
loop_
 _atom_site_type_symbol
 _atom_site_label
 _atom_site_symmetry_multiplicity
 _atom_site_fract_x
 _atom_site_fract_y
 _atom_site_fract_z
 _atom_site_occupancy
  Tb  Tb0  1  0.000000  0.500000  0.322289  1
  Ho  Ho1  1  0.207134  0.894273  0.334948  1
  Ho  Ho2  1  0.500000  0.000000  0.680236  1
  Ho  Ho3  1  0.292665  0.605465  0.664937  1
  Ho  Ho4  1  0.707335  0.394535  0.664937  1
  Ho  Ho5  1  0.725362  0.916189  0.002294  1
  Ho  Ho6  1  0.394273  0.292866  0.334948  1
  Ho  Ho7  1  0.105465  0.207335  0.664937  1
  Ho  Ho8  1  0.605727  0.707134  0.334948  1
  Ho  Ho9  1  0.894535  0.792665  0.664937  1
  Ho  Ho10  1  0.274638  0.083811  0.002294  1
  Ho  Ho11  1  0.774880  0.583751  0.997479  1
  Ho  Ho12  1  0.225120  0.416249  0.997479  1
  Ho  Ho13  1  0.792866  0.105727  0.334948  1
  Ho  Ho14  1  0.583811  0.225362  0.002294  1
  Ho  Ho15  1  0.916249  0.274880  0.997479  1
  Ho  Ho16  1  0.083751  0.725120  0.997479  1
  Ho  Ho17  1  0.416189  0.774638  0.002294  1
  Bi  Bi18  1  0.594600  0.693783  0.696360  1
  Bi  Bi19  1  0.905037  0.807231  0.303529  1
  Bi  Bi20  1  0.692769  0.405037  0.303529  1
  Bi  Bi21  1  0.000000  0.500000  0.681895  1
  Bi  Bi22  1  0.193783  0.905400  0.696360  1
  Bi  Bi23  1  0.806217  0.094600  0.696360  1
  Bi  Bi24  1  0.307231  0.594963  0.303529  1
  Bi  Bi25  1  0.405400  0.306217  0.696360  1
  Bi  Bi26  1  0.094963  0.192769  0.303529  1
  Bi  Bi27  1  0.500000  0.000000  0.319989  1
  O  O28  1  0.226233  0.879780  0.083782  1
  O  O29  1  0.725936  0.379814  0.916258  1
  O  O30  1  0.500000  0.000000  0.936796  1
  O  O31  1  0.620220  0.726233  0.083782  1
  O  O32  1  0.000000  0.500000  0.060446  1
  O  O33  1  0.879814  0.774064  0.916258  1
  O  O34  1  0.120186  0.225936  0.916258  1
  O  O35  1  0.379780  0.273767  0.083782  1
  O  O36  1  0.773767  0.120220  0.083782  1
  O  O37  1  0.274064  0.620186  0.916258  1
