# generated using pymatgen
data_TaTi5Al2Ga2(PtC)2
_symmetry_space_group_name_H-M   'P 1'
_cell_length_a   8.23836219
_cell_length_b   8.23598033
_cell_length_c   8.23836200
_cell_angle_alpha   59.99043360
_cell_angle_beta   60.00000077
_cell_angle_gamma   59.99042871
_symmetry_Int_Tables_number   1
_chemical_formula_structural   TaTi5Al2Ga2(PtC)2
_chemical_formula_sum   'Ta2 Ti10 Al4 Ga4 Pt4 C4'
_cell_volume   395.20208749
_cell_formula_units_Z   2
loop_
 _symmetry_equiv_pos_site_id
 _symmetry_equiv_pos_as_xyz
  1  'x, y, z'
loop_
 _atom_site_type_symbol
 _atom_site_label
 _atom_site_symmetry_multiplicity
 _atom_site_fract_x
 _atom_site_fract_y
 _atom_site_fract_z
 _atom_site_occupancy
  Ta  Ta0  1  0.935160  0.932604  0.566334  1
  Ta  Ta1  1  0.685911  0.314165  0.313554  1
  Ti  Ti2  1  0.316613  0.684745  0.684122  1
  Ti  Ti3  1  0.683708  0.683790  0.316851  1
  Ti  Ti4  1  0.686277  0.315241  0.685814  1
  Ti  Ti5  1  0.315695  0.684313  0.315489  1
  Ti  Ti6  1  0.565953  0.932348  0.565228  1
  Ti  Ti7  1  0.566180  0.933640  0.935352  1
  Ti  Ti8  1  0.935265  0.564853  0.563557  1
  Ti  Ti9  1  0.936926  0.564472  0.935985  1
  Ti  Ti10  1  0.313832  0.314110  0.685457  1
  Ti  Ti11  1  0.562949  0.563971  0.935362  1
  Al  Al12  1  0.257366  0.914534  0.914007  1
  Al  Al13  1  0.913775  0.914135  0.916633  1
  Al  Al14  1  0.914089  0.913305  0.255827  1
  Al  Al15  1  0.336237  0.993967  0.334816  1
  Ga  Ga16  1  0.911149  0.267686  0.909933  1
  Ga  Ga17  1  0.339192  0.339251  0.982575  1
  Ga  Ga18  1  0.984637  0.340776  0.339139  1
  Ga  Ga19  1  0.335655  0.339840  0.339376  1
  Pt  Pt20  1  0.124046  0.629018  0.123227  1
  Pt  Pt21  1  0.127122  0.119502  0.625862  1
  Pt  Pt22  1  0.625520  0.120420  0.127430  1
  Pt  Pt23  1  0.127061  0.120089  0.127220  1
  C  C24  1  0.621548  0.125576  0.628055  1
  C  C25  1  0.625170  0.627546  0.122360  1
  C  C26  1  0.127367  0.621340  0.625603  1
  C  C27  1  0.625597  0.624764  0.624829  1
