# generated using pymatgen
data_Lu2Al3Re14C3
_symmetry_space_group_name_H-M   'P 1'
_cell_length_a   6.96379588
_cell_length_b   6.96379617
_cell_length_c   6.96379515
_cell_angle_alpha   82.22677086
_cell_angle_beta   82.22676995
_cell_angle_gamma   82.22677186
_symmetry_Int_Tables_number   1
_chemical_formula_structural   Lu2Al3Re14C3
_chemical_formula_sum   'Lu2 Al3 Re14 C3'
_cell_volume   329.16644136
_cell_formula_units_Z   1
loop_
 _symmetry_equiv_pos_site_id
 _symmetry_equiv_pos_as_xyz
  1  'x, y, z'
loop_
 _atom_site_type_symbol
 _atom_site_label
 _atom_site_symmetry_multiplicity
 _atom_site_fract_x
 _atom_site_fract_y
 _atom_site_fract_z
 _atom_site_occupancy
  Lu  Lu0  1  0.340362  0.340362  0.340362  1
  Lu  Lu1  1  0.659638  0.659638  0.659638  1
  Al  Al2  1  0.000000  0.000000  0.500000  1
  Al  Al3  1  0.000000  0.500000  0.000000  1
  Al  Al4  1  0.500000  0.000000  0.000000  1
  Re  Re5  1  0.097358  0.097358  0.097358  1
  Re  Re6  1  0.902642  0.902642  0.902642  1
  Re  Re7  1  0.720905  0.279095  0.000000  1
  Re  Re8  1  0.279095  0.000000  0.720905  1
  Re  Re9  1  0.000000  0.720905  0.279095  1
  Re  Re10  1  0.279095  0.720905  0.000000  1
  Re  Re11  1  0.720905  0.000000  0.279095  1
  Re  Re12  1  0.000000  0.279095  0.720905  1
  Re  Re13  1  0.151039  0.649466  0.649466  1
  Re  Re14  1  0.649466  0.649466  0.151039  1
  Re  Re15  1  0.649466  0.151039  0.649466  1
  Re  Re16  1  0.350534  0.848961  0.350534  1
  Re  Re17  1  0.350534  0.350534  0.848961  1
  Re  Re18  1  0.848961  0.350534  0.350534  1
  C  C19  1  0.500000  0.500000  0.000000  1
  C  C20  1  0.500000  0.000000  0.500000  1
  C  C21  1  0.000000  0.500000  0.500000  1
