# generated using pymatgen
data_K(YI3)2
_symmetry_space_group_name_H-M   'P 1'
_cell_length_a   8.45949100
_cell_length_b   8.45949152
_cell_length_c   14.50588600
_cell_angle_alpha   90.00000000
_cell_angle_beta   90.00000000
_cell_angle_gamma   119.99999405
_symmetry_Int_Tables_number   1
_chemical_formula_structural   K(YI3)2
_chemical_formula_sum   'K2 Y4 I12'
_cell_volume   899.00769696
_cell_formula_units_Z   2
loop_
 _symmetry_equiv_pos_site_id
 _symmetry_equiv_pos_as_xyz
  1  'x, y, z'
loop_
 _atom_site_type_symbol
 _atom_site_label
 _atom_site_symmetry_multiplicity
 _atom_site_fract_x
 _atom_site_fract_y
 _atom_site_fract_z
 _atom_site_occupancy
  K  K0  1  0.333333  0.666667  0.872646  1
  K  K1  1  0.666667  0.333333  0.372646  1
  Y  Y2  1  0.000000  0.000000  0.125695  1
  Y  Y3  1  0.000000  0.000000  0.375978  1
  Y  Y4  1  0.000000  0.000000  0.625695  1
  Y  Y5  1  0.000000  0.000000  0.875978  1
  I  I6  1  0.986696  0.699803  0.001086  1
  I  I7  1  0.283202  0.980029  0.250717  1
  I  I8  1  0.019971  0.303173  0.250717  1
  I  I9  1  0.300197  0.286894  0.001086  1
  I  I10  1  0.286894  0.300197  0.501086  1
  I  I11  1  0.713106  0.013304  0.001086  1
  I  I12  1  0.303173  0.019971  0.750717  1
  I  I13  1  0.696827  0.716798  0.250717  1
  I  I14  1  0.716798  0.696827  0.750717  1
  I  I15  1  0.013304  0.713106  0.501086  1
  I  I16  1  0.699803  0.986696  0.501086  1
  I  I17  1  0.980029  0.283202  0.750717  1
