# generated using pymatgen
data_Hf5RePb2
_symmetry_space_group_name_H-M   'P 1'
_cell_length_a   5.62101481
_cell_length_b   8.45779529
_cell_length_c   8.45779501
_cell_angle_alpha   83.66037009
_cell_angle_beta   70.59170050
_cell_angle_gamma   70.59169792
_symmetry_Int_Tables_number   1
_chemical_formula_structural   Hf5RePb2
_chemical_formula_sum   'Hf10 Re2 Pb4'
_cell_volume   357.69525492
_cell_formula_units_Z   2
loop_
 _symmetry_equiv_pos_site_id
 _symmetry_equiv_pos_as_xyz
  1  'x, y, z'
loop_
 _atom_site_type_symbol
 _atom_site_label
 _atom_site_symmetry_multiplicity
 _atom_site_fract_x
 _atom_site_fract_y
 _atom_site_fract_z
 _atom_site_occupancy
  Hf  Hf0  1  0.072387  0.130758  0.724468  1
  Hf  Hf1  1  0.927613  0.869242  0.275532  1
  Hf  Hf2  1  0.796854  0.275532  0.130758  1
  Hf  Hf3  1  0.427613  0.275532  0.869242  1
  Hf  Hf4  1  0.203146  0.724468  0.869242  1
  Hf  Hf5  1  0.572387  0.724468  0.130758  1
  Hf  Hf6  1  0.703146  0.869242  0.724468  1
  Hf  Hf7  1  0.296854  0.130758  0.275532  1
  Hf  Hf8  1  0.250000  0.500000  0.500000  1
  Hf  Hf9  1  0.750000  0.500000  0.500000  1
  Re  Re10  1  0.250000  0.000000  0.000000  1
  Re  Re11  1  0.750000  0.000000  0.000000  1
  Pb  Pb12  1  0.164413  0.500000  0.171173  1
  Pb  Pb13  1  0.835587  0.500000  0.828827  1
  Pb  Pb14  1  0.335587  0.828827  0.500000  1
  Pb  Pb15  1  0.664413  0.171173  0.500000  1
