# generated using pymatgen
data_Tb12InGa(TcNi)2
_symmetry_space_group_name_H-M   'P 1'
_cell_length_a   8.43655246
_cell_length_b   8.43655372
_cell_length_c   8.43655281
_cell_angle_alpha   104.11924668
_cell_angle_beta   111.21354613
_cell_angle_gamma   113.21697305
_symmetry_Int_Tables_number   1
_chemical_formula_structural   Tb12InGa(TcNi)2
_chemical_formula_sum   'Tb12 In1 Ga1 Tc2 Ni2'
_cell_volume   459.10356487
_cell_formula_units_Z   1
loop_
 _symmetry_equiv_pos_site_id
 _symmetry_equiv_pos_as_xyz
  1  'x, y, z'
loop_
 _atom_site_type_symbol
 _atom_site_label
 _atom_site_symmetry_multiplicity
 _atom_site_fract_x
 _atom_site_fract_y
 _atom_site_fract_z
 _atom_site_occupancy
  Tb  Tb0  1  0.692419  0.260943  0.953362  1
  Tb  Tb1  1  0.307581  0.739057  0.046638  1
  Tb  Tb2  1  0.692419  0.739057  0.431477  1
  Tb  Tb3  1  0.307581  0.260943  0.568523  1
  Tb  Tb4  1  0.816263  0.147684  0.331421  1
  Tb  Tb5  1  0.816263  0.484842  0.668579  1
  Tb  Tb6  1  0.183737  0.852316  0.668579  1
  Tb  Tb7  1  0.183737  0.515158  0.331421  1
  Tb  Tb8  1  0.600664  0.780570  0.820093  1
  Tb  Tb9  1  0.960477  0.780570  0.179907  1
  Tb  Tb10  1  0.039523  0.219430  0.820093  1
  Tb  Tb11  1  0.399336  0.219430  0.179907  1
  In  In12  1  0.500000  0.000000  0.500000  1
  Ga  Ga13  1  0.500000  0.500000  0.000000  1
  Tc  Tc14  1  0.821054  0.500000  0.321054  1
  Tc  Tc15  1  0.178946  0.500000  0.678946  1
  Ni  Ni16  1  0.000000  0.115896  0.115896  1
  Ni  Ni17  1  0.000000  0.884104  0.884104  1
