# generated using pymatgen
data_Hg3Bi(Ru2O7)2
_symmetry_space_group_name_H-M   'P 1'
_cell_length_a   7.35633280
_cell_length_b   7.35633269
_cell_length_c   7.35633351
_cell_angle_alpha   59.23262433
_cell_angle_beta   59.23262972
_cell_angle_gamma   59.23262064
_symmetry_Int_Tables_number   1
_chemical_formula_structural   Hg3Bi(Ru2O7)2
_chemical_formula_sum   'Hg3 Bi1 Ru4 O14'
_cell_volume   276.57342516
_cell_formula_units_Z   1
loop_
 _symmetry_equiv_pos_site_id
 _symmetry_equiv_pos_as_xyz
  1  'x, y, z'
loop_
 _atom_site_type_symbol
 _atom_site_label
 _atom_site_symmetry_multiplicity
 _atom_site_fract_x
 _atom_site_fract_y
 _atom_site_fract_z
 _atom_site_occupancy
  Hg  Hg0  1  0.000000  0.500000  0.000000  1
  Hg  Hg1  1  0.500000  0.000000  0.000000  1
  Hg  Hg2  1  0.000000  0.000000  0.500000  1
  Bi  Bi3  1  0.000000  0.000000  0.000000  1
  Ru  Ru4  1  0.500000  0.500000  0.500000  1
  Ru  Ru5  1  0.500000  0.000000  0.500000  1
  Ru  Ru6  1  0.000000  0.500000  0.500000  1
  Ru  Ru7  1  0.500000  0.500000  0.000000  1
  O  O8  1  0.435603  0.435603  0.816909  1
  O  O9  1  0.816909  0.435603  0.435603  1
  O  O10  1  0.435603  0.816909  0.435603  1
  O  O11  1  0.823241  0.823241  0.414531  1
  O  O12  1  0.414531  0.823241  0.823241  1
  O  O13  1  0.823241  0.414531  0.823241  1
  O  O14  1  0.564397  0.564397  0.183091  1
  O  O15  1  0.183091  0.564397  0.564397  1
  O  O16  1  0.564397  0.183091  0.564397  1
  O  O17  1  0.176759  0.176759  0.585469  1
  O  O18  1  0.585469  0.176759  0.176759  1
  O  O19  1  0.176759  0.585469  0.176759  1
  O  O20  1  0.129690  0.129690  0.129690  1
  O  O21  1  0.870310  0.870310  0.870310  1
