# generated using pymatgen
data_Sm2Y3LuRh18
_symmetry_space_group_name_H-M   'P 1'
_cell_length_a   5.28669200
_cell_length_b   5.28669237
_cell_length_c   17.51246200
_cell_angle_alpha   90.00000000
_cell_angle_beta   90.00000000
_cell_angle_gamma   119.99999769
_symmetry_Int_Tables_number   1
_chemical_formula_structural   Sm2Y3LuRh18
_chemical_formula_sum   'Sm2 Y3 Lu1 Rh18'
_cell_volume   423.88289986
_cell_formula_units_Z   1
loop_
 _symmetry_equiv_pos_site_id
 _symmetry_equiv_pos_as_xyz
  1  'x, y, z'
loop_
 _atom_site_type_symbol
 _atom_site_label
 _atom_site_symmetry_multiplicity
 _atom_site_fract_x
 _atom_site_fract_y
 _atom_site_fract_z
 _atom_site_occupancy
  Sm  Sm0  1  0.333333  0.666667  0.751147  1
  Sm  Sm1  1  0.666667  0.333333  0.249313  1
  Y  Y2  1  0.666667  0.333333  0.040344  1
  Y  Y3  1  0.666667  0.333333  0.458061  1
  Y  Y4  1  0.333333  0.666667  0.542089  1
  Lu  Lu5  1  0.333333  0.666667  0.957696  1
  Rh  Rh6  1  0.167230  0.832770  0.373960  1
  Rh  Rh7  1  0.167230  0.334459  0.373960  1
  Rh  Rh8  1  0.665541  0.832770  0.373960  1
  Rh  Rh9  1  0.832704  0.167296  0.626142  1
  Rh  Rh10  1  0.832704  0.665408  0.626142  1
  Rh  Rh11  1  0.334592  0.167296  0.626142  1
  Rh  Rh12  1  0.832467  0.167533  0.875589  1
  Rh  Rh13  1  0.832467  0.664935  0.875589  1
  Rh  Rh14  1  0.335065  0.167533  0.875589  1
  Rh  Rh15  1  0.167602  0.832398  0.124760  1
  Rh  Rh16  1  0.167602  0.335203  0.124760  1
  Rh  Rh17  1  0.664797  0.832398  0.124760  1
  Rh  Rh18  1  0.333333  0.666667  0.249552  1
  Rh  Rh19  1  0.666667  0.333333  0.750608  1
  Rh  Rh20  1  0.000000  0.000000  0.249111  1
  Rh  Rh21  1  0.000000  0.000000  0.750717  1
  Rh  Rh22  1  0.000000  0.000000  0.500100  1
  Rh  Rh23  1  0.000000  0.000000  0.999907  1
