# generated using pymatgen
data_TbSmNi2(B4Os3)2
_symmetry_space_group_name_H-M   'P 1'
_cell_length_a   7.57551210
_cell_length_b   7.28180877
_cell_length_c   3.99985700
_cell_angle_alpha   90.00000000
_cell_angle_beta   90.00000000
_cell_angle_gamma   87.65390173
_symmetry_Int_Tables_number   1
_chemical_formula_structural   TbSmNi2(B4Os3)2
_chemical_formula_sum   'Tb1 Sm1 Ni2 B8 Os6'
_cell_volume   220.46088418
_cell_formula_units_Z   1
loop_
 _symmetry_equiv_pos_site_id
 _symmetry_equiv_pos_as_xyz
  1  'x, y, z'
loop_
 _atom_site_type_symbol
 _atom_site_label
 _atom_site_symmetry_multiplicity
 _atom_site_fract_x
 _atom_site_fract_y
 _atom_site_fract_z
 _atom_site_occupancy
  Tb  Tb0  1  0.500000  0.500000  0.601455  1
  Sm  Sm1  1  0.000000  0.000000  0.018513  1
  Ni  Ni2  1  0.139203  0.384737  0.880859  1
  Ni  Ni3  1  0.860797  0.615263  0.880859  1
  B  B4  1  0.672515  0.779182  0.105866  1
  B  B5  1  0.327485  0.220818  0.105866  1
  B  B6  1  0.279478  0.835757  0.602363  1
  B  B7  1  0.720522  0.164243  0.602363  1
  B  B8  1  0.843506  0.691435  0.383009  1
  B  B9  1  0.156494  0.308565  0.383009  1
  B  B10  1  0.205631  0.669417  0.881415  1
  B  B11  1  0.794369  0.330583  0.881415  1
  Os  Os12  1  0.880278  0.368633  0.375224  1
  Os  Os13  1  0.119722  0.631367  0.375224  1
  Os  Os14  1  0.347694  0.115422  0.606283  1
  Os  Os15  1  0.652306  0.884578  0.606283  1
  Os  Os16  1  0.602896  0.151976  0.104997  1
  Os  Os17  1  0.397104  0.848024  0.104997  1
