# generated using pymatgen
data_Pr2Al5SnAu6
_symmetry_space_group_name_H-M   'P 1'
_cell_length_a   4.46407000
_cell_length_b   7.36409100
_cell_length_c   8.76950100
_cell_angle_alpha   90.00000000
_cell_angle_beta   90.00000000
_cell_angle_gamma   90.00000000
_symmetry_Int_Tables_number   1
_chemical_formula_structural   Pr2Al5SnAu6
_chemical_formula_sum   'Pr2 Al5 Sn1 Au6'
_cell_volume   288.28697728
_cell_formula_units_Z   1
loop_
 _symmetry_equiv_pos_site_id
 _symmetry_equiv_pos_as_xyz
  1  'x, y, z'
loop_
 _atom_site_type_symbol
 _atom_site_label
 _atom_site_symmetry_multiplicity
 _atom_site_fract_x
 _atom_site_fract_y
 _atom_site_fract_z
 _atom_site_occupancy
  Pr  Pr0  1  0.500000  0.000000  0.737402  1
  Pr  Pr1  1  0.000000  0.500000  0.250822  1
  Al  Al2  1  0.000000  0.305396  0.896862  1
  Al  Al3  1  0.500000  0.195649  0.102349  1
  Al  Al4  1  0.000000  0.694604  0.896862  1
  Al  Al5  1  0.500000  0.804351  0.102349  1
  Al  Al6  1  0.500000  0.500000  0.629875  1
  Sn  Sn7  1  0.000000  0.000000  0.382563  1
  Au  Au8  1  0.000000  0.710035  0.609995  1
  Au  Au9  1  0.500000  0.749567  0.393869  1
  Au  Au10  1  0.500000  0.500000  0.942983  1
  Au  Au11  1  0.000000  0.000000  0.050205  1
  Au  Au12  1  0.500000  0.250433  0.393869  1
  Au  Au13  1  0.000000  0.289965  0.609995  1
