# generated using pymatgen
data_Yb3DyTm4(B6Ru)4
_symmetry_space_group_name_H-M   'P 1'
_cell_length_a   3.63201000
_cell_length_b   9.11458790
_cell_length_c   11.50412401
_cell_angle_alpha   89.93865207
_cell_angle_beta   90.00000000
_cell_angle_gamma   90.00000000
_symmetry_Int_Tables_number   1
_chemical_formula_structural   Yb3DyTm4(B6Ru)4
_chemical_formula_sum   'Yb3 Dy1 Tm4 B24 Ru4'
_cell_volume   380.83545952
_cell_formula_units_Z   1
loop_
 _symmetry_equiv_pos_site_id
 _symmetry_equiv_pos_as_xyz
  1  'x, y, z'
loop_
 _atom_site_type_symbol
 _atom_site_label
 _atom_site_symmetry_multiplicity
 _atom_site_fract_x
 _atom_site_fract_y
 _atom_site_fract_z
 _atom_site_occupancy
  Yb  Yb0  1  0.000000  0.324705  0.414707  1
  Yb  Yb1  1  0.000000  0.675194  0.584754  1
  Yb  Yb2  1  0.000000  0.823407  0.085902  1
  Dy  Dy3  1  0.000000  0.175888  0.915177  1
  Tm  Tm4  1  0.000000  0.941147  0.366882  1
  Tm  Tm5  1  0.000000  0.057919  0.631167  1
  Tm  Tm6  1  0.000000  0.443102  0.132851  1
  Tm  Tm7  1  0.000000  0.558719  0.868060  1
  B  B8  1  0.500000  0.553548  0.432839  1
  B  B9  1  0.500000  0.445797  0.567920  1
  B  B10  1  0.500000  0.054055  0.067064  1
  B  B11  1  0.500000  0.945614  0.933080  1
  B  B12  1  0.500000  0.749005  0.417400  1
  B  B13  1  0.500000  0.250811  0.582721  1
  B  B14  1  0.500000  0.249542  0.082197  1
  B  B15  1  0.500000  0.751260  0.917762  1
  B  B16  1  0.500000  0.790984  0.264057  1
  B  B17  1  0.500000  0.208527  0.736040  1
  B  B18  1  0.500000  0.291278  0.235050  1
  B  B19  1  0.500000  0.709722  0.764740  1
  B  B20  1  0.500000  0.630715  0.185547  1
  B  B21  1  0.500000  0.369343  0.815395  1
  B  B22  1  0.500000  0.130800  0.313938  1
  B  B23  1  0.500000  0.869624  0.684976  1
  B  B24  1  0.500000  0.982924  0.210752  1
  B  B25  1  0.500000  0.016930  0.788439  1
  B  B26  1  0.500000  0.483486  0.288880  1
  B  B27  1  0.500000  0.516353  0.711885  1
  B  B28  1  0.500000  0.598608  0.027193  1
  B  B29  1  0.500000  0.401089  0.972967  1
  B  B30  1  0.500000  0.096607  0.472910  1
  B  B31  1  0.500000  0.903142  0.526117  1
  Ru  Ru32  1  0.000000  0.639177  0.320113  1
  Ru  Ru33  1  0.000000  0.359667  0.681288  1
  Ru  Ru34  1  0.000000  0.138925  0.179447  1
  Ru  Ru35  1  0.000000  0.862388  0.819781  1
