# generated using pymatgen
data_Tb5Ho4Er11Pb16
_symmetry_space_group_name_H-M   'P 1'
_cell_length_a   8.18885900
_cell_length_b   8.26647316
_cell_length_c   15.59930500
_cell_angle_alpha   90.00839357
_cell_angle_beta   89.99992304
_cell_angle_gamma   90.06349586
_symmetry_Int_Tables_number   1
_chemical_formula_structural   Tb5Ho4Er11Pb16
_chemical_formula_sum   'Tb5 Ho4 Er11 Pb16'
_cell_volume   1055.96283113
_cell_formula_units_Z   1
loop_
 _symmetry_equiv_pos_site_id
 _symmetry_equiv_pos_as_xyz
  1  'x, y, z'
loop_
 _atom_site_type_symbol
 _atom_site_label
 _atom_site_symmetry_multiplicity
 _atom_site_fract_x
 _atom_site_fract_y
 _atom_site_fract_z
 _atom_site_occupancy
  Tb  Tb0  1  0.964989  0.823602  0.100118  1
  Tb  Tb1  1  0.465478  0.676573  0.099592  1
  Tb  Tb2  1  0.965190  0.823233  0.400351  1
  Tb  Tb3  1  0.534501  0.323115  0.599539  1
  Tb  Tb4  1  0.034764  0.176675  0.900236  1
  Ho  Ho5  1  0.876345  0.658972  0.879169  1
  Ho  Ho6  1  0.534991  0.323062  0.900217  1
  Ho  Ho7  1  0.035084  0.176601  0.599715  1
  Ho  Ho8  1  0.464922  0.676613  0.400223  1
  Er  Er9  1  0.376020  0.841299  0.878689  1
  Er  Er10  1  0.876191  0.658629  0.621177  1
  Er  Er11  1  0.623884  0.158577  0.378852  1
  Er  Er12  1  0.123766  0.341414  0.121128  1
  Er  Er13  1  0.623627  0.158566  0.121435  1
  Er  Er14  1  0.123853  0.341282  0.378908  1
  Er  Er15  1  0.376251  0.841485  0.620981  1
  Er  Er16  1  0.208229  0.504418  0.749897  1
  Er  Er17  1  0.707940  0.995521  0.749791  1
  Er  Er18  1  0.791956  0.495131  0.250212  1
  Er  Er19  1  0.292013  0.004656  0.250037  1
  Pb  Pb20  1  0.282830  0.034788  0.042768  1
  Pb  Pb21  1  0.782292  0.465988  0.457056  1
  Pb  Pb22  1  0.717810  0.965728  0.543084  1
  Pb  Pb23  1  0.218486  0.533681  0.956821  1
  Pb  Pb24  1  0.716131  0.966460  0.956996  1
  Pb  Pb25  1  0.216708  0.534935  0.542665  1
  Pb  Pb26  1  0.282942  0.034983  0.457487  1
  Pb  Pb27  1  0.782677  0.464606  0.042883  1
  Pb  Pb28  1  0.570727  0.626684  0.749773  1
  Pb  Pb29  1  0.071145  0.873391  0.749736  1
  Pb  Pb30  1  0.429055  0.373102  0.250060  1
  Pb  Pb31  1  0.929174  0.127080  0.250112  1
  Pb  Pb32  1  0.346256  0.153172  0.750175  1
  Pb  Pb33  1  0.846530  0.346474  0.749487  1
  Pb  Pb34  1  0.653335  0.846503  0.250438  1
  Pb  Pb35  1  0.153903  0.653001  0.250193  1
