# generated using pymatgen
data_Li6RhO6
_symmetry_space_group_name_H-M   'P 1'
_cell_length_a   5.09525996
_cell_length_b   6.50947708
_cell_length_c   7.82550838
_cell_angle_alpha   90.03014835
_cell_angle_beta   90.30540393
_cell_angle_gamma   107.21627077
_symmetry_Int_Tables_number   1
_chemical_formula_structural   Li6RhO6
_chemical_formula_sum   'Li12 Rh2 O12'
_cell_volume   247.91883992
_cell_formula_units_Z   2
loop_
 _symmetry_equiv_pos_site_id
 _symmetry_equiv_pos_as_xyz
  1  'x, y, z'
loop_
 _atom_site_type_symbol
 _atom_site_label
 _atom_site_symmetry_multiplicity
 _atom_site_fract_x
 _atom_site_fract_y
 _atom_site_fract_z
 _atom_site_occupancy
  Li  Li0  1  0.902876  0.065288  0.347841  1
  Li  Li1  1  0.724078  0.659577  0.241214  1
  Li  Li2  1  0.720471  0.159936  0.742851  1
  Li  Li3  1  0.095802  0.434502  0.153121  1
  Li  Li4  1  0.416301  0.812251  0.908737  1
  Li  Li5  1  0.414523  0.312953  0.409320  1
  Li  Li6  1  0.583111  0.687506  0.590441  1
  Li  Li7  1  0.583748  0.187160  0.090102  1
  Li  Li8  1  0.903555  0.565199  0.847902  1
  Li  Li9  1  0.278994  0.340642  0.757486  1
  Li  Li10  1  0.284625  0.840838  0.255183  1
  Li  Li11  1  0.097576  0.932971  0.652851  1
  Rh  Rh12  1  0.998745  0.500239  0.500323  1
  Rh  Rh13  1  0.000438  0.000128  0.999941  1
  O  O14  1  0.777333  0.364741  0.300635  1
  O  O15  1  0.940529  0.278362  0.943430  1
  O  O16  1  0.663437  0.420424  0.641702  1
  O  O17  1  0.664552  0.919684  0.140483  1
  O  O18  1  0.060061  0.721664  0.056810  1
  O  O19  1  0.221096  0.636010  0.699810  1
  O  O20  1  0.938271  0.777834  0.443509  1
  O  O21  1  0.221378  0.134505  0.199994  1
  O  O22  1  0.336211  0.080117  0.859475  1
  O  O23  1  0.334362  0.579962  0.359263  1
  O  O24  1  0.779046  0.865272  0.800326  1
  O  O25  1  0.058880  0.222236  0.557252  1
