# generated using pymatgen
data_Pr4Hf3PdF28
_symmetry_space_group_name_H-M   'P 1'
_cell_length_a   5.79350896
_cell_length_b   9.30084618
_cell_length_c   12.48434620
_cell_angle_alpha   62.02179901
_cell_angle_beta   89.96452975
_cell_angle_gamma   89.93202944
_symmetry_Int_Tables_number   1
_chemical_formula_structural   Pr4Hf3PdF28
_chemical_formula_sum   'Pr4 Hf3 Pd1 F28'
_cell_volume   594.09019512
_cell_formula_units_Z   1
loop_
 _symmetry_equiv_pos_site_id
 _symmetry_equiv_pos_as_xyz
  1  'x, y, z'
loop_
 _atom_site_type_symbol
 _atom_site_label
 _atom_site_symmetry_multiplicity
 _atom_site_fract_x
 _atom_site_fract_y
 _atom_site_fract_z
 _atom_site_occupancy
  Pr  Pr0  1  0.757917  0.813665  0.764301  1
  Pr  Pr1  1  0.257619  0.188156  0.732009  1
  Pr  Pr2  1  0.240744  0.187745  0.239148  1
  Pr  Pr3  1  0.742737  0.809391  0.266537  1
  Hf  Hf4  1  0.754388  0.273371  0.957817  1
  Hf  Hf5  1  0.254992  0.725527  0.543056  1
  Hf  Hf6  1  0.245433  0.725869  0.042911  1
  Pd  Pd7  1  0.742189  0.273199  0.457001  1
  F  F8  1  0.451872  0.710206  0.919991  1
  F  F9  1  0.929909  0.292559  0.579559  1
  F  F10  1  0.545245  0.288319  0.080283  1
  F  F11  1  0.050388  0.711403  0.419481  1
  F  F12  1  0.458237  0.282894  0.538326  1
  F  F13  1  0.957093  0.718636  0.954859  1
  F  F14  1  0.543757  0.716309  0.456517  1
  F  F15  1  0.040590  0.280538  0.047396  1
  F  F16  1  0.770118  0.516792  0.862293  1
  F  F17  1  0.267156  0.481965  0.637419  1
  F  F18  1  0.228448  0.482728  0.139052  1
  F  F19  1  0.734103  0.510165  0.362245  1
  F  F20  1  0.760949  0.030146  0.055393  1
  F  F21  1  0.262341  0.968507  0.446889  1
  F  F22  1  0.238633  0.968960  0.943559  1
  F  F23  1  0.741412  0.036076  0.547078  1
  F  F24  1  0.978974  0.730940  0.638141  1
  F  F25  1  0.482050  0.268387  0.860214  1
  F  F26  1  0.020794  0.271750  0.369880  1
  F  F27  1  0.520349  0.730899  0.138412  1
  F  F28  1  0.048962  0.745233  0.168436  1
  F  F29  1  0.558233  0.260220  0.330634  1
  F  F30  1  0.956273  0.255770  0.832468  1
  F  F31  1  0.453536  0.743104  0.668919  1
  F  F32  1  0.411623  0.967987  0.232563  1
  F  F33  1  0.911386  0.031897  0.269809  1
  F  F34  1  0.589692  0.034404  0.768373  1
  F  F35  1  0.091858  0.966281  0.729033  1
