# generated using pymatgen
data_Dy4Al18ZnIr4Ru
_symmetry_space_group_name_H-M   'P 1'
_cell_length_a   7.57999511
_cell_length_b   7.57999472
_cell_length_c   9.47631835
_cell_angle_alpha   89.97292401
_cell_angle_beta   89.97292198
_cell_angle_gamma   119.74679566
_symmetry_Int_Tables_number   1
_chemical_formula_structural   Dy4Al18ZnIr4Ru
_chemical_formula_sum   'Dy4 Al18 Zn1 Ir4 Ru1'
_cell_volume   472.72693418
_cell_formula_units_Z   1
loop_
 _symmetry_equiv_pos_site_id
 _symmetry_equiv_pos_as_xyz
  1  'x, y, z'
loop_
 _atom_site_type_symbol
 _atom_site_label
 _atom_site_symmetry_multiplicity
 _atom_site_fract_x
 _atom_site_fract_y
 _atom_site_fract_z
 _atom_site_occupancy
  Dy  Dy0  1  0.991919  0.666819  0.749812  1
  Dy  Dy1  1  0.001264  0.329008  0.250674  1
  Dy  Dy2  1  0.670992  0.998736  0.749326  1
  Dy  Dy3  1  0.333181  0.008081  0.250188  1
  Al  Al4  1  0.127622  0.124850  0.751180  1
  Al  Al5  1  0.875150  0.872378  0.248820  1
  Al  Al6  1  0.014389  0.337504  0.578132  1
  Al  Al7  1  0.009338  0.674970  0.422412  1
  Al  Al8  1  0.002112  0.665540  0.072638  1
  Al  Al9  1  0.334460  0.997888  0.927362  1
  Al  Al10  1  0.000239  0.333968  0.925899  1
  Al  Al11  1  0.666032  0.999761  0.074101  1
  Al  Al12  1  0.662496  0.985611  0.421868  1
  Al  Al13  1  0.325030  0.990662  0.577588  1
  Al  Al14  1  0.331594  0.331898  0.048906  1
  Al  Al15  1  0.668102  0.668406  0.951094  1
  Al  Al16  1  0.663080  0.671770  0.559336  1
  Al  Al17  1  0.328230  0.336920  0.440664  1
  Al  Al18  1  0.341237  0.552292  0.750070  1
  Al  Al19  1  0.660544  0.458353  0.242536  1
  Al  Al20  1  0.541647  0.339456  0.757464  1
  Al  Al21  1  0.447708  0.658763  0.249930  1
  Zn  Zn22  1  0.674165  0.325835  0.500000  1
  Ir  Ir23  1  0.328741  0.671259  0.000000  1
  Ir  Ir24  1  0.672337  0.327663  0.000000  1
  Ir  Ir25  1  0.999285  0.000715  0.500000  1
  Ir  Ir26  1  0.000531  0.999469  0.000000  1
  Ru  Ru27  1  0.328578  0.671422  0.500000  1
