# generated using pymatgen
data_BaCoP3N5O2
_symmetry_space_group_name_H-M   'P 1'
_cell_length_a   6.78070100
_cell_length_b   7.17919561
_cell_length_c   14.28670670
_cell_angle_alpha   60.63034687
_cell_angle_beta   90.00000000
_cell_angle_gamma   90.00000000
_symmetry_Int_Tables_number   1
_chemical_formula_structural   BaCoP3N5O2
_chemical_formula_sum   'Ba4 Co4 P12 N20 O8'
_cell_volume   606.08954641
_cell_formula_units_Z   4
loop_
 _symmetry_equiv_pos_site_id
 _symmetry_equiv_pos_as_xyz
  1  'x, y, z'
loop_
 _atom_site_type_symbol
 _atom_site_label
 _atom_site_symmetry_multiplicity
 _atom_site_fract_x
 _atom_site_fract_y
 _atom_site_fract_z
 _atom_site_occupancy
  Ba  Ba0  1  0.754736  0.505387  0.612153  1
  Ba  Ba1  1  0.254736  0.494613  0.887847  1
  Ba  Ba2  1  0.245264  0.494613  0.387847  1
  Ba  Ba3  1  0.745264  0.505387  0.112153  1
  Co  Co4  1  0.512726  0.000211  0.875572  1
  Co  Co5  1  0.012726  0.999789  0.624428  1
  Co  Co6  1  0.487274  0.999789  0.124428  1
  Co  Co7  1  0.987274  0.000211  0.375572  1
  P  P8  1  0.013571  0.956311  0.874941  1
  P  P9  1  0.513571  0.043689  0.625059  1
  P  P10  1  0.986429  0.043689  0.125059  1
  P  P11  1  0.486429  0.956311  0.374941  1
  P  P12  1  0.283553  0.740763  0.583851  1
  P  P13  1  0.783553  0.259237  0.916149  1
  P  P14  1  0.716447  0.259237  0.416149  1
  P  P15  1  0.216447  0.740763  0.083851  1
  P  P16  1  0.764874  0.729337  0.794656  1
  P  P17  1  0.264874  0.270663  0.705344  1
  P  P18  1  0.235126  0.270663  0.205344  1
  P  P19  1  0.735126  0.729337  0.294656  1
  N  N20  1  0.309921  0.920838  0.622807  1
  N  N21  1  0.809921  0.079162  0.877193  1
  N  N22  1  0.690079  0.079162  0.377193  1
  N  N23  1  0.190079  0.920838  0.122807  1
  N  N24  1  0.703930  0.881666  0.666927  1
  N  N25  1  0.203930  0.118334  0.833073  1
  N  N26  1  0.296070  0.118334  0.333073  1
  N  N27  1  0.796070  0.881666  0.166927  1
  N  N28  1  0.972343  0.848964  0.797904  1
  N  N29  1  0.472343  0.151036  0.702096  1
  N  N30  1  0.027657  0.151036  0.202096  1
  N  N31  1  0.527657  0.848964  0.297904  1
  N  N32  1  0.813449  0.493776  0.810415  1
  N  N33  1  0.313449  0.506224  0.689585  1
  N  N34  1  0.186551  0.506224  0.189585  1
  N  N35  1  0.686551  0.493776  0.310415  1
  N  N36  1  0.565886  0.245609  0.507365  1
  N  N37  1  0.065886  0.754391  0.992635  1
  N  N38  1  0.434114  0.754391  0.492635  1
  N  N39  1  0.934114  0.245609  0.007365  1
  O  O40  1  0.064210  0.781334  0.542203  1
  O  O41  1  0.564210  0.218666  0.957797  1
  O  O42  1  0.935790  0.218666  0.457797  1
  O  O43  1  0.435790  0.781334  0.042203  1
  O  O44  1  0.606696  0.715175  0.876812  1
  O  O45  1  0.106696  0.284825  0.623188  1
  O  O46  1  0.393304  0.284825  0.123188  1
  O  O47  1  0.893304  0.715175  0.376812  1
