# generated using pymatgen
data_Ca6InGe3Pd4
_symmetry_space_group_name_H-M   'P 1'
_cell_length_a   5.72519000
_cell_length_b   8.09493100
_cell_length_c   13.67619100
_cell_angle_alpha   90.00000000
_cell_angle_beta   90.00000000
_cell_angle_gamma   90.00000000
_symmetry_Int_Tables_number   1
_chemical_formula_structural   Ca6InGe3Pd4
_chemical_formula_sum   'Ca12 In2 Ge6 Pd8'
_cell_volume   633.82331823
_cell_formula_units_Z   2
loop_
 _symmetry_equiv_pos_site_id
 _symmetry_equiv_pos_as_xyz
  1  'x, y, z'
loop_
 _atom_site_type_symbol
 _atom_site_label
 _atom_site_symmetry_multiplicity
 _atom_site_fract_x
 _atom_site_fract_y
 _atom_site_fract_z
 _atom_site_occupancy
  Ca  Ca0  1  0.146056  0.603419  0.105770  1
  Ca  Ca1  1  0.146056  0.896581  0.894230  1
  Ca  Ca2  1  0.853944  0.103419  0.394230  1
  Ca  Ca3  1  0.853944  0.396581  0.605770  1
  Ca  Ca4  1  0.860816  0.390109  0.895544  1
  Ca  Ca5  1  0.860816  0.109891  0.104456  1
  Ca  Ca6  1  0.139184  0.890109  0.604456  1
  Ca  Ca7  1  0.139184  0.609891  0.395544  1
  Ca  Ca8  1  0.352234  0.248806  0.249240  1
  Ca  Ca9  1  0.352234  0.251194  0.750760  1
  Ca  Ca10  1  0.647766  0.748806  0.250760  1
  Ca  Ca11  1  0.647766  0.751194  0.749240  1
  In  In12  1  0.655263  0.750000  0.000000  1
  In  In13  1  0.344737  0.250000  0.500000  1
  Ge  Ge14  1  0.348700  0.250000  0.000000  1
  Ge  Ge15  1  0.651300  0.750000  0.500000  1
  Ge  Ge16  1  0.849294  0.397570  0.251329  1
  Ge  Ge17  1  0.849294  0.102430  0.748671  1
  Ge  Ge18  1  0.150706  0.897570  0.248671  1
  Ge  Ge19  1  0.150706  0.602430  0.751329  1
  Pd  Pd20  1  0.621046  0.450544  0.093220  1
  Pd  Pd21  1  0.621046  0.049456  0.906780  1
  Pd  Pd22  1  0.378954  0.950544  0.406780  1
  Pd  Pd23  1  0.378954  0.549456  0.593220  1
  Pd  Pd24  1  0.368902  0.525408  0.907945  1
  Pd  Pd25  1  0.368902  0.974592  0.092055  1
  Pd  Pd26  1  0.631098  0.025408  0.592055  1
  Pd  Pd27  1  0.631098  0.474592  0.407945  1
