# generated using pymatgen
data_DyYTc3Ru
_symmetry_space_group_name_H-M   'P 1'
_cell_length_a   5.26645400
_cell_length_b   5.26645541
_cell_length_c   9.21313000
_cell_angle_alpha   90.00000000
_cell_angle_beta   90.00000000
_cell_angle_gamma   120.00000372
_symmetry_Int_Tables_number   1
_chemical_formula_structural   DyYTc3Ru
_chemical_formula_sum   'Dy2 Y2 Tc6 Ru2'
_cell_volume   221.29648770
_cell_formula_units_Z   2
loop_
 _symmetry_equiv_pos_site_id
 _symmetry_equiv_pos_as_xyz
  1  'x, y, z'
loop_
 _atom_site_type_symbol
 _atom_site_label
 _atom_site_symmetry_multiplicity
 _atom_site_fract_x
 _atom_site_fract_y
 _atom_site_fract_z
 _atom_site_occupancy
  Dy  Dy0  1  0.333333  0.666667  0.437865  1
  Dy  Dy1  1  0.666667  0.333333  0.562135  1
  Y  Y2  1  0.666667  0.333333  0.937386  1
  Y  Y3  1  0.333333  0.666667  0.062614  1
  Tc  Tc4  1  0.170822  0.341643  0.749665  1
  Tc  Tc5  1  0.170822  0.829178  0.749665  1
  Tc  Tc6  1  0.341643  0.170822  0.250335  1
  Tc  Tc7  1  0.829178  0.658357  0.250335  1
  Tc  Tc8  1  0.658357  0.829178  0.749665  1
  Tc  Tc9  1  0.829178  0.170822  0.250335  1
  Ru  Ru10  1  0.000000  0.000000  0.000000  1
  Ru  Ru11  1  0.000000  0.000000  0.500000  1
