# generated using pymatgen
data_K6GaAg10Pb
_symmetry_space_group_name_H-M   'P 1'
_cell_length_a   11.17966108
_cell_length_b   11.17966197
_cell_length_c   11.17966191
_cell_angle_alpha   150.21115630
_cell_angle_beta   133.56867631
_cell_angle_gamma   56.14550239
_symmetry_Int_Tables_number   1
_chemical_formula_structural   K6GaAg10Pb
_chemical_formula_sum   'K6 Ga1 Ag10 Pb1'
_cell_volume   499.68329930
_cell_formula_units_Z   1
loop_
 _symmetry_equiv_pos_site_id
 _symmetry_equiv_pos_as_xyz
  1  'x, y, z'
loop_
 _atom_site_type_symbol
 _atom_site_label
 _atom_site_symmetry_multiplicity
 _atom_site_fract_x
 _atom_site_fract_y
 _atom_site_fract_z
 _atom_site_occupancy
  K  K0  1  0.138293  0.250000  0.888293  1
  K  K1  1  0.861455  0.750000  0.111455  1
  K  K2  1  0.466765  0.588016  0.878748  1
  K  K3  1  0.216669  0.090887  0.125781  1
  K  K4  1  0.534894  0.409113  0.125781  1
  K  K5  1  0.790730  0.911984  0.878748  1
  Ga  Ga6  1  0.587854  0.250000  0.337854  1
  Ag  Ag7  1  0.678365  0.147711  0.530655  1
  Ag  Ag8  1  0.317219  0.855781  0.461438  1
  Ag  Ag9  1  0.500019  0.000561  0.499458  1
  Ag  Ag10  1  0.105658  0.644219  0.461438  1
  Ag  Ag11  1  0.179533  0.682326  0.995698  1
  Ag  Ag12  1  0.882943  0.352289  0.530655  1
  Ag  Ag13  1  0.813372  0.316165  0.995698  1
  Ag  Ag14  1  0.179533  0.183835  0.497207  1
  Ag  Ag15  1  0.998896  0.499439  0.499458  1
  Ag  Ag16  1  0.813372  0.817674  0.497207  1
  Pb  Pb17  1  0.434429  0.750000  0.684429  1
