# generated using pymatgen
data_Dy4Cd2CuNi3
_symmetry_space_group_name_H-M   'P 1'
_cell_length_a   7.42120565
_cell_length_b   7.42120565
_cell_length_c   3.65753200
_cell_angle_alpha   90.00000000
_cell_angle_beta   90.00000000
_cell_angle_gamma   90.36502816
_symmetry_Int_Tables_number   1
_chemical_formula_structural   Dy4Cd2CuNi3
_chemical_formula_sum   'Dy4 Cd2 Cu1 Ni3'
_cell_volume   201.43190223
_cell_formula_units_Z   1
loop_
 _symmetry_equiv_pos_site_id
 _symmetry_equiv_pos_as_xyz
  1  'x, y, z'
loop_
 _atom_site_type_symbol
 _atom_site_label
 _atom_site_symmetry_multiplicity
 _atom_site_fract_x
 _atom_site_fract_y
 _atom_site_fract_z
 _atom_site_occupancy
  Dy  Dy0  1  0.685624  0.170837  0.500000  1
  Dy  Dy1  1  0.329163  0.814376  0.500000  1
  Dy  Dy2  1  0.163016  0.336984  0.500000  1
  Dy  Dy3  1  0.824696  0.675304  0.500000  1
  Cd  Cd4  1  0.004767  0.998631  0.000000  1
  Cd  Cd5  1  0.501369  0.495233  0.000000  1
  Cu  Cu6  1  0.380318  0.119682  0.000000  1
  Ni  Ni7  1  0.116348  0.624424  0.000000  1
  Ni  Ni8  1  0.875576  0.383652  0.000000  1
  Ni  Ni9  1  0.619123  0.880877  0.000000  1
