# generated using pymatgen
data_TbDyTc3Ge4
_symmetry_space_group_name_H-M   'P 1'
_cell_length_a   8.31445200
_cell_length_b   5.69735969
_cell_length_c   7.02213170
_cell_angle_alpha   76.26075843
_cell_angle_beta   90.00000000
_cell_angle_gamma   90.00000000
_symmetry_Int_Tables_number   1
_chemical_formula_structural   TbDyTc3Ge4
_chemical_formula_sum   'Tb2 Dy2 Tc6 Ge8'
_cell_volume   323.12338158
_cell_formula_units_Z   2
loop_
 _symmetry_equiv_pos_site_id
 _symmetry_equiv_pos_as_xyz
  1  'x, y, z'
loop_
 _atom_site_type_symbol
 _atom_site_label
 _atom_site_symmetry_multiplicity
 _atom_site_fract_x
 _atom_site_fract_y
 _atom_site_fract_z
 _atom_site_occupancy
  Tb  Tb0  1  0.555667  0.076387  0.245258  1
  Tb  Tb1  1  0.055667  0.423613  0.754742  1
  Dy  Dy2  1  0.444339  0.923426  0.755012  1
  Dy  Dy3  1  0.944339  0.576574  0.244988  1
  Tc  Tc4  1  0.205014  0.112197  0.115709  1
  Tc  Tc5  1  0.705014  0.387803  0.884291  1
  Tc  Tc6  1  0.794986  0.887708  0.884407  1
  Tc  Tc7  1  0.294986  0.612292  0.115593  1
  Tc  Tc8  1  0.999946  0.000084  0.499802  1
  Tc  Tc9  1  0.499946  0.499916  0.500198  1
  Ge  Ge10  1  0.901453  0.120465  0.126713  1
  Ge  Ge11  1  0.401453  0.379535  0.873287  1
  Ge  Ge12  1  0.098669  0.879379  0.873529  1
  Ge  Ge13  1  0.598669  0.620621  0.126471  1
  Ge  Ge14  1  0.747477  0.222101  0.578385  1
  Ge  Ge15  1  0.247477  0.277899  0.421615  1
  Ge  Ge16  1  0.252449  0.777906  0.421636  1
  Ge  Ge17  1  0.752449  0.722094  0.578364  1
