# generated using pymatgen
data_Tb3Yb9(PrPb2)8
_symmetry_space_group_name_H-M   'P 1'
_cell_length_a   8.09014737
_cell_length_b   8.59604920
_cell_length_c   16.18443742
_cell_angle_alpha   90.07927073
_cell_angle_beta   89.89729376
_cell_angle_gamma   89.97864259
_symmetry_Int_Tables_number   1
_chemical_formula_structural   Tb3Yb9(PrPb2)8
_chemical_formula_sum   'Tb3 Yb9 Pr8 Pb16'
_cell_volume   1125.51630093
_cell_formula_units_Z   1
loop_
 _symmetry_equiv_pos_site_id
 _symmetry_equiv_pos_as_xyz
  1  'x, y, z'
loop_
 _atom_site_type_symbol
 _atom_site_label
 _atom_site_symmetry_multiplicity
 _atom_site_fract_x
 _atom_site_fract_y
 _atom_site_fract_z
 _atom_site_occupancy
  Tb  Tb0  1  0.666228  0.166027  0.624003  1
  Tb  Tb1  1  0.165523  0.333357  0.876831  1
  Tb  Tb2  1  0.336080  0.832956  0.123544  1
  Yb  Yb3  1  0.833670  0.664562  0.377590  1
  Yb  Yb4  1  0.332378  0.835692  0.377177  1
  Yb  Yb5  1  0.832959  0.664917  0.121837  1
  Yb  Yb6  1  0.667758  0.163726  0.877516  1
  Yb  Yb7  1  0.167684  0.336061  0.622319  1
  Yb  Yb8  1  0.833896  0.496745  0.749463  1
  Yb  Yb9  1  0.333896  0.003032  0.750688  1
  Yb  Yb10  1  0.163749  0.503965  0.250067  1
  Yb  Yb11  1  0.666209  0.995608  0.251472  1
  Pr  Pr12  1  0.501259  0.684133  0.595208  1
  Pr  Pr13  1  0.000646  0.815064  0.905310  1
  Pr  Pr14  1  0.500443  0.314598  0.095092  1
  Pr  Pr15  1  0.997974  0.187075  0.405325  1
  Pr  Pr16  1  0.497270  0.314904  0.404341  1
  Pr  Pr17  1  0.996522  0.185718  0.094165  1
  Pr  Pr18  1  0.502878  0.684983  0.904830  1
  Pr  Pr19  1  0.002450  0.813706  0.594512  1
  Pb  Pb20  1  0.679778  0.962557  0.460382  1
  Pb  Pb21  1  0.184413  0.540315  0.039851  1
  Pb  Pb22  1  0.315692  0.040187  0.960733  1
  Pb  Pb23  1  0.818485  0.459636  0.541229  1
  Pb  Pb24  1  0.323973  0.039687  0.542298  1
  Pb  Pb25  1  0.822795  0.460064  0.957568  1
  Pb  Pb26  1  0.677450  0.960146  0.041793  1
  Pb  Pb27  1  0.180415  0.539697  0.458801  1
  Pb  Pb28  1  0.468030  0.384509  0.752531  1
  Pb  Pb29  1  0.967959  0.116121  0.747291  1
  Pb  Pb30  1  0.530682  0.613712  0.250222  1
  Pb  Pb31  1  0.033180  0.888818  0.247571  1
  Pb  Pb32  1  0.703512  0.854524  0.749688  1
  Pb  Pb33  1  0.203193  0.644995  0.750927  1
  Pb  Pb34  1  0.296186  0.144835  0.248509  1
  Pb  Pb35  1  0.794782  0.353368  0.249318  1
