# generated using pymatgen
data_Tb10GaSn3Bi4
_symmetry_space_group_name_H-M   'P 1'
_cell_length_a   8.93428401
_cell_length_b   8.93428464
_cell_length_c   8.19643900
_cell_angle_alpha   89.89496744
_cell_angle_beta   89.89497384
_cell_angle_gamma   125.48232347
_symmetry_Int_Tables_number   1
_chemical_formula_structural   Tb10GaSn3Bi4
_chemical_formula_sum   'Tb10 Ga1 Sn3 Bi4'
_cell_volume   532.74924711
_cell_formula_units_Z   1
loop_
 _symmetry_equiv_pos_site_id
 _symmetry_equiv_pos_as_xyz
  1  'x, y, z'
loop_
 _atom_site_type_symbol
 _atom_site_label
 _atom_site_symmetry_multiplicity
 _atom_site_fract_x
 _atom_site_fract_y
 _atom_site_fract_z
 _atom_site_occupancy
  Tb  Tb0  1  0.046677  0.303208  0.325919  1
  Tb  Tb1  1  0.963236  0.701999  0.666713  1
  Tb  Tb2  1  0.463277  0.202942  0.839102  1
  Tb  Tb3  1  0.790368  0.530793  0.166404  1
  Tb  Tb4  1  0.530793  0.790368  0.166404  1
  Tb  Tb5  1  0.202942  0.463277  0.839102  1
  Tb  Tb6  1  0.701999  0.963236  0.666713  1
  Tb  Tb7  1  0.303208  0.046677  0.325919  1
  Tb  Tb8  1  0.005015  0.005015  0.001592  1
  Tb  Tb9  1  0.498802  0.498802  0.495186  1
  Ga  Ga10  1  0.364778  0.364778  0.134053  1
  Sn  Sn11  1  0.630039  0.630039  0.870178  1
  Sn  Sn12  1  0.136184  0.136184  0.634315  1
  Sn  Sn13  1  0.865676  0.865676  0.364487  1
  Bi  Bi14  1  0.791873  0.202305  0.000837  1
  Bi  Bi15  1  0.202305  0.791873  0.000837  1
  Bi  Bi16  1  0.707522  0.295303  0.501120  1
  Bi  Bi17  1  0.295303  0.707522  0.501120  1
