# generated using pymatgen
data_Sc4Mn2(TcOs)3
_symmetry_space_group_name_H-M   'P 1'
_cell_length_a   5.09376239
_cell_length_b   5.17291010
_cell_length_c   8.63920800
_cell_angle_alpha   90.00000000
_cell_angle_beta   90.00000000
_cell_angle_gamma   119.78411104
_symmetry_Int_Tables_number   1
_chemical_formula_structural   Sc4Mn2(TcOs)3
_chemical_formula_sum   'Sc4 Mn2 Tc3 Os3'
_cell_volume   197.56902292
_cell_formula_units_Z   1
loop_
 _symmetry_equiv_pos_site_id
 _symmetry_equiv_pos_as_xyz
  1  'x, y, z'
loop_
 _atom_site_type_symbol
 _atom_site_label
 _atom_site_symmetry_multiplicity
 _atom_site_fract_x
 _atom_site_fract_y
 _atom_site_fract_z
 _atom_site_occupancy
  Sc  Sc0  1  0.332012  0.664018  0.064155  1
  Sc  Sc1  1  0.668007  0.330713  0.560829  1
  Sc  Sc2  1  0.668007  0.330713  0.939171  1
  Sc  Sc3  1  0.332012  0.664018  0.435845  1
  Mn  Mn4  1  0.827921  0.169340  0.250000  1
  Mn  Mn5  1  0.173504  0.346179  0.750000  1
  Tc  Tc6  1  0.174199  0.835502  0.750000  1
  Tc  Tc7  1  0.649922  0.830235  0.750000  1
  Tc  Tc8  1  0.346230  0.176103  0.250000  1
  Os  Os9  1  0.001249  0.997582  0.999393  1
  Os  Os10  1  0.001249  0.997582  0.500607  1
  Os  Os11  1  0.825686  0.658014  0.250000  1
