# generated using pymatgen
data_Ce2Ti(Mn7C)3
_symmetry_space_group_name_H-M   'P 1'
_cell_length_a   6.53717885
_cell_length_b   7.80658096
_cell_length_c   7.82050099
_cell_angle_alpha   99.08358232
_cell_angle_beta   114.83956343
_cell_angle_gamma   65.38205450
_symmetry_Int_Tables_number   1
_chemical_formula_structural   Ce2Ti(Mn7C)3
_chemical_formula_sum   'Ce2 Ti1 Mn21 C3'
_cell_volume   329.19059337
_cell_formula_units_Z   1
loop_
 _symmetry_equiv_pos_site_id
 _symmetry_equiv_pos_as_xyz
  1  'x, y, z'
loop_
 _atom_site_type_symbol
 _atom_site_label
 _atom_site_symmetry_multiplicity
 _atom_site_fract_x
 _atom_site_fract_y
 _atom_site_fract_z
 _atom_site_occupancy
  Ce  Ce0  1  0.380975  0.749752  0.249752  1
  Ce  Ce1  1  0.619692  0.250742  0.750742  1
  Ti  Ti2  1  0.121011  0.246637  0.746637  1
  Mn  Mn3  1  0.004079  0.506063  0.006063  1
  Mn  Mn4  1  0.993018  0.506904  0.493135  1
  Mn  Mn5  1  0.506787  0.993135  0.006904  1
  Mn  Mn6  1  0.005191  0.990841  0.490841  1
  Mn  Mn7  1  0.879773  0.752431  0.252431  1
  Mn  Mn8  1  0.175421  0.177389  0.414716  1
  Mn  Mn9  1  0.438095  0.914716  0.677389  1
  Mn  Mn10  1  0.853284  0.824006  0.919603  1
  Mn  Mn11  1  0.257686  0.419603  0.324006  1
  Mn  Mn12  1  0.185035  0.576071  0.831057  1
  Mn  Mn13  1  0.430049  0.331057  0.076071  1
  Mn  Mn14  1  0.846658  0.090783  0.170154  1
  Mn  Mn15  1  0.267287  0.670154  0.590783  1
  Mn  Mn16  1  0.824034  0.825063  0.582909  1
  Mn  Mn17  1  0.566186  0.082909  0.325063  1
  Mn  Mn18  1  0.146388  0.175801  0.083370  1
  Mn  Mn19  1  0.738820  0.583370  0.675801  1
  Mn  Mn20  1  0.813026  0.425259  0.170259  1
  Mn  Mn21  1  0.568026  0.670259  0.925259  1
  Mn  Mn22  1  0.150546  0.907186  0.828986  1
  Mn  Mn23  1  0.728746  0.328986  0.407186  1
  C  C24  1  0.499749  0.501493  0.498987  1
  C  C25  1  0.002256  0.998987  0.001493  1
  C  C26  1  0.498182  0.000404  0.500404  1
