# generated using pymatgen
data_Hf8Ta12Ga5Ge11
_symmetry_space_group_name_H-M   'P 1'
_cell_length_a   6.85238399
_cell_length_b   6.93486502
_cell_length_c   13.25152400
_cell_angle_alpha   90.00000000
_cell_angle_beta   90.00000000
_cell_angle_gamma   90.06182721
_symmetry_Int_Tables_number   1
_chemical_formula_structural   Hf8Ta12Ga5Ge11
_chemical_formula_sum   'Hf8 Ta12 Ga5 Ge11'
_cell_volume   629.71679809
_cell_formula_units_Z   1
loop_
 _symmetry_equiv_pos_site_id
 _symmetry_equiv_pos_as_xyz
  1  'x, y, z'
loop_
 _atom_site_type_symbol
 _atom_site_label
 _atom_site_symmetry_multiplicity
 _atom_site_fract_x
 _atom_site_fract_y
 _atom_site_fract_z
 _atom_site_occupancy
  Hf  Hf0  1  0.487855  0.676253  0.590001  1
  Hf  Hf1  1  0.987830  0.823352  0.910124  1
  Hf  Hf2  1  0.512629  0.323923  0.090303  1
  Hf  Hf3  1  0.012264  0.176092  0.409496  1
  Hf  Hf4  1  0.512629  0.323923  0.409697  1
  Hf  Hf5  1  0.012264  0.176092  0.090504  1
  Hf  Hf6  1  0.487855  0.676253  0.909999  1
  Hf  Hf7  1  0.987830  0.823352  0.589876  1
  Ta  Ta8  1  0.656945  0.167119  0.625197  1
  Ta  Ta9  1  0.157429  0.333124  0.874365  1
  Ta  Ta10  1  0.341913  0.833022  0.124759  1
  Ta  Ta11  1  0.842212  0.667083  0.375194  1
  Ta  Ta12  1  0.341913  0.833022  0.375241  1
  Ta  Ta13  1  0.842212  0.667083  0.124806  1
  Ta  Ta14  1  0.656945  0.167119  0.874803  1
  Ta  Ta15  1  0.157429  0.333124  0.625635  1
  Ta  Ta16  1  0.838575  0.488021  0.750000  1
  Ta  Ta17  1  0.336834  0.012738  0.750000  1
  Ta  Ta18  1  0.163354  0.510051  0.250000  1
  Ta  Ta19  1  0.663187  0.989905  0.250000  1
  Ga  Ga20  1  0.461694  0.394463  0.750000  1
  Ga  Ga21  1  0.958070  0.104895  0.750000  1
  Ga  Ga22  1  0.539399  0.608070  0.250000  1
  Ga  Ga23  1  0.039368  0.892162  0.250000  1
  Ga  Ga24  1  0.697800  0.847853  0.750000  1
  Ge  Ge25  1  0.684281  0.962180  0.460551  1
  Ge  Ge26  1  0.183967  0.537240  0.039620  1
  Ge  Ge27  1  0.315587  0.037929  0.960056  1
  Ge  Ge28  1  0.816054  0.462349  0.540019  1
  Ge  Ge29  1  0.315587  0.037929  0.539944  1
  Ge  Ge30  1  0.816054  0.462349  0.959981  1
  Ge  Ge31  1  0.684281  0.962180  0.039449  1
  Ge  Ge32  1  0.183967  0.537240  0.460380  1
  Ge  Ge33  1  0.197245  0.652491  0.750000  1
  Ge  Ge34  1  0.303336  0.150382  0.250000  1
  Ge  Ge35  1  0.803202  0.349636  0.250000  1
