# generated using pymatgen
data_La9Ho(Bi2Ru)2
_symmetry_space_group_name_H-M   'P 1'
_cell_length_a   8.54067602
_cell_length_b   9.25560400
_cell_length_c   12.93131267
_cell_angle_alpha   90.00000000
_cell_angle_beta   89.36358373
_cell_angle_gamma   90.00000000
_symmetry_Int_Tables_number   1
_chemical_formula_structural   La9Ho(Bi2Ru)2
_chemical_formula_sum   'La18 Ho2 Bi8 Ru4'
_cell_volume   1022.14576564
_cell_formula_units_Z   2
loop_
 _symmetry_equiv_pos_site_id
 _symmetry_equiv_pos_as_xyz
  1  'x, y, z'
loop_
 _atom_site_type_symbol
 _atom_site_label
 _atom_site_symmetry_multiplicity
 _atom_site_fract_x
 _atom_site_fract_y
 _atom_site_fract_z
 _atom_site_occupancy
  La  La0  1  0.842623  0.750000  0.801314  1
  La  La1  1  0.157377  0.250000  0.198686  1
  La  La2  1  0.346127  0.250000  0.708834  1
  La  La3  1  0.653873  0.750000  0.291166  1
  La  La4  1  0.375817  0.750000  0.698008  1
  La  La5  1  0.624183  0.250000  0.301992  1
  La  La6  1  0.872200  0.250000  0.806476  1
  La  La7  1  0.127800  0.750000  0.193524  1
  La  La8  1  0.940159  0.750000  0.504125  1
  La  La9  1  0.059841  0.250000  0.495875  1
  La  La10  1  0.677046  0.036901  0.566542  1
  La  La11  1  0.322954  0.963099  0.433458  1
  La  La12  1  0.180640  0.966567  0.933667  1
  La  La13  1  0.322954  0.536901  0.433458  1
  La  La14  1  0.819360  0.033433  0.066333  1
  La  La15  1  0.677046  0.463099  0.566542  1
  La  La16  1  0.819360  0.466567  0.066333  1
  La  La17  1  0.180640  0.533433  0.933667  1
  Ho  Ho18  1  0.449641  0.250000  0.999405  1
  Ho  Ho19  1  0.550359  0.750000  0.000595  1
  Bi  Bi20  1  0.568785  0.491590  0.835686  1
  Bi  Bi21  1  0.431215  0.508410  0.164314  1
  Bi  Bi22  1  0.071624  0.506753  0.673235  1
  Bi  Bi23  1  0.431215  0.991590  0.164314  1
  Bi  Bi24  1  0.928376  0.493247  0.326765  1
  Bi  Bi25  1  0.568785  0.008410  0.835686  1
  Bi  Bi26  1  0.928376  0.006753  0.326765  1
  Bi  Bi27  1  0.071624  0.993247  0.673235  1
  Ru  Ru28  1  0.578420  0.750000  0.513332  1
  Ru  Ru29  1  0.421580  0.250000  0.486668  1
  Ru  Ru30  1  0.092742  0.250000  0.984986  1
  Ru  Ru31  1  0.907258  0.750000  0.015014  1
