# generated using pymatgen
data_Dy2Tm3Os2
_symmetry_space_group_name_H-M   'P 1'
_cell_length_a   6.31639970
_cell_length_b   7.33385548
_cell_length_c   8.35075191
_cell_angle_alpha   97.04410704
_cell_angle_beta   112.22182719
_cell_angle_gamma   90.00000105
_symmetry_Int_Tables_number   1
_chemical_formula_structural   Dy2Tm3Os2
_chemical_formula_sum   'Dy4 Tm6 Os4'
_cell_volume   354.94880541
_cell_formula_units_Z   2
loop_
 _symmetry_equiv_pos_site_id
 _symmetry_equiv_pos_as_xyz
  1  'x, y, z'
loop_
 _atom_site_type_symbol
 _atom_site_label
 _atom_site_symmetry_multiplicity
 _atom_site_fract_x
 _atom_site_fract_y
 _atom_site_fract_z
 _atom_site_occupancy
  Dy  Dy0  1  0.790768  0.082763  0.815380  1
  Dy  Dy1  1  0.975388  0.417237  0.184620  1
  Dy  Dy2  1  0.209232  0.917237  0.184620  1
  Dy  Dy3  1  0.024612  0.582763  0.815380  1
  Tm  Tm4  1  0.202784  0.182171  0.564885  1
  Tm  Tm5  1  0.637900  0.317829  0.435115  1
  Tm  Tm6  1  0.797216  0.817829  0.435115  1
  Tm  Tm7  1  0.362100  0.682171  0.564885  1
  Tm  Tm8  1  0.421492  0.250000  0.000000  1
  Tm  Tm9  1  0.578508  0.750000  0.000000  1
  Os  Os10  1  0.599207  0.422447  0.779577  1
  Os  Os11  1  0.819630  0.077553  0.220423  1
  Os  Os12  1  0.400793  0.577553  0.220423  1
  Os  Os13  1  0.180370  0.922447  0.779577  1
