# generated using pymatgen
data_Hf4(B5Ir4)3
_symmetry_space_group_name_H-M   'P 1'
_cell_length_a   3.52041026
_cell_length_b   7.58616694
_cell_length_c   13.13980807
_cell_angle_alpha   90.02488439
_cell_angle_beta   90.09402848
_cell_angle_gamma   90.04456472
_symmetry_Int_Tables_number   1
_chemical_formula_structural   Hf4(B5Ir4)3
_chemical_formula_sum   'Hf4 B15 Ir12'
_cell_volume   350.91661998
_cell_formula_units_Z   1
loop_
 _symmetry_equiv_pos_site_id
 _symmetry_equiv_pos_as_xyz
  1  'x, y, z'
loop_
 _atom_site_type_symbol
 _atom_site_label
 _atom_site_symmetry_multiplicity
 _atom_site_fract_x
 _atom_site_fract_y
 _atom_site_fract_z
 _atom_site_occupancy
  Hf  Hf0  1  0.251098  0.499306  0.831008  1
  Hf  Hf1  1  0.252373  0.000763  0.335325  1
  Hf  Hf2  1  0.747627  0.999237  0.664675  1
  Hf  Hf3  1  0.748902  0.500694  0.168992  1
  B  B4  1  0.500000  0.000000  0.000000  1
  B  B5  1  0.500000  0.500000  0.500000  1
  B  B6  1  0.000000  0.000000  0.000000  1
  B  B7  1  0.763005  0.326638  0.722677  1
  B  B8  1  0.755925  0.826000  0.225378  1
  B  B9  1  0.751593  0.750510  0.799513  1
  B  B10  1  0.761221  0.251116  0.303100  1
  B  B11  1  0.749591  0.424099  0.974720  1
  B  B12  1  0.770924  0.921869  0.475316  1
  B  B13  1  0.244075  0.174000  0.774622  1
  B  B14  1  0.236995  0.673362  0.277323  1
  B  B15  1  0.238779  0.748884  0.696900  1
  B  B16  1  0.248407  0.249490  0.200487  1
  B  B17  1  0.229076  0.078131  0.524684  1
  B  B18  1  0.250409  0.575901  0.025280  1
  Ir  Ir19  1  0.739264  0.591088  0.664293  1
  Ir  Ir20  1  0.750669  0.090318  0.165486  1
  Ir  Ir21  1  0.751160  0.706464  0.961867  1
  Ir  Ir22  1  0.731873  0.208808  0.464128  1
  Ir  Ir23  1  0.747481  0.202051  0.872425  1
  Ir  Ir24  1  0.738792  0.701193  0.371990  1
  Ir  Ir25  1  0.249331  0.909682  0.834514  1
  Ir  Ir26  1  0.260736  0.408912  0.335707  1
  Ir  Ir27  1  0.268127  0.791192  0.535872  1
  Ir  Ir28  1  0.248840  0.293536  0.038133  1
  Ir  Ir29  1  0.261208  0.298807  0.628010  1
  Ir  Ir30  1  0.252519  0.797949  0.127575  1
