# generated using pymatgen
data_Ho10Tm2InCo4Pd
_symmetry_space_group_name_H-M   'P 1'
_cell_length_a   8.27764993
_cell_length_b   8.27364693
_cell_length_c   8.27765033
_cell_angle_alpha   111.03403081
_cell_angle_beta   110.66103213
_cell_angle_gamma   106.77129102
_symmetry_Int_Tables_number   1
_chemical_formula_structural   Ho10Tm2InCo4Pd
_chemical_formula_sum   'Ho10 Tm2 In1 Co4 Pd1'
_cell_volume   435.57130382
_cell_formula_units_Z   1
loop_
 _symmetry_equiv_pos_site_id
 _symmetry_equiv_pos_as_xyz
  1  'x, y, z'
loop_
 _atom_site_type_symbol
 _atom_site_label
 _atom_site_symmetry_multiplicity
 _atom_site_fract_x
 _atom_site_fract_y
 _atom_site_fract_z
 _atom_site_occupancy
  Ho  Ho0  1  0.314298  0.010051  0.695753  1
  Ho  Ho1  1  0.685702  0.989949  0.304247  1
  Ho  Ho2  1  0.187806  0.293370  0.479692  1
  Ho  Ho3  1  0.812194  0.706630  0.520308  1
  Ho  Ho4  1  0.186322  0.706630  0.894436  1
  Ho  Ho5  1  0.813678  0.293370  0.105564  1
  Ho  Ho6  1  0.414881  0.216353  0.199733  1
  Ho  Ho7  1  0.585119  0.783647  0.800267  1
  Ho  Ho8  1  0.016620  0.216353  0.801472  1
  Ho  Ho9  1  0.983380  0.783647  0.198528  1
  Tm  Tm10  1  0.315099  0.620218  0.305119  1
  Tm  Tm11  1  0.684901  0.379782  0.694881  1
  In  In12  1  0.500000  0.500000  0.000000  1
  Co  Co13  1  0.112606  0.611996  0.499390  1
  Co  Co14  1  0.887394  0.388004  0.500610  1
  Co  Co15  1  0.379442  0.000000  0.379442  1
  Co  Co16  1  0.620558  0.000000  0.620558  1
  Pd  Pd17  1  0.000000  0.000000  0.000000  1
