# generated using pymatgen
data_TmHf(Co5P3)2
_symmetry_space_group_name_H-M   'P 1'
_cell_length_a   3.61235100
_cell_length_b   10.18680400
_cell_length_c   11.64799800
_cell_angle_alpha   90.00000000
_cell_angle_beta   90.00000000
_cell_angle_gamma   90.00000000
_symmetry_Int_Tables_number   1
_chemical_formula_structural   TmHf(Co5P3)2
_chemical_formula_sum   'Tm2 Hf2 Co20 P12'
_cell_volume   428.62666011
_cell_formula_units_Z   2
loop_
 _symmetry_equiv_pos_site_id
 _symmetry_equiv_pos_as_xyz
  1  'x, y, z'
loop_
 _atom_site_type_symbol
 _atom_site_label
 _atom_site_symmetry_multiplicity
 _atom_site_fract_x
 _atom_site_fract_y
 _atom_site_fract_z
 _atom_site_occupancy
  Tm  Tm0  1  0.750000  0.417759  0.296919  1
  Tm  Tm1  1  0.750000  0.082241  0.796919  1
  Hf  Hf2  1  0.250000  0.581507  0.701358  1
  Hf  Hf3  1  0.250000  0.918493  0.201358  1
  Co  Co4  1  0.250000  0.719536  0.993713  1
  Co  Co5  1  0.250000  0.780464  0.493713  1
  Co  Co6  1  0.750000  0.281727  0.008141  1
  Co  Co7  1  0.750000  0.218273  0.508141  1
  Co  Co8  1  0.250000  0.409875  0.489653  1
  Co  Co9  1  0.250000  0.090125  0.989653  1
  Co  Co10  1  0.750000  0.592982  0.516490  1
  Co  Co11  1  0.750000  0.907018  0.016490  1
  Co  Co12  1  0.250000  0.221689  0.177917  1
  Co  Co13  1  0.250000  0.278311  0.677917  1
  Co  Co14  1  0.750000  0.776144  0.822444  1
  Co  Co15  1  0.750000  0.723856  0.322444  1
  Co  Co16  1  0.250000  0.880846  0.699161  1
  Co  Co17  1  0.250000  0.619154  0.199161  1
  Co  Co18  1  0.750000  0.113297  0.298873  1
  Co  Co19  1  0.750000  0.386703  0.798873  1
  Co  Co20  1  0.250000  0.469853  0.928537  1
  Co  Co21  1  0.250000  0.030147  0.428537  1
  Co  Co22  1  0.750000  0.534878  0.067298  1
  Co  Co23  1  0.750000  0.965122  0.567298  1
  P  P24  1  0.250000  0.419192  0.111466  1
  P  P25  1  0.250000  0.080808  0.611466  1
  P  P26  1  0.750000  0.581635  0.884258  1
  P  P27  1  0.750000  0.918365  0.384258  1
  P  P28  1  0.250000  0.268769  0.871442  1
  P  P29  1  0.250000  0.231231  0.371442  1
  P  P30  1  0.750000  0.733450  0.131505  1
  P  P31  1  0.750000  0.766550  0.631505  1
  P  P32  1  0.250000  0.600833  0.390358  1
  P  P33  1  0.250000  0.899167  0.890358  1
  P  P34  1  0.750000  0.400831  0.610468  1
  P  P35  1  0.750000  0.099169  0.110468  1
