# generated using pymatgen
data_Ac4Mg(Ga2Pt)5
_symmetry_space_group_name_H-M   'P 1'
_cell_length_a   8.98682149
_cell_length_b   8.98682161
_cell_length_c   8.98682100
_cell_angle_alpha   139.93235574
_cell_angle_beta   106.60762852
_cell_angle_gamma   87.07085139
_symmetry_Int_Tables_number   1
_chemical_formula_structural   Ac4Mg(Ga2Pt)5
_chemical_formula_sum   'Ac4 Mg1 Ga10 Pt5'
_cell_volume   430.85488889
_cell_formula_units_Z   1
loop_
 _symmetry_equiv_pos_site_id
 _symmetry_equiv_pos_as_xyz
  1  'x, y, z'
loop_
 _atom_site_type_symbol
 _atom_site_label
 _atom_site_symmetry_multiplicity
 _atom_site_fract_x
 _atom_site_fract_y
 _atom_site_fract_z
 _atom_site_occupancy
  Ac  Ac0  1  0.860654  0.636807  0.230475  1
  Ac  Ac1  1  0.139346  0.369823  0.776154  1
  Ac  Ac2  1  0.406332  0.130177  0.269525  1
  Ac  Ac3  1  0.593668  0.863193  0.723846  1
  Mg  Mg4  1  0.000000  0.750000  0.750000  1
  Ga  Ga5  1  0.500000  0.750000  0.250000  1
  Ga  Ga6  1  0.500000  0.250000  0.750000  1
  Ga  Ga7  1  0.224865  0.974865  0.750000  1
  Ga  Ga8  1  0.775135  0.525135  0.750000  1
  Ga  Ga9  1  0.780761  0.030761  0.250000  1
  Ga  Ga10  1  0.219239  0.469239  0.250000  1
  Ga  Ga11  1  0.047827  0.901088  0.166526  1
  Ga  Ga12  1  0.952173  0.118699  0.853261  1
  Ga  Ga13  1  0.734562  0.381301  0.333474  1
  Ga  Ga14  1  0.265438  0.598912  0.646739  1
  Pt  Pt15  1  0.000000  0.250000  0.250000  1
  Pt  Pt16  1  0.257413  0.860558  0.393650  1
  Pt  Pt17  1  0.742587  0.136235  0.603143  1
  Pt  Pt18  1  0.466908  0.363765  0.106350  1
  Pt  Pt19  1  0.533092  0.639442  0.896857  1
