# generated using pymatgen
data_HfSc3Fe2(Si2Rh)2
_symmetry_space_group_name_H-M   'P 1'
_cell_length_a   4.06252400
_cell_length_b   6.49452054
_cell_length_c   7.01866595
_cell_angle_alpha   90.89148601
_cell_angle_beta   90.00000000
_cell_angle_gamma   90.00000000
_symmetry_Int_Tables_number   1
_chemical_formula_structural   HfSc3Fe2(Si2Rh)2
_chemical_formula_sum   'Hf1 Sc3 Fe2 Si4 Rh2'
_cell_volume   185.15908908
_cell_formula_units_Z   1
loop_
 _symmetry_equiv_pos_site_id
 _symmetry_equiv_pos_as_xyz
  1  'x, y, z'
loop_
 _atom_site_type_symbol
 _atom_site_label
 _atom_site_symmetry_multiplicity
 _atom_site_fract_x
 _atom_site_fract_y
 _atom_site_fract_z
 _atom_site_occupancy
  Hf  Hf0  1  0.750000  0.999164  0.703677  1
  Sc  Sc1  1  0.250000  0.492673  0.184098  1
  Sc  Sc2  1  0.750000  0.506926  0.818794  1
  Sc  Sc3  1  0.250000  0.004222  0.299407  1
  Fe  Fe4  1  0.750000  0.844643  0.057197  1
  Fe  Fe5  1  0.250000  0.150727  0.935489  1
  Si  Si6  1  0.250000  0.794732  0.901565  1
  Si  Si7  1  0.750000  0.202026  0.098037  1
  Si  Si8  1  0.250000  0.287145  0.626833  1
  Si  Si9  1  0.750000  0.716238  0.372952  1
  Rh  Rh10  1  0.750000  0.340515  0.439776  1
  Rh  Rh11  1  0.250000  0.660989  0.562173  1
