# generated using pymatgen
data_Ba2LuO3F
_symmetry_space_group_name_H-M   'P 1'
_cell_length_a   4.31658100
_cell_length_b   4.31658100
_cell_length_c   13.85199100
_cell_angle_alpha   90.00000000
_cell_angle_beta   90.00000000
_cell_angle_gamma   90.00000000
_symmetry_Int_Tables_number   1
_chemical_formula_structural   Ba2LuO3F
_chemical_formula_sum   'Ba4 Lu2 O6 F2'
_cell_volume   258.10236873
_cell_formula_units_Z   2
loop_
 _symmetry_equiv_pos_site_id
 _symmetry_equiv_pos_as_xyz
  1  'x, y, z'
loop_
 _atom_site_type_symbol
 _atom_site_label
 _atom_site_symmetry_multiplicity
 _atom_site_fract_x
 _atom_site_fract_y
 _atom_site_fract_z
 _atom_site_occupancy
  Ba  Ba0  1  0.000000  0.500000  0.898104  1
  Ba  Ba1  1  0.500000  0.000000  0.101896  1
  Ba  Ba2  1  0.000000  0.500000  0.621181  1
  Ba  Ba3  1  0.500000  0.000000  0.378819  1
  Lu  Lu4  1  0.500000  0.000000  0.761737  1
  Lu  Lu5  1  0.000000  0.500000  0.238263  1
  O  O6  1  0.500000  0.500000  0.260149  1
  O  O7  1  0.000000  0.000000  0.260149  1
  O  O8  1  0.500000  0.000000  0.914444  1
  O  O9  1  0.000000  0.500000  0.085556  1
  O  O10  1  0.000000  0.000000  0.739851  1
  O  O11  1  0.500000  0.500000  0.739851  1
  F  F12  1  0.000000  0.500000  0.423006  1
  F  F13  1  0.500000  0.000000  0.576994  1
