# generated using pymatgen
data_Nd3Mg3AgRuAu
_symmetry_space_group_name_H-M   'P 1'
_cell_length_a   7.82363900
_cell_length_b   7.82363964
_cell_length_c   4.09865900
_cell_angle_alpha   90.00000000
_cell_angle_beta   90.00000000
_cell_angle_gamma   120.00000997
_symmetry_Int_Tables_number   1
_chemical_formula_structural   Nd3Mg3AgRuAu
_chemical_formula_sum   'Nd3 Mg3 Ag1 Ru1 Au1'
_cell_volume   217.26512363
_cell_formula_units_Z   1
loop_
 _symmetry_equiv_pos_site_id
 _symmetry_equiv_pos_as_xyz
  1  'x, y, z'
loop_
 _atom_site_type_symbol
 _atom_site_label
 _atom_site_symmetry_multiplicity
 _atom_site_fract_x
 _atom_site_fract_y
 _atom_site_fract_z
 _atom_site_occupancy
  Nd  Nd0  1  0.574547  0.969455  0.000000  1
  Nd  Nd1  1  0.030545  0.605091  0.000000  1
  Nd  Nd2  1  0.394909  0.425453  0.000000  1
  Mg  Mg3  1  0.249758  0.000124  0.500000  1
  Mg  Mg4  1  0.999876  0.249635  0.500000  1
  Mg  Mg5  1  0.750365  0.750242  0.500000  1
  Ag  Ag6  1  0.666667  0.333333  0.500000  1
  Ru  Ru7  1  0.333333  0.666667  0.500000  1
  Au  Au8  1  0.000000  0.000000  0.000000  1
