# generated using pymatgen
data_GdBi5(TeO6)3
_symmetry_space_group_name_H-M   'P 1'
_cell_length_a   9.38672800
_cell_length_b   9.33651774
_cell_length_c   5.48140800
_cell_angle_alpha   90.66518844
_cell_angle_beta   90.00000000
_cell_angle_gamma   120.17807162
_symmetry_Int_Tables_number   1
_chemical_formula_structural   GdBi5(TeO6)3
_chemical_formula_sum   'Gd1 Bi5 Te3 O18'
_cell_volume   415.24142230
_cell_formula_units_Z   1
loop_
 _symmetry_equiv_pos_site_id
 _symmetry_equiv_pos_as_xyz
  1  'x, y, z'
loop_
 _atom_site_type_symbol
 _atom_site_label
 _atom_site_symmetry_multiplicity
 _atom_site_fract_x
 _atom_site_fract_y
 _atom_site_fract_z
 _atom_site_occupancy
  Gd  Gd0  1  0.619243  0.000000  0.500000  1
  Bi  Bi1  1  0.999342  0.625805  0.496561  1
  Bi  Bi2  1  0.998811  0.286826  0.000538  1
  Bi  Bi3  1  0.373536  0.374195  0.503439  1
  Bi  Bi4  1  0.285029  0.000000  0.000000  1
  Bi  Bi5  1  0.711983  0.713174  0.999462  1
  Te  Te6  1  0.336211  0.670542  0.986754  1
  Te  Te7  1  0.999115  0.000000  0.500000  1
  Te  Te8  1  0.665671  0.329458  0.013246  1
  O  O9  1  0.076414  0.874951  0.301297  1
  O  O10  1  0.235739  0.764873  0.774293  1
  O  O11  1  0.139501  0.552085  0.189293  1
  O  O12  1  0.412804  0.868817  0.198526  1
  O  O13  1  0.238174  0.468396  0.778832  1
  O  O14  1  0.123703  0.196823  0.298028  1
  O  O15  1  0.201462  0.125049  0.698703  1
  O  O16  1  0.531881  0.774776  0.777855  1
  O  O17  1  0.456720  0.597529  0.193170  1
  O  O18  1  0.801143  0.922842  0.301249  1
  O  O19  1  0.470867  0.235127  0.225707  1
  O  O20  1  0.587416  0.447915  0.810707  1
  O  O21  1  0.543987  0.131183  0.801474  1
  O  O22  1  0.769778  0.531604  0.221168  1
  O  O23  1  0.926880  0.803177  0.701972  1
  O  O24  1  0.757105  0.225224  0.222145  1
  O  O25  1  0.859190  0.402471  0.806830  1
  O  O26  1  0.878300  0.077158  0.698751  1
