# generated using pymatgen
data_La14Ir5Rh
_symmetry_space_group_name_H-M   'P 1'
_cell_length_a   6.54156221
_cell_length_b   10.26902791
_cell_length_c   10.26902737
_cell_angle_alpha   119.95722049
_cell_angle_beta   90.02564270
_cell_angle_gamma   89.97436068
_symmetry_Int_Tables_number   1
_chemical_formula_structural   La14Ir5Rh
_chemical_formula_sum   'La14 Ir5 Rh1'
_cell_volume   597.66489470
_cell_formula_units_Z   1
loop_
 _symmetry_equiv_pos_site_id
 _symmetry_equiv_pos_as_xyz
  1  'x, y, z'
loop_
 _atom_site_type_symbol
 _atom_site_label
 _atom_site_symmetry_multiplicity
 _atom_site_fract_x
 _atom_site_fract_y
 _atom_site_fract_z
 _atom_site_occupancy
  La  La0  1  0.474475  0.333563  0.666437  1
  La  La1  1  0.974415  0.666274  0.333726  1
  La  La2  1  0.249952  0.125102  0.874898  1
  La  La3  1  0.250146  0.749041  0.873063  1
  La  La4  1  0.250146  0.126937  0.250959  1
  La  La5  1  0.748586  0.875325  0.124675  1
  La  La6  1  0.749630  0.250862  0.125498  1
  La  La7  1  0.749630  0.874502  0.749138  1
  La  La8  1  0.435670  0.539535  0.460465  1
  La  La9  1  0.436195  0.921444  0.461139  1
  La  La10  1  0.436195  0.538861  0.078556  1
  La  La11  1  0.935439  0.460510  0.539490  1
  La  La12  1  0.935486  0.079019  0.540360  1
  La  La13  1  0.935486  0.459640  0.920981  1
  Ir  Ir14  1  0.190316  0.377228  0.188480  1
  Ir  Ir15  1  0.190316  0.811520  0.622772  1
  Ir  Ir16  1  0.689515  0.188639  0.811361  1
  Ir  Ir17  1  0.689597  0.623623  0.812482  1
  Ir  Ir18  1  0.689597  0.187518  0.376377  1
  Rh  Rh19  1  0.191209  0.810859  0.189141  1
