# generated using pymatgen
data_Dy3Sc3Si2Os
_symmetry_space_group_name_H-M   'P 1'
_cell_length_a   7.42278600
_cell_length_b   7.42278529
_cell_length_c   4.24637700
_cell_angle_alpha   90.00000000
_cell_angle_beta   90.00000000
_cell_angle_gamma   119.99999425
_symmetry_Int_Tables_number   1
_chemical_formula_structural   Dy3Sc3Si2Os
_chemical_formula_sum   'Dy3 Sc3 Si2 Os1'
_cell_volume   202.62034202
_cell_formula_units_Z   1
loop_
 _symmetry_equiv_pos_site_id
 _symmetry_equiv_pos_as_xyz
  1  'x, y, z'
loop_
 _atom_site_type_symbol
 _atom_site_label
 _atom_site_symmetry_multiplicity
 _atom_site_fract_x
 _atom_site_fract_y
 _atom_site_fract_z
 _atom_site_occupancy
  Dy  Dy0  1  0.415697  0.000000  0.000000  1
  Dy  Dy1  1  0.000000  0.415698  0.000000  1
  Dy  Dy2  1  0.584303  0.584303  0.000000  1
  Sc  Sc3  1  0.760405  0.000000  0.500001  1
  Sc  Sc4  1  0.239595  0.239595  0.500001  1
  Sc  Sc5  1  0.000000  0.760406  0.500001  1
  Si  Si6  1  0.666667  0.333333  0.500001  1
  Si  Si7  1  0.333333  0.666666  0.500001  1
  Os  Os8  1  0.000000  0.000000  0.000000  1
