# generated using pymatgen
data_Ho3Tm(MoN3)4
_symmetry_space_group_name_H-M   'P 1'
_cell_length_a   7.30115272
_cell_length_b   7.30115348
_cell_length_c   6.25372973
_cell_angle_alpha   73.39667417
_cell_angle_beta   73.39667715
_cell_angle_gamma   81.17932864
_symmetry_Int_Tables_number   1
_chemical_formula_structural   Ho3Tm(MoN3)4
_chemical_formula_sum   'Ho3 Tm1 Mo4 N12'
_cell_volume   305.21297444
_cell_formula_units_Z   1
loop_
 _symmetry_equiv_pos_site_id
 _symmetry_equiv_pos_as_xyz
  1  'x, y, z'
loop_
 _atom_site_type_symbol
 _atom_site_label
 _atom_site_symmetry_multiplicity
 _atom_site_fract_x
 _atom_site_fract_y
 _atom_site_fract_z
 _atom_site_occupancy
  Ho  Ho0  1  0.707614  0.292386  0.250000  1
  Ho  Ho1  1  0.086807  0.913193  0.250000  1
  Ho  Ho2  1  0.292421  0.707579  0.750000  1
  Tm  Tm3  1  0.912823  0.087177  0.750000  1
  Mo  Mo4  1  0.800808  0.619038  0.772568  1
  Mo  Mo5  1  0.199212  0.380280  0.228548  1
  Mo  Mo6  1  0.619720  0.800788  0.271452  1
  Mo  Mo7  1  0.380962  0.199192  0.727432  1
  N  N8  1  0.217354  0.999943  0.845283  1
  N  N9  1  0.368347  0.347425  0.430412  1
  N  N10  1  0.633637  0.653462  0.568287  1
  N  N11  1  0.626377  0.110325  0.663197  1
  N  N12  1  0.000057  0.782646  0.654717  1
  N  N13  1  0.781662  0.001502  0.150078  1
  N  N14  1  0.110259  0.625346  0.161389  1
  N  N15  1  0.889675  0.373623  0.836803  1
  N  N16  1  0.998498  0.218338  0.349922  1
  N  N17  1  0.346538  0.366363  0.931713  1
  N  N18  1  0.652575  0.631653  0.069588  1
  N  N19  1  0.374654  0.889741  0.338611  1
