# generated using pymatgen
data_YScFeB6
_symmetry_space_group_name_H-M   'P 1'
_cell_length_a   3.44246300
_cell_length_b   8.92052600
_cell_length_c   11.29222300
_cell_angle_alpha   90.00000000
_cell_angle_beta   90.00000000
_cell_angle_gamma   90.00000000
_symmetry_Int_Tables_number   1
_chemical_formula_structural   YScFeB6
_chemical_formula_sum   'Y4 Sc4 Fe4 B24'
_cell_volume   346.76814123
_cell_formula_units_Z   4
loop_
 _symmetry_equiv_pos_site_id
 _symmetry_equiv_pos_as_xyz
  1  'x, y, z'
loop_
 _atom_site_type_symbol
 _atom_site_label
 _atom_site_symmetry_multiplicity
 _atom_site_fract_x
 _atom_site_fract_y
 _atom_site_fract_z
 _atom_site_occupancy
  Y  Y0  1  0.000000  0.321614  0.414488  1
  Y  Y1  1  0.000000  0.678386  0.585512  1
  Y  Y2  1  0.000000  0.821614  0.085512  1
  Y  Y3  1  0.000000  0.178386  0.914488  1
  Sc  Sc4  1  0.000000  0.944310  0.371158  1
  Sc  Sc5  1  0.000000  0.055690  0.628842  1
  Sc  Sc6  1  0.000000  0.444310  0.128842  1
  Sc  Sc7  1  0.000000  0.555690  0.871158  1
  Fe  Fe8  1  0.000000  0.640935  0.318150  1
  Fe  Fe9  1  0.000000  0.359065  0.681850  1
  Fe  Fe10  1  0.000000  0.140935  0.181850  1
  Fe  Fe11  1  0.000000  0.859065  0.818150  1
  B  B12  1  0.500000  0.556306  0.431167  1
  B  B13  1  0.500000  0.443694  0.568833  1
  B  B14  1  0.500000  0.056306  0.068833  1
  B  B15  1  0.500000  0.943694  0.931167  1
  B  B16  1  0.500000  0.751944  0.417140  1
  B  B17  1  0.500000  0.248056  0.582860  1
  B  B18  1  0.500000  0.251944  0.082860  1
  B  B19  1  0.500000  0.748056  0.917140  1
  B  B20  1  0.500000  0.792064  0.265737  1
  B  B21  1  0.500000  0.207936  0.734263  1
  B  B22  1  0.500000  0.292064  0.234263  1
  B  B23  1  0.500000  0.707936  0.765737  1
  B  B24  1  0.500000  0.629303  0.184033  1
  B  B25  1  0.500000  0.370697  0.815967  1
  B  B26  1  0.500000  0.129303  0.315967  1
  B  B27  1  0.500000  0.870697  0.684033  1
  B  B28  1  0.500000  0.984764  0.213539  1
  B  B29  1  0.500000  0.015236  0.786461  1
  B  B30  1  0.500000  0.484764  0.286461  1
  B  B31  1  0.500000  0.515236  0.713539  1
  B  B32  1  0.500000  0.599446  0.026834  1
  B  B33  1  0.500000  0.400554  0.973166  1
  B  B34  1  0.500000  0.099446  0.473166  1
  B  B35  1  0.500000  0.900554  0.526834  1
