# generated using pymatgen
data_Tm6Lu2Ta11Si16Tc
_symmetry_space_group_name_H-M   'P 1'
_cell_length_a   6.79953661
_cell_length_b   6.99841101
_cell_length_c   13.23120587
_cell_angle_alpha   90.03996708
_cell_angle_beta   89.93726258
_cell_angle_gamma   90.01749447
_symmetry_Int_Tables_number   1
_chemical_formula_structural   Tm6Lu2Ta11Si16Tc
_chemical_formula_sum   'Tm6 Lu2 Ta11 Si16 Tc1'
_cell_volume   629.61896598
_cell_formula_units_Z   1
loop_
 _symmetry_equiv_pos_site_id
 _symmetry_equiv_pos_as_xyz
  1  'x, y, z'
loop_
 _atom_site_type_symbol
 _atom_site_label
 _atom_site_symmetry_multiplicity
 _atom_site_fract_x
 _atom_site_fract_y
 _atom_site_fract_z
 _atom_site_occupancy
  Tm  Tm0  1  0.502581  0.328729  0.095059  1
  Tm  Tm1  1  0.000175  0.173349  0.404086  1
  Tm  Tm2  1  0.497777  0.672877  0.594708  1
  Tm  Tm3  1  0.999824  0.829892  0.905112  1
  Tm  Tm4  1  0.498044  0.671243  0.904174  1
  Tm  Tm5  1  0.998819  0.828157  0.595359  1
  Lu  Lu6  1  0.501869  0.328401  0.405590  1
  Lu  Lu7  1  0.002294  0.173250  0.096141  1
  Ta  Ta8  1  0.838716  0.327353  0.624506  1
  Ta  Ta9  1  0.337126  0.173218  0.872893  1
  Ta  Ta10  1  0.164073  0.674176  0.125860  1
  Ta  Ta11  1  0.660455  0.828485  0.375288  1
  Ta  Ta12  1  0.166890  0.673122  0.377284  1
  Ta  Ta13  1  0.662829  0.826368  0.125847  1
  Ta  Ta14  1  0.836896  0.324796  0.873313  1
  Ta  Ta15  1  0.664189  0.009287  0.748820  1
  Ta  Ta16  1  0.160423  0.491383  0.749576  1
  Ta  Ta17  1  0.337880  0.994034  0.250791  1
  Ta  Ta18  1  0.838244  0.507836  0.250699  1
  Si  Si19  1  0.660074  0.038459  0.542770  1
  Si  Si20  1  0.164560  0.463372  0.958697  1
  Si  Si21  1  0.333612  0.964994  0.041291  1
  Si  Si22  1  0.834643  0.536939  0.458367  1
  Si  Si23  1  0.332758  0.966682  0.460643  1
  Si  Si24  1  0.835810  0.535151  0.041174  1
  Si  Si25  1  0.664225  0.035002  0.958931  1
  Si  Si26  1  0.167317  0.456443  0.543358  1
  Si  Si27  1  0.535772  0.377465  0.746510  1
  Si  Si28  1  0.043846  0.120410  0.747885  1
  Si  Si29  1  0.460804  0.618620  0.250654  1
  Si  Si30  1  0.960578  0.880470  0.250882  1
  Si  Si31  1  0.794671  0.630816  0.749997  1
  Si  Si32  1  0.297834  0.870117  0.749839  1
  Si  Si33  1  0.205148  0.368771  0.250389  1
  Si  Si34  1  0.703734  0.133028  0.249718  1
  Tc  Tc35  1  0.335517  0.167303  0.623786  1
