# generated using pymatgen
data_ErTm7Mn2(B12Rh)2
_symmetry_space_group_name_H-M   'P 1'
_cell_length_a   3.58105100
_cell_length_b   9.06160675
_cell_length_c   11.43252601
_cell_angle_alpha   90.15687460
_cell_angle_beta   90.00000000
_cell_angle_gamma   90.00000000
_symmetry_Int_Tables_number   1
_chemical_formula_structural   ErTm7Mn2(B12Rh)2
_chemical_formula_sum   'Er1 Tm7 Mn2 B24 Rh2'
_cell_volume   370.98494617
_cell_formula_units_Z   1
loop_
 _symmetry_equiv_pos_site_id
 _symmetry_equiv_pos_as_xyz
  1  'x, y, z'
loop_
 _atom_site_type_symbol
 _atom_site_label
 _atom_site_symmetry_multiplicity
 _atom_site_fract_x
 _atom_site_fract_y
 _atom_site_fract_z
 _atom_site_occupancy
  Er  Er0  1  0.500000  0.317545  0.410114  1
  Tm  Tm1  1  0.500000  0.682636  0.589974  1
  Tm  Tm2  1  0.500000  0.172080  0.917863  1
  Tm  Tm3  1  0.500000  0.827880  0.082063  1
  Tm  Tm4  1  0.500000  0.440026  0.126179  1
  Tm  Tm5  1  0.500000  0.560052  0.873765  1
  Tm  Tm6  1  0.500000  0.051997  0.629786  1
  Tm  Tm7  1  0.500000  0.947820  0.370294  1
  Mn  Mn8  1  0.500000  0.139400  0.180430  1
  Mn  Mn9  1  0.500000  0.860551  0.819487  1
  B  B10  1  0.000000  0.107809  0.470589  1
  B  B11  1  0.000000  0.891885  0.529489  1
  B  B12  1  0.000000  0.390751  0.970051  1
  B  B13  1  0.000000  0.609258  0.029953  1
  B  B14  1  0.000000  0.131994  0.313371  1
  B  B15  1  0.000000  0.867811  0.686585  1
  B  B16  1  0.000000  0.367610  0.817289  1
  B  B17  1  0.000000  0.632403  0.182702  1
  B  B18  1  0.000000  0.053625  0.067646  1
  B  B19  1  0.000000  0.946315  0.932291  1
  B  B20  1  0.000000  0.446339  0.566158  1
  B  B21  1  0.000000  0.553918  0.433979  1
  B  B22  1  0.000000  0.482072  0.286596  1
  B  B23  1  0.000000  0.518191  0.713295  1
  B  B24  1  0.000000  0.014728  0.788539  1
  B  B25  1  0.000000  0.985158  0.211476  1
  B  B26  1  0.000000  0.246183  0.081292  1
  B  B27  1  0.000000  0.753888  0.918636  1
  B  B28  1  0.000000  0.249480  0.578993  1
  B  B29  1  0.000000  0.750481  0.421224  1
  B  B30  1  0.000000  0.290835  0.233313  1
  B  B31  1  0.000000  0.709149  0.766520  1
  B  B32  1  0.000000  0.206847  0.735318  1
  B  B33  1  0.000000  0.793129  0.264711  1
  Rh  Rh34  1  0.500000  0.361390  0.678992  1
  Rh  Rh35  1  0.500000  0.638761  0.321038  1
