# generated using pymatgen
data_Ac7NdTe8
_symmetry_space_group_name_H-M   'P 1'
_cell_length_a   9.41051579
_cell_length_b   9.41051522
_cell_length_c   9.41051589
_cell_angle_alpha   60.15968534
_cell_angle_beta   60.15968826
_cell_angle_gamma   60.15968375
_symmetry_Int_Tables_number   1
_chemical_formula_structural   Ac7NdTe8
_chemical_formula_sum   'Ac7 Nd1 Te8'
_cell_volume   591.41616741
_cell_formula_units_Z   1
loop_
 _symmetry_equiv_pos_site_id
 _symmetry_equiv_pos_as_xyz
  1  'x, y, z'
loop_
 _atom_site_type_symbol
 _atom_site_label
 _atom_site_symmetry_multiplicity
 _atom_site_fract_x
 _atom_site_fract_y
 _atom_site_fract_z
 _atom_site_occupancy
  Ac  Ac0  1  0.125000  0.625000  0.125000  1
  Ac  Ac1  1  0.125000  0.125000  0.625000  1
  Ac  Ac2  1  0.625000  0.125000  0.125000  1
  Ac  Ac3  1  0.625000  0.125000  0.625000  1
  Ac  Ac4  1  0.625000  0.625000  0.625000  1
  Ac  Ac5  1  0.125000  0.625000  0.625000  1
  Ac  Ac6  1  0.625000  0.625000  0.125000  1
  Nd  Nd7  1  0.125000  0.125000  0.125000  1
  Te  Te8  1  0.370101  0.879724  0.370101  1
  Te  Te9  1  0.879899  0.370276  0.879899  1
  Te  Te10  1  0.879899  0.879899  0.370276  1
  Te  Te11  1  0.874912  0.874912  0.874912  1
  Te  Te12  1  0.879724  0.370101  0.370101  1
  Te  Te13  1  0.370101  0.370101  0.879724  1
  Te  Te14  1  0.375088  0.375088  0.375088  1
  Te  Te15  1  0.370276  0.879899  0.879899  1
