# generated using pymatgen
data_Ca19YbZn12
_symmetry_space_group_name_H-M   'P 1'
_cell_length_a   7.89385400
_cell_length_b   7.89385400
_cell_length_c   15.23234600
_cell_angle_alpha   90.00000000
_cell_angle_beta   90.00000000
_cell_angle_gamma   90.00000000
_symmetry_Int_Tables_number   1
_chemical_formula_structural   Ca19YbZn12
_chemical_formula_sum   'Ca19 Yb1 Zn12'
_cell_volume   949.17212486
_cell_formula_units_Z   1
loop_
 _symmetry_equiv_pos_site_id
 _symmetry_equiv_pos_as_xyz
  1  'x, y, z'
loop_
 _atom_site_type_symbol
 _atom_site_label
 _atom_site_symmetry_multiplicity
 _atom_site_fract_x
 _atom_site_fract_y
 _atom_site_fract_z
 _atom_site_occupancy
  Ca  Ca0  1  0.338350  0.320984  0.102670  1
  Ca  Ca1  1  0.836920  0.822870  0.896682  1
  Ca  Ca2  1  0.000000  0.500000  0.235689  1
  Ca  Ca3  1  0.838403  0.178713  0.397463  1
  Ca  Ca4  1  0.163080  0.177130  0.896682  1
  Ca  Ca5  1  0.661650  0.679016  0.102670  1
  Ca  Ca6  1  0.000000  0.500000  0.738322  1
  Ca  Ca7  1  0.822573  0.837286  0.603169  1
  Ca  Ca8  1  0.321287  0.338403  0.397463  1
  Ca  Ca9  1  0.179016  0.838350  0.102670  1
  Ca  Ca10  1  0.177427  0.162714  0.603169  1
  Ca  Ca11  1  0.820984  0.161650  0.102670  1
  Ca  Ca12  1  0.337286  0.677427  0.603169  1
  Ca  Ca13  1  0.500000  0.000000  0.265017  1
  Ca  Ca14  1  0.677130  0.336920  0.896682  1
  Ca  Ca15  1  0.662714  0.322573  0.603169  1
  Ca  Ca16  1  0.322870  0.663080  0.896682  1
  Ca  Ca17  1  0.161597  0.821287  0.397463  1
  Ca  Ca18  1  0.678713  0.661597  0.397463  1
  Yb  Yb19  1  0.500000  0.000000  0.761623  1
  Zn  Zn20  1  0.619504  0.379989  0.250000  1
  Zn  Zn21  1  0.878696  0.119398  0.750150  1
  Zn  Zn22  1  0.500000  0.000000  0.492669  1
  Zn  Zn23  1  0.879989  0.880496  0.250000  1
  Zn  Zn24  1  0.000000  0.500000  0.008093  1
  Zn  Zn25  1  0.121304  0.880602  0.750150  1
  Zn  Zn26  1  0.380602  0.378696  0.750150  1
  Zn  Zn27  1  0.120011  0.119504  0.250000  1
  Zn  Zn28  1  0.380496  0.620011  0.250000  1
  Zn  Zn29  1  0.619398  0.621304  0.750150  1
  Zn  Zn30  1  0.500000  0.000000  0.988423  1
  Zn  Zn31  1  0.000000  0.500000  0.509632  1
