# generated using pymatgen
data_Ho6ErCo4Tc2Sn23
_symmetry_space_group_name_H-M   'P 1'
_cell_length_a   9.73932010
_cell_length_b   9.73876579
_cell_length_c   9.98774395
_cell_angle_alpha   89.82042169
_cell_angle_beta   90.17875787
_cell_angle_gamma   119.42438124
_symmetry_Int_Tables_number   1
_chemical_formula_structural   Ho6ErCo4Tc2Sn23
_chemical_formula_sum   'Ho6 Er1 Co4 Tc2 Sn23'
_cell_volume   825.12107557
_cell_formula_units_Z   1
loop_
 _symmetry_equiv_pos_site_id
 _symmetry_equiv_pos_as_xyz
  1  'x, y, z'
loop_
 _atom_site_type_symbol
 _atom_site_label
 _atom_site_symmetry_multiplicity
 _atom_site_fract_x
 _atom_site_fract_y
 _atom_site_fract_z
 _atom_site_occupancy
  Ho  Ho0  1  0.481715  0.518271  0.307244  1
  Ho  Ho1  1  0.518270  0.481697  0.692744  1
  Ho  Ho2  1  0.483975  0.962184  0.305428  1
  Ho  Ho3  1  0.515999  0.037821  0.694555  1
  Ho  Ho4  1  0.037815  0.516023  0.305456  1
  Ho  Ho5  1  0.000005  0.000001  0.000000  1
  Er  Er6  1  0.962308  0.484058  0.694590  1
  Co  Co7  1  0.829771  0.658312  0.198542  1
  Co  Co8  1  0.170181  0.341721  0.801439  1
  Co  Co9  1  0.341696  0.170237  0.198537  1
  Co  Co10  1  0.658316  0.829766  0.801460  1
  Tc  Tc11  1  0.835829  0.164173  0.203415  1
  Tc  Tc12  1  0.164087  0.835689  0.796549  1
  Sn  Sn13  1  0.118096  0.881885  0.272128  1
  Sn  Sn14  1  0.881926  0.118202  0.727854  1
  Sn  Sn15  1  0.130446  0.240216  0.270262  1
  Sn  Sn16  1  0.869598  0.759711  0.729718  1
  Sn  Sn17  1  0.759789  0.869548  0.270272  1
  Sn  Sn18  1  0.240232  0.130451  0.729728  1
  Sn  Sn19  1  0.779829  0.220267  0.461302  1
  Sn  Sn20  1  0.220118  0.779692  0.538801  1
  Sn  Sn21  1  0.781992  0.563393  0.454018  1
  Sn  Sn22  1  0.217967  0.436625  0.546067  1
  Sn  Sn23  1  0.436611  0.218056  0.453977  1
  Sn  Sn24  1  0.563380  0.781946  0.546007  1
  Sn  Sn25  1  0.347650  0.001317  0.003940  1
  Sn  Sn26  1  0.652349  0.998701  0.996074  1
  Sn  Sn27  1  0.001309  0.347675  0.996031  1
  Sn  Sn28  1  0.998684  0.652338  0.003920  1
  Sn  Sn29  1  0.651505  0.651484  0.000019  1
  Sn  Sn30  1  0.348505  0.348501  0.000009  1
  Sn  Sn31  1  0.333412  0.666594  0.122906  1
  Sn  Sn32  1  0.666706  0.333465  0.877031  1
  Sn  Sn33  1  0.332999  0.666908  0.817953  1
  Sn  Sn34  1  0.666937  0.333077  0.182033  1
  Sn  Sn35  1  0.999995  0.999996  0.499991  1
