# generated using pymatgen
data_Zr6Al6Mo3WN2
_symmetry_space_group_name_H-M   'P 1'
_cell_length_a   7.97296600
_cell_length_b   7.97296628
_cell_length_c   5.38092100
_cell_angle_alpha   90.00000000
_cell_angle_beta   90.00000000
_cell_angle_gamma   119.99999054
_symmetry_Int_Tables_number   1
_chemical_formula_structural   Zr6Al6Mo3WN2
_chemical_formula_sum   'Zr6 Al6 Mo3 W1 N2'
_cell_volume   296.22869716
_cell_formula_units_Z   1
loop_
 _symmetry_equiv_pos_site_id
 _symmetry_equiv_pos_as_xyz
  1  'x, y, z'
loop_
 _atom_site_type_symbol
 _atom_site_label
 _atom_site_symmetry_multiplicity
 _atom_site_fract_x
 _atom_site_fract_y
 _atom_site_fract_z
 _atom_site_occupancy
  Zr  Zr0  1  0.231210  0.999390  0.250301  1
  Zr  Zr1  1  0.768180  0.999390  0.749699  1
  Zr  Zr2  1  0.000610  0.231820  0.250301  1
  Zr  Zr3  1  0.000610  0.768790  0.749699  1
  Zr  Zr4  1  0.768180  0.768790  0.250301  1
  Zr  Zr5  1  0.231210  0.231820  0.749699  1
  Al  Al6  1  0.584479  0.000313  0.249596  1
  Al  Al7  1  0.415834  0.000313  0.750404  1
  Al  Al8  1  0.999687  0.584166  0.249596  1
  Al  Al9  1  0.999687  0.415521  0.750404  1
  Al  Al10  1  0.415834  0.415521  0.249596  1
  Al  Al11  1  0.584479  0.584166  0.750404  1
  Mo  Mo12  1  0.333333  0.666667  0.000000  1
  Mo  Mo13  1  0.666667  0.333333  0.000000  1
  Mo  Mo14  1  0.666667  0.333333  0.500000  1
  W  W15  1  0.333333  0.666667  0.500000  1
  N  N16  1  0.000000  0.000000  0.000000  1
  N  N17  1  0.000000  0.000000  0.500000  1
