# generated using pymatgen
data_Pm4HfTc5O24
_symmetry_space_group_name_H-M   'P 1'
_cell_length_a   7.00065663
_cell_length_b   7.20840096
_cell_length_c   11.66271511
_cell_angle_alpha   79.51416160
_cell_angle_beta   78.54399759
_cell_angle_gamma   112.85442508
_symmetry_Int_Tables_number   1
_chemical_formula_structural   Pm4HfTc5O24
_chemical_formula_sum   'Pm4 Hf1 Tc5 O24'
_cell_volume   509.18400147
_cell_formula_units_Z   1
loop_
 _symmetry_equiv_pos_site_id
 _symmetry_equiv_pos_as_xyz
  1  'x, y, z'
loop_
 _atom_site_type_symbol
 _atom_site_label
 _atom_site_symmetry_multiplicity
 _atom_site_fract_x
 _atom_site_fract_y
 _atom_site_fract_z
 _atom_site_occupancy
  Pm  Pm0  1  0.188307  0.450659  0.599371  1
  Pm  Pm1  1  0.813911  0.547986  0.404823  1
  Pm  Pm2  1  0.543680  0.821318  0.903372  1
  Pm  Pm3  1  0.441922  0.181687  0.093553  1
  Hf  Hf4  1  0.015920  0.293495  0.954885  1
  Tc  Tc5  1  0.992457  0.693235  0.042865  1
  Tc  Tc6  1  0.710036  0.005466  0.532758  1
  Tc  Tc7  1  0.292414  0.998398  0.464663  1
  Tc  Tc8  1  0.557711  0.374357  0.753805  1
  Tc  Tc9  1  0.401503  0.617019  0.249041  1
  O  O10  1  0.553190  0.476440  0.599281  1
  O  O11  1  0.451563  0.523268  0.388504  1
  O  O12  1  0.540662  0.473541  0.883786  1
  O  O13  1  0.481313  0.555710  0.112392  1
  O  O14  1  0.451164  0.101922  0.792659  1
  O  O15  1  0.507927  0.887644  0.220273  1
  O  O16  1  0.840274  0.447063  0.715032  1
  O  O17  1  0.119571  0.510870  0.285278  1
  O  O18  1  0.707749  0.112477  0.960342  1
  O  O19  1  0.265699  0.848986  0.055048  1
  O  O20  1  0.891601  0.280301  0.524619  1
  O  O21  1  0.114687  0.723536  0.470319  1
  O  O22  1  0.400900  0.831574  0.571503  1
  O  O23  1  0.601624  0.170534  0.426036  1
  O  O24  1  0.175754  0.617630  0.923531  1
  O  O25  1  0.822723  0.404101  0.076226  1
  O  O26  1  0.210235  0.337419  0.786861  1
  O  O27  1  0.857915  0.680078  0.197640  1
  O  O28  1  0.693843  0.894131  0.689161  1
  O  O29  1  0.307869  0.120030  0.310997  1
  O  O30  1  0.906559  0.835825  0.946378  1
  O  O31  1  0.137181  0.182634  0.065384  1
  O  O32  1  0.169706  0.101644  0.561565  1
  O  O33  1  0.832428  0.899021  0.438049  1
