# generated using pymatgen
data_ZnSi2Mo9
_symmetry_space_group_name_H-M   'P 1'
_cell_length_a   4.94479000
_cell_length_b   4.94075000
_cell_length_c   14.76147900
_cell_angle_alpha   90.00000000
_cell_angle_beta   90.00000000
_cell_angle_gamma   90.00000000
_symmetry_Int_Tables_number   1
_chemical_formula_structural   ZnSi2Mo9
_chemical_formula_sum   'Zn2 Si4 Mo18'
_cell_volume   360.63726821
_cell_formula_units_Z   2
loop_
 _symmetry_equiv_pos_site_id
 _symmetry_equiv_pos_as_xyz
  1  'x, y, z'
loop_
 _atom_site_type_symbol
 _atom_site_label
 _atom_site_symmetry_multiplicity
 _atom_site_fract_x
 _atom_site_fract_y
 _atom_site_fract_z
 _atom_site_occupancy
  Zn  Zn0  1  0.500000  0.500000  0.833525  1
  Zn  Zn1  1  0.500000  0.500000  0.499846  1
  Si  Si2  1  0.500000  0.500000  0.166536  1
  Si  Si3  1  0.000000  0.000000  0.000312  1
  Si  Si4  1  0.000000  0.000000  0.666827  1
  Si  Si5  1  0.000000  0.000000  0.332972  1
  Mo  Mo6  1  0.500000  0.000000  0.749240  1
  Mo  Mo7  1  0.500000  0.000000  0.415376  1
  Mo  Mo8  1  0.500000  0.000000  0.083400  1
  Mo  Mo9  1  0.248661  0.500000  0.001785  1
  Mo  Mo10  1  0.247602  0.500000  0.666726  1
  Mo  Mo11  1  0.248761  0.500000  0.331418  1
  Mo  Mo12  1  0.000000  0.752362  0.834526  1
  Mo  Mo13  1  0.000000  0.752400  0.498916  1
  Mo  Mo14  1  0.000000  0.750637  0.166591  1
  Mo  Mo15  1  0.500000  0.000000  0.917972  1
  Mo  Mo16  1  0.500000  0.000000  0.584152  1
  Mo  Mo17  1  0.500000  0.000000  0.249915  1
  Mo  Mo18  1  0.751339  0.500000  0.001785  1
  Mo  Mo19  1  0.752398  0.500000  0.666726  1
  Mo  Mo20  1  0.751239  0.500000  0.331418  1
  Mo  Mo21  1  0.000000  0.247638  0.834526  1
  Mo  Mo22  1  0.000000  0.247600  0.498916  1
  Mo  Mo23  1  0.000000  0.249363  0.166591  1
