# generated using pymatgen
data_Ac5Ge2Os
_symmetry_space_group_name_H-M   'P 1'
_cell_length_a   8.52647600
_cell_length_b   9.36029400
_cell_length_c   13.16410200
_cell_angle_alpha   90.00000000
_cell_angle_beta   90.00000000
_cell_angle_gamma   90.00000000
_symmetry_Int_Tables_number   1
_chemical_formula_structural   Ac5Ge2Os
_chemical_formula_sum   'Ac20 Ge8 Os4'
_cell_volume   1050.63122136
_cell_formula_units_Z   4
loop_
 _symmetry_equiv_pos_site_id
 _symmetry_equiv_pos_as_xyz
  1  'x, y, z'
loop_
 _atom_site_type_symbol
 _atom_site_label
 _atom_site_symmetry_multiplicity
 _atom_site_fract_x
 _atom_site_fract_y
 _atom_site_fract_z
 _atom_site_occupancy
  Ac  Ac0  1  0.673886  0.750000  0.712727  1
  Ac  Ac1  1  0.326114  0.250000  0.287273  1
  Ac  Ac2  1  0.173886  0.250000  0.787273  1
  Ac  Ac3  1  0.826114  0.750000  0.212727  1
  Ac  Ac4  1  0.145140  0.750000  0.803853  1
  Ac  Ac5  1  0.854860  0.250000  0.196147  1
  Ac  Ac6  1  0.645140  0.250000  0.696147  1
  Ac  Ac7  1  0.354860  0.750000  0.303853  1
  Ac  Ac8  1  0.547050  0.750000  0.998495  1
  Ac  Ac9  1  0.452950  0.250000  0.001505  1
  Ac  Ac10  1  0.047050  0.250000  0.501505  1
  Ac  Ac11  1  0.952950  0.750000  0.498495  1
  Ac  Ac12  1  0.826583  0.464913  0.919181  1
  Ac  Ac13  1  0.173417  0.535087  0.080819  1
  Ac  Ac14  1  0.326583  0.535087  0.580819  1
  Ac  Ac15  1  0.173417  0.964913  0.080819  1
  Ac  Ac16  1  0.673417  0.464913  0.419181  1
  Ac  Ac17  1  0.826583  0.035087  0.919181  1
  Ac  Ac18  1  0.673417  0.035087  0.419181  1
  Ac  Ac19  1  0.326583  0.964913  0.580819  1
  Ge  Ge20  1  0.949539  0.003881  0.674473  1
  Ge  Ge21  1  0.050461  0.996119  0.325527  1
  Ge  Ge22  1  0.449539  0.996119  0.825527  1
  Ge  Ge23  1  0.050461  0.503881  0.325527  1
  Ge  Ge24  1  0.550461  0.003881  0.174473  1
  Ge  Ge25  1  0.949539  0.496119  0.674473  1
  Ge  Ge26  1  0.550461  0.496119  0.174473  1
  Ge  Ge27  1  0.449539  0.503881  0.825527  1
  Os  Os28  1  0.916335  0.750000  0.987315  1
  Os  Os29  1  0.083665  0.250000  0.012685  1
  Os  Os30  1  0.416335  0.250000  0.512685  1
  Os  Os31  1  0.583665  0.750000  0.487315  1
