# generated using pymatgen
data_Tb11Nd8Si16Hg
_symmetry_space_group_name_H-M   'P 1'
_cell_length_a   7.79526570
_cell_length_b   7.79526570
_cell_length_c   14.33688361
_cell_angle_alpha   90.18274102
_cell_angle_beta   89.81725898
_cell_angle_gamma   90.10252736
_symmetry_Int_Tables_number   1
_chemical_formula_structural   Tb11Nd8Si16Hg
_chemical_formula_sum   'Tb11 Nd8 Si16 Hg1'
_cell_volume   871.18722689
_cell_formula_units_Z   1
loop_
 _symmetry_equiv_pos_site_id
 _symmetry_equiv_pos_as_xyz
  1  'x, y, z'
loop_
 _atom_site_type_symbol
 _atom_site_label
 _atom_site_symmetry_multiplicity
 _atom_site_fract_x
 _atom_site_fract_y
 _atom_site_fract_z
 _atom_site_occupancy
  Tb  Tb0  1  0.487452  0.368382  0.124446  1
  Tb  Tb1  1  0.001509  0.136339  0.621790  1
  Tb  Tb2  1  0.863320  0.009988  0.872652  1
  Tb  Tb3  1  0.136339  0.001509  0.378210  1
  Tb  Tb4  1  0.504062  0.627977  0.620388  1
  Tb  Tb5  1  0.368382  0.487452  0.875554  1
  Tb  Tb6  1  0.627977  0.504062  0.379612  1
  Tb  Tb7  1  0.009988  0.863320  0.127348  1
  Tb  Tb8  1  0.186671  0.812650  0.749298  1
  Tb  Tb9  1  0.812650  0.186671  0.250702  1
  Tb  Tb10  1  0.687323  0.687323  0.000000  1
  Nd  Nd11  1  0.630638  0.998368  0.459311  1
  Nd  Nd12  1  0.364159  0.010010  0.956866  1
  Nd  Nd13  1  0.998368  0.630638  0.540689  1
  Nd  Nd14  1  0.489201  0.859983  0.210704  1
  Nd  Nd15  1  0.502540  0.136206  0.700283  1
  Nd  Nd16  1  0.859983  0.489201  0.789296  1
  Nd  Nd17  1  0.136206  0.502540  0.299717  1
  Nd  Nd18  1  0.010010  0.364159  0.043134  1
  Si  Si19  1  0.285599  0.912849  0.562770  1
  Si  Si20  1  0.710987  0.068564  0.060891  1
  Si  Si21  1  0.912849  0.285599  0.437230  1
  Si  Si22  1  0.433049  0.209030  0.307829  1
  Si  Si23  1  0.569556  0.790493  0.807700  1
  Si  Si24  1  0.209030  0.433049  0.692171  1
  Si  Si25  1  0.790493  0.569556  0.192300  1
  Si  Si26  1  0.068564  0.710987  0.939109  1
  Si  Si27  1  0.795453  0.843895  0.686617  1
  Si  Si28  1  0.200941  0.157950  0.192593  1
  Si  Si29  1  0.843895  0.795453  0.313383  1
  Si  Si30  1  0.351949  0.722874  0.433012  1
  Si  Si31  1  0.657933  0.297309  0.941057  1
  Si  Si32  1  0.722874  0.351949  0.566988  1
  Si  Si33  1  0.297309  0.657933  0.058943  1
  Si  Si34  1  0.157950  0.200941  0.807407  1
  Hg  Hg35  1  0.314794  0.314794  0.500000  1
