# generated using pymatgen
data_Rb3NaMgCl6
_symmetry_space_group_name_H-M   'P 1'
_cell_length_a   8.71064616
_cell_length_b   8.71064643
_cell_length_c   8.71064566
_cell_angle_alpha   93.01857979
_cell_angle_beta   93.01858372
_cell_angle_gamma   93.01857319
_symmetry_Int_Tables_number   1
_chemical_formula_structural   Rb3NaMgCl6
_chemical_formula_sum   'Rb6 Na2 Mg2 Cl12'
_cell_volume   658.07153723
_cell_formula_units_Z   2
loop_
 _symmetry_equiv_pos_site_id
 _symmetry_equiv_pos_as_xyz
  1  'x, y, z'
loop_
 _atom_site_type_symbol
 _atom_site_label
 _atom_site_symmetry_multiplicity
 _atom_site_fract_x
 _atom_site_fract_y
 _atom_site_fract_z
 _atom_site_occupancy
  Rb  Rb0  1  0.374375  0.750000  0.125625  1
  Rb  Rb1  1  0.125625  0.374375  0.750000  1
  Rb  Rb2  1  0.750000  0.125625  0.374375  1
  Rb  Rb3  1  0.625625  0.250000  0.874375  1
  Rb  Rb4  1  0.874375  0.625625  0.250000  1
  Rb  Rb5  1  0.250000  0.874375  0.625625  1
  Na  Na6  1  0.250000  0.250000  0.250000  1
  Na  Na7  1  0.750000  0.750000  0.750000  1
  Mg  Mg8  1  0.500000  0.500000  0.500000  1
  Mg  Mg9  1  0.000000  0.000000  0.000000  1
  Cl  Cl10  1  0.418524  0.219163  0.540076  1
  Cl  Cl11  1  0.540076  0.418524  0.219163  1
  Cl  Cl12  1  0.219163  0.540076  0.418524  1
  Cl  Cl13  1  0.081476  0.959924  0.280837  1
  Cl  Cl14  1  0.280837  0.081476  0.959924  1
  Cl  Cl15  1  0.959924  0.280837  0.081476  1
  Cl  Cl16  1  0.040076  0.719163  0.918524  1
  Cl  Cl17  1  0.719163  0.918524  0.040076  1
  Cl  Cl18  1  0.918524  0.040076  0.719163  1
  Cl  Cl19  1  0.780837  0.459924  0.581476  1
  Cl  Cl20  1  0.459924  0.581476  0.780837  1
  Cl  Cl21  1  0.581476  0.780837  0.459924  1
