# generated using pymatgen
data_Tb3TiFe5(CoP2)3
_symmetry_space_group_name_H-M   'P 1'
_cell_length_a   3.73318000
_cell_length_b   10.63399700
_cell_length_c   12.29657800
_cell_angle_alpha   90.00000000
_cell_angle_beta   90.00000000
_cell_angle_gamma   90.00000000
_symmetry_Int_Tables_number   1
_chemical_formula_structural   Tb3TiFe5(CoP2)3
_chemical_formula_sum   'Tb6 Ti2 Fe10 Co6 P12'
_cell_volume   488.15723783
_cell_formula_units_Z   2
loop_
 _symmetry_equiv_pos_site_id
 _symmetry_equiv_pos_as_xyz
  1  'x, y, z'
loop_
 _atom_site_type_symbol
 _atom_site_label
 _atom_site_symmetry_multiplicity
 _atom_site_fract_x
 _atom_site_fract_y
 _atom_site_fract_z
 _atom_site_occupancy
  Tb  Tb0  1  0.000000  0.500000  0.526236  1
  Tb  Tb1  1  0.500000  0.000000  0.473764  1
  Tb  Tb2  1  0.500000  0.823132  0.207546  1
  Tb  Tb3  1  0.500000  0.176868  0.207546  1
  Tb  Tb4  1  0.000000  0.676868  0.792454  1
  Tb  Tb5  1  0.000000  0.323132  0.792454  1
  Ti  Ti6  1  0.500000  0.500000  0.151305  1
  Ti  Ti7  1  0.000000  0.000000  0.848695  1
  Fe  Fe8  1  0.000000  0.500000  0.989504  1
  Fe  Fe9  1  0.500000  0.000000  0.010496  1
  Fe  Fe10  1  0.500000  0.326889  0.998273  1
  Fe  Fe11  1  0.500000  0.673111  0.998273  1
  Fe  Fe12  1  0.000000  0.173111  0.001727  1
  Fe  Fe13  1  0.000000  0.826889  0.001727  1
  Fe  Fe14  1  0.500000  0.297764  0.430707  1
  Fe  Fe15  1  0.500000  0.702236  0.430707  1
  Fe  Fe16  1  0.000000  0.202236  0.569293  1
  Fe  Fe17  1  0.000000  0.797764  0.569293  1
  Co  Co18  1  0.500000  0.500000  0.703102  1
  Co  Co19  1  0.000000  0.000000  0.296898  1
  Co  Co20  1  0.500000  0.880400  0.705905  1
  Co  Co21  1  0.500000  0.119600  0.705905  1
  Co  Co22  1  0.000000  0.619600  0.294095  1
  Co  Co23  1  0.000000  0.380400  0.294095  1
  P  P24  1  0.500000  0.500000  0.889113  1
  P  P25  1  0.000000  0.000000  0.110887  1
  P  P26  1  0.500000  0.500000  0.351493  1
  P  P27  1  0.000000  0.000000  0.648507  1
  P  P28  1  0.500000  0.306063  0.613330  1
  P  P29  1  0.500000  0.693937  0.613330  1
  P  P30  1  0.000000  0.193937  0.386670  1
  P  P31  1  0.000000  0.806063  0.386670  1
  P  P32  1  0.500000  0.843742  0.890541  1
  P  P33  1  0.500000  0.156258  0.890541  1
  P  P34  1  0.000000  0.656258  0.109459  1
  P  P35  1  0.000000  0.343742  0.109459  1
