# generated using pymatgen
data_Nb6Co4MoIrC2
_symmetry_space_group_name_H-M   'P 1'
_cell_length_a   8.16107598
_cell_length_b   8.19354818
_cell_length_c   8.16107600
_cell_angle_alpha   59.86829421
_cell_angle_beta   59.78745466
_cell_angle_gamma   59.86829244
_symmetry_Int_Tables_number   1
_chemical_formula_structural   Nb6Co4MoIrC2
_chemical_formula_sum   'Nb12 Co8 Mo2 Ir2 C4'
_cell_volume   384.48971070
_cell_formula_units_Z   2
loop_
 _symmetry_equiv_pos_site_id
 _symmetry_equiv_pos_as_xyz
  1  'x, y, z'
loop_
 _atom_site_type_symbol
 _atom_site_label
 _atom_site_symmetry_multiplicity
 _atom_site_fract_x
 _atom_site_fract_y
 _atom_site_fract_z
 _atom_site_occupancy
  Nb  Nb0  1  0.689822  0.310178  0.689822  1
  Nb  Nb1  1  0.943364  0.559266  0.554726  1
  Nb  Nb2  1  0.554726  0.942644  0.943364  1
  Nb  Nb3  1  0.945702  0.554298  0.945702  1
  Nb  Nb4  1  0.554726  0.559266  0.943364  1
  Nb  Nb5  1  0.943364  0.942644  0.554726  1
  Nb  Nb6  1  0.695274  0.690734  0.306636  1
  Nb  Nb7  1  0.306636  0.690734  0.695274  1
  Nb  Nb8  1  0.695274  0.307356  0.306636  1
  Nb  Nb9  1  0.306636  0.307356  0.695274  1
  Nb  Nb10  1  0.560178  0.939822  0.560178  1
  Nb  Nb11  1  0.304298  0.695702  0.304298  1
  Co  Co12  1  0.328175  0.327798  0.328175  1
  Co  Co13  1  0.230011  0.924182  0.921623  1
  Co  Co14  1  0.921825  0.234145  0.921825  1
  Co  Co15  1  0.921623  0.924182  0.230011  1
  Co  Co16  1  0.328175  0.015855  0.328175  1
  Co  Co17  1  0.328377  0.325818  0.019989  1
  Co  Co18  1  0.019989  0.325818  0.328377  1
  Co  Co19  1  0.921825  0.922202  0.921825  1
  Mo  Mo20  1  0.625000  0.125000  0.125000  1
  Mo  Mo21  1  0.125000  0.125000  0.625000  1
  Ir  Ir22  1  0.125000  0.125000  0.125000  1
  Ir  Ir23  1  0.125000  0.625000  0.125000  1
  C  C24  1  0.625000  0.625000  0.625000  1
  C  C25  1  0.125000  0.625000  0.625000  1
  C  C26  1  0.625000  0.125000  0.625000  1
  C  C27  1  0.625000  0.625000  0.125000  1
