# generated using pymatgen
data_ScV(GaCo2)2
_symmetry_space_group_name_H-M   'P 1'
_cell_length_a   7.20328918
_cell_length_b   7.20328950
_cell_length_c   7.20328917
_cell_angle_alpha   33.47145360
_cell_angle_beta   33.47144739
_cell_angle_gamma   33.47145439
_symmetry_Int_Tables_number   1
_chemical_formula_structural   ScV(GaCo2)2
_chemical_formula_sum   'Sc1 V1 Ga2 Co4'
_cell_volume   101.25093196
_cell_formula_units_Z   1
loop_
 _symmetry_equiv_pos_site_id
 _symmetry_equiv_pos_as_xyz
  1  'x, y, z'
loop_
 _atom_site_type_symbol
 _atom_site_label
 _atom_site_symmetry_multiplicity
 _atom_site_fract_x
 _atom_site_fract_y
 _atom_site_fract_z
 _atom_site_occupancy
  Sc  Sc0  1  0.000000  0.000000  0.000000  1
  V  V1  1  0.500000  0.500000  0.500000  1
  Ga  Ga2  1  0.249882  0.249882  0.249882  1
  Ga  Ga3  1  0.750118  0.750118  0.750118  1
  Co  Co4  1  0.618711  0.618711  0.618711  1
  Co  Co5  1  0.129506  0.129506  0.129506  1
  Co  Co6  1  0.870494  0.870494  0.870494  1
  Co  Co7  1  0.381289  0.381289  0.381289  1
