# generated using pymatgen
data_Hf5Zr3(Pt2C)2
_symmetry_space_group_name_H-M   'P 1'
_cell_length_a   8.87461695
_cell_length_b   8.87461714
_cell_length_c   8.87461800
_cell_angle_alpha   60.00000423
_cell_angle_beta   60.00000354
_cell_angle_gamma   60.00000520
_symmetry_Int_Tables_number   1
_chemical_formula_structural   Hf5Zr3(Pt2C)2
_chemical_formula_sum   'Hf10 Zr6 Pt8 C4'
_cell_volume   494.23552180
_cell_formula_units_Z   2
loop_
 _symmetry_equiv_pos_site_id
 _symmetry_equiv_pos_as_xyz
  1  'x, y, z'
loop_
 _atom_site_type_symbol
 _atom_site_label
 _atom_site_symmetry_multiplicity
 _atom_site_fract_x
 _atom_site_fract_y
 _atom_site_fract_z
 _atom_site_occupancy
  Hf  Hf0  1  0.123460  0.625514  0.625514  1
  Hf  Hf1  1  0.625514  0.123460  0.625514  1
  Hf  Hf2  1  0.625514  0.625514  0.123460  1
  Hf  Hf3  1  0.625514  0.625514  0.625514  1
  Hf  Hf4  1  0.817945  0.817945  0.182055  1
  Hf  Hf5  1  0.182055  0.182055  0.817945  1
  Hf  Hf6  1  0.817945  0.182055  0.817945  1
  Hf  Hf7  1  0.182055  0.817945  0.182055  1
  Hf  Hf8  1  0.182055  0.817945  0.817945  1
  Hf  Hf9  1  0.817945  0.182055  0.182055  1
  Zr  Zr10  1  0.433604  0.433604  0.066396  1
  Zr  Zr11  1  0.066396  0.066396  0.433604  1
  Zr  Zr12  1  0.433604  0.066396  0.433604  1
  Zr  Zr13  1  0.066396  0.433604  0.066396  1
  Zr  Zr14  1  0.066396  0.433604  0.433604  1
  Zr  Zr15  1  0.433604  0.066396  0.066396  1
  Pt  Pt16  1  0.768696  0.410435  0.410435  1
  Pt  Pt17  1  0.410435  0.768696  0.410435  1
  Pt  Pt18  1  0.410435  0.410435  0.768696  1
  Pt  Pt19  1  0.410435  0.410435  0.410435  1
  Pt  Pt20  1  0.473690  0.842103  0.842103  1
  Pt  Pt21  1  0.842103  0.473690  0.842103  1
  Pt  Pt22  1  0.842103  0.842103  0.473690  1
  Pt  Pt23  1  0.842103  0.842103  0.842103  1
  C  C24  1  0.628933  0.123689  0.123689  1
  C  C25  1  0.123689  0.628933  0.123689  1
  C  C26  1  0.123689  0.123689  0.628933  1
  C  C27  1  0.123689  0.123689  0.123689  1
