# generated using pymatgen
data_YEr2Be2Ni7
_symmetry_space_group_name_H-M   'P 1'
_cell_length_a   8.04210015
_cell_length_b   8.04210041
_cell_length_c   8.04210021
_cell_angle_alpha   36.37009669
_cell_angle_beta   36.37009479
_cell_angle_gamma   36.37009653
_symmetry_Int_Tables_number   1
_chemical_formula_structural   YEr2Be2Ni7
_chemical_formula_sum   'Y1 Er2 Be2 Ni7'
_cell_volume   163.69819973
_cell_formula_units_Z   1
loop_
 _symmetry_equiv_pos_site_id
 _symmetry_equiv_pos_as_xyz
  1  'x, y, z'
loop_
 _atom_site_type_symbol
 _atom_site_label
 _atom_site_symmetry_multiplicity
 _atom_site_fract_x
 _atom_site_fract_y
 _atom_site_fract_z
 _atom_site_occupancy
  Y  Y0  1  0.000000  0.000000  0.000000  1
  Er  Er1  1  0.859201  0.859201  0.859201  1
  Er  Er2  1  0.140799  0.140799  0.140799  1
  Be  Be3  1  0.666897  0.666897  0.666897  1
  Be  Be4  1  0.333103  0.333103  0.333103  1
  Ni  Ni5  1  0.500000  0.500000  0.500000  1
  Ni  Ni6  1  0.424815  0.922910  0.424815  1
  Ni  Ni7  1  0.424815  0.424815  0.922910  1
  Ni  Ni8  1  0.922910  0.424815  0.424815  1
  Ni  Ni9  1  0.575185  0.077090  0.575185  1
  Ni  Ni10  1  0.575185  0.575185  0.077090  1
  Ni  Ni11  1  0.077090  0.575185  0.575185  1
