# generated using pymatgen
data_YbSmDy2(B6Os)2
_symmetry_space_group_name_H-M   'P 1'
_cell_length_a   3.66797800
_cell_length_b   9.19026909
_cell_length_c   11.59172405
_cell_angle_alpha   89.83840939
_cell_angle_beta   90.00000000
_cell_angle_gamma   90.00000000
_symmetry_Int_Tables_number   1
_chemical_formula_structural   YbSmDy2(B6Os)2
_chemical_formula_sum   'Yb2 Sm2 Dy4 B24 Os4'
_cell_volume   390.75204239
_cell_formula_units_Z   2
loop_
 _symmetry_equiv_pos_site_id
 _symmetry_equiv_pos_as_xyz
  1  'x, y, z'
loop_
 _atom_site_type_symbol
 _atom_site_label
 _atom_site_symmetry_multiplicity
 _atom_site_fract_x
 _atom_site_fract_y
 _atom_site_fract_z
 _atom_site_occupancy
  Yb  Yb0  1  0.000000  0.324786  0.415065  1
  Yb  Yb1  1  0.000000  0.675214  0.584935  1
  Sm  Sm2  1  0.000000  0.822137  0.086515  1
  Sm  Sm3  1  0.000000  0.177863  0.913485  1
  Dy  Dy4  1  0.000000  0.941740  0.370875  1
  Dy  Dy5  1  0.000000  0.058260  0.629125  1
  Dy  Dy6  1  0.000000  0.442773  0.131444  1
  Dy  Dy7  1  0.000000  0.557227  0.868556  1
  B  B8  1  0.500000  0.553756  0.432963  1
  B  B9  1  0.500000  0.446244  0.567037  1
  B  B10  1  0.500000  0.054767  0.068688  1
  B  B11  1  0.500000  0.945233  0.931312  1
  B  B12  1  0.500000  0.747171  0.418412  1
  B  B13  1  0.500000  0.252829  0.581588  1
  B  B14  1  0.500000  0.248584  0.083528  1
  B  B15  1  0.500000  0.751416  0.916472  1
  B  B16  1  0.500000  0.789674  0.266648  1
  B  B17  1  0.500000  0.210326  0.733352  1
  B  B18  1  0.500000  0.290170  0.235691  1
  B  B19  1  0.500000  0.709830  0.764309  1
  B  B20  1  0.500000  0.630364  0.187062  1
  B  B21  1  0.500000  0.369636  0.812938  1
  B  B22  1  0.500000  0.131314  0.314874  1
  B  B23  1  0.500000  0.868686  0.685126  1
  B  B24  1  0.500000  0.984786  0.213140  1
  B  B25  1  0.500000  0.015214  0.786860  1
  B  B26  1  0.500000  0.483812  0.289347  1
  B  B27  1  0.500000  0.516188  0.710653  1
  B  B28  1  0.500000  0.600928  0.027814  1
  B  B29  1  0.500000  0.399072  0.972186  1
  B  B30  1  0.500000  0.100363  0.472271  1
  B  B31  1  0.500000  0.899637  0.527729  1
  Os  Os32  1  0.000000  0.638792  0.320413  1
  Os  Os33  1  0.000000  0.361208  0.679587  1
  Os  Os34  1  0.000000  0.137859  0.179608  1
  Os  Os35  1  0.000000  0.862141  0.820392  1
