# generated using pymatgen
data_K2CrH8
_symmetry_space_group_name_H-M   'P 1'
_cell_length_a   3.65730054
_cell_length_b   7.14471222
_cell_length_c   9.34458942
_cell_angle_alpha   49.07292678
_cell_angle_beta   89.72614832
_cell_angle_gamma   59.81042993
_symmetry_Int_Tables_number   1
_chemical_formula_structural   K2CrH8
_chemical_formula_sum   'K2 Cr1 H8'
_cell_volume   138.36530622
_cell_formula_units_Z   1
loop_
 _symmetry_equiv_pos_site_id
 _symmetry_equiv_pos_as_xyz
  1  'x, y, z'
loop_
 _atom_site_type_symbol
 _atom_site_label
 _atom_site_symmetry_multiplicity
 _atom_site_fract_x
 _atom_site_fract_y
 _atom_site_fract_z
 _atom_site_occupancy
  K  K0  1  0.747524  0.499052  0.990624  1
  K  K1  1  0.745033  0.506826  0.550417  1
  Cr  Cr2  1  0.822578  0.923285  0.057561  1
  H  H3  1  0.722490  0.019673  0.185379  1
  H  H4  1  0.165871  0.581895  0.320147  1
  H  H5  1  0.320141  0.926098  0.054482  1
  H  H6  1  0.160165  0.577674  0.140607  1
  H  H7  1  0.732661  0.015841  0.834955  1
  H  H8  1  0.406210  0.348176  0.845022  1
  H  H9  1  0.211021  0.080261  0.498364  1
  H  H10  1  0.072491  0.022110  0.533670  1
