# generated using pymatgen
data_Nd12Si(GeI4)3
_symmetry_space_group_name_H-M   'P 1'
_cell_length_a   10.88004982
_cell_length_b   10.83875074
_cell_length_c   10.83875061
_cell_angle_alpha   109.39390321
_cell_angle_beta   109.54842427
_cell_angle_gamma   109.54842656
_symmetry_Int_Tables_number   1
_chemical_formula_structural   Nd12Si(GeI4)3
_chemical_formula_sum   'Nd12 Si1 Ge3 I12'
_cell_volume   982.99831050
_cell_formula_units_Z   1
loop_
 _symmetry_equiv_pos_site_id
 _symmetry_equiv_pos_as_xyz
  1  'x, y, z'
loop_
 _atom_site_type_symbol
 _atom_site_label
 _atom_site_symmetry_multiplicity
 _atom_site_fract_x
 _atom_site_fract_y
 _atom_site_fract_z
 _atom_site_occupancy
  Nd  Nd0  1  0.465355  0.485882  0.231320  1
  Nd  Nd1  1  0.750000  0.233296  0.266704  1
  Nd  Nd2  1  0.750000  0.016168  0.483832  1
  Nd  Nd3  1  0.233832  0.467665  0.483832  1
  Nd  Nd4  1  0.265965  0.745438  0.231320  1
  Nd  Nd5  1  0.034645  0.268680  0.014118  1
  Nd  Nd6  1  0.016704  0.033408  0.266704  1
  Nd  Nd7  1  0.479473  0.745438  0.014118  1
  Nd  Nd8  1  0.483296  0.233296  0.466592  1
  Nd  Nd9  1  0.020527  0.485882  0.754562  1
  Nd  Nd10  1  0.266168  0.016168  0.032335  1
  Nd  Nd11  1  0.234035  0.268680  0.754562  1
  Si  Si12  1  0.250000  0.500000  0.000000  1
  Ge  Ge13  1  0.250000  0.250214  0.249786  1
  Ge  Ge14  1  0.499786  0.999573  0.249786  1
  Ge  Ge15  1  0.000214  0.250214  0.500427  1
  I  I16  1  0.250000  0.758306  0.741694  1
  I  I17  1  0.514880  0.507173  0.757830  1
  I  I18  1  0.985120  0.742170  0.992827  1
  I  I19  1  0.742950  0.250657  0.757830  1
  I  I20  1  0.991694  0.983387  0.741694  1
  I  I21  1  0.250000  0.992986  0.507014  1
  I  I22  1  0.757014  0.514027  0.507014  1
  I  I23  1  0.507707  0.250657  0.992827  1
  I  I24  1  0.757050  0.742170  0.249343  1
  I  I25  1  0.742986  0.992986  0.985973  1
  I  I26  1  0.992293  0.507173  0.249343  1
  I  I27  1  0.508306  0.758306  0.516613  1
