# generated using pymatgen
data_Tb4Sc4Ga3Os
_symmetry_space_group_name_H-M   'P 1'
_cell_length_a   9.61859800
_cell_length_b   9.61859868
_cell_length_c   7.02977800
_cell_angle_alpha   90.00000000
_cell_angle_beta   90.00000000
_cell_angle_gamma   119.99999767
_symmetry_Int_Tables_number   1
_chemical_formula_structural   Tb4Sc4Ga3Os
_chemical_formula_sum   'Tb8 Sc8 Ga6 Os2'
_cell_volume   563.24303652
_cell_formula_units_Z   2
loop_
 _symmetry_equiv_pos_site_id
 _symmetry_equiv_pos_as_xyz
  1  'x, y, z'
loop_
 _atom_site_type_symbol
 _atom_site_label
 _atom_site_symmetry_multiplicity
 _atom_site_fract_x
 _atom_site_fract_y
 _atom_site_fract_z
 _atom_site_occupancy
  Tb  Tb0  1  0.531340  0.062677  0.790939  1
  Tb  Tb1  1  0.937323  0.468660  0.790939  1
  Tb  Tb2  1  0.531340  0.468660  0.790939  1
  Tb  Tb3  1  0.468660  0.937323  0.290939  1
  Tb  Tb4  1  0.062677  0.531340  0.290939  1
  Tb  Tb5  1  0.468660  0.531340  0.290939  1
  Tb  Tb6  1  0.000000  0.000000  0.768875  1
  Tb  Tb7  1  0.000000  0.000000  0.268875  1
  Sc  Sc8  1  0.827439  0.654879  0.487430  1
  Sc  Sc9  1  0.345121  0.172561  0.487430  1
  Sc  Sc10  1  0.827439  0.172561  0.487430  1
  Sc  Sc11  1  0.172561  0.345121  0.987430  1
  Sc  Sc12  1  0.654879  0.827439  0.987430  1
  Sc  Sc13  1  0.172561  0.827439  0.987430  1
  Sc  Sc14  1  0.666667  0.333333  0.165759  1
  Sc  Sc15  1  0.333333  0.666667  0.665759  1
  Ga  Ga16  1  0.835825  0.671651  0.051220  1
  Ga  Ga17  1  0.328349  0.164175  0.051220  1
  Ga  Ga18  1  0.835825  0.164175  0.051220  1
  Ga  Ga19  1  0.164175  0.328349  0.551220  1
  Ga  Ga20  1  0.671651  0.835825  0.551220  1
  Ga  Ga21  1  0.164175  0.835825  0.551220  1
  Os  Os22  1  0.666667  0.333333  0.539637  1
  Os  Os23  1  0.333333  0.666667  0.039637  1
