# generated using pymatgen
data_Zr10CdGa2Bi5
_symmetry_space_group_name_H-M   'P 1'
_cell_length_a   8.88768385
_cell_length_b   8.88768399
_cell_length_c   5.93827600
_cell_angle_alpha   90.00000000
_cell_angle_beta   90.00000000
_cell_angle_gamma   120.32041512
_symmetry_Int_Tables_number   1
_chemical_formula_structural   Zr10CdGa2Bi5
_chemical_formula_sum   'Zr10 Cd1 Ga2 Bi5'
_cell_volume   404.90852903
_cell_formula_units_Z   1
loop_
 _symmetry_equiv_pos_site_id
 _symmetry_equiv_pos_as_xyz
  1  'x, y, z'
loop_
 _atom_site_type_symbol
 _atom_site_label
 _atom_site_symmetry_multiplicity
 _atom_site_fract_x
 _atom_site_fract_y
 _atom_site_fract_z
 _atom_site_occupancy
  Zr  Zr0  1  0.999346  0.263149  0.250000  1
  Zr  Zr1  1  0.732636  0.997277  0.750000  1
  Zr  Zr2  1  0.738046  0.738046  0.250000  1
  Zr  Zr3  1  0.665926  0.333058  0.502031  1
  Zr  Zr4  1  0.997277  0.732636  0.750000  1
  Zr  Zr5  1  0.269946  0.269946  0.750000  1
  Zr  Zr6  1  0.333058  0.665926  0.997969  1
  Zr  Zr7  1  0.665926  0.333058  0.997969  1
  Zr  Zr8  1  0.333058  0.665926  0.502031  1
  Zr  Zr9  1  0.263149  0.999346  0.250000  1
  Cd  Cd10  1  0.615149  0.615149  0.750000  1
  Ga  Ga11  1  0.999501  0.999501  0.995114  1
  Ga  Ga12  1  0.999501  0.999501  0.504886  1
  Bi  Bi13  1  0.610094  0.999158  0.250000  1
  Bi  Bi14  1  0.386317  0.998400  0.750000  1
  Bi  Bi15  1  0.393510  0.393510  0.250000  1
  Bi  Bi16  1  0.999158  0.610094  0.250000  1
  Bi  Bi17  1  0.998400  0.386317  0.750000  1
