# generated using pymatgen
data_Ag2Bi5Au4
_symmetry_space_group_name_H-M   'P 1'
_cell_length_a   16.96479924
_cell_length_b   16.96479874
_cell_length_c   4.76773100
_cell_angle_alpha   90.00000000
_cell_angle_beta   90.00000000
_cell_angle_gamma   168.53642754
_symmetry_Int_Tables_number   1
_chemical_formula_structural   Ag2Bi5Au4
_chemical_formula_sum   'Ag2 Bi5 Au4'
_cell_volume   272.71254937
_cell_formula_units_Z   1
loop_
 _symmetry_equiv_pos_site_id
 _symmetry_equiv_pos_as_xyz
  1  'x, y, z'
loop_
 _atom_site_type_symbol
 _atom_site_label
 _atom_site_symmetry_multiplicity
 _atom_site_fract_x
 _atom_site_fract_y
 _atom_site_fract_z
 _atom_site_occupancy
  Ag  Ag0  1  0.894746  0.105254  0.500000  1
  Ag  Ag1  1  0.542452  0.457547  0.500000  1
  Bi  Bi2  1  0.995182  0.004818  0.000000  1
  Bi  Bi3  1  0.626342  0.373658  0.000000  1
  Bi  Bi4  1  0.372686  0.627314  0.000000  1
  Bi  Bi5  1  0.805055  0.194944  0.500000  1
  Bi  Bi6  1  0.195039  0.804960  0.500000  1
  Au  Au7  1  0.716601  0.283399  0.000000  1
  Au  Au8  1  0.283499  0.716501  0.000000  1
  Au  Au9  1  0.460309  0.539690  0.500000  1
  Au  Au10  1  0.108086  0.891914  0.500000  1
