# generated using pymatgen
data_LiErMnWO6
_symmetry_space_group_name_H-M   'P 1'
_cell_length_a   5.36050202
_cell_length_b   5.63503400
_cell_length_c   7.85807481
_cell_angle_alpha   90.00000000
_cell_angle_beta   89.70001740
_cell_angle_gamma   90.00000000
_symmetry_Int_Tables_number   1
_chemical_formula_structural   LiErMnWO6
_chemical_formula_sum   'Li2 Er2 Mn2 W2 O12'
_cell_volume   237.36255678
_cell_formula_units_Z   2
loop_
 _symmetry_equiv_pos_site_id
 _symmetry_equiv_pos_as_xyz
  1  'x, y, z'
loop_
 _atom_site_type_symbol
 _atom_site_label
 _atom_site_symmetry_multiplicity
 _atom_site_fract_x
 _atom_site_fract_y
 _atom_site_fract_z
 _atom_site_occupancy
  Li  Li0  1  0.269512  0.284285  0.997227  1
  Li  Li1  1  0.730488  0.784285  0.002772  1
  Er  Er2  1  0.727919  0.786972  0.499405  1
  Er  Er3  1  0.272081  0.286972  0.500595  1
  Mn  Mn4  1  0.757690  0.234328  0.237694  1
  Mn  Mn5  1  0.242310  0.734328  0.762307  1
  W  W6  1  0.239684  0.718431  0.238801  1
  W  W7  1  0.760316  0.218431  0.761200  1
  O  O8  1  0.366897  0.748393  0.018133  1
  O  O9  1  0.106034  0.402784  0.203167  1
  O  O10  1  0.928420  0.872024  0.209200  1
  O  O11  1  0.534690  0.526341  0.326606  1
  O  O12  1  0.428512  0.993262  0.323978  1
  O  O13  1  0.123877  0.668778  0.491024  1
  O  O14  1  0.876123  0.168778  0.508976  1
  O  O15  1  0.571489  0.493262  0.676023  1
  O  O16  1  0.465311  0.026341  0.673395  1
  O  O17  1  0.071580  0.372024  0.790799  1
  O  O18  1  0.893966  0.902784  0.796833  1
  O  O19  1  0.633103  0.248393  0.981867  1
