# generated using pymatgen
data_Dy7Er(ThIr)6
_symmetry_space_group_name_H-M   'P 1'
_cell_length_a   9.77141209
_cell_length_b   9.77140986
_cell_length_c   6.36913200
_cell_angle_alpha   90.09012379
_cell_angle_beta   89.90987623
_cell_angle_gamma   119.26056417
_symmetry_Int_Tables_number   1
_chemical_formula_structural   Dy7Er(ThIr)6
_chemical_formula_sum   'Dy7 Er1 Th6 Ir6'
_cell_volume   530.53334042
_cell_formula_units_Z   1
loop_
 _symmetry_equiv_pos_site_id
 _symmetry_equiv_pos_as_xyz
  1  'x, y, z'
loop_
 _atom_site_type_symbol
 _atom_site_label
 _atom_site_symmetry_multiplicity
 _atom_site_fract_x
 _atom_site_fract_y
 _atom_site_fract_z
 _atom_site_occupancy
  Dy  Dy0  1  0.128726  0.871274  0.257692  1
  Dy  Dy1  1  0.461952  0.925879  0.549021  1
  Dy  Dy2  1  0.074121  0.538048  0.549021  1
  Dy  Dy3  1  0.463287  0.536713  0.550874  1
  Dy  Dy4  1  0.537062  0.077085  0.052510  1
  Dy  Dy5  1  0.922915  0.462938  0.052510  1
  Dy  Dy6  1  0.538918  0.461082  0.051960  1
  Er  Er7  1  0.667360  0.332640  0.523628  1
  Th  Th8  1  0.332522  0.667478  0.022036  1
  Th  Th9  1  0.871245  0.739660  0.754407  1
  Th  Th10  1  0.260340  0.128755  0.754407  1
  Th  Th11  1  0.868499  0.131501  0.755623  1
  Th  Th12  1  0.130860  0.257003  0.259102  1
  Th  Th13  1  0.742997  0.869140  0.259102  1
  Ir  Ir14  1  0.186206  0.371315  0.798689  1
  Ir  Ir15  1  0.628685  0.813794  0.798689  1
  Ir  Ir16  1  0.186109  0.813891  0.795654  1
  Ir  Ir17  1  0.809121  0.627082  0.301214  1
  Ir  Ir18  1  0.372918  0.190879  0.301214  1
  Ir  Ir19  1  0.816158  0.183842  0.294079  1
