# generated using pymatgen
data_Cs3(PtO2)2
_symmetry_space_group_name_H-M   'P 1'
_cell_length_a   6.21129412
_cell_length_b   6.21129378
_cell_length_c   11.98356200
_cell_angle_alpha   90.00000000
_cell_angle_beta   90.00000000
_cell_angle_gamma   117.02691123
_symmetry_Int_Tables_number   1
_chemical_formula_structural   Cs3(PtO2)2
_chemical_formula_sum   'Cs6 Pt4 O8'
_cell_volume   411.83853622
_cell_formula_units_Z   2
loop_
 _symmetry_equiv_pos_site_id
 _symmetry_equiv_pos_as_xyz
  1  'x, y, z'
loop_
 _atom_site_type_symbol
 _atom_site_label
 _atom_site_symmetry_multiplicity
 _atom_site_fract_x
 _atom_site_fract_y
 _atom_site_fract_z
 _atom_site_occupancy
  Cs  Cs0  1  0.350475  0.649525  0.923561  1
  Cs  Cs1  1  0.649525  0.350475  0.423561  1
  Cs  Cs2  1  0.649525  0.350475  0.076439  1
  Cs  Cs3  1  0.350475  0.649525  0.576439  1
  Cs  Cs4  1  0.714049  0.285951  0.750000  1
  Cs  Cs5  1  0.285951  0.714049  0.250000  1
  Pt  Pt6  1  0.000000  0.000000  0.000000  1
  Pt  Pt7  1  0.000000  0.000000  0.500000  1
  Pt  Pt8  1  0.069019  0.930981  0.750000  1
  Pt  Pt9  1  0.930981  0.069019  0.250000  1
  O  O10  1  0.733473  0.874212  0.116782  1
  O  O11  1  0.266527  0.125788  0.616782  1
  O  O12  1  0.874212  0.733473  0.883218  1
  O  O13  1  0.125788  0.266527  0.383218  1
  O  O14  1  0.266527  0.125788  0.883218  1
  O  O15  1  0.733473  0.874212  0.383218  1
  O  O16  1  0.125788  0.266527  0.116782  1
  O  O17  1  0.874212  0.733473  0.616782  1
