# generated using pymatgen
data_TbHo9InPb5
_symmetry_space_group_name_H-M   'P 1'
_cell_length_a   9.00273086
_cell_length_b   9.02633843
_cell_length_c   6.65403600
_cell_angle_alpha   90.00000000
_cell_angle_beta   90.00000000
_cell_angle_gamma   119.96335532
_symmetry_Int_Tables_number   1
_chemical_formula_structural   TbHo9InPb5
_chemical_formula_sum   'Tb1 Ho9 In1 Pb5'
_cell_volume   468.44855651
_cell_formula_units_Z   1
loop_
 _symmetry_equiv_pos_site_id
 _symmetry_equiv_pos_as_xyz
  1  'x, y, z'
loop_
 _atom_site_type_symbol
 _atom_site_label
 _atom_site_symmetry_multiplicity
 _atom_site_fract_x
 _atom_site_fract_y
 _atom_site_fract_z
 _atom_site_occupancy
  Tb  Tb0  1  0.237562  0.237071  0.750000  1
  Ho  Ho1  1  0.336237  0.670097  0.001671  1
  Ho  Ho2  1  0.666285  0.330065  0.498319  1
  Ho  Ho3  1  0.666285  0.330065  0.001681  1
  Ho  Ho4  1  0.336237  0.670097  0.498329  1
  Ho  Ho5  1  0.238882  0.999777  0.250000  1
  Ho  Ho6  1  0.000391  0.762856  0.750000  1
  Ho  Ho7  1  0.995168  0.234096  0.250000  1
  Ho  Ho8  1  0.761615  0.766208  0.250000  1
  Ho  Ho9  1  0.762261  0.999883  0.750000  1
  In  In10  1  0.603628  0.999918  0.250000  1
  Pb  Pb11  1  0.605669  0.604686  0.750000  1
  Pb  Pb12  1  0.000571  0.395740  0.750000  1
  Pb  Pb13  1  0.999809  0.605756  0.250000  1
  Pb  Pb14  1  0.393902  0.394050  0.250000  1
  Pb  Pb15  1  0.395500  0.999636  0.750000  1
