# generated using pymatgen
data_La5SnBi2Cl
_symmetry_space_group_name_H-M   'P 1'
_cell_length_a   9.75180600
_cell_length_b   9.78225068
_cell_length_c   6.78551300
_cell_angle_alpha   90.00000000
_cell_angle_beta   90.00000000
_cell_angle_gamma   119.89710133
_symmetry_Int_Tables_number   1
_chemical_formula_structural   La5SnBi2Cl
_chemical_formula_sum   'La10 Sn2 Bi4 Cl2'
_cell_volume   561.15977877
_cell_formula_units_Z   2
loop_
 _symmetry_equiv_pos_site_id
 _symmetry_equiv_pos_as_xyz
  1  'x, y, z'
loop_
 _atom_site_type_symbol
 _atom_site_label
 _atom_site_symmetry_multiplicity
 _atom_site_fract_x
 _atom_site_fract_y
 _atom_site_fract_z
 _atom_site_occupancy
  La  La0  1  0.666990  0.333980  0.000000  1
  La  La1  1  0.331704  0.663409  0.500000  1
  La  La2  1  0.666990  0.333980  0.500000  1
  La  La3  1  0.331704  0.663409  0.000000  1
  La  La4  1  0.740423  0.003760  0.750000  1
  La  La5  1  0.735293  0.735117  0.250000  1
  La  La6  1  0.004041  0.265050  0.250000  1
  La  La7  1  0.999823  0.735117  0.750000  1
  La  La8  1  0.261009  0.265050  0.750000  1
  La  La9  1  0.263337  0.003760  0.250000  1
  Sn  Sn10  1  0.999801  0.385769  0.750000  1
  Sn  Sn11  1  0.385968  0.385769  0.250000  1
  Bi  Bi12  1  0.613953  0.614425  0.750000  1
  Bi  Bi13  1  0.000472  0.614425  0.250000  1
  Bi  Bi14  1  0.614942  0.000435  0.250000  1
  Bi  Bi15  1  0.385493  0.000435  0.750000  1
  Cl  Cl16  1  0.999028  0.998056  0.500000  1
  Cl  Cl17  1  0.999028  0.998056  0.000000  1
