# generated using pymatgen
data_Ac7Y9(HoPb4)4
_symmetry_space_group_name_H-M   'P 1'
_cell_length_a   8.46169873
_cell_length_b   8.54214831
_cell_length_c   16.20195900
_cell_angle_alpha   90.15008541
_cell_angle_beta   90.28642935
_cell_angle_gamma   89.70716405
_symmetry_Int_Tables_number   1
_chemical_formula_structural   Ac7Y9(HoPb4)4
_chemical_formula_sum   'Ac7 Y9 Ho4 Pb16'
_cell_volume   1171.06131515
_cell_formula_units_Z   1
loop_
 _symmetry_equiv_pos_site_id
 _symmetry_equiv_pos_as_xyz
  1  'x, y, z'
loop_
 _atom_site_type_symbol
 _atom_site_label
 _atom_site_symmetry_multiplicity
 _atom_site_fract_x
 _atom_site_fract_y
 _atom_site_fract_z
 _atom_site_occupancy
  Ac  Ac0  1  0.021160  0.177372  0.598571  1
  Ac  Ac1  1  0.480584  0.677067  0.404460  1
  Ac  Ac2  1  0.979324  0.821666  0.094030  1
  Ac  Ac3  1  0.479021  0.674306  0.094351  1
  Ac  Ac4  1  0.979891  0.824249  0.404679  1
  Ac  Ac5  1  0.517925  0.323575  0.595913  1
  Ac  Ac6  1  0.021340  0.178658  0.904017  1
  Y  Y7  1  0.360120  0.843078  0.876494  1
  Y  Y8  1  0.857313  0.656482  0.625057  1
  Y  Y9  1  0.639808  0.157261  0.375761  1
  Y  Y10  1  0.137914  0.343689  0.121162  1
  Y  Y11  1  0.636735  0.158741  0.122106  1
  Y  Y12  1  0.141356  0.342583  0.376280  1
  Y  Y13  1  0.360483  0.844222  0.626807  1
  Y  Y14  1  0.859778  0.654637  0.877490  1
  Y  Y15  1  0.528291  0.323354  0.899551  1
  Ho  Ho16  1  0.195735  0.504739  0.752268  1
  Ho  Ho17  1  0.694912  0.996464  0.752156  1
  Ho  Ho18  1  0.804186  0.493925  0.248528  1
  Ho  Ho19  1  0.304691  0.004991  0.249509  1
  Pb  Pb20  1  0.306185  0.045814  0.044339  1
  Pb  Pb21  1  0.805997  0.453253  0.454664  1
  Pb  Pb22  1  0.694545  0.955125  0.546968  1
  Pb  Pb23  1  0.208362  0.535916  0.951739  1
  Pb  Pb24  1  0.692386  0.962116  0.953281  1
  Pb  Pb25  1  0.192541  0.548686  0.546338  1
  Pb  Pb26  1  0.305597  0.045771  0.455469  1
  Pb  Pb27  1  0.795207  0.449987  0.040128  1
  Pb  Pb28  1  0.554777  0.631482  0.752290  1
  Pb  Pb29  1  0.053310  0.865425  0.751590  1
  Pb  Pb30  1  0.444239  0.365794  0.249685  1
  Pb  Pb31  1  0.945806  0.134294  0.248004  1
  Pb  Pb32  1  0.338564  0.152474  0.755398  1
  Pb  Pb33  1  0.825518  0.353898  0.751935  1
  Pb  Pb34  1  0.668590  0.853467  0.249501  1
  Pb  Pb35  1  0.167810  0.645437  0.249476  1
