# generated using pymatgen
data_GdHoTcB6
_symmetry_space_group_name_H-M   'P 1'
_cell_length_a   3.69394000
_cell_length_b   9.17059700
_cell_length_c   11.56544500
_cell_angle_alpha   90.00000000
_cell_angle_beta   90.00000000
_cell_angle_gamma   90.00000000
_symmetry_Int_Tables_number   1
_chemical_formula_structural   GdHoTcB6
_chemical_formula_sum   'Gd4 Ho4 Tc4 B24'
_cell_volume   391.78679438
_cell_formula_units_Z   4
loop_
 _symmetry_equiv_pos_site_id
 _symmetry_equiv_pos_as_xyz
  1  'x, y, z'
loop_
 _atom_site_type_symbol
 _atom_site_label
 _atom_site_symmetry_multiplicity
 _atom_site_fract_x
 _atom_site_fract_y
 _atom_site_fract_z
 _atom_site_occupancy
  Gd  Gd0  1  0.000000  0.323803  0.414327  1
  Gd  Gd1  1  0.000000  0.676197  0.585673  1
  Gd  Gd2  1  0.000000  0.823803  0.085673  1
  Gd  Gd3  1  0.000000  0.176197  0.914327  1
  Ho  Ho4  1  0.000000  0.942749  0.369077  1
  Ho  Ho5  1  0.000000  0.057251  0.630923  1
  Ho  Ho6  1  0.000000  0.442749  0.130923  1
  Ho  Ho7  1  0.000000  0.557251  0.869077  1
  Tc  Tc8  1  0.000000  0.639560  0.319950  1
  Tc  Tc9  1  0.000000  0.360440  0.680050  1
  Tc  Tc10  1  0.000000  0.139560  0.180050  1
  Tc  Tc11  1  0.000000  0.860440  0.819950  1
  B  B12  1  0.500000  0.554044  0.432275  1
  B  B13  1  0.500000  0.445956  0.567725  1
  B  B14  1  0.500000  0.054044  0.067725  1
  B  B15  1  0.500000  0.945956  0.932275  1
  B  B16  1  0.500000  0.749357  0.417887  1
  B  B17  1  0.500000  0.250643  0.582113  1
  B  B18  1  0.500000  0.249357  0.082113  1
  B  B19  1  0.500000  0.750643  0.917887  1
  B  B20  1  0.500000  0.791968  0.265343  1
  B  B21  1  0.500000  0.208032  0.734657  1
  B  B22  1  0.500000  0.291968  0.234657  1
  B  B23  1  0.500000  0.708032  0.765343  1
  B  B24  1  0.500000  0.630737  0.185610  1
  B  B25  1  0.500000  0.369263  0.814390  1
  B  B26  1  0.500000  0.130737  0.314390  1
  B  B27  1  0.500000  0.869263  0.685610  1
  B  B28  1  0.500000  0.983036  0.212054  1
  B  B29  1  0.500000  0.016964  0.787946  1
  B  B30  1  0.500000  0.483036  0.287946  1
  B  B31  1  0.500000  0.516964  0.712054  1
  B  B32  1  0.500000  0.598507  0.027393  1
  B  B33  1  0.500000  0.401493  0.972607  1
  B  B34  1  0.500000  0.098507  0.472607  1
  B  B35  1  0.500000  0.901493  0.527393  1
