# generated using pymatgen
data_Ac2Cu3NiSn4
_symmetry_space_group_name_H-M   'P 1'
_cell_length_a   4.59658400
_cell_length_b   4.59658400
_cell_length_c   10.66538600
_cell_angle_alpha   90.00000000
_cell_angle_beta   90.00000000
_cell_angle_gamma   90.00000000
_symmetry_Int_Tables_number   1
_chemical_formula_structural   Ac2Cu3NiSn4
_chemical_formula_sum   'Ac2 Cu3 Ni1 Sn4'
_cell_volume   225.34450900
_cell_formula_units_Z   1
loop_
 _symmetry_equiv_pos_site_id
 _symmetry_equiv_pos_as_xyz
  1  'x, y, z'
loop_
 _atom_site_type_symbol
 _atom_site_label
 _atom_site_symmetry_multiplicity
 _atom_site_fract_x
 _atom_site_fract_y
 _atom_site_fract_z
 _atom_site_occupancy
  Ac  Ac0  1  0.000000  0.500000  0.245711  1
  Ac  Ac1  1  0.500000  0.000000  0.761534  1
  Cu  Cu2  1  0.000000  0.000000  0.998483  1
  Cu  Cu3  1  0.500000  0.500000  0.998483  1
  Cu  Cu4  1  0.500000  0.000000  0.366763  1
  Ni  Ni5  1  0.000000  0.500000  0.625322  1
  Sn  Sn6  1  0.000000  0.000000  0.505726  1
  Sn  Sn7  1  0.500000  0.500000  0.505726  1
  Sn  Sn8  1  0.000000  0.500000  0.868248  1
  Sn  Sn9  1  0.500000  0.000000  0.124005  1
