# generated using pymatgen
data_Nd2Ho2ReTcB12
_symmetry_space_group_name_H-M   'P 1'
_cell_length_a   3.72972300
_cell_length_b   9.23992377
_cell_length_c   11.69457437
_cell_angle_alpha   90.02999922
_cell_angle_beta   90.00000000
_cell_angle_gamma   90.00000000
_symmetry_Int_Tables_number   1
_chemical_formula_structural   Nd2Ho2ReTcB12
_chemical_formula_sum   'Nd4 Ho4 Re2 Tc2 B24'
_cell_volume   403.02253250
_cell_formula_units_Z   2
loop_
 _symmetry_equiv_pos_site_id
 _symmetry_equiv_pos_as_xyz
  1  'x, y, z'
loop_
 _atom_site_type_symbol
 _atom_site_label
 _atom_site_symmetry_multiplicity
 _atom_site_fract_x
 _atom_site_fract_y
 _atom_site_fract_z
 _atom_site_occupancy
  Nd  Nd0  1  0.000000  0.323200  0.414352  1
  Nd  Nd1  1  0.000000  0.676800  0.585648  1
  Nd  Nd2  1  0.000000  0.822759  0.085829  1
  Nd  Nd3  1  0.000000  0.177241  0.914171  1
  Ho  Ho4  1  0.000000  0.941985  0.369272  1
  Ho  Ho5  1  0.000000  0.058015  0.630728  1
  Ho  Ho6  1  0.000000  0.443522  0.131184  1
  Ho  Ho7  1  0.000000  0.556478  0.868816  1
  Re  Re8  1  0.000000  0.139290  0.180719  1
  Re  Re9  1  0.000000  0.860710  0.819281  1
  Tc  Tc10  1  0.000000  0.639714  0.319332  1
  Tc  Tc11  1  0.000000  0.360286  0.680668  1
  B  B12  1  0.500000  0.555122  0.430467  1
  B  B13  1  0.500000  0.444878  0.569533  1
  B  B14  1  0.500000  0.055107  0.069450  1
  B  B15  1  0.500000  0.944893  0.930550  1
  B  B16  1  0.500000  0.749518  0.416047  1
  B  B17  1  0.500000  0.250482  0.583953  1
  B  B18  1  0.500000  0.250157  0.083930  1
  B  B19  1  0.500000  0.749843  0.916070  1
  B  B20  1  0.500000  0.791145  0.266285  1
  B  B21  1  0.500000  0.208855  0.733715  1
  B  B22  1  0.500000  0.291368  0.233844  1
  B  B23  1  0.500000  0.708632  0.766156  1
  B  B24  1  0.500000  0.629766  0.186792  1
  B  B25  1  0.500000  0.370234  0.813208  1
  B  B26  1  0.500000  0.129623  0.313606  1
  B  B27  1  0.500000  0.870377  0.686394  1
  B  B28  1  0.500000  0.983794  0.213122  1
  B  B29  1  0.500000  0.016206  0.786878  1
  B  B30  1  0.500000  0.484135  0.287032  1
  B  B31  1  0.500000  0.515865  0.712968  1
  B  B32  1  0.500000  0.596218  0.026500  1
  B  B33  1  0.500000  0.403782  0.973500  1
  B  B34  1  0.500000  0.095952  0.473204  1
  B  B35  1  0.500000  0.904048  0.526796  1
