# generated using pymatgen
data_LaDy5FeI10
_symmetry_space_group_name_H-M   'P 1'
_cell_length_a   7.78599152
_cell_length_b   9.82619866
_cell_length_c   9.65905611
_cell_angle_alpha   106.71395497
_cell_angle_beta   95.99449992
_cell_angle_gamma   105.28197660
_symmetry_Int_Tables_number   1
_chemical_formula_structural   LaDy5FeI10
_chemical_formula_sum   'La1 Dy5 Fe1 I10'
_cell_volume   669.61861443
_cell_formula_units_Z   1
loop_
 _symmetry_equiv_pos_site_id
 _symmetry_equiv_pos_as_xyz
  1  'x, y, z'
loop_
 _atom_site_type_symbol
 _atom_site_label
 _atom_site_symmetry_multiplicity
 _atom_site_fract_x
 _atom_site_fract_y
 _atom_site_fract_z
 _atom_site_occupancy
  La  La0  1  0.606203  0.038918  0.281206  1
  Dy  Dy1  1  0.471899  0.284760  0.588296  1
  Dy  Dy2  1  0.529946  0.715793  0.415818  1
  Dy  Dy3  1  0.847798  0.124025  0.665393  1
  Dy  Dy4  1  0.151509  0.874312  0.332724  1
  Dy  Dy5  1  0.392148  0.960197  0.715441  1
  Fe  Fe6  1  0.508039  0.003572  0.485613  1
  I  I7  1  0.412802  0.637081  0.684303  1
  I  I8  1  0.581670  0.380567  0.326861  1
  I  I9  1  0.283830  0.250807  0.846542  1
  I  I10  1  0.723066  0.732166  0.156528  1
  I  I11  1  0.852941  0.448301  0.771591  1
  I  I12  1  0.150363  0.550832  0.231104  1
  I  I13  1  0.053586  0.184543  0.412343  1
  I  I14  1  0.226161  0.909206  0.038287  1
  I  I15  1  0.746411  0.083513  0.951446  1
  I  I16  1  0.961628  0.821408  0.596503  1
