# generated using pymatgen
data_CaThB2PdPt7
_symmetry_space_group_name_H-M   'P 1'
_cell_length_a   5.46202500
_cell_length_b   5.46202303
_cell_length_c   7.71119500
_cell_angle_alpha   90.00000000
_cell_angle_beta   90.00000000
_cell_angle_gamma   119.99999375
_symmetry_Int_Tables_number   1
_chemical_formula_structural   CaThB2PdPt7
_chemical_formula_sum   'Ca1 Th1 B2 Pd1 Pt7'
_cell_volume   199.23221139
_cell_formula_units_Z   1
loop_
 _symmetry_equiv_pos_site_id
 _symmetry_equiv_pos_as_xyz
  1  'x, y, z'
loop_
 _atom_site_type_symbol
 _atom_site_label
 _atom_site_symmetry_multiplicity
 _atom_site_fract_x
 _atom_site_fract_y
 _atom_site_fract_z
 _atom_site_occupancy
  Ca  Ca0  1  0.000000  0.000000  0.000000  1
  Th  Th1  1  0.000000  0.000000  0.500000  1
  B  B2  1  0.333333  0.666667  0.000000  1
  B  B3  1  0.666667  0.333333  0.000000  1
  Pd  Pd4  1  0.333333  0.666667  0.500000  1
  Pt  Pt5  1  0.666667  0.333333  0.500000  1
  Pt  Pt6  1  0.500027  0.000054  0.198361  1
  Pt  Pt7  1  0.500027  0.000054  0.801639  1
  Pt  Pt8  1  0.999946  0.499973  0.198361  1
  Pt  Pt9  1  0.999946  0.499973  0.801639  1
  Pt  Pt10  1  0.500027  0.499973  0.198361  1
  Pt  Pt11  1  0.500027  0.499973  0.801639  1
