# generated using pymatgen
data_La3Mg2SnAu3
_symmetry_space_group_name_H-M   'P 1'
_cell_length_a   7.89963000
_cell_length_b   7.73376268
_cell_length_c   4.38795400
_cell_angle_alpha   90.00000000
_cell_angle_beta   90.00000000
_cell_angle_gamma   120.71204800
_symmetry_Int_Tables_number   1
_chemical_formula_structural   La3Mg2SnAu3
_chemical_formula_sum   'La3 Mg2 Sn1 Au3'
_cell_volume   230.47788740
_cell_formula_units_Z   1
loop_
 _symmetry_equiv_pos_site_id
 _symmetry_equiv_pos_as_xyz
  1  'x, y, z'
loop_
 _atom_site_type_symbol
 _atom_site_label
 _atom_site_symmetry_multiplicity
 _atom_site_fract_x
 _atom_site_fract_y
 _atom_site_fract_z
 _atom_site_occupancy
  La  La0  1  0.579444  0.000000  0.000000  1
  La  La1  1  0.005912  0.594359  0.000000  1
  La  La2  1  0.411552  0.405641  0.000000  1
  Mg  Mg3  1  0.999266  0.239000  0.500000  1
  Mg  Mg4  1  0.760266  0.761000  0.500000  1
  Sn  Sn5  1  0.243069  0.000000  0.500000  1
  Au  Au6  1  0.339617  0.656033  0.500000  1
  Au  Au7  1  0.683585  0.343967  0.500000  1
  Au  Au8  1  0.977290  0.000000  0.000000  1
