# generated using pymatgen
data_AcEr(CuSn)2
_symmetry_space_group_name_H-M   'P 1'
_cell_length_a   4.58397100
_cell_length_b   4.58397132
_cell_length_c   7.95065700
_cell_angle_alpha   90.00000000
_cell_angle_beta   90.00000000
_cell_angle_gamma   119.99999044
_symmetry_Int_Tables_number   1
_chemical_formula_structural   AcEr(CuSn)2
_chemical_formula_sum   'Ac1 Er1 Cu2 Sn2'
_cell_volume   144.68297997
_cell_formula_units_Z   1
loop_
 _symmetry_equiv_pos_site_id
 _symmetry_equiv_pos_as_xyz
  1  'x, y, z'
loop_
 _atom_site_type_symbol
 _atom_site_label
 _atom_site_symmetry_multiplicity
 _atom_site_fract_x
 _atom_site_fract_y
 _atom_site_fract_z
 _atom_site_occupancy
  Ac  Ac0  1  0.000000  0.000000  0.500000  1
  Er  Er1  1  0.000000  0.000000  0.000000  1
  Cu  Cu2  1  0.333333  0.666667  0.192887  1
  Cu  Cu3  1  0.666667  0.333333  0.807113  1
  Sn  Sn4  1  0.333333  0.666667  0.777413  1
  Sn  Sn5  1  0.666667  0.333333  0.222587  1
