# generated using pymatgen
data_ZrScTi4Sn5
_symmetry_space_group_name_H-M   'P 1'
_cell_length_a   10.57131078
_cell_length_b   10.60227957
_cell_length_c   10.60227869
_cell_angle_alpha   149.04145698
_cell_angle_beta   131.66412324
_cell_angle_gamma   58.54120985
_symmetry_Int_Tables_number   1
_chemical_formula_structural   ZrScTi4Sn5
_chemical_formula_sum   'Zr2 Sc2 Ti8 Sn10'
_cell_volume   453.06031550
_cell_formula_units_Z   2
loop_
 _symmetry_equiv_pos_site_id
 _symmetry_equiv_pos_as_xyz
  1  'x, y, z'
loop_
 _atom_site_type_symbol
 _atom_site_label
 _atom_site_symmetry_multiplicity
 _atom_site_fract_x
 _atom_site_fract_y
 _atom_site_fract_z
 _atom_site_occupancy
  Zr  Zr0  1  0.253554  0.143385  0.110170  1
  Zr  Zr1  1  0.746446  0.856615  0.889830  1
  Sc  Sc2  1  0.032772  0.643877  0.388895  1
  Sc  Sc3  1  0.967228  0.356123  0.611105  1
  Ti  Ti4  1  0.310624  0.558084  0.249713  1
  Ti  Ti5  1  0.689376  0.441916  0.750287  1
  Ti  Ti6  1  0.689376  0.939089  0.247460  1
  Ti  Ti7  1  0.310624  0.060911  0.752540  1
  Ti  Ti8  1  0.675591  0.435267  0.240323  1
  Ti  Ti9  1  0.324409  0.564733  0.759677  1
  Ti  Ti10  1  0.194052  0.935437  0.258614  1
  Ti  Ti11  1  0.805948  0.064563  0.741386  1
  Sn  Sn12  1  0.587512  0.288642  0.298870  1
  Sn  Sn13  1  0.412488  0.711358  0.701130  1
  Sn  Sn14  1  0.991862  0.788603  0.203260  1
  Sn  Sn15  1  0.008138  0.211397  0.796740  1
  Sn  Sn16  1  0.000000  0.250139  0.250139  1
  Sn  Sn17  1  0.000000  0.749861  0.749861  1
  Sn  Sn18  1  0.470253  0.067536  0.402716  1
  Sn  Sn19  1  0.529747  0.932464  0.597284  1
  Sn  Sn20  1  0.667726  0.567897  0.099829  1
  Sn  Sn21  1  0.332274  0.432103  0.900171  1
