# generated using pymatgen
data_Sr6In4Sb3P5
_symmetry_space_group_name_H-M   'P 1'
_cell_length_a   17.23028224
_cell_length_b   7.02806629
_cell_length_c   4.50729100
_cell_angle_alpha   90.00000000
_cell_angle_beta   90.00000000
_cell_angle_gamma   89.74092558
_symmetry_Int_Tables_number   1
_chemical_formula_structural   Sr6In4Sb3P5
_chemical_formula_sum   'Sr6 In4 Sb3 P5'
_cell_volume   545.80737394
_cell_formula_units_Z   1
loop_
 _symmetry_equiv_pos_site_id
 _symmetry_equiv_pos_as_xyz
  1  'x, y, z'
loop_
 _atom_site_type_symbol
 _atom_site_label
 _atom_site_symmetry_multiplicity
 _atom_site_fract_x
 _atom_site_fract_y
 _atom_site_fract_z
 _atom_site_occupancy
  Sr  Sr0  1  0.003586  0.996108  0.000000  1
  Sr  Sr1  1  0.491013  0.507121  0.500001  1
  Sr  Sr2  1  0.197865  0.720882  0.000000  1
  Sr  Sr3  1  0.815240  0.277351  0.000000  1
  Sr  Sr4  1  0.681289  0.775461  0.500001  1
  Sr  Sr5  1  0.314311  0.203095  0.500001  1
  In  In6  1  0.577848  0.126026  0.000000  1
  In  In7  1  0.412721  0.869009  0.000000  1
  In  In8  1  0.082775  0.374129  0.500001  1
  In  In9  1  0.921217  0.627923  0.500001  1
  Sb  Sb10  1  0.172353  0.233086  0.000000  1
  Sb  Sb11  1  0.830613  0.769473  0.000000  1
  Sb  Sb12  1  0.665975  0.269435  0.500001  1
  P  P13  1  0.335166  0.753362  0.500001  1
  P  P14  1  0.432488  0.240382  0.000000  1
  P  P15  1  0.558563  0.757659  0.000000  1
  P  P16  1  0.938210  0.258763  0.500001  1
  P  P17  1  0.068766  0.740735  0.500001  1
