# generated using pymatgen
data_Nd8Al2RuRh
_symmetry_space_group_name_H-M   'P 1'
_cell_length_a   9.83702545
_cell_length_b   9.86963368
_cell_length_c   9.83702550
_cell_angle_alpha   59.89028719
_cell_angle_beta   59.76189816
_cell_angle_gamma   59.89028719
_symmetry_Int_Tables_number   1
_chemical_formula_structural   Nd8Al2RuRh
_chemical_formula_sum   'Nd16 Al4 Ru2 Rh2'
_cell_volume   672.98663492
_cell_formula_units_Z   2
loop_
 _symmetry_equiv_pos_site_id
 _symmetry_equiv_pos_as_xyz
  1  'x, y, z'
loop_
 _atom_site_type_symbol
 _atom_site_label
 _atom_site_symmetry_multiplicity
 _atom_site_fract_x
 _atom_site_fract_y
 _atom_site_fract_z
 _atom_site_occupancy
  Nd  Nd0  1  0.556841  0.554182  0.942877  1
  Nd  Nd1  1  0.186979  0.813021  0.186979  1
  Nd  Nd2  1  0.812763  0.812575  0.188871  1
  Nd  Nd3  1  0.188871  0.185791  0.812763  1
  Nd  Nd4  1  0.400087  0.800363  0.400087  1
  Nd  Nd5  1  0.812073  0.187927  0.812073  1
  Nd  Nd6  1  0.942877  0.946101  0.556841  1
  Nd  Nd7  1  0.812763  0.185791  0.188871  1
  Nd  Nd8  1  0.946320  0.553680  0.946320  1
  Nd  Nd9  1  0.799387  0.400203  0.400207  1
  Nd  Nd10  1  0.556841  0.946101  0.942877  1
  Nd  Nd11  1  0.188871  0.812575  0.812763  1
  Nd  Nd12  1  0.556141  0.943859  0.556141  1
  Nd  Nd13  1  0.400087  0.399462  0.400087  1
  Nd  Nd14  1  0.942877  0.554182  0.556841  1
  Nd  Nd15  1  0.400207  0.400203  0.799387  1
  Al  Al16  1  0.175632  0.472545  0.175632  1
  Al  Al17  1  0.175441  0.175789  0.472983  1
  Al  Al18  1  0.472983  0.175789  0.175441  1
  Al  Al19  1  0.175632  0.176193  0.175632  1
  Ru  Ru20  1  0.609149  0.613122  0.609149  1
  Ru  Ru21  1  0.609149  0.168578  0.609149  1
  Rh  Rh22  1  0.170968  0.610985  0.607061  1
  Rh  Rh23  1  0.607061  0.610985  0.170968  1
