# generated using pymatgen
data_SrYb11(AgGe)12
_symmetry_space_group_name_H-M   'P 1'
_cell_length_a   4.58704800
_cell_length_b   7.89611513
_cell_length_c   21.47639291
_cell_angle_alpha   89.29727130
_cell_angle_beta   90.00000000
_cell_angle_gamma   90.00000000
_symmetry_Int_Tables_number   1
_chemical_formula_structural   SrYb11(AgGe)12
_chemical_formula_sum   'Sr1 Yb11 Ag12 Ge12'
_cell_volume   777.81341928
_cell_formula_units_Z   1
loop_
 _symmetry_equiv_pos_site_id
 _symmetry_equiv_pos_as_xyz
  1  'x, y, z'
loop_
 _atom_site_type_symbol
 _atom_site_label
 _atom_site_symmetry_multiplicity
 _atom_site_fract_x
 _atom_site_fract_y
 _atom_site_fract_z
 _atom_site_occupancy
  Sr  Sr0  1  0.750000  0.706734  0.832216  1
  Yb  Yb1  1  0.250000  0.223099  0.002072  1
  Yb  Yb2  1  0.250000  0.276113  0.499282  1
  Yb  Yb3  1  0.750000  0.776634  0.001752  1
  Yb  Yb4  1  0.750000  0.724052  0.499172  1
  Yb  Yb5  1  0.250000  0.210707  0.333822  1
  Yb  Yb6  1  0.250000  0.287930  0.834169  1
  Yb  Yb7  1  0.750000  0.789700  0.664032  1
  Yb  Yb8  1  0.750000  0.710523  0.166932  1
  Yb  Yb9  1  0.250000  0.212728  0.665451  1
  Yb  Yb10  1  0.250000  0.287569  0.168191  1
  Yb  Yb11  1  0.750000  0.788295  0.332707  1
  Ag  Ag12  1  0.250000  0.919125  0.757749  1
  Ag  Ag13  1  0.250000  0.587248  0.262386  1
  Ag  Ag14  1  0.750000  0.088040  0.238038  1
  Ag  Ag15  1  0.750000  0.408528  0.733717  1
  Ag  Ag16  1  0.250000  0.922981  0.909829  1
  Ag  Ag17  1  0.250000  0.581210  0.405728  1
  Ag  Ag18  1  0.750000  0.080233  0.094770  1
  Ag  Ag19  1  0.750000  0.418986  0.592525  1
  Ag  Ag20  1  0.250000  0.918209  0.564650  1
  Ag  Ag21  1  0.250000  0.582269  0.067221  1
  Ag  Ag22  1  0.750000  0.082101  0.434173  1
  Ag  Ag23  1  0.750000  0.412824  0.938538  1
  Ge  Ge24  1  0.250000  0.581154  0.724606  1
  Ge  Ge25  1  0.250000  0.918760  0.228860  1
  Ge  Ge26  1  0.750000  0.418585  0.271823  1
  Ge  Ge27  1  0.750000  0.085875  0.770883  1
  Ge  Ge28  1  0.250000  0.911552  0.103415  1
  Ge  Ge29  1  0.250000  0.588173  0.600393  1
  Ge  Ge30  1  0.750000  0.090845  0.897983  1
  Ge  Ge31  1  0.750000  0.412216  0.397232  1
  Ge  Ge32  1  0.250000  0.587303  0.932214  1
  Ge  Ge33  1  0.250000  0.909656  0.426932  1
  Ge  Ge34  1  0.750000  0.409670  0.074510  1
  Ge  Ge35  1  0.750000  0.090375  0.572027  1
