# generated using pymatgen
data_Cs6K2RbInSb4
_symmetry_space_group_name_H-M   'P 1'
_cell_length_a   11.29693811
_cell_length_b   11.33317772
_cell_length_c   11.89086200
_cell_angle_alpha   90.00000000
_cell_angle_beta   90.00000000
_cell_angle_gamma   120.10615767
_symmetry_Int_Tables_number   1
_chemical_formula_structural   Cs6K2RbInSb4
_chemical_formula_sum   'Cs12 K4 Rb2 In2 Sb8'
_cell_volume   1317.01539999
_cell_formula_units_Z   2
loop_
 _symmetry_equiv_pos_site_id
 _symmetry_equiv_pos_as_xyz
  1  'x, y, z'
loop_
 _atom_site_type_symbol
 _atom_site_label
 _atom_site_symmetry_multiplicity
 _atom_site_fract_x
 _atom_site_fract_y
 _atom_site_fract_z
 _atom_site_occupancy
  Cs  Cs0  1  0.208558  0.416542  0.543909  1
  Cs  Cs1  1  0.791442  0.207985  0.043909  1
  Cs  Cs2  1  0.415927  0.207544  0.042917  1
  Cs  Cs3  1  0.584073  0.791616  0.542917  1
  Cs  Cs4  1  0.207576  0.792165  0.543390  1
  Cs  Cs5  1  0.792424  0.584590  0.456610  1
  Cs  Cs6  1  0.791442  0.207985  0.456091  1
  Cs  Cs7  1  0.792424  0.584590  0.043390  1
  Cs  Cs8  1  0.415927  0.207544  0.457083  1
  Cs  Cs9  1  0.584073  0.791616  0.957083  1
  Cs  Cs10  1  0.208558  0.416542  0.956091  1
  Cs  Cs11  1  0.207576  0.792165  0.956610  1
  K  K12  1  0.240365  0.119473  0.750000  1
  K  K13  1  0.759635  0.879108  0.250000  1
  K  K14  1  0.119683  0.879140  0.250000  1
  K  K15  1  0.880317  0.759458  0.750000  1
  Rb  Rb16  1  0.119127  0.238034  0.250000  1
  Rb  Rb17  1  0.880873  0.118909  0.750000  1
  In  In18  1  0.332805  0.666852  0.250000  1
  In  In19  1  0.667195  0.334046  0.750000  1
  Sb  Sb20  1  0.482999  0.525185  0.250000  1
  Sb  Sb21  1  0.958835  0.483144  0.750000  1
  Sb  Sb22  1  0.517001  0.042187  0.750000  1
  Sb  Sb23  1  0.479277  0.957825  0.250000  1
  Sb  Sb24  1  0.041165  0.524308  0.250000  1
  Sb  Sb25  1  0.520723  0.478549  0.750000  1
  Sb  Sb26  1  0.000000  0.996449  0.000000  1
  Sb  Sb27  1  0.000000  0.996449  0.500000  1
