# generated using pymatgen
data_Tm10Lu2Co4SnOs
_symmetry_space_group_name_H-M   'P 1'
_cell_length_a   8.16244598
_cell_length_b   8.17002538
_cell_length_c   8.16244517
_cell_angle_alpha   111.82406498
_cell_angle_beta   110.55036311
_cell_angle_gamma   106.05795595
_symmetry_Int_Tables_number   1
_chemical_formula_structural   Tm10Lu2Co4SnOs
_chemical_formula_sum   'Tm10 Lu2 Co4 Sn1 Os1'
_cell_volume   418.06222519
_cell_formula_units_Z   1
loop_
 _symmetry_equiv_pos_site_id
 _symmetry_equiv_pos_as_xyz
  1  'x, y, z'
loop_
 _atom_site_type_symbol
 _atom_site_label
 _atom_site_symmetry_multiplicity
 _atom_site_fract_x
 _atom_site_fract_y
 _atom_site_fract_z
 _atom_site_occupancy
  Tm  Tm0  1  0.415554  0.219840  0.194227  1
  Tm  Tm1  1  0.584446  0.780160  0.805773  1
  Tm  Tm2  1  0.025615  0.219840  0.804288  1
  Tm  Tm3  1  0.974385  0.780160  0.195712  1
  Tm  Tm4  1  0.181250  0.278726  0.461650  1
  Tm  Tm5  1  0.818750  0.721274  0.538350  1
  Tm  Tm6  1  0.182923  0.721274  0.902524  1
  Tm  Tm7  1  0.817077  0.278726  0.097476  1
  Tm  Tm8  1  0.313799  0.620428  0.306629  1
  Tm  Tm9  1  0.686201  0.379572  0.693371  1
  Lu  Lu10  1  0.314132  0.006102  0.691970  1
  Lu  Lu11  1  0.685868  0.993898  0.308030  1
  Co  Co12  1  0.375844  0.000000  0.375844  1
  Co  Co13  1  0.624156  0.000000  0.624156  1
  Co  Co14  1  0.112235  0.612775  0.500540  1
  Co  Co15  1  0.887765  0.387225  0.499460  1
  Sn  Sn16  1  0.500000  0.500000  0.000000  1
  Os  Os17  1  0.000000  0.000000  0.000000  1
