# generated using pymatgen
data_K3CuSi3Ge
_symmetry_space_group_name_H-M   'P 1'
_cell_length_a   5.77279000
_cell_length_b   6.62764800
_cell_length_c   12.02087300
_cell_angle_alpha   90.00000000
_cell_angle_beta   90.00000000
_cell_angle_gamma   90.00000000
_symmetry_Int_Tables_number   1
_chemical_formula_structural   K3CuSi3Ge
_chemical_formula_sum   'K6 Cu2 Si6 Ge2'
_cell_volume   459.91884257
_cell_formula_units_Z   2
loop_
 _symmetry_equiv_pos_site_id
 _symmetry_equiv_pos_as_xyz
  1  'x, y, z'
loop_
 _atom_site_type_symbol
 _atom_site_label
 _atom_site_symmetry_multiplicity
 _atom_site_fract_x
 _atom_site_fract_y
 _atom_site_fract_z
 _atom_site_occupancy
  K  K0  1  0.430057  0.500000  0.499748  1
  K  K1  1  0.569943  0.000000  0.999748  1
  K  K2  1  0.161371  0.000000  0.234350  1
  K  K3  1  0.164924  0.000000  0.764906  1
  K  K4  1  0.835076  0.500000  0.264906  1
  K  K5  1  0.838629  0.500000  0.734350  1
  Cu  Cu6  1  0.696372  0.500000  0.996562  1
  Cu  Cu7  1  0.303628  0.000000  0.496562  1
  Si  Si8  1  0.949620  0.190905  0.497478  1
  Si  Si9  1  0.336746  0.500000  0.896172  1
  Si  Si10  1  0.050380  0.690905  0.997478  1
  Si  Si11  1  0.050380  0.309095  0.997478  1
  Si  Si12  1  0.663254  0.000000  0.396172  1
  Si  Si13  1  0.949620  0.809095  0.497478  1
  Ge  Ge14  1  0.664685  0.000000  0.613306  1
  Ge  Ge15  1  0.335315  0.500000  0.113306  1
