# generated using pymatgen
data_NaTb6FeCl12
_symmetry_space_group_name_H-M   'P 1'
_cell_length_a   8.83460948
_cell_length_b   8.83652112
_cell_length_c   8.83322916
_cell_angle_alpha   106.87602005
_cell_angle_beta   106.87823644
_cell_angle_gamma   106.88947924
_symmetry_Int_Tables_number   1
_chemical_formula_structural   NaTb6FeCl12
_chemical_formula_sum   'Na1 Tb6 Fe1 Cl12'
_cell_volume   576.14376447
_cell_formula_units_Z   1
loop_
 _symmetry_equiv_pos_site_id
 _symmetry_equiv_pos_as_xyz
  1  'x, y, z'
loop_
 _atom_site_type_symbol
 _atom_site_label
 _atom_site_symmetry_multiplicity
 _atom_site_fract_x
 _atom_site_fract_y
 _atom_site_fract_z
 _atom_site_occupancy
  Na  Na0  1  0.500000  0.500000  0.500000  1
  Tb  Tb1  1  0.319833  0.109900  0.030315  1
  Tb  Tb2  1  0.030234  0.319653  0.109632  1
  Tb  Tb3  1  0.109850  0.030399  0.319851  1
  Tb  Tb4  1  0.890149  0.969601  0.680149  1
  Tb  Tb5  1  0.969766  0.680347  0.890367  1
  Tb  Tb6  1  0.680167  0.890100  0.969684  1
  Fe  Fe7  1  0.000000  0.000000  0.000000  1
  Cl  Cl8  1  0.684032  0.216540  0.072700  1
  Cl  Cl9  1  0.367721  0.446839  0.148703  1
  Cl  Cl10  1  0.072640  0.684179  0.216951  1
  Cl  Cl11  1  0.783312  0.927610  0.316091  1
  Cl  Cl12  1  0.446900  0.148841  0.367793  1
  Cl  Cl13  1  0.148666  0.367669  0.446775  1
  Cl  Cl14  1  0.851335  0.632331  0.553226  1
  Cl  Cl15  1  0.553100  0.851160  0.632207  1
  Cl  Cl16  1  0.216687  0.072390  0.683909  1
  Cl  Cl17  1  0.927360  0.315821  0.783048  1
  Cl  Cl18  1  0.632280  0.553162  0.851297  1
  Cl  Cl19  1  0.315968  0.783459  0.927300  1
