# generated using pymatgen
data_La3Pr(RuO6)2
_symmetry_space_group_name_H-M   'P 1'
_cell_length_a   10.28048106
_cell_length_b   10.28048106
_cell_length_c   5.69644600
_cell_angle_alpha   75.15505730
_cell_angle_beta   75.15506703
_cell_angle_gamma   69.59586183
_symmetry_Int_Tables_number   1
_chemical_formula_structural   La3Pr(RuO6)2
_chemical_formula_sum   'La6 Pr2 Ru4 O24'
_cell_volume   536.10614666
_cell_formula_units_Z   2
loop_
 _symmetry_equiv_pos_site_id
 _symmetry_equiv_pos_as_xyz
  1  'x, y, z'
loop_
 _atom_site_type_symbol
 _atom_site_label
 _atom_site_symmetry_multiplicity
 _atom_site_fract_x
 _atom_site_fract_y
 _atom_site_fract_z
 _atom_site_occupancy
  La  La0  1  0.068050  0.287897  0.622425  1
  La  La1  1  0.712103  0.931950  0.877575  1
  La  La2  1  0.931950  0.712103  0.377575  1
  La  La3  1  0.287897  0.068050  0.122425  1
  La  La4  1  0.632761  0.367239  0.750000  1
  La  La5  1  0.367239  0.632761  0.250000  1
  Pr  Pr6  1  0.109314  0.890686  0.750000  1
  Pr  Pr7  1  0.890686  0.109314  0.250000  1
  Ru  Ru8  1  0.500618  0.798725  0.548972  1
  Ru  Ru9  1  0.201275  0.499382  0.951028  1
  Ru  Ru10  1  0.499382  0.201275  0.451028  1
  Ru  Ru11  1  0.798725  0.500618  0.048972  1
  O  O12  1  0.614312  0.169660  0.155441  1
  O  O13  1  0.830340  0.385688  0.344559  1
  O  O14  1  0.385688  0.830340  0.844559  1
  O  O15  1  0.169660  0.614312  0.655441  1
  O  O16  1  0.472580  0.072326  0.731889  1
  O  O17  1  0.927674  0.527420  0.768111  1
  O  O18  1  0.527420  0.927674  0.268111  1
  O  O19  1  0.072326  0.472580  0.231889  1
  O  O20  1  0.327830  0.215077  0.371127  1
  O  O21  1  0.784923  0.672170  0.128873  1
  O  O22  1  0.672170  0.784923  0.628873  1
  O  O23  1  0.215077  0.327830  0.871127  1
  O  O24  1  0.891124  0.922345  0.070938  1
  O  O25  1  0.077655  0.108876  0.429062  1
  O  O26  1  0.108876  0.077655  0.929062  1
  O  O27  1  0.922345  0.891124  0.570938  1
  O  O28  1  0.164027  0.687711  0.087834  1
  O  O29  1  0.312289  0.835973  0.412166  1
  O  O30  1  0.835973  0.312289  0.912166  1
  O  O31  1  0.687711  0.164027  0.587834  1
  O  O32  1  0.382548  0.457885  0.983481  1
  O  O33  1  0.542115  0.617452  0.516519  1
  O  O34  1  0.617452  0.542115  0.016519  1
  O  O35  1  0.457885  0.382548  0.483481  1
