# generated using pymatgen
data_TbDy5Lu10(CdIr)4
_symmetry_space_group_name_H-M   'P 1'
_cell_length_a   9.50505441
_cell_length_b   9.50505326
_cell_length_c   9.51226300
_cell_angle_alpha   59.97490879
_cell_angle_beta   59.97491278
_cell_angle_gamma   59.94007670
_symmetry_Int_Tables_number   1
_chemical_formula_structural   TbDy5Lu10(CdIr)4
_chemical_formula_sum   'Tb1 Dy5 Lu10 Cd4 Ir4'
_cell_volume   607.17837977
_cell_formula_units_Z   1
loop_
 _symmetry_equiv_pos_site_id
 _symmetry_equiv_pos_as_xyz
  1  'x, y, z'
loop_
 _atom_site_type_symbol
 _atom_site_label
 _atom_site_symmetry_multiplicity
 _atom_site_fract_x
 _atom_site_fract_y
 _atom_site_fract_z
 _atom_site_occupancy
  Tb  Tb0  1  0.189597  0.189597  0.810403  1
  Dy  Dy1  1  0.189775  0.810311  0.810363  1
  Dy  Dy2  1  0.810311  0.189775  0.189551  1
  Dy  Dy3  1  0.810311  0.189775  0.810363  1
  Dy  Dy4  1  0.189775  0.810311  0.189551  1
  Dy  Dy5  1  0.810452  0.810452  0.189548  1
  Lu  Lu6  1  0.598596  0.598596  0.598109  1
  Lu  Lu7  1  0.598596  0.598596  0.204700  1
  Lu  Lu8  1  0.598972  0.204446  0.598292  1
  Lu  Lu9  1  0.204446  0.598972  0.598292  1
  Lu  Lu10  1  0.061718  0.437701  0.438124  1
  Lu  Lu11  1  0.437701  0.061718  0.062457  1
  Lu  Lu12  1  0.437701  0.061718  0.438124  1
  Lu  Lu13  1  0.061718  0.437701  0.062457  1
  Lu  Lu14  1  0.437973  0.437973  0.062027  1
  Lu  Lu15  1  0.062165  0.062165  0.437835  1
  Cd  Cd16  1  0.830285  0.830285  0.830238  1
  Cd  Cd17  1  0.830285  0.830285  0.509194  1
  Cd  Cd18  1  0.830302  0.508842  0.830429  1
  Cd  Cd19  1  0.508842  0.830302  0.830429  1
  Ir  Ir20  1  0.391888  0.391888  0.391552  1
  Ir  Ir21  1  0.391888  0.391888  0.824673  1
  Ir  Ir22  1  0.391938  0.824769  0.391647  1
  Ir  Ir23  1  0.824769  0.391938  0.391647  1
