# generated using pymatgen
data_U4Cr(Si2Ni)5
_symmetry_space_group_name_H-M   'P 1'
_cell_length_a   7.89635607
_cell_length_b   7.89635619
_cell_length_c   7.89635609
_cell_angle_alpha   138.26721117
_cell_angle_beta   105.85440352
_cell_angle_gamma   88.88546288
_symmetry_Int_Tables_number   1
_chemical_formula_structural   U4Cr(Si2Ni)5
_chemical_formula_sum   'U4 Cr1 Si10 Ni5'
_cell_volume   301.91481296
_cell_formula_units_Z   1
loop_
 _symmetry_equiv_pos_site_id
 _symmetry_equiv_pos_as_xyz
  1  'x, y, z'
loop_
 _atom_site_type_symbol
 _atom_site_label
 _atom_site_symmetry_multiplicity
 _atom_site_fract_x
 _atom_site_fract_y
 _atom_site_fract_z
 _atom_site_occupancy
  U  U0  1  0.869038  0.621264  0.229477  1
  U  U1  1  0.130962  0.360439  0.752226  1
  U  U2  1  0.608213  0.878736  0.747774  1
  U  U3  1  0.391787  0.139561  0.270523  1
  Cr  Cr4  1  0.000000  0.250000  0.250000  1
  Si  Si5  1  0.048340  0.884706  0.148501  1
  Si  Si6  1  0.951660  0.100161  0.836366  1
  Si  Si7  1  0.263795  0.615294  0.663634  1
  Si  Si8  1  0.736205  0.399839  0.351499  1
  Si  Si9  1  0.233036  0.983036  0.750000  1
  Si  Si10  1  0.766964  0.516964  0.750000  1
  Si  Si11  1  0.773659  0.023659  0.250000  1
  Si  Si12  1  0.500000  0.250000  0.750000  1
  Si  Si13  1  0.500000  0.750000  0.250000  1
  Si  Si14  1  0.226341  0.476341  0.250000  1
  Ni  Ni15  1  0.744264  0.130870  0.602835  1
  Ni  Ni16  1  0.528035  0.641431  0.897165  1
  Ni  Ni17  1  0.471965  0.369130  0.113395  1
  Ni  Ni18  1  0.000000  0.750000  0.750000  1
  Ni  Ni19  1  0.255736  0.858569  0.386605  1
