# generated using pymatgen
data_LaTbNd4(CI5)2
_symmetry_space_group_name_H-M   'P 1'
_cell_length_a   7.93778467
_cell_length_b   9.72173674
_cell_length_c   9.82539703
_cell_angle_alpha   107.08890392
_cell_angle_beta   96.87257226
_cell_angle_gamma   104.48808521
_symmetry_Int_Tables_number   1
_chemical_formula_structural   LaTbNd4(CI5)2
_chemical_formula_sum   'La1 Tb1 Nd4 C2 I10'
_cell_volume   686.23698279
_cell_formula_units_Z   1
loop_
 _symmetry_equiv_pos_site_id
 _symmetry_equiv_pos_as_xyz
  1  'x, y, z'
loop_
 _atom_site_type_symbol
 _atom_site_label
 _atom_site_symmetry_multiplicity
 _atom_site_fract_x
 _atom_site_fract_y
 _atom_site_fract_z
 _atom_site_occupancy
  La  La0  1  0.378185  0.137119  0.184822  1
  Tb  Tb1  1  0.632723  0.868038  0.822132  1
  Nd  Nd2  1  0.029877  0.735392  0.922974  1
  Nd  Nd3  1  0.104685  0.038901  0.777014  1
  Nd  Nd4  1  0.966598  0.263444  0.074636  1
  Nd  Nd5  1  0.890885  0.958266  0.220482  1
  C  C6  1  0.086521  0.029795  0.041174  1
  C  C7  1  0.910656  0.969389  0.958181  1
  I  I8  1  0.200711  0.736643  0.649994  1
  I  I9  1  0.911398  0.630047  0.178205  1
  I  I10  1  0.086581  0.368761  0.820029  1
  I  I11  1  0.739284  0.912510  0.544506  1
  I  I12  1  0.247662  0.082617  0.464474  1
  I  I13  1  0.651680  0.549941  0.725998  1
  I  I14  1  0.460344  0.805710  0.082730  1
  I  I15  1  0.816460  0.268043  0.357734  1
  I  I16  1  0.340727  0.462385  0.273435  1
  I  I17  1  0.545024  0.183000  0.901479  1
