# generated using pymatgen
data_TmZnCu3Ag
_symmetry_space_group_name_H-M   'P 1'
_cell_length_a   5.06825394
_cell_length_b   5.06825360
_cell_length_c   5.06825437
_cell_angle_alpha   60.21485338
_cell_angle_beta   60.21485614
_cell_angle_gamma   60.21484650
_symmetry_Int_Tables_number   1
_chemical_formula_structural   TmZnCu3Ag
_chemical_formula_sum   'Tm1 Zn1 Cu3 Ag1'
_cell_volume   92.50552091
_cell_formula_units_Z   1
loop_
 _symmetry_equiv_pos_site_id
 _symmetry_equiv_pos_as_xyz
  1  'x, y, z'
loop_
 _atom_site_type_symbol
 _atom_site_label
 _atom_site_symmetry_multiplicity
 _atom_site_fract_x
 _atom_site_fract_y
 _atom_site_fract_z
 _atom_site_occupancy
  Tm  Tm0  1  0.248423  0.248423  0.248423  1
  Zn  Zn1  1  0.626929  0.626929  0.626929  1
  Cu  Cu2  1  0.626100  0.626100  0.122887  1
  Cu  Cu3  1  0.626100  0.122887  0.626100  1
  Cu  Cu4  1  0.122887  0.626100  0.626100  1
  Ag  Ag5  1  0.999562  0.999562  0.999562  1
