# generated using pymatgen
data_Dy7FeO12
_symmetry_space_group_name_H-M   'P 1'
_cell_length_a   6.63790984
_cell_length_b   6.63791152
_cell_length_c   6.63791000
_cell_angle_alpha   93.43849242
_cell_angle_beta   93.43849329
_cell_angle_gamma   93.43849898
_symmetry_Int_Tables_number   1
_chemical_formula_structural   Dy7FeO12
_chemical_formula_sum   'Dy7 Fe1 O12'
_cell_volume   290.83273881
_cell_formula_units_Z   1
loop_
 _symmetry_equiv_pos_site_id
 _symmetry_equiv_pos_as_xyz
  1  'x, y, z'
loop_
 _atom_site_type_symbol
 _atom_site_label
 _atom_site_symmetry_multiplicity
 _atom_site_fract_x
 _atom_site_fract_y
 _atom_site_fract_z
 _atom_site_occupancy
  Dy  Dy0  1  0.738810  0.923752  0.435857  1
  Dy  Dy1  1  0.435857  0.738810  0.923752  1
  Dy  Dy2  1  0.076248  0.564143  0.261190  1
  Dy  Dy3  1  0.923752  0.435857  0.738810  1
  Dy  Dy4  1  0.564143  0.261190  0.076248  1
  Dy  Dy5  1  0.261190  0.076248  0.564143  1
  Dy  Dy6  1  0.000000  0.000000  0.000000  1
  Fe  Fe7  1  0.500000  0.500000  0.500000  1
  O  O8  1  0.067436  0.906282  0.318972  1
  O  O9  1  0.681028  0.932564  0.093718  1
  O  O10  1  0.462619  0.799804  0.588599  1
  O  O11  1  0.093718  0.681028  0.932564  1
  O  O12  1  0.799804  0.588599  0.462619  1
  O  O13  1  0.411401  0.537381  0.200196  1
  O  O14  1  0.588599  0.462619  0.799804  1
  O  O15  1  0.200196  0.411401  0.537381  1
  O  O16  1  0.906282  0.318972  0.067436  1
  O  O17  1  0.537381  0.200196  0.411401  1
  O  O18  1  0.318972  0.067436  0.906282  1
  O  O19  1  0.932564  0.093718  0.681028  1
