# generated using pymatgen
data_La2GeP(RhO)2
_symmetry_space_group_name_H-M   'P 1'
_cell_length_a   4.07246000
_cell_length_b   4.07246000
_cell_length_c   8.71844800
_cell_angle_alpha   90.00000000
_cell_angle_beta   90.00000000
_cell_angle_gamma   90.00000000
_symmetry_Int_Tables_number   1
_chemical_formula_structural   La2GeP(RhO)2
_chemical_formula_sum   'La2 Ge1 P1 Rh2 O2'
_cell_volume   144.59485373
_cell_formula_units_Z   1
loop_
 _symmetry_equiv_pos_site_id
 _symmetry_equiv_pos_as_xyz
  1  'x, y, z'
loop_
 _atom_site_type_symbol
 _atom_site_label
 _atom_site_symmetry_multiplicity
 _atom_site_fract_x
 _atom_site_fract_y
 _atom_site_fract_z
 _atom_site_occupancy
  La  La0  1  0.250003  0.250003  0.135794  1
  La  La1  1  0.750002  0.750002  0.855103  1
  Ge  Ge2  1  0.750002  0.750002  0.347573  1
  P  P3  1  0.250003  0.250003  0.645592  1
  Rh  Rh4  1  0.750002  0.250003  0.510884  1
  Rh  Rh5  1  0.250003  0.750002  0.510884  1
  O  O6  1  0.750002  0.250003  0.997086  1
  O  O7  1  0.250003  0.750002  0.997086  1
