# generated using pymatgen
data_Er5In4CoHg
_symmetry_space_group_name_H-M   'P 1'
_cell_length_a   3.57641700
_cell_length_b   8.18687194
_cell_length_c   18.21363477
_cell_angle_alpha   89.56297946
_cell_angle_beta   90.00000000
_cell_angle_gamma   90.00000000
_symmetry_Int_Tables_number   1
_chemical_formula_structural   Er5In4CoHg
_chemical_formula_sum   'Er10 In8 Co2 Hg2'
_cell_volume   533.27366619
_cell_formula_units_Z   2
loop_
 _symmetry_equiv_pos_site_id
 _symmetry_equiv_pos_as_xyz
  1  'x, y, z'
loop_
 _atom_site_type_symbol
 _atom_site_label
 _atom_site_symmetry_multiplicity
 _atom_site_fract_x
 _atom_site_fract_y
 _atom_site_fract_z
 _atom_site_occupancy
  Er  Er0  1  0.000000  0.122638  0.423322  1
  Er  Er1  1  0.000000  0.877362  0.576678  1
  Er  Er2  1  0.000000  0.388968  0.914255  1
  Er  Er3  1  0.000000  0.611032  0.085745  1
  Er  Er4  1  0.000000  0.271736  0.213904  1
  Er  Er5  1  0.000000  0.728264  0.786096  1
  Er  Er6  1  0.000000  0.295669  0.728843  1
  Er  Er7  1  0.000000  0.704331  0.271157  1
  Er  Er8  1  0.000000  0.000000  0.000000  1
  Er  Er9  1  0.000000  0.500000  0.500000  1
  In  In10  1  0.500000  0.421424  0.349189  1
  In  In11  1  0.500000  0.578576  0.650811  1
  In  In12  1  0.500000  0.087847  0.854931  1
  In  In13  1  0.500000  0.912153  0.145069  1
  In  In14  1  0.500000  0.295057  0.066585  1
  In  In15  1  0.500000  0.704943  0.933415  1
  In  In16  1  0.500000  0.214299  0.570674  1
  In  In17  1  0.500000  0.785701  0.429326  1
  Co  Co18  1  0.500000  0.481945  0.807894  1
  Co  Co19  1  0.500000  0.518055  0.192106  1
  Hg  Hg20  1  0.500000  0.020426  0.298732  1
  Hg  Hg21  1  0.500000  0.979574  0.701268  1
