# generated using pymatgen
data_Nb9Ga6MoC2
_symmetry_space_group_name_H-M   'P 1'
_cell_length_a   7.75898800
_cell_length_b   7.75898825
_cell_length_c   5.36645800
_cell_angle_alpha   90.00000000
_cell_angle_beta   90.00000000
_cell_angle_gamma   119.99999895
_symmetry_Int_Tables_number   1
_chemical_formula_structural   Nb9Ga6MoC2
_chemical_formula_sum   'Nb9 Ga6 Mo1 C2'
_cell_volume   279.78765300
_cell_formula_units_Z   1
loop_
 _symmetry_equiv_pos_site_id
 _symmetry_equiv_pos_as_xyz
  1  'x, y, z'
loop_
 _atom_site_type_symbol
 _atom_site_label
 _atom_site_symmetry_multiplicity
 _atom_site_fract_x
 _atom_site_fract_y
 _atom_site_fract_z
 _atom_site_occupancy
  Nb  Nb0  1  0.233393  0.001280  0.251347  1
  Nb  Nb1  1  0.767888  0.001280  0.748653  1
  Nb  Nb2  1  0.998720  0.232112  0.251347  1
  Nb  Nb3  1  0.998720  0.766607  0.748653  1
  Nb  Nb4  1  0.767888  0.766607  0.251347  1
  Nb  Nb5  1  0.233393  0.232112  0.748653  1
  Nb  Nb6  1  0.666667  0.333333  0.000000  1
  Nb  Nb7  1  0.666667  0.333333  0.500000  1
  Nb  Nb8  1  0.333333  0.666667  0.500000  1
  Ga  Ga9  1  0.591225  0.997241  0.246200  1
  Ga  Ga10  1  0.406017  0.997241  0.753800  1
  Ga  Ga11  1  0.002759  0.593983  0.246200  1
  Ga  Ga12  1  0.002759  0.408775  0.753800  1
  Ga  Ga13  1  0.406017  0.408775  0.246200  1
  Ga  Ga14  1  0.591225  0.593983  0.753800  1
  Mo  Mo15  1  0.333333  0.666667  0.000000  1
  C  C16  1  0.000000  0.000000  0.000000  1
  C  C17  1  0.000000  0.000000  0.500000  1
