# generated using pymatgen
data_Ho10Zn3Bi2Pd
_symmetry_space_group_name_H-M   'P 1'
_cell_length_a   8.61011027
_cell_length_b   8.61011050
_cell_length_c   8.63497266
_cell_angle_alpha   123.98075646
_cell_angle_beta   123.98076255
_cell_angle_gamma   83.04690038
_symmetry_Int_Tables_number   1
_chemical_formula_structural   Ho10Zn3Bi2Pd
_chemical_formula_sum   'Ho10 Zn3 Bi2 Pd1'
_cell_volume   422.79013050
_cell_formula_units_Z   1
loop_
 _symmetry_equiv_pos_site_id
 _symmetry_equiv_pos_as_xyz
  1  'x, y, z'
loop_
 _atom_site_type_symbol
 _atom_site_label
 _atom_site_symmetry_multiplicity
 _atom_site_fract_x
 _atom_site_fract_y
 _atom_site_fract_z
 _atom_site_occupancy
  Ho  Ho0  1  0.002267  0.001162  0.003428  1
  Ho  Ho1  1  0.498838  0.497733  0.996572  1
  Ho  Ho2  1  0.790595  0.295734  0.802631  1
  Ho  Ho3  1  0.204266  0.709405  0.197369  1
  Ho  Ho4  1  0.487965  0.993103  0.197369  1
  Ho  Ho5  1  0.297435  0.482391  0.500000  1
  Ho  Ho6  1  0.017609  0.202565  0.500000  1
  Ho  Ho7  1  0.506897  0.012035  0.802631  1
  Ho  Ho8  1  0.705403  0.513709  0.500000  1
  Ho  Ho9  1  0.986291  0.794597  0.500000  1
  Zn  Zn10  1  0.138170  0.640078  0.778247  1
  Zn  Zn11  1  0.859922  0.361830  0.221753  1
  Zn  Zn12  1  0.636839  0.863161  0.500000  1
  Bi  Bi13  1  0.247413  0.252587  0.000000  1
  Bi  Bi14  1  0.747413  0.752587  0.000000  1
  Pd  Pd15  1  0.372676  0.127324  0.500000  1
