# generated using pymatgen
data_RbMn3F9
_symmetry_space_group_name_H-M   'P 1'
_cell_length_a   7.64230363
_cell_length_b   7.67249750
_cell_length_c   7.88165769
_cell_angle_alpha   90.21815668
_cell_angle_beta   89.78443802
_cell_angle_gamma   60.07240672
_symmetry_Int_Tables_number   1
_chemical_formula_structural   RbMn3F9
_chemical_formula_sum   'Rb2 Mn6 F18'
_cell_volume   400.50988130
_cell_formula_units_Z   2
loop_
 _symmetry_equiv_pos_site_id
 _symmetry_equiv_pos_as_xyz
  1  'x, y, z'
loop_
 _atom_site_type_symbol
 _atom_site_label
 _atom_site_symmetry_multiplicity
 _atom_site_fract_x
 _atom_site_fract_y
 _atom_site_fract_z
 _atom_site_occupancy
  Rb  Rb0  1  0.980434  0.510139  0.252263  1
  Rb  Rb1  1  0.016146  0.493933  0.745800  1
  Mn  Mn2  1  0.499287  0.999893  0.999293  1
  Mn  Mn3  1  0.499254  0.499844  0.999645  1
  Mn  Mn4  1  0.999518  0.000154  0.499855  1
  Mn  Mn5  1  0.999361  0.000236  0.999707  1
  Mn  Mn6  1  0.499408  0.499966  0.499778  1
  Mn  Mn7  1  0.499210  0.000224  0.499374  1
  F  F8  1  0.550177  0.512703  0.766323  1
  F  F9  1  0.453518  0.055207  0.235159  1
  F  F10  1  0.778960  0.305453  0.471832  1
  F  F11  1  0.192099  0.115010  0.524382  1
  F  F12  1  0.813298  0.282247  0.030154  1
  F  F13  1  0.217684  0.096549  0.968261  1
  F  F14  1  0.425884  0.299304  0.537081  1
  F  F15  1  0.572860  0.700660  0.462414  1
  F  F16  1  0.045593  0.975456  0.236890  1
  F  F17  1  0.952806  0.024782  0.762607  1
  F  F18  1  0.416227  0.308641  0.953673  1
  F  F19  1  0.582389  0.691166  0.045703  1
  F  F20  1  0.806618  0.885414  0.474728  1
  F  F21  1  0.219930  0.694567  0.528165  1
  F  F22  1  0.781157  0.903165  0.030199  1
  F  F23  1  0.185236  0.718042  0.969411  1
  F  F24  1  0.545627  0.943828  0.763473  1
  F  F25  1  0.448450  0.487197  0.233222  1
