# generated using pymatgen
data_Ba4TaNbWO12
_symmetry_space_group_name_H-M   'P 1'
_cell_length_a   10.12247560
_cell_length_b   10.12247549
_cell_length_c   10.12247511
_cell_angle_alpha   33.63417628
_cell_angle_beta   33.63417784
_cell_angle_gamma   33.63417737
_symmetry_Int_Tables_number   1
_chemical_formula_structural   Ba4TaNbWO12
_chemical_formula_sum   'Ba4 Ta1 Nb1 W1 O12'
_cell_volume   283.46696050
_cell_formula_units_Z   1
loop_
 _symmetry_equiv_pos_site_id
 _symmetry_equiv_pos_as_xyz
  1  'x, y, z'
loop_
 _atom_site_type_symbol
 _atom_site_label
 _atom_site_symmetry_multiplicity
 _atom_site_fract_x
 _atom_site_fract_y
 _atom_site_fract_z
 _atom_site_occupancy
  Ba  Ba0  1  0.289895  0.289895  0.289895  1
  Ba  Ba1  1  0.711795  0.711795  0.711795  1
  Ba  Ba2  1  0.135456  0.135456  0.135456  1
  Ba  Ba3  1  0.864411  0.864411  0.864411  1
  Ta  Ta4  1  0.001053  0.001053  0.001053  1
  Nb  Nb5  1  0.423418  0.423418  0.423418  1
  W  W6  1  0.580172  0.580172  0.580172  1
  O  O7  1  0.295004  0.790359  0.790359  1
  O  O8  1  0.790359  0.790359  0.295004  1
  O  O9  1  0.790359  0.295004  0.790359  1
  O  O10  1  0.713147  0.200749  0.200749  1
  O  O11  1  0.200749  0.200749  0.713147  1
  O  O12  1  0.200749  0.713147  0.200749  1
  O  O13  1  0.125761  0.617533  0.617533  1
  O  O14  1  0.617533  0.617533  0.125761  1
  O  O15  1  0.617533  0.125761  0.617533  1
  O  O16  1  0.865154  0.388727  0.388727  1
  O  O17  1  0.388727  0.388727  0.865154  1
  O  O18  1  0.388727  0.865154  0.388727  1
