# generated using pymatgen
data_Dy3Y2Ho(Co3P2)6
_symmetry_space_group_name_H-M   'P 1'
_cell_length_a   3.70063500
_cell_length_b   10.51526200
_cell_length_c   12.18172800
_cell_angle_alpha   90.00124202
_cell_angle_beta   90.00000000
_cell_angle_gamma   90.00000000
_symmetry_Int_Tables_number   1
_chemical_formula_structural   Dy3Y2Ho(Co3P2)6
_chemical_formula_sum   'Dy3 Y2 Ho1 Co18 P12'
_cell_volume   474.02936734
_cell_formula_units_Z   1
loop_
 _symmetry_equiv_pos_site_id
 _symmetry_equiv_pos_as_xyz
  1  'x, y, z'
loop_
 _atom_site_type_symbol
 _atom_site_label
 _atom_site_symmetry_multiplicity
 _atom_site_fract_x
 _atom_site_fract_y
 _atom_site_fract_z
 _atom_site_occupancy
  Dy  Dy0  1  0.500000  0.182878  0.205761  1
  Dy  Dy1  1  0.000000  0.682837  0.794211  1
  Dy  Dy2  1  0.000000  0.317158  0.794224  1
  Y  Y3  1  0.000000  0.500014  0.522108  1
  Y  Y4  1  0.500000  0.999996  0.477919  1
  Ho  Ho5  1  0.500000  0.817110  0.205776  1
  Co  Co6  1  0.500000  0.499997  0.158692  1
  Co  Co7  1  0.000000  0.000002  0.841315  1
  Co  Co8  1  0.500000  0.500001  0.703563  1
  Co  Co9  1  0.000000  0.999940  0.296401  1
  Co  Co10  1  0.000000  0.499995  0.985920  1
  Co  Co11  1  0.500000  0.999981  0.014092  1
  Co  Co12  1  0.500000  0.333301  0.994695  1
  Co  Co13  1  0.500000  0.666716  0.994717  1
  Co  Co14  1  0.000000  0.166693  0.005299  1
  Co  Co15  1  0.000000  0.833309  0.005340  1
  Co  Co16  1  0.500000  0.297304  0.430554  1
  Co  Co17  1  0.500000  0.702704  0.430535  1
  Co  Co18  1  0.000000  0.202700  0.569448  1
  Co  Co19  1  0.000000  0.797296  0.569438  1
  Co  Co20  1  0.500000  0.879448  0.709822  1
  Co  Co21  1  0.500000  0.120553  0.709820  1
  Co  Co22  1  0.000000  0.620599  0.290157  1
  Co  Co23  1  0.000000  0.379460  0.290179  1
  P  P24  1  0.500000  0.499994  0.882595  1
  P  P25  1  0.000000  0.999943  0.117413  1
  P  P26  1  0.500000  0.499985  0.343530  1
  P  P27  1  0.000000  0.000006  0.656474  1
  P  P28  1  0.500000  0.310263  0.616184  1
  P  P29  1  0.500000  0.689730  0.616179  1
  P  P30  1  0.000000  0.189769  0.383826  1
  P  P31  1  0.000000  0.810246  0.383752  1
  P  P32  1  0.500000  0.847557  0.893276  1
  P  P33  1  0.500000  0.152448  0.893287  1
  P  P34  1  0.000000  0.652518  0.106774  1
  P  P35  1  0.000000  0.347548  0.106723  1
