# generated using pymatgen
data_LiDy5P12(Ir7Rh2)2
_symmetry_space_group_name_H-M   'P 1'
_cell_length_a   12.72305800
_cell_length_b   12.75708633
_cell_length_c   3.95643600
_cell_angle_alpha   90.00000000
_cell_angle_beta   90.00000000
_cell_angle_gamma   120.20511558
_symmetry_Int_Tables_number   1
_chemical_formula_structural   LiDy5P12(Ir7Rh2)2
_chemical_formula_sum   'Li1 Dy5 P12 Ir14 Rh4'
_cell_volume   554.97884353
_cell_formula_units_Z   1
loop_
 _symmetry_equiv_pos_site_id
 _symmetry_equiv_pos_as_xyz
  1  'x, y, z'
loop_
 _atom_site_type_symbol
 _atom_site_label
 _atom_site_symmetry_multiplicity
 _atom_site_fract_x
 _atom_site_fract_y
 _atom_site_fract_z
 _atom_site_occupancy
  Li  Li0  1  0.999000  0.444064  0.500000  1
  Dy  Dy1  1  0.331030  0.665174  0.500000  1
  Dy  Dy2  1  0.669189  0.334027  0.500000  1
  Dy  Dy3  1  0.000238  0.809300  0.000000  1
  Dy  Dy4  1  0.187822  0.186302  0.000000  1
  Dy  Dy5  1  0.810439  0.999084  0.000000  1
  P  P6  1  0.998796  0.633451  0.500000  1
  P  P7  1  0.361034  0.359958  0.500000  1
  P  P8  1  0.637022  0.998209  0.500000  1
  P  P9  1  0.515454  0.688123  0.000000  1
  P  P10  1  0.308155  0.826996  0.000000  1
  P  P11  1  0.170744  0.484968  0.000000  1
  P  P12  1  0.485139  0.171019  0.000000  1
  P  P13  1  0.689833  0.519491  0.000000  1
  P  P14  1  0.831884  0.316735  0.000000  1
  P  P15  1  0.000027  0.180136  0.500000  1
  P  P16  1  0.821427  0.822987  0.500000  1
  P  P17  1  0.178146  0.999461  0.500000  1
  Ir  Ir18  1  0.360385  0.491424  0.000000  1
  Ir  Ir19  1  0.494333  0.360779  0.000000  1
  Ir  Ir20  1  0.869228  0.512028  0.000000  1
  Ir  Ir21  1  0.642752  0.134371  0.000000  1
  Ir  Ir22  1  0.000728  0.281638  0.000000  1
  Ir  Ir23  1  0.718319  0.720906  0.000000  1
  Ir  Ir24  1  0.283365  0.002612  0.000000  1
  Ir  Ir25  1  0.621348  0.802745  0.500000  1
  Ir  Ir26  1  0.197113  0.822928  0.500000  1
  Ir  Ir27  1  0.182318  0.374910  0.500000  1
  Ir  Ir28  1  0.377088  0.181822  0.500000  1
  Ir  Ir29  1  0.803038  0.627583  0.500000  1
  Ir  Ir30  1  0.819077  0.192644  0.500000  1
  Ir  Ir31  1  0.000552  0.002538  0.500000  1
  Rh  Rh32  1  0.505544  0.867629  0.000000  1
  Rh  Rh33  1  0.129339  0.640028  0.000000  1
  Rh  Rh34  1  0.540257  0.539700  0.500000  1
  Rh  Rh35  1  0.459836  0.004231  0.500000  1
