# generated using pymatgen
data_Cs16Si15Sn
_symmetry_space_group_name_H-M   'P 1'
_cell_length_a   12.44038946
_cell_length_b   12.48411653
_cell_length_c   12.43741490
_cell_angle_alpha   124.53297256
_cell_angle_beta   124.77586928
_cell_angle_gamma   82.06772887
_symmetry_Int_Tables_number   1
_chemical_formula_structural   Cs16Si15Sn
_chemical_formula_sum   'Cs16 Si15 Sn1'
_cell_volume   1257.07328104
_cell_formula_units_Z   1
loop_
 _symmetry_equiv_pos_site_id
 _symmetry_equiv_pos_as_xyz
  1  'x, y, z'
loop_
 _atom_site_type_symbol
 _atom_site_label
 _atom_site_symmetry_multiplicity
 _atom_site_fract_x
 _atom_site_fract_y
 _atom_site_fract_z
 _atom_site_occupancy
  Cs  Cs0  1  0.262811  0.879515  0.889594  1
  Cs  Cs1  1  0.986247  0.374830  0.110565  1
  Cs  Cs2  1  0.626402  0.233428  0.111949  1
  Cs  Cs3  1  0.120362  0.512896  0.889097  1
  Cs  Cs4  1  0.624707  0.735545  0.610421  1
  Cs  Cs5  1  0.124673  0.013993  0.389210  1
  Cs  Cs6  1  0.770386  0.880491  0.398031  1
  Cs  Cs7  1  0.485504  0.370081  0.604566  1
  Cs  Cs8  1  0.371584  0.371623  0.243947  1
  Cs  Cs9  1  0.128547  0.128239  0.757071  1
  Cs  Cs10  1  0.879692  0.622241  0.501533  1
  Cs  Cs11  1  0.116197  0.374333  0.492474  1
  Cs  Cs12  1  0.375757  0.884818  0.262604  1
  Cs  Cs13  1  0.622440  0.120419  0.742960  1
  Cs  Cs14  1  0.870405  0.628303  0.000202  1
  Cs  Cs15  1  0.633168  0.879445  0.001390  1
  Si  Si16  1  0.638508  0.480357  0.034998  1
  Si  Si17  1  0.793753  0.260983  0.646393  1
  Si  Si18  1  0.615029  0.147458  0.353588  1
  Si  Si19  1  0.897490  0.044313  0.032588  1
  Si  Si20  1  0.010862  0.865718  0.967950  1
  Si  Si21  1  0.238384  0.706514  0.353108  1
  Si  Si22  1  0.352350  0.884505  0.645524  1
  Si  Si23  1  0.293716  0.647925  0.532864  1
  Si  Si24  1  0.114476  0.761314  0.466831  1
  Si  Si25  1  0.955948  0.988903  0.853397  1
  Si  Si26  1  0.134938  0.102361  0.146124  1
  Si  Si27  1  0.852665  0.206045  0.467569  1
  Si  Si28  1  0.739024  0.384382  0.532188  1
  Si  Si29  1  0.513643  0.536975  0.147831  1
  Si  Si30  1  0.400110  0.357173  0.855318  1
  Sn  Sn31  1  0.450223  0.614873  0.958117  1
