# generated using pymatgen
data_Sr2IrOsO7
_symmetry_space_group_name_H-M   'P 1'
_cell_length_a   7.43946457
_cell_length_b   7.43946307
_cell_length_c   7.43970415
_cell_angle_alpha   120.41930970
_cell_angle_beta   117.41640198
_cell_angle_gamma   91.90203369
_symmetry_Int_Tables_number   1
_chemical_formula_structural   Sr2IrOsO7
_chemical_formula_sum   'Sr4 Ir2 Os2 O14'
_cell_volume   295.50133617
_cell_formula_units_Z   2
loop_
 _symmetry_equiv_pos_site_id
 _symmetry_equiv_pos_as_xyz
  1  'x, y, z'
loop_
 _atom_site_type_symbol
 _atom_site_label
 _atom_site_symmetry_multiplicity
 _atom_site_fract_x
 _atom_site_fract_y
 _atom_site_fract_z
 _atom_site_occupancy
  Sr  Sr0  1  0.500000  0.500000  0.500000  1
  Sr  Sr1  1  0.500000  0.000000  0.000000  1
  Sr  Sr2  1  0.500000  0.500000  0.000000  1
  Sr  Sr3  1  0.000000  0.000000  0.000000  1
  Ir  Ir4  1  0.000000  0.500000  0.000000  1
  Ir  Ir5  1  0.000000  0.000000  0.500000  1
  Os  Os6  1  0.000000  0.500000  0.500000  1
  Os  Os7  1  0.500000  0.000000  0.500000  1
  O  O8  1  0.953439  0.578213  0.764629  1
  O  O9  1  0.046572  0.811128  0.624713  1
  O  O10  1  0.686415  0.921858  0.375287  1
  O  O11  1  0.313584  0.688810  0.235371  1
  O  O12  1  0.046561  0.421787  0.235371  1
  O  O13  1  0.953428  0.188872  0.375287  1
  O  O14  1  0.313585  0.078142  0.624713  1
  O  O15  1  0.686416  0.311190  0.764629  1
  O  O16  1  0.108972  0.250057  0.859029  1
  O  O17  1  0.891028  0.749943  0.140971  1
  O  O18  1  0.689831  0.408412  0.281385  1
  O  O19  1  0.310169  0.591588  0.718615  1
  O  O20  1  0.372974  0.091554  0.281385  1
  O  O21  1  0.627026  0.908446  0.718615  1
