# generated using pymatgen
data_Li2Ca3AgBi3
_symmetry_space_group_name_H-M   'P 1'
_cell_length_a   7.68976200
_cell_length_b   7.73928533
_cell_length_c   4.67532200
_cell_angle_alpha   90.00000000
_cell_angle_beta   90.00000000
_cell_angle_gamma   119.78854910
_symmetry_Int_Tables_number   1
_chemical_formula_structural   Li2Ca3AgBi3
_chemical_formula_sum   'Li2 Ca3 Ag1 Bi3'
_cell_volume   241.47787068
_cell_formula_units_Z   1
loop_
 _symmetry_equiv_pos_site_id
 _symmetry_equiv_pos_as_xyz
  1  'x, y, z'
loop_
 _atom_site_type_symbol
 _atom_site_label
 _atom_site_symmetry_multiplicity
 _atom_site_fract_x
 _atom_site_fract_y
 _atom_site_fract_z
 _atom_site_occupancy
  Li  Li0  1  0.004972  0.238815  0.000000  1
  Li  Li1  1  0.766157  0.761185  0.000000  1
  Ca  Ca2  1  0.005135  0.586558  0.500000  1
  Ca  Ca3  1  0.418577  0.413442  0.500000  1
  Ca  Ca4  1  0.563901  0.000000  0.500000  1
  Ag  Ag5  1  0.241698  0.000000  0.000000  1
  Bi  Bi6  1  0.991184  0.000000  0.500000  1
  Bi  Bi7  1  0.334898  0.661423  0.000000  1
  Bi  Bi8  1  0.673477  0.338577  0.000000  1
