# generated using pymatgen
data_Er2Si5Ir2Pt
_symmetry_space_group_name_H-M   'P 1'
_cell_length_a   8.14019469
_cell_length_b   8.12885589
_cell_length_c   8.12885567
_cell_angle_alpha   138.05937033
_cell_angle_beta   103.51967743
_cell_angle_gamma   91.26210555
_symmetry_Int_Tables_number   1
_chemical_formula_structural   Er2Si5Ir2Pt
_chemical_formula_sum   'Er4 Si10 Ir4 Pt2'
_cell_volume   333.27801042
_cell_formula_units_Z   2
loop_
 _symmetry_equiv_pos_site_id
 _symmetry_equiv_pos_as_xyz
  1  'x, y, z'
loop_
 _atom_site_type_symbol
 _atom_site_label
 _atom_site_symmetry_multiplicity
 _atom_site_fract_x
 _atom_site_fract_y
 _atom_site_fract_z
 _atom_site_occupancy
  Er  Er0  1  0.859869  0.629927  0.229943  1
  Er  Er1  1  0.140131  0.370073  0.770057  1
  Er  Er2  1  0.398491  0.129785  0.268707  1
  Er  Er3  1  0.601509  0.870215  0.731293  1
  Si  Si4  1  0.500000  0.755730  0.255730  1
  Si  Si5  1  0.500000  0.244270  0.744270  1
  Si  Si6  1  0.223559  0.974792  0.747213  1
  Si  Si7  1  0.776441  0.523654  0.751233  1
  Si  Si8  1  0.776441  0.025208  0.252787  1
  Si  Si9  1  0.223559  0.476346  0.248767  1
  Si  Si10  1  0.050883  0.893751  0.157132  1
  Si  Si11  1  0.949117  0.106249  0.842868  1
  Si  Si12  1  0.740509  0.393509  0.347000  1
  Si  Si13  1  0.259491  0.606491  0.653000  1
  Ir  Ir14  1  0.000000  0.752048  0.752048  1
  Ir  Ir15  1  0.000000  0.247952  0.247952  1
  Ir  Ir16  1  0.246787  0.860946  0.385841  1
  Ir  Ir17  1  0.753213  0.139054  0.614159  1
  Pt  Pt18  1  0.476181  0.360380  0.115800  1
  Pt  Pt19  1  0.523819  0.639620  0.884200  1
