# generated using pymatgen
data_Hf5Zr3(Rh2O)2
_symmetry_space_group_name_H-M   'P 1'
_cell_length_a   8.76993072
_cell_length_b   8.76993101
_cell_length_c   8.76993200
_cell_angle_alpha   60.00000381
_cell_angle_beta   60.00000271
_cell_angle_gamma   60.00000291
_symmetry_Int_Tables_number   1
_chemical_formula_structural   Hf5Zr3(Rh2O)2
_chemical_formula_sum   'Hf10 Zr6 Rh8 O4'
_cell_volume   476.95081870
_cell_formula_units_Z   2
loop_
 _symmetry_equiv_pos_site_id
 _symmetry_equiv_pos_as_xyz
  1  'x, y, z'
loop_
 _atom_site_type_symbol
 _atom_site_label
 _atom_site_symmetry_multiplicity
 _atom_site_fract_x
 _atom_site_fract_y
 _atom_site_fract_z
 _atom_site_occupancy
  Hf  Hf0  1  0.118249  0.627251  0.627251  1
  Hf  Hf1  1  0.627251  0.118249  0.627251  1
  Hf  Hf2  1  0.627251  0.627251  0.118249  1
  Hf  Hf3  1  0.627251  0.627251  0.627251  1
  Hf  Hf4  1  0.815900  0.815900  0.184100  1
  Hf  Hf5  1  0.184100  0.184100  0.815900  1
  Hf  Hf6  1  0.815900  0.184100  0.815900  1
  Hf  Hf7  1  0.184100  0.815900  0.184100  1
  Hf  Hf8  1  0.184100  0.815900  0.815900  1
  Hf  Hf9  1  0.815900  0.184100  0.184100  1
  Zr  Zr10  1  0.434392  0.434392  0.065608  1
  Zr  Zr11  1  0.065608  0.065608  0.434392  1
  Zr  Zr12  1  0.434392  0.065608  0.434392  1
  Zr  Zr13  1  0.065608  0.434392  0.065608  1
  Zr  Zr14  1  0.065608  0.434392  0.434392  1
  Zr  Zr15  1  0.434392  0.065608  0.065608  1
  Rh  Rh16  1  0.770132  0.409956  0.409956  1
  Rh  Rh17  1  0.409956  0.770132  0.409956  1
  Rh  Rh18  1  0.409956  0.409956  0.770132  1
  Rh  Rh19  1  0.409956  0.409956  0.409956  1
  Rh  Rh20  1  0.460964  0.846345  0.846345  1
  Rh  Rh21  1  0.846345  0.460964  0.846345  1
  Rh  Rh22  1  0.846345  0.846345  0.460964  1
  Rh  Rh23  1  0.846345  0.846345  0.846345  1
  O  O24  1  0.634436  0.121855  0.121855  1
  O  O25  1  0.121855  0.634436  0.121855  1
  O  O26  1  0.121855  0.121855  0.634436  1
  O  O27  1  0.121855  0.121855  0.121855  1
