# generated using pymatgen
data_Tm3Lu2P12Ru19
_symmetry_space_group_name_H-M   'P 1'
_cell_length_a   12.49103700
_cell_length_b   12.49274428
_cell_length_c   3.96206500
_cell_angle_alpha   90.00000000
_cell_angle_beta   90.00000000
_cell_angle_gamma   119.99547673
_symmetry_Int_Tables_number   1
_chemical_formula_structural   Tm3Lu2P12Ru19
_chemical_formula_sum   'Tm3 Lu2 P12 Ru19'
_cell_volume   535.46164262
_cell_formula_units_Z   1
loop_
 _symmetry_equiv_pos_site_id
 _symmetry_equiv_pos_as_xyz
  1  'x, y, z'
loop_
 _atom_site_type_symbol
 _atom_site_label
 _atom_site_symmetry_multiplicity
 _atom_site_fract_x
 _atom_site_fract_y
 _atom_site_fract_z
 _atom_site_occupancy
  Tm  Tm0  1  0.183342  0.000000  0.500000  1
  Tm  Tm1  1  0.666789  0.333346  0.000000  1
  Tm  Tm2  1  0.333442  0.666654  0.000000  1
  Lu  Lu3  1  0.000029  0.183304  0.500000  1
  Lu  Lu4  1  0.816726  0.816696  0.500000  1
  P  P5  1  0.999709  0.816611  0.000000  1
  P  P6  1  0.183098  0.183389  0.000000  1
  P  P7  1  0.816453  0.000000  0.000000  1
  P  P8  1  0.692945  0.170923  0.500000  1
  P  P9  1  0.828904  0.521634  0.500000  1
  P  P10  1  0.478186  0.307265  0.500000  1
  P  P11  1  0.170923  0.692735  0.500000  1
  P  P12  1  0.522022  0.829077  0.500000  1
  P  P13  1  0.307270  0.478366  0.500000  1
  P  P14  1  0.999997  0.371876  0.000000  1
  P  P15  1  0.628121  0.628124  0.000000  1
  P  P16  1  0.372039  0.000000  0.000000  1
  Ru  Ru17  1  0.999850  0.554367  0.000000  1
  Ru  Ru18  1  0.445483  0.445633  0.000000  1
  Ru  Ru19  1  0.554657  0.000000  0.000000  1
  Ru  Ru20  1  0.999700  0.717637  0.500000  1
  Ru  Ru21  1  0.282064  0.282363  0.500000  1
  Ru  Ru22  1  0.718128  0.000000  0.500000  1
  Ru  Ru23  1  0.808803  0.184742  0.000000  1
  Ru  Ru24  1  0.815131  0.623976  0.000000  1
  Ru  Ru25  1  0.376596  0.191997  0.000000  1
  Ru  Ru26  1  0.184599  0.808003  0.000000  1
  Ru  Ru27  1  0.624061  0.815258  0.000000  1
  Ru  Ru28  1  0.191155  0.376024  0.000000  1
  Ru  Ru29  1  0.873564  0.365122  0.500000  1
  Ru  Ru30  1  0.634781  0.508308  0.500000  1
  Ru  Ru31  1  0.491844  0.126448  0.500000  1
  Ru  Ru32  1  0.365396  0.873552  0.500000  1
  Ru  Ru33  1  0.508441  0.634878  0.500000  1
  Ru  Ru34  1  0.126471  0.491692  0.500000  1
  Ru  Ru35  1  0.999281  0.000000  0.000000  1
