# generated using pymatgen
data_Pr3Ho2(Sn5Rh2)2
_symmetry_space_group_name_H-M   'P 1'
_cell_length_a   14.21316400
_cell_length_b   14.21316400
_cell_length_c   4.58232200
_cell_angle_alpha   90.00000000
_cell_angle_beta   90.00000000
_cell_angle_gamma   90.00000000
_symmetry_Int_Tables_number   1
_chemical_formula_structural   Pr3Ho2(Sn5Rh2)2
_chemical_formula_sum   'Pr6 Ho4 Sn20 Rh8'
_cell_volume   925.69333806
_cell_formula_units_Z   2
loop_
 _symmetry_equiv_pos_site_id
 _symmetry_equiv_pos_as_xyz
  1  'x, y, z'
loop_
 _atom_site_type_symbol
 _atom_site_label
 _atom_site_symmetry_multiplicity
 _atom_site_fract_x
 _atom_site_fract_y
 _atom_site_fract_z
 _atom_site_occupancy
  Pr  Pr0  1  0.500000  0.500000  0.000000  1
  Pr  Pr1  1  0.000000  0.000000  0.000000  1
  Pr  Pr2  1  0.888166  0.388166  0.500000  1
  Pr  Pr3  1  0.111834  0.611834  0.500000  1
  Pr  Pr4  1  0.388166  0.111834  0.500000  1
  Pr  Pr5  1  0.611834  0.888166  0.500000  1
  Ho  Ho6  1  0.676511  0.176511  0.500000  1
  Ho  Ho7  1  0.323489  0.823489  0.500000  1
  Ho  Ho8  1  0.176511  0.323489  0.500000  1
  Ho  Ho9  1  0.823489  0.676511  0.500000  1
  Sn  Sn10  1  0.570058  0.070058  0.000000  1
  Sn  Sn11  1  0.429942  0.929942  0.000000  1
  Sn  Sn12  1  0.070058  0.429942  0.000000  1
  Sn  Sn13  1  0.929942  0.570058  0.000000  1
  Sn  Sn14  1  0.654229  0.698374  0.000000  1
  Sn  Sn15  1  0.345771  0.301626  0.000000  1
  Sn  Sn16  1  0.154229  0.801626  0.000000  1
  Sn  Sn17  1  0.845771  0.198374  0.000000  1
  Sn  Sn18  1  0.301626  0.654229  0.000000  1
  Sn  Sn19  1  0.698374  0.345771  0.000000  1
  Sn  Sn20  1  0.198374  0.154229  0.000000  1
  Sn  Sn21  1  0.801626  0.845771  0.000000  1
  Sn  Sn22  1  0.664408  0.506012  0.500000  1
  Sn  Sn23  1  0.335592  0.493988  0.500000  1
  Sn  Sn24  1  0.164408  0.993988  0.500000  1
  Sn  Sn25  1  0.835592  0.006012  0.500000  1
  Sn  Sn26  1  0.493988  0.664408  0.500000  1
  Sn  Sn27  1  0.506012  0.335592  0.500000  1
  Sn  Sn28  1  0.006012  0.164408  0.500000  1
  Sn  Sn29  1  0.993988  0.835592  0.500000  1
  Rh  Rh30  1  0.747431  0.530095  0.000000  1
  Rh  Rh31  1  0.252569  0.469905  0.000000  1
  Rh  Rh32  1  0.247431  0.969905  0.000000  1
  Rh  Rh33  1  0.752569  0.030095  0.000000  1
  Rh  Rh34  1  0.469905  0.747431  0.000000  1
  Rh  Rh35  1  0.530095  0.252569  0.000000  1
  Rh  Rh36  1  0.030095  0.247431  0.000000  1
  Rh  Rh37  1  0.969905  0.752569  0.000000  1
