# generated using pymatgen
data_Sc6Co2Cl5
_symmetry_space_group_name_H-M   'P 1'
_cell_length_a   10.72218050
_cell_length_b   11.18763761
_cell_length_c   9.66197816
_cell_angle_alpha   97.02480459
_cell_angle_beta   99.48690429
_cell_angle_gamma   107.98716159
_symmetry_Int_Tables_number   1
_chemical_formula_structural   Sc6Co2Cl5
_chemical_formula_sum   'Sc6 Co2 Cl5'
_cell_volume   1068.59762714
_cell_formula_units_Z   1
loop_
 _symmetry_equiv_pos_site_id
 _symmetry_equiv_pos_as_xyz
  1  'x, y, z'
loop_
 _atom_site_type_symbol
 _atom_site_label
 _atom_site_symmetry_multiplicity
 _atom_site_fract_x
 _atom_site_fract_y
 _atom_site_fract_z
 _atom_site_occupancy
  Sc  Sc0  1  0.287849  0.050754  0.782992  1
  Sc  Sc1  1  0.278156  0.236070  0.359794  1
  Sc  Sc2  1  0.919523  0.790026  0.150166  1
  Sc  Sc3  1  0.875971  0.447220  0.190089  1
  Sc  Sc4  1  0.667600  0.406280  0.399126  1
  Sc  Sc5  1  0.021726  0.761673  0.960878  1
  Co  Co6  1  0.150445  0.649423  0.561455  1
  Co  Co7  1  0.660892  0.695540  0.739856  1
  Cl  Cl8  1  0.356976  0.724359  0.206888  1
  Cl  Cl9  1  0.460876  0.430100  0.677251  1
  Cl  Cl10  1  0.439561  0.339210  0.262942  1
  Cl  Cl11  1  0.553122  0.582675  0.350275  1
  Cl  Cl12  1  0.988064  0.015799  0.212391  1
