# generated using pymatgen
data_CoSb12Os2Rh
_symmetry_space_group_name_H-M   'P 1'
_cell_length_a   8.07177975
_cell_length_b   8.05055139
_cell_length_c   8.10978829
_cell_angle_alpha   109.69756921
_cell_angle_beta   109.35919259
_cell_angle_gamma   109.01379632
_symmetry_Int_Tables_number   1
_chemical_formula_structural   CoSb12Os2Rh
_chemical_formula_sum   'Co1 Sb12 Os2 Rh1'
_cell_volume   407.37686905
_cell_formula_units_Z   1
loop_
 _symmetry_equiv_pos_site_id
 _symmetry_equiv_pos_as_xyz
  1  'x, y, z'
loop_
 _atom_site_type_symbol
 _atom_site_label
 _atom_site_symmetry_multiplicity
 _atom_site_fract_x
 _atom_site_fract_y
 _atom_site_fract_z
 _atom_site_occupancy
  Co  Co0  1  0.000000  0.000000  0.500000  1
  Sb  Sb1  1  0.153270  0.824365  0.661932  1
  Sb  Sb2  1  0.846730  0.175635  0.338068  1
  Sb  Sb3  1  0.846203  0.505995  0.660575  1
  Sb  Sb4  1  0.153797  0.494005  0.339425  1
  Sb  Sb5  1  0.827894  0.677330  0.164111  1
  Sb  Sb6  1  0.172106  0.322670  0.835889  1
  Sb  Sb7  1  0.508601  0.661665  0.847657  1
  Sb  Sb8  1  0.491399  0.338335  0.152343  1
  Sb  Sb9  1  0.664611  0.155317  0.818461  1
  Sb  Sb10  1  0.335389  0.844683  0.181539  1
  Sb  Sb11  1  0.670149  0.847963  0.503797  1
  Sb  Sb12  1  0.329851  0.152037  0.496203  1
  Os  Os13  1  0.500000  0.000000  0.000000  1
  Os  Os14  1  0.000000  0.500000  0.000000  1
  Rh  Rh15  1  0.500000  0.500000  0.500000  1
