# generated using pymatgen
data_YTm3Mn2Pt2F28
_symmetry_space_group_name_H-M   'P 1'
_cell_length_a   5.45687644
_cell_length_b   8.73418458
_cell_length_c   11.78292450
_cell_angle_alpha   62.56394047
_cell_angle_beta   90.19268876
_cell_angle_gamma   90.17617176
_symmetry_Int_Tables_number   1
_chemical_formula_structural   YTm3Mn2Pt2F28
_chemical_formula_sum   'Y1 Tm3 Mn2 Pt2 F28'
_cell_volume   498.42218213
_cell_formula_units_Z   1
loop_
 _symmetry_equiv_pos_site_id
 _symmetry_equiv_pos_as_xyz
  1  'x, y, z'
loop_
 _atom_site_type_symbol
 _atom_site_label
 _atom_site_symmetry_multiplicity
 _atom_site_fract_x
 _atom_site_fract_y
 _atom_site_fract_z
 _atom_site_occupancy
  Y  Y0  1  0.236786  0.810567  0.768609  1
  Tm  Tm1  1  0.259815  0.817406  0.259818  1
  Tm  Tm2  1  0.739587  0.185226  0.740064  1
  Tm  Tm3  1  0.763421  0.189536  0.231794  1
  Mn  Mn4  1  0.757723  0.725573  0.045047  1
  Mn  Mn5  1  0.242077  0.272097  0.957762  1
  Pt  Pt6  1  0.261323  0.274046  0.455570  1
  Pt  Pt7  1  0.740046  0.726896  0.541854  1
  F  F8  1  0.930150  0.701788  0.409920  1
  F  F9  1  0.069576  0.299058  0.587103  1
  F  F10  1  0.442390  0.292243  0.075527  1
  F  F11  1  0.560180  0.706059  0.926110  1
  F  F12  1  0.486061  0.733914  0.134397  1
  F  F13  1  0.513409  0.266096  0.867090  1
  F  F14  1  0.961887  0.279928  0.359996  1
  F  F15  1  0.040697  0.718392  0.636486  1
  F  F16  1  0.955560  0.744820  0.166381  1
  F  F17  1  0.043274  0.253863  0.835873  1
  F  F18  1  0.447498  0.255882  0.318705  1
  F  F19  1  0.558717  0.743004  0.680295  1
  F  F20  1  0.766277  0.487867  0.137839  1
  F  F21  1  0.231492  0.508833  0.864282  1
  F  F22  1  0.279753  0.527002  0.354005  1
  F  F23  1  0.720790  0.474037  0.644579  1
  F  F24  1  0.962018  0.281962  0.043896  1
  F  F25  1  0.037607  0.715163  0.960134  1
  F  F26  1  0.430549  0.725891  0.455104  1
  F  F27  1  0.568607  0.275595  0.543664  1
  F  F28  1  0.745739  0.979585  0.447516  1
  F  F29  1  0.255165  0.021665  0.549672  1
  F  F30  1  0.240078  0.035827  0.049083  1
  F  F31  1  0.760284  0.961946  0.952399  1
  F  F32  1  0.586405  0.972041  0.230501  1
  F  F33  1  0.412430  0.033890  0.770025  1
  F  F34  1  0.084161  0.029356  0.268948  1
  F  F35  1  0.908469  0.972947  0.729950  1
