# generated using pymatgen
data_Tb11Dy9(Bi2Ru)4
_symmetry_space_group_name_H-M   'P 1'
_cell_length_a   8.00758581
_cell_length_b   9.03407200
_cell_length_c   12.50758024
_cell_angle_alpha   90.00000000
_cell_angle_beta   89.96307801
_cell_angle_gamma   90.00000000
_symmetry_Int_Tables_number   1
_chemical_formula_structural   Tb11Dy9(Bi2Ru)4
_chemical_formula_sum   'Tb11 Dy9 Bi8 Ru4'
_cell_volume   904.81200943
_cell_formula_units_Z   1
loop_
 _symmetry_equiv_pos_site_id
 _symmetry_equiv_pos_as_xyz
  1  'x, y, z'
loop_
 _atom_site_type_symbol
 _atom_site_label
 _atom_site_symmetry_multiplicity
 _atom_site_fract_x
 _atom_site_fract_y
 _atom_site_fract_z
 _atom_site_occupancy
  Tb  Tb0  1  0.156486  0.250000  0.206476  1
  Tb  Tb1  1  0.343158  0.250000  0.706715  1
  Tb  Tb2  1  0.656752  0.750000  0.293262  1
  Tb  Tb3  1  0.376971  0.750000  0.692404  1
  Tb  Tb4  1  0.623227  0.250000  0.307706  1
  Tb  Tb5  1  0.876929  0.250000  0.807728  1
  Tb  Tb6  1  0.123216  0.750000  0.192354  1
  Tb  Tb7  1  0.945783  0.750000  0.504175  1
  Tb  Tb8  1  0.053726  0.250000  0.496054  1
  Tb  Tb9  1  0.445820  0.250000  0.995643  1
  Tb  Tb10  1  0.554302  0.750000  0.004076  1
  Dy  Dy11  1  0.843587  0.750000  0.793786  1
  Dy  Dy12  1  0.675136  0.042077  0.564848  1
  Dy  Dy13  1  0.324844  0.957878  0.435308  1
  Dy  Dy14  1  0.175273  0.957334  0.935110  1
  Dy  Dy15  1  0.324844  0.542122  0.435308  1
  Dy  Dy16  1  0.824901  0.042027  0.064503  1
  Dy  Dy17  1  0.675136  0.457923  0.564848  1
  Dy  Dy18  1  0.824901  0.457973  0.064503  1
  Dy  Dy19  1  0.175273  0.542666  0.935110  1
  Bi  Bi20  1  0.570614  0.493166  0.827369  1
  Bi  Bi21  1  0.429770  0.507000  0.172482  1
  Bi  Bi22  1  0.069789  0.507435  0.672655  1
  Bi  Bi23  1  0.429770  0.993000  0.172482  1
  Bi  Bi24  1  0.929838  0.492870  0.327590  1
  Bi  Bi25  1  0.570614  0.006834  0.827369  1
  Bi  Bi26  1  0.929838  0.007130  0.327590  1
  Bi  Bi27  1  0.069789  0.992565  0.672655  1
  Ru  Ru28  1  0.573658  0.750000  0.510897  1
  Ru  Ru29  1  0.426177  0.250000  0.489170  1
  Ru  Ru30  1  0.073861  0.250000  0.988915  1
  Ru  Ru31  1  0.926020  0.750000  0.010912  1
