# generated using pymatgen
data_LiMgGePd5
_symmetry_space_group_name_H-M   'P 1'
_cell_length_a   4.13461600
_cell_length_b   5.45159335
_cell_length_c   10.61248956
_cell_angle_alpha   91.30661857
_cell_angle_beta   90.00000000
_cell_angle_gamma   90.00000000
_symmetry_Int_Tables_number   1
_chemical_formula_structural   LiMgGePd5
_chemical_formula_sum   'Li2 Mg2 Ge2 Pd10'
_cell_volume   239.14591722
_cell_formula_units_Z   2
loop_
 _symmetry_equiv_pos_site_id
 _symmetry_equiv_pos_as_xyz
  1  'x, y, z'
loop_
 _atom_site_type_symbol
 _atom_site_label
 _atom_site_symmetry_multiplicity
 _atom_site_fract_x
 _atom_site_fract_y
 _atom_site_fract_z
 _atom_site_occupancy
  Li  Li0  1  0.500000  0.163080  0.138796  1
  Li  Li1  1  0.500000  0.836920  0.861204  1
  Mg  Mg2  1  0.500000  0.338344  0.645685  1
  Mg  Mg3  1  0.500000  0.661656  0.354315  1
  Ge  Ge4  1  0.000000  0.000000  0.500000  1
  Ge  Ge5  1  0.000000  0.500000  0.000000  1
  Pd  Pd6  1  0.500000  0.177928  0.392117  1
  Pd  Pd7  1  0.500000  0.822072  0.607883  1
  Pd  Pd8  1  0.500000  0.312779  0.896625  1
  Pd  Pd9  1  0.500000  0.687221  0.103375  1
  Pd  Pd10  1  0.000000  0.407617  0.232144  1
  Pd  Pd11  1  0.000000  0.592383  0.767856  1
  Pd  Pd12  1  0.000000  0.085576  0.738655  1
  Pd  Pd13  1  0.000000  0.914424  0.261345  1
  Pd  Pd14  1  0.000000  0.000000  0.000000  1
  Pd  Pd15  1  0.000000  0.500000  0.500000  1
