# generated using pymatgen
data_YbEu2B2Pt7
_symmetry_space_group_name_H-M   'P 1'
_cell_length_a   8.38239779
_cell_length_b   8.38239736
_cell_length_c   8.38239841
_cell_angle_alpha   38.76773062
_cell_angle_beta   38.76773641
_cell_angle_gamma   38.76772850
_symmetry_Int_Tables_number   1
_chemical_formula_structural   YbEu2B2Pt7
_chemical_formula_sum   'Yb1 Eu2 B2 Pt7'
_cell_volume   207.58935573
_cell_formula_units_Z   1
loop_
 _symmetry_equiv_pos_site_id
 _symmetry_equiv_pos_as_xyz
  1  'x, y, z'
loop_
 _atom_site_type_symbol
 _atom_site_label
 _atom_site_symmetry_multiplicity
 _atom_site_fract_x
 _atom_site_fract_y
 _atom_site_fract_z
 _atom_site_occupancy
  Yb  Yb0  1  0.000000  0.000000  0.000000  1
  Eu  Eu1  1  0.857346  0.857346  0.857346  1
  Eu  Eu2  1  0.142654  0.142654  0.142654  1
  B  B3  1  0.668617  0.668617  0.668617  1
  B  B4  1  0.331383  0.331383  0.331383  1
  Pt  Pt5  1  0.436239  0.933267  0.436239  1
  Pt  Pt6  1  0.436239  0.436239  0.933267  1
  Pt  Pt7  1  0.933267  0.436239  0.436239  1
  Pt  Pt8  1  0.563761  0.066733  0.563761  1
  Pt  Pt9  1  0.563761  0.563761  0.066733  1
  Pt  Pt10  1  0.066733  0.563761  0.563761  1
  Pt  Pt11  1  0.500000  0.500000  0.500000  1
