# generated using pymatgen
data_Tb(Ce4Al3)4
_symmetry_space_group_name_H-M   'P 1'
_cell_length_a   9.58208265
_cell_length_b   9.58208299
_cell_length_c   9.58208200
_cell_angle_alpha   109.47122277
_cell_angle_beta   109.47122349
_cell_angle_gamma   109.47121706
_symmetry_Int_Tables_number   1
_chemical_formula_structural   Tb(Ce4Al3)4
_chemical_formula_sum   'Tb1 Ce16 Al12'
_cell_volume   677.26374094
_cell_formula_units_Z   1
loop_
 _symmetry_equiv_pos_site_id
 _symmetry_equiv_pos_as_xyz
  1  'x, y, z'
loop_
 _atom_site_type_symbol
 _atom_site_label
 _atom_site_symmetry_multiplicity
 _atom_site_fract_x
 _atom_site_fract_y
 _atom_site_fract_z
 _atom_site_occupancy
  Tb  Tb0  1  0.000000  0.000000  0.000000  1
  Ce  Ce1  1  0.279244  0.588387  0.588387  1
  Ce  Ce2  1  0.624850  0.000000  0.000000  1
  Ce  Ce3  1  0.375150  0.375150  0.375150  1
  Ce  Ce4  1  0.720756  0.309143  0.309143  1
  Ce  Ce5  1  0.000000  0.690857  0.411613  1
  Ce  Ce6  1  0.588387  0.588387  0.279244  1
  Ce  Ce7  1  0.411613  0.000000  0.690857  1
  Ce  Ce8  1  0.000000  0.000000  0.624850  1
  Ce  Ce9  1  0.690857  0.411613  0.000000  1
  Ce  Ce10  1  0.309143  0.720756  0.309143  1
  Ce  Ce11  1  0.690857  0.000000  0.411613  1
  Ce  Ce12  1  0.309143  0.309143  0.720756  1
  Ce  Ce13  1  0.000000  0.624850  0.000000  1
  Ce  Ce14  1  0.588387  0.279244  0.588387  1
  Ce  Ce15  1  0.411613  0.690857  0.000000  1
  Ce  Ce16  1  0.000000  0.411613  0.690857  1
  Al  Al17  1  0.823127  0.643469  0.643469  1
  Al  Al18  1  0.176873  0.820343  0.820343  1
  Al  Al19  1  0.000000  0.356531  0.179657  1
  Al  Al20  1  0.356531  0.179657  0.000000  1
  Al  Al21  1  0.643469  0.823127  0.643469  1
  Al  Al22  1  0.179657  0.356531  0.000000  1
  Al  Al23  1  0.820343  0.176873  0.820343  1
  Al  Al24  1  0.820343  0.820343  0.176873  1
  Al  Al25  1  0.179657  0.000000  0.356531  1
  Al  Al26  1  0.643469  0.643469  0.823127  1
  Al  Al27  1  0.356531  0.000000  0.179657  1
  Al  Al28  1  0.000000  0.179657  0.356531  1
