# generated using pymatgen
data_Ho7ErTi11Si16Ag
_symmetry_space_group_name_H-M   'P 1'
_cell_length_a   7.05698131
_cell_length_b   7.05713446
_cell_length_c   12.88662305
_cell_angle_alpha   90.08119949
_cell_angle_beta   89.93101991
_cell_angle_gamma   89.65675381
_symmetry_Int_Tables_number   1
_chemical_formula_structural   Ho7ErTi11Si16Ag
_chemical_formula_sum   'Ho7 Er1 Ti11 Si16 Ag1'
_cell_volume   641.76781889
_cell_formula_units_Z   1
loop_
 _symmetry_equiv_pos_site_id
 _symmetry_equiv_pos_as_xyz
  1  'x, y, z'
loop_
 _atom_site_type_symbol
 _atom_site_label
 _atom_site_symmetry_multiplicity
 _atom_site_fract_x
 _atom_site_fract_y
 _atom_site_fract_z
 _atom_site_occupancy
  Ho  Ho0  1  0.340906  0.001970  0.466552  1
  Ho  Ho1  1  0.497472  0.841039  0.716725  1
  Ho  Ho2  1  0.501493  0.157875  0.214528  1
  Ho  Ho3  1  0.840994  0.497682  0.283360  1
  Ho  Ho4  1  0.157700  0.501605  0.785398  1
  Ho  Ho5  1  0.656451  0.001298  0.968347  1
  Ho  Ho6  1  0.001867  0.341002  0.533476  1
  Er  Er7  1  0.001349  0.656655  0.031745  1
  Ti  Ti8  1  0.174075  0.826073  0.249952  1
  Ti  Ti9  1  0.826144  0.174185  0.750038  1
  Ti  Ti10  1  0.672724  0.672667  0.499991  1
  Ti  Ti11  1  0.147520  0.008180  0.877035  1
  Ti  Ti12  1  0.495405  0.650450  0.123246  1
  Ti  Ti13  1  0.507808  0.350188  0.625133  1
  Ti  Ti14  1  0.650653  0.495566  0.876865  1
  Ti  Ti15  1  0.350245  0.507800  0.374740  1
  Ti  Ti16  1  0.849770  0.991795  0.374299  1
  Ti  Ti17  1  0.008231  0.147537  0.123064  1
  Ti  Ti18  1  0.991841  0.849642  0.625669  1
  Si  Si19  1  0.201723  0.132444  0.684362  1
  Si  Si20  1  0.373151  0.718980  0.929166  1
  Si  Si21  1  0.631231  0.294206  0.432477  1
  Si  Si22  1  0.719658  0.373895  0.071028  1
  Si  Si23  1  0.294301  0.631189  0.567441  1
  Si  Si24  1  0.797958  0.866920  0.182422  1
  Si  Si25  1  0.132569  0.201824  0.315663  1
  Si  Si26  1  0.867361  0.797715  0.817523  1
  Si  Si27  1  0.286293  0.937841  0.066178  1
  Si  Si28  1  0.546893  0.790839  0.314360  1
  Si  Si29  1  0.455188  0.208129  0.808885  1
  Si  Si30  1  0.790846  0.546713  0.685614  1
  Si  Si31  1  0.207954  0.455281  0.190906  1
  Si  Si32  1  0.708793  0.047250  0.564180  1
  Si  Si33  1  0.938636  0.286951  0.933843  1
  Si  Si34  1  0.047353  0.708713  0.435855  1
  Ag  Ag35  1  0.327444  0.327901  0.999935  1
