# generated using pymatgen
data_Ta4Nb3(B4Ru3)2
_symmetry_space_group_name_H-M   'P 1'
_cell_length_a   9.61262114
_cell_length_b   9.60205230
_cell_length_c   3.11997500
_cell_angle_alpha   90.00000000
_cell_angle_beta   90.00000000
_cell_angle_gamma   119.91780436
_symmetry_Int_Tables_number   1
_chemical_formula_structural   Ta4Nb3(B4Ru3)2
_chemical_formula_sum   'Ta4 Nb3 B8 Ru6'
_cell_volume   249.60124733
_cell_formula_units_Z   1
loop_
 _symmetry_equiv_pos_site_id
 _symmetry_equiv_pos_as_xyz
  1  'x, y, z'
loop_
 _atom_site_type_symbol
 _atom_site_label
 _atom_site_symmetry_multiplicity
 _atom_site_fract_x
 _atom_site_fract_y
 _atom_site_fract_z
 _atom_site_occupancy
  Ta  Ta0  1  0.913156  0.275845  0.000000  1
  Ta  Ta1  1  0.276998  0.362123  0.000000  1
  Ta  Ta2  1  0.637302  0.912783  0.000000  1
  Ta  Ta3  1  0.086342  0.723696  0.000000  1
  Nb  Nb4  1  0.999904  0.000885  0.000000  1
  Nb  Nb5  1  0.725487  0.639702  0.000000  1
  Nb  Nb6  1  0.360247  0.085895  0.000000  1
  B  B7  1  0.666742  0.333617  0.000000  1
  B  B8  1  0.333754  0.666840  0.000000  1
  B  B9  1  0.152881  0.934570  0.500000  1
  B  B10  1  0.066312  0.220185  0.500000  1
  B  B11  1  0.782917  0.848541  0.500000  1
  B  B12  1  0.844930  0.064628  0.500000  1
  B  B13  1  0.935235  0.781849  0.500000  1
  B  B14  1  0.217209  0.153244  0.500000  1
  Ru  Ru15  1  0.360301  0.845375  0.500000  1
  Ru  Ru16  1  0.152821  0.512525  0.500000  1
  Ru  Ru17  1  0.484718  0.638346  0.500000  1
  Ru  Ru18  1  0.639912  0.152626  0.500000  1
  Ru  Ru19  1  0.847720  0.485374  0.500000  1
  Ru  Ru20  1  0.515112  0.361351  0.500000  1
