# generated using pymatgen
data_ErScSb5
_symmetry_space_group_name_H-M   'P 1'
_cell_length_a   4.19658300
_cell_length_b   13.02288520
_cell_length_c   14.20992805
_cell_angle_alpha   78.83645686
_cell_angle_beta   90.00000000
_cell_angle_gamma   90.00000000
_symmetry_Int_Tables_number   1
_chemical_formula_structural   ErScSb5
_chemical_formula_sum   'Er4 Sc4 Sb20'
_cell_volume   761.90125142
_cell_formula_units_Z   4
loop_
 _symmetry_equiv_pos_site_id
 _symmetry_equiv_pos_as_xyz
  1  'x, y, z'
loop_
 _atom_site_type_symbol
 _atom_site_label
 _atom_site_symmetry_multiplicity
 _atom_site_fract_x
 _atom_site_fract_y
 _atom_site_fract_z
 _atom_site_occupancy
  Er  Er0  1  0.250000  0.669298  0.576304  1
  Er  Er1  1  0.750000  0.330702  0.423696  1
  Er  Er2  1  0.250000  0.953640  0.355380  1
  Er  Er3  1  0.750000  0.046360  0.644620  1
  Sc  Sc4  1  0.250000  0.396783  0.772522  1
  Sc  Sc5  1  0.750000  0.603217  0.227478  1
  Sc  Sc6  1  0.250000  0.657451  0.858618  1
  Sc  Sc7  1  0.750000  0.342549  0.141382  1
  Sb  Sb8  1  0.250000  0.147349  0.779805  1
  Sb  Sb9  1  0.750000  0.852651  0.220195  1
  Sb  Sb10  1  0.250000  0.143197  0.483582  1
  Sb  Sb11  1  0.750000  0.856803  0.516418  1
  Sb  Sb12  1  0.250000  0.162695  0.161448  1
  Sb  Sb13  1  0.750000  0.837305  0.838552  1
  Sb  Sb14  1  0.250000  0.422144  0.974962  1
  Sb  Sb15  1  0.750000  0.577856  0.025038  1
  Sb  Sb16  1  0.750000  0.028390  0.913705  1
  Sb  Sb17  1  0.250000  0.971610  0.086295  1
  Sb  Sb18  1  0.750000  0.142454  0.316441  1
  Sb  Sb19  1  0.250000  0.857546  0.683559  1
  Sb  Sb20  1  0.750000  0.279763  0.936381  1
  Sb  Sb21  1  0.250000  0.720237  0.063619  1
  Sb  Sb22  1  0.750000  0.288999  0.658636  1
  Sb  Sb23  1  0.250000  0.711001  0.341364  1
  Sb  Sb24  1  0.750000  0.573503  0.740916  1
  Sb  Sb25  1  0.250000  0.426497  0.259084  1
  Sb  Sb26  1  0.750000  0.570173  0.444105  1
  Sb  Sb27  1  0.250000  0.429827  0.555895  1
