# generated using pymatgen
data_Sc2Zn3Ag4
_symmetry_space_group_name_H-M   'P 1'
_cell_length_a   5.20803421
_cell_length_b   5.20803435
_cell_length_c   13.66372400
_cell_angle_alpha   90.00000000
_cell_angle_beta   90.00000000
_cell_angle_gamma   120.37515698
_symmetry_Int_Tables_number   1
_chemical_formula_structural   Sc2Zn3Ag4
_chemical_formula_sum   'Sc4 Zn6 Ag8'
_cell_volume   319.73719498
_cell_formula_units_Z   2
loop_
 _symmetry_equiv_pos_site_id
 _symmetry_equiv_pos_as_xyz
  1  'x, y, z'
loop_
 _atom_site_type_symbol
 _atom_site_label
 _atom_site_symmetry_multiplicity
 _atom_site_fract_x
 _atom_site_fract_y
 _atom_site_fract_z
 _atom_site_occupancy
  Sc  Sc0  1  0.815768  0.815768  0.124280  1
  Sc  Sc1  1  0.184232  0.184232  0.875720  1
  Sc  Sc2  1  0.815768  0.815768  0.375720  1
  Sc  Sc3  1  0.184232  0.184232  0.624280  1
  Zn  Zn4  1  0.176727  0.679234  0.750000  1
  Zn  Zn5  1  0.679234  0.176727  0.750000  1
  Zn  Zn6  1  0.673922  0.673922  0.750000  1
  Zn  Zn7  1  0.320766  0.823273  0.250000  1
  Zn  Zn8  1  0.823273  0.320766  0.250000  1
  Zn  Zn9  1  0.326078  0.326078  0.250000  1
  Ag  Ag10  1  0.155239  0.472463  0.076935  1
  Ag  Ag11  1  0.527537  0.844761  0.923065  1
  Ag  Ag12  1  0.472463  0.155239  0.076935  1
  Ag  Ag13  1  0.844761  0.527537  0.576935  1
  Ag  Ag14  1  0.472463  0.155239  0.423065  1
  Ag  Ag15  1  0.844761  0.527537  0.923065  1
  Ag  Ag16  1  0.527537  0.844761  0.576935  1
  Ag  Ag17  1  0.155239  0.472463  0.423065  1
