# generated using pymatgen
data_Nd4Sm2RhI10
_symmetry_space_group_name_H-M   'P 1'
_cell_length_a   7.96186901
_cell_length_b   9.97543880
_cell_length_c   9.96542332
_cell_angle_alpha   107.02135560
_cell_angle_beta   96.87491779
_cell_angle_gamma   104.85679109
_symmetry_Int_Tables_number   1
_chemical_formula_structural   Nd4Sm2RhI10
_chemical_formula_sum   'Nd4 Sm2 Rh1 I10'
_cell_volume   715.08824463
_cell_formula_units_Z   1
loop_
 _symmetry_equiv_pos_site_id
 _symmetry_equiv_pos_as_xyz
  1  'x, y, z'
loop_
 _atom_site_type_symbol
 _atom_site_label
 _atom_site_symmetry_multiplicity
 _atom_site_fract_x
 _atom_site_fract_y
 _atom_site_fract_z
 _atom_site_occupancy
  Nd  Nd0  1  0.147460  0.373442  0.330479  1
  Nd  Nd1  1  0.852540  0.626558  0.669521  1
  Nd  Nd2  1  0.616132  0.543235  0.261969  1
  Nd  Nd3  1  0.383868  0.456765  0.738031  1
  Sm  Sm4  1  0.531770  0.210564  0.412958  1
  Sm  Sm5  1  0.468230  0.789436  0.587042  1
  Rh  Rh6  1  0.500000  0.500000  0.500000  1
  I  I7  1  0.151503  0.048284  0.228517  1
  I  I8  1  0.848497  0.951716  0.771483  1
  I  I9  1  0.241408  0.412373  0.037361  1
  I  I10  1  0.758592  0.587627  0.962639  1
  I  I11  1  0.716997  0.242264  0.153527  1
  I  I12  1  0.283003  0.757736  0.846473  1
  I  I13  1  0.048341  0.684227  0.408307  1
  I  I14  1  0.951659  0.315773  0.591693  1
  I  I15  1  0.414544  0.127152  0.677968  1
  I  I16  1  0.585456  0.872848  0.322032  1
