# generated using pymatgen
data_Yb2Er3Si12Ir19
_symmetry_space_group_name_H-M   'P 1'
_cell_length_a   12.81741400
_cell_length_b   12.81741352
_cell_length_c   3.98469100
_cell_angle_alpha   90.00000000
_cell_angle_beta   90.00000000
_cell_angle_gamma   120.00000641
_symmetry_Int_Tables_number   1
_chemical_formula_structural   Yb2Er3Si12Ir19
_chemical_formula_sum   'Yb2 Er3 Si12 Ir19'
_cell_volume   566.92558977
_cell_formula_units_Z   1
loop_
 _symmetry_equiv_pos_site_id
 _symmetry_equiv_pos_as_xyz
  1  'x, y, z'
loop_
 _atom_site_type_symbol
 _atom_site_label
 _atom_site_symmetry_multiplicity
 _atom_site_fract_x
 _atom_site_fract_y
 _atom_site_fract_z
 _atom_site_occupancy
  Yb  Yb0  1  0.666667  0.333333  0.000000  1
  Yb  Yb1  1  0.333333  0.666667  0.000000  1
  Er  Er2  1  0.816032  0.816032  0.500000  1
  Er  Er3  1  0.183968  0.000000  0.500000  1
  Er  Er4  1  0.000000  0.183968  0.500000  1
  Si  Si5  1  0.687414  0.168233  0.500000  1
  Si  Si6  1  0.831767  0.519180  0.500000  1
  Si  Si7  1  0.480820  0.312586  0.500000  1
  Si  Si8  1  0.168233  0.687414  0.500000  1
  Si  Si9  1  0.519180  0.831767  0.500000  1
  Si  Si10  1  0.312586  0.480820  0.500000  1
  Si  Si11  1  0.630820  0.630820  0.000000  1
  Si  Si12  1  0.369180  0.000000  0.000000  1
  Si  Si13  1  0.000000  0.369180  0.000000  1
  Si  Si14  1  0.181360  0.181360  0.000000  1
  Si  Si15  1  0.818640  0.000000  0.000000  1
  Si  Si16  1  0.000000  0.818640  0.000000  1
  Ir  Ir17  1  0.807174  0.182978  0.000000  1
  Ir  Ir18  1  0.817022  0.624197  0.000000  1
  Ir  Ir19  1  0.375803  0.192826  0.000000  1
  Ir  Ir20  1  0.182978  0.807174  0.000000  1
  Ir  Ir21  1  0.624197  0.817022  0.000000  1
  Ir  Ir22  1  0.192826  0.375803  0.000000  1
  Ir  Ir23  1  0.446654  0.446654  0.000000  1
  Ir  Ir24  1  0.553346  0.000000  0.000000  1
  Ir  Ir25  1  0.000000  0.553346  0.000000  1
  Ir  Ir26  1  0.282332  0.282332  0.500000  1
  Ir  Ir27  1  0.717668  0.000000  0.500000  1
  Ir  Ir28  1  0.000000  0.717668  0.500000  1
  Ir  Ir29  1  0.873250  0.360345  0.500000  1
  Ir  Ir30  1  0.639655  0.512908  0.500000  1
  Ir  Ir31  1  0.487092  0.126750  0.500000  1
  Ir  Ir32  1  0.360345  0.873250  0.500000  1
  Ir  Ir33  1  0.512908  0.639655  0.500000  1
  Ir  Ir34  1  0.126750  0.487092  0.500000  1
  Ir  Ir35  1  0.000000  0.000000  0.000000  1
