# generated using pymatgen
data_Er9Lu(SiSn3)2
_symmetry_space_group_name_H-M   'P 1'
_cell_length_a   9.13710900
_cell_length_b   9.13710917
_cell_length_c   6.38235500
_cell_angle_alpha   90.00000000
_cell_angle_beta   90.00000000
_cell_angle_gamma   119.99999575
_symmetry_Int_Tables_number   1
_chemical_formula_structural   Er9Lu(SiSn3)2
_chemical_formula_sum   'Er9 Lu1 Si2 Sn6'
_cell_volume   461.45486291
_cell_formula_units_Z   1
loop_
 _symmetry_equiv_pos_site_id
 _symmetry_equiv_pos_as_xyz
  1  'x, y, z'
loop_
 _atom_site_type_symbol
 _atom_site_label
 _atom_site_symmetry_multiplicity
 _atom_site_fract_x
 _atom_site_fract_y
 _atom_site_fract_z
 _atom_site_occupancy
  Er  Er0  1  0.333333  0.666667  0.000000  1
  Er  Er1  1  0.333333  0.666667  0.500000  1
  Er  Er2  1  0.666667  0.333333  0.500000  1
  Er  Er3  1  0.747050  0.747016  0.749953  1
  Er  Er4  1  0.252984  0.000034  0.749953  1
  Er  Er5  1  0.999966  0.252950  0.749953  1
  Er  Er6  1  0.252984  0.252950  0.250047  1
  Er  Er7  1  0.747050  0.000034  0.250047  1
  Er  Er8  1  0.999966  0.747016  0.250047  1
  Lu  Lu9  1  0.666667  0.333333  0.000000  1
  Si  Si10  1  0.000000  0.000000  0.000000  1
  Si  Si11  1  0.000000  0.000000  0.500000  1
  Sn  Sn12  1  0.391544  0.391454  0.750029  1
  Sn  Sn13  1  0.608546  0.000090  0.750029  1
  Sn  Sn14  1  0.999910  0.608456  0.750029  1
  Sn  Sn15  1  0.608546  0.608456  0.249971  1
  Sn  Sn16  1  0.391544  0.000090  0.249971  1
  Sn  Sn17  1  0.999910  0.391454  0.249971  1
