# generated using pymatgen
data_LaYb10Tm9Sn16
_symmetry_space_group_name_H-M   'P 1'
_cell_length_a   7.84396933
_cell_length_b   8.43043842
_cell_length_c   15.91641300
_cell_angle_alpha   90.02240060
_cell_angle_beta   90.12718496
_cell_angle_gamma   89.71704029
_symmetry_Int_Tables_number   1
_chemical_formula_structural   LaYb10Tm9Sn16
_chemical_formula_sum   'La1 Yb10 Tm9 Sn16'
_cell_volume   1052.50665147
_cell_formula_units_Z   1
loop_
 _symmetry_equiv_pos_site_id
 _symmetry_equiv_pos_as_xyz
  1  'x, y, z'
loop_
 _atom_site_type_symbol
 _atom_site_label
 _atom_site_symmetry_multiplicity
 _atom_site_fract_x
 _atom_site_fract_y
 _atom_site_fract_z
 _atom_site_occupancy
  La  La0  1  0.505645  0.684971  0.594671  1
  Yb  Yb1  1  0.003580  0.815601  0.908437  1
  Yb  Yb2  1  0.494376  0.311789  0.092241  1
  Yb  Yb3  1  0.996356  0.187223  0.407901  1
  Yb  Yb4  1  0.494124  0.312584  0.407310  1
  Yb  Yb5  1  0.995519  0.187222  0.091869  1
  Yb  Yb6  1  0.504010  0.687522  0.905481  1
  Yb  Yb7  1  0.004030  0.816141  0.591664  1
  Yb  Yb8  1  0.335526  0.990951  0.750780  1
  Yb  Yb9  1  0.163500  0.488358  0.249891  1
  Yb  Yb10  1  0.663189  0.009557  0.249816  1
  Tm  Tm11  1  0.674452  0.164360  0.622933  1
  Tm  Tm12  1  0.174821  0.334426  0.876627  1
  Tm  Tm13  1  0.325557  0.833111  0.122169  1
  Tm  Tm14  1  0.826566  0.664251  0.377776  1
  Tm  Tm15  1  0.325248  0.832919  0.377006  1
  Tm  Tm16  1  0.826070  0.663894  0.121651  1
  Tm  Tm17  1  0.675781  0.163262  0.877404  1
  Tm  Tm18  1  0.174330  0.333475  0.623637  1
  Tm  Tm19  1  0.838206  0.509226  0.751158  1
  Sn  Sn20  1  0.672161  0.963076  0.459590  1
  Sn  Sn21  1  0.171786  0.536935  0.040032  1
  Sn  Sn22  1  0.329117  0.036875  0.959166  1
  Sn  Sn23  1  0.829758  0.463908  0.543455  1
  Sn  Sn24  1  0.328679  0.037324  0.540663  1
  Sn  Sn25  1  0.828366  0.465693  0.956056  1
  Sn  Sn26  1  0.671869  0.962878  0.040684  1
  Sn  Sn27  1  0.172726  0.537612  0.460093  1
  Sn  Sn28  1  0.476172  0.380359  0.749879  1
  Sn  Sn29  1  0.971584  0.135707  0.749757  1
  Sn  Sn30  1  0.527614  0.625411  0.249868  1
  Sn  Sn31  1  0.026817  0.872201  0.249836  1
  Sn  Sn32  1  0.720706  0.863182  0.750419  1
  Sn  Sn33  1  0.209021  0.630593  0.750011  1
  Sn  Sn34  1  0.281032  0.126248  0.250034  1
  Sn  Sn35  1  0.781712  0.371156  0.250037  1
