# generated using pymatgen
data_YEr11(CoRh)2
_symmetry_space_group_name_H-M   'P 1'
_cell_length_a   6.21583707
_cell_length_b   7.05227691
_cell_length_c   9.33466200
_cell_angle_alpha   90.00000000
_cell_angle_beta   90.00000000
_cell_angle_gamma   90.23169265
_symmetry_Int_Tables_number   1
_chemical_formula_structural   YEr11(CoRh)2
_chemical_formula_sum   'Y1 Er11 Co2 Rh2'
_cell_volume   409.18907061
_cell_formula_units_Z   1
loop_
 _symmetry_equiv_pos_site_id
 _symmetry_equiv_pos_as_xyz
  1  'x, y, z'
loop_
 _atom_site_type_symbol
 _atom_site_label
 _atom_site_symmetry_multiplicity
 _atom_site_fract_x
 _atom_site_fract_y
 _atom_site_fract_z
 _atom_site_occupancy
  Y  Y0  1  0.857863  0.530079  0.250000  1
  Er  Er1  1  0.628164  0.044368  0.250000  1
  Er  Er2  1  0.371312  0.955642  0.750000  1
  Er  Er3  1  0.142956  0.467853  0.750000  1
  Er  Er4  1  0.177683  0.180632  0.064224  1
  Er  Er5  1  0.822445  0.819320  0.935204  1
  Er  Er6  1  0.672855  0.328940  0.933566  1
  Er  Er7  1  0.822445  0.819320  0.564796  1
  Er  Er8  1  0.327330  0.671210  0.065673  1
  Er  Er9  1  0.177683  0.180632  0.435776  1
  Er  Er10  1  0.327330  0.671210  0.434327  1
  Er  Er11  1  0.672855  0.328940  0.566434  1
  Co  Co12  1  0.447734  0.383306  0.250000  1
  Co  Co13  1  0.549782  0.616015  0.750000  1
  Rh  Rh14  1  0.950782  0.113991  0.750000  1
  Rh  Rh15  1  0.050779  0.888542  0.250000  1
