# generated using pymatgen
data_Na3Sn2Pd
_symmetry_space_group_name_H-M   'P 1'
_cell_length_a   9.52592385
_cell_length_b   9.52592440
_cell_length_c   9.52592400
_cell_angle_alpha   60.00000137
_cell_angle_beta   59.99999946
_cell_angle_gamma   60.00000356
_symmetry_Int_Tables_number   1
_chemical_formula_structural   Na3Sn2Pd
_chemical_formula_sum   'Na12 Sn8 Pd4'
_cell_volume   611.23239628
_cell_formula_units_Z   4
loop_
 _symmetry_equiv_pos_site_id
 _symmetry_equiv_pos_as_xyz
  1  'x, y, z'
loop_
 _atom_site_type_symbol
 _atom_site_label
 _atom_site_symmetry_multiplicity
 _atom_site_fract_x
 _atom_site_fract_y
 _atom_site_fract_z
 _atom_site_occupancy
  Na  Na0  1  0.046896  0.453104  0.046896  1
  Na  Na1  1  0.796896  0.203104  0.203104  1
  Na  Na2  1  0.203104  0.796896  0.796896  1
  Na  Na3  1  0.796896  0.203104  0.796896  1
  Na  Na4  1  0.203104  0.203104  0.796896  1
  Na  Na5  1  0.796896  0.796896  0.203104  1
  Na  Na6  1  0.046896  0.046896  0.453104  1
  Na  Na7  1  0.453104  0.046896  0.046896  1
  Na  Na8  1  0.046896  0.453104  0.453104  1
  Na  Na9  1  0.453104  0.453104  0.046896  1
  Na  Na10  1  0.203104  0.796896  0.203104  1
  Na  Na11  1  0.453104  0.046896  0.453104  1
  Sn  Sn12  1  0.833185  0.833185  0.833185  1
  Sn  Sn13  1  0.749558  0.416815  0.416815  1
  Sn  Sn14  1  0.416815  0.749558  0.416815  1
  Sn  Sn15  1  0.416815  0.416815  0.749558  1
  Sn  Sn16  1  0.833185  0.500442  0.833185  1
  Sn  Sn17  1  0.833185  0.833185  0.500442  1
  Sn  Sn18  1  0.500442  0.833185  0.833185  1
  Sn  Sn19  1  0.416815  0.416815  0.416815  1
  Pd  Pd20  1  0.625000  0.625000  0.625000  1
  Pd  Pd21  1  0.125000  0.625000  0.625000  1
  Pd  Pd22  1  0.625000  0.125000  0.625000  1
  Pd  Pd23  1  0.625000  0.625000  0.125000  1
