# generated using pymatgen
data_Tb2DyEr(ReC2)2
_symmetry_space_group_name_H-M   'P 1'
_cell_length_a   5.12239400
_cell_length_b   6.59561700
_cell_length_c   9.86176200
_cell_angle_alpha   90.00000000
_cell_angle_beta   90.00000000
_cell_angle_gamma   90.00000000
_symmetry_Int_Tables_number   1
_chemical_formula_structural   Tb2DyEr(ReC2)2
_chemical_formula_sum   'Tb4 Dy2 Er2 Re4 C8'
_cell_volume   333.18307040
_cell_formula_units_Z   2
loop_
 _symmetry_equiv_pos_site_id
 _symmetry_equiv_pos_as_xyz
  1  'x, y, z'
loop_
 _atom_site_type_symbol
 _atom_site_label
 _atom_site_symmetry_multiplicity
 _atom_site_fract_x
 _atom_site_fract_y
 _atom_site_fract_z
 _atom_site_occupancy
  Tb  Tb0  1  0.750000  0.467381  0.784682  1
  Tb  Tb1  1  0.250000  0.032619  0.284682  1
  Tb  Tb2  1  0.750000  0.968027  0.715264  1
  Tb  Tb3  1  0.250000  0.531973  0.215264  1
  Dy  Dy4  1  0.750000  0.821173  0.056382  1
  Dy  Dy5  1  0.250000  0.678827  0.556382  1
  Er  Er6  1  0.750000  0.322025  0.442931  1
  Er  Er7  1  0.250000  0.177975  0.942931  1
  Re  Re8  1  0.750000  0.277663  0.134269  1
  Re  Re9  1  0.250000  0.222337  0.634269  1
  Re  Re10  1  0.750000  0.777520  0.365805  1
  Re  Re11  1  0.250000  0.722480  0.865805  1
  C  C12  1  0.750000  0.175455  0.951178  1
  C  C13  1  0.250000  0.825462  0.048499  1
  C  C14  1  0.750000  0.674538  0.548499  1
  C  C15  1  0.250000  0.324545  0.451178  1
  C  C16  1  0.750000  0.045611  0.259921  1
  C  C17  1  0.250000  0.454389  0.759921  1
  C  C18  1  0.750000  0.544602  0.241068  1
  C  C19  1  0.250000  0.955398  0.741068  1
