# generated using pymatgen
data_Cs6CeNdBr12
_symmetry_space_group_name_H-M   'P 1'
_cell_length_a   10.12723296
_cell_length_b   10.13079349
_cell_length_c   8.41581800
_cell_angle_alpha   90.00000000
_cell_angle_beta   90.00000000
_cell_angle_gamma   90.06136590
_symmetry_Int_Tables_number   1
_chemical_formula_structural   Cs6CeNdBr12
_chemical_formula_sum   'Cs6 Ce1 Nd1 Br12'
_cell_volume   863.43639123
_cell_formula_units_Z   1
loop_
 _symmetry_equiv_pos_site_id
 _symmetry_equiv_pos_as_xyz
  1  'x, y, z'
loop_
 _atom_site_type_symbol
 _atom_site_label
 _atom_site_symmetry_multiplicity
 _atom_site_fract_x
 _atom_site_fract_y
 _atom_site_fract_z
 _atom_site_occupancy
  Cs  Cs0  1  0.000000  0.000000  0.500000  1
  Cs  Cs1  1  0.000000  0.000000  0.000000  1
  Cs  Cs2  1  0.234636  0.586289  0.500000  1
  Cs  Cs3  1  0.765364  0.413711  0.500000  1
  Cs  Cs4  1  0.413645  0.233914  0.000000  1
  Cs  Cs5  1  0.586355  0.766086  0.000000  1
  Ce  Ce6  1  0.000000  0.500000  0.000000  1
  Nd  Nd7  1  0.500000  0.000000  0.500000  1
  Br  Br8  1  0.696018  0.059694  0.745082  1
  Br  Br9  1  0.303982  0.940306  0.745082  1
  Br  Br10  1  0.939999  0.696687  0.245651  1
  Br  Br11  1  0.060001  0.303313  0.245651  1
  Br  Br12  1  0.303982  0.940306  0.254918  1
  Br  Br13  1  0.696018  0.059694  0.254918  1
  Br  Br14  1  0.060001  0.303313  0.754349  1
  Br  Br15  1  0.939999  0.696687  0.754349  1
  Br  Br16  1  0.569457  0.722529  0.500000  1
  Br  Br17  1  0.430543  0.277471  0.500000  1
  Br  Br18  1  0.278369  0.569670  0.000000  1
  Br  Br19  1  0.721631  0.430330  0.000000  1
