# generated using pymatgen
data_LaSmPa2(NiP)4
_symmetry_space_group_name_H-M   'P 1'
_cell_length_a   3.92703200
_cell_length_b   3.92703159
_cell_length_c   15.87534300
_cell_angle_alpha   90.00000000
_cell_angle_beta   90.00000000
_cell_angle_gamma   120.00000345
_symmetry_Int_Tables_number   1
_chemical_formula_structural   LaSmPa2(NiP)4
_chemical_formula_sum   'La1 Sm1 Pa2 Ni4 P4'
_cell_volume   212.02280167
_cell_formula_units_Z   1
loop_
 _symmetry_equiv_pos_site_id
 _symmetry_equiv_pos_as_xyz
  1  'x, y, z'
loop_
 _atom_site_type_symbol
 _atom_site_label
 _atom_site_symmetry_multiplicity
 _atom_site_fract_x
 _atom_site_fract_y
 _atom_site_fract_z
 _atom_site_occupancy
  La  La0  1  0.000000  0.000000  0.750000  1
  Sm  Sm1  1  0.000000  0.000000  0.250000  1
  Pa  Pa2  1  0.000000  0.000000  0.498165  1
  Pa  Pa3  1  0.000000  0.000000  0.001835  1
  Ni  Ni4  1  0.333333  0.666667  0.388524  1
  Ni  Ni5  1  0.666667  0.333333  0.605806  1
  Ni  Ni6  1  0.666667  0.333333  0.894194  1
  Ni  Ni7  1  0.333333  0.666667  0.111476  1
  P  P8  1  0.333333  0.666667  0.878514  1
  P  P9  1  0.666667  0.333333  0.125415  1
  P  P10  1  0.666667  0.333333  0.374585  1
  P  P11  1  0.333333  0.666667  0.621486  1
