# generated using pymatgen
data_RbGa4Ag3I16
_symmetry_space_group_name_H-M   'P 1'
_cell_length_a   8.61475900
_cell_length_b   8.50042071
_cell_length_c   16.64957400
_cell_angle_alpha   92.02523522
_cell_angle_beta   90.00000000
_cell_angle_gamma   90.00000000
_symmetry_Int_Tables_number   1
_chemical_formula_structural   RbGa4Ag3I16
_chemical_formula_sum   'Rb1 Ga4 Ag3 I16'
_cell_volume   1218.47133405
_cell_formula_units_Z   1
loop_
 _symmetry_equiv_pos_site_id
 _symmetry_equiv_pos_as_xyz
  1  'x, y, z'
loop_
 _atom_site_type_symbol
 _atom_site_label
 _atom_site_symmetry_multiplicity
 _atom_site_fract_x
 _atom_site_fract_y
 _atom_site_fract_z
 _atom_site_occupancy
  Rb  Rb0  1  0.250000  0.070460  0.648596  1
  Ga  Ga1  1  0.250000  0.384431  0.894583  1
  Ga  Ga2  1  0.750000  0.843593  0.607311  1
  Ga  Ga3  1  0.750000  0.598083  0.094870  1
  Ga  Ga4  1  0.250000  0.145903  0.398871  1
  Ag  Ag5  1  0.250000  0.579954  0.089514  1
  Ag  Ag6  1  0.750000  0.063984  0.410243  1
  Ag  Ag7  1  0.750000  0.407139  0.899854  1
  I  I8  1  0.250000  0.250921  0.031286  1
  I  I9  1  0.750000  0.738047  0.458807  1
  I  I10  1  0.750000  0.731341  0.956563  1
  I  I11  1  0.250000  0.374781  0.505029  1
  I  I12  1  0.250000  0.867377  0.453068  1
  I  I13  1  0.750000  0.296697  0.063282  1
  I  I14  1  0.750000  0.150003  0.587867  1
  I  I15  1  0.250000  0.684675  0.922319  1
  I  I16  1  0.989631  0.683083  0.180840  1
  I  I17  1  0.998948  0.175600  0.311556  1
  I  I18  1  0.489894  0.296055  0.807734  1
  I  I19  1  0.514513  0.751567  0.688836  1
  I  I20  1  0.010106  0.296055  0.807734  1
  I  I21  1  0.985487  0.751567  0.688836  1
  I  I22  1  0.510369  0.683083  0.180840  1
  I  I23  1  0.501052  0.175600  0.311556  1
