# generated using pymatgen
data_Cs3TaNbBr10N
_symmetry_space_group_name_H-M   'P 1'
_cell_length_a   7.80054200
_cell_length_b   7.80054200
_cell_length_c   20.30988400
_cell_angle_alpha   90.00000000
_cell_angle_beta   90.00000000
_cell_angle_gamma   90.00000000
_symmetry_Int_Tables_number   1
_chemical_formula_structural   Cs3TaNbBr10N
_chemical_formula_sum   'Cs6 Ta2 Nb2 Br20 N2'
_cell_volume   1235.82507266
_cell_formula_units_Z   2
loop_
 _symmetry_equiv_pos_site_id
 _symmetry_equiv_pos_as_xyz
  1  'x, y, z'
loop_
 _atom_site_type_symbol
 _atom_site_label
 _atom_site_symmetry_multiplicity
 _atom_site_fract_x
 _atom_site_fract_y
 _atom_site_fract_z
 _atom_site_occupancy
  Cs  Cs0  1  0.500000  0.500000  0.000543  1
  Cs  Cs1  1  0.000000  0.000000  0.500543  1
  Cs  Cs2  1  0.000000  0.500000  0.249152  1
  Cs  Cs3  1  0.500000  0.000000  0.749152  1
  Cs  Cs4  1  0.500000  0.000000  0.249152  1
  Cs  Cs5  1  0.000000  0.500000  0.749152  1
  Ta  Ta6  1  0.500000  0.500000  0.406330  1
  Ta  Ta7  1  0.000000  0.000000  0.906330  1
  Nb  Nb8  1  0.500000  0.500000  0.591324  1
  Nb  Nb9  1  0.000000  0.000000  0.091324  1
  Br  Br10  1  0.773099  0.679840  0.398476  1
  Br  Br11  1  0.226901  0.320160  0.398476  1
  Br  Br12  1  0.726901  0.179840  0.898476  1
  Br  Br13  1  0.273099  0.820160  0.898476  1
  Br  Br14  1  0.679840  0.226901  0.398476  1
  Br  Br15  1  0.320160  0.773099  0.398476  1
  Br  Br16  1  0.179840  0.273099  0.898476  1
  Br  Br17  1  0.820160  0.726901  0.898476  1
  Br  Br18  1  0.225133  0.318683  0.601833  1
  Br  Br19  1  0.774867  0.681317  0.601833  1
  Br  Br20  1  0.274867  0.818683  0.101833  1
  Br  Br21  1  0.725133  0.181317  0.101833  1
  Br  Br22  1  0.318683  0.774867  0.601833  1
  Br  Br23  1  0.681317  0.225133  0.601833  1
  Br  Br24  1  0.818683  0.725133  0.101833  1
  Br  Br25  1  0.181317  0.274867  0.101833  1
  Br  Br26  1  0.500000  0.500000  0.269488  1
  Br  Br27  1  0.000000  0.000000  0.769488  1
  Br  Br28  1  0.500000  0.500000  0.733200  1
  Br  Br29  1  0.000000  0.000000  0.233200  1
  N  N30  1  0.500000  0.500000  0.499574  1
  N  N31  1  0.000000  0.000000  0.999574  1
