# generated using pymatgen
data_Ba2OsO5
_symmetry_space_group_name_H-M   'P 1'
_cell_length_a   7.46913000
_cell_length_b   5.72662700
_cell_length_c   11.73826100
_cell_angle_alpha   90.00000000
_cell_angle_beta   90.00000000
_cell_angle_gamma   89.99998232
_symmetry_Int_Tables_number   1
_chemical_formula_structural   Ba2OsO5
_chemical_formula_sum   'Ba8 Os4 O20'
_cell_volume   502.07971659
_cell_formula_units_Z   4
loop_
 _symmetry_equiv_pos_site_id
 _symmetry_equiv_pos_as_xyz
  1  'x, y, z'
loop_
 _atom_site_type_symbol
 _atom_site_label
 _atom_site_symmetry_multiplicity
 _atom_site_fract_x
 _atom_site_fract_y
 _atom_site_fract_z
 _atom_site_occupancy
  Ba  Ba0  1  0.661328  0.750000  0.080964  1
  Ba  Ba1  1  0.020284  0.250000  0.215054  1
  Ba  Ba2  1  0.520284  0.250000  0.284946  1
  Ba  Ba3  1  0.161329  0.750000  0.419036  1
  Ba  Ba4  1  0.838646  0.250000  0.580781  1
  Ba  Ba5  1  0.479868  0.750000  0.715045  1
  Ba  Ba6  1  0.979867  0.750000  0.784955  1
  Ba  Ba7  1  0.338646  0.250000  0.919220  1
  Os  Os8  1  0.165543  0.750000  0.060456  1
  Os  Os9  1  0.665542  0.750000  0.439543  1
  Os  Os10  1  0.334300  0.250000  0.560510  1
  Os  Os11  1  0.834299  0.250000  0.939490  1
  O  O12  1  0.999893  0.000146  0.999954  1
  O  O13  1  0.999893  0.499855  0.999954  1
  O  O14  1  0.717603  0.250000  0.091278  1
  O  O15  1  0.320163  0.511388  0.113454  1
  O  O16  1  0.320163  0.988612  0.113454  1
  O  O17  1  0.026932  0.750000  0.196072  1
  O  O18  1  0.526932  0.750000  0.303928  1
  O  O19  1  0.820162  0.511388  0.386547  1
  O  O20  1  0.820162  0.988612  0.386547  1
  O  O21  1  0.217603  0.250000  0.408722  1
  O  O22  1  0.499894  0.000146  0.500046  1
  O  O23  1  0.499894  0.499855  0.500046  1
  O  O24  1  0.782537  0.750000  0.591464  1
  O  O25  1  0.179953  0.011652  0.613432  1
  O  O26  1  0.179952  0.488349  0.613431  1
  O  O27  1  0.472942  0.250000  0.695961  1
  O  O28  1  0.972942  0.250000  0.804039  1
  O  O29  1  0.679952  0.011652  0.886568  1
  O  O30  1  0.679951  0.488349  0.886569  1
  O  O31  1  0.282538  0.750000  0.908536  1
