# generated using pymatgen
data_LaDy11Mn2I17
_symmetry_space_group_name_H-M   'P 1'
_cell_length_a   9.73842711
_cell_length_b   11.82542924
_cell_length_c   11.73786310
_cell_angle_alpha   73.90283235
_cell_angle_beta   75.36210237
_cell_angle_gamma   65.54559777
_symmetry_Int_Tables_number   1
_chemical_formula_structural   LaDy11Mn2I17
_chemical_formula_sum   'La1 Dy11 Mn2 I17'
_cell_volume   1167.44337239
_cell_formula_units_Z   1
loop_
 _symmetry_equiv_pos_site_id
 _symmetry_equiv_pos_as_xyz
  1  'x, y, z'
loop_
 _atom_site_type_symbol
 _atom_site_label
 _atom_site_symmetry_multiplicity
 _atom_site_fract_x
 _atom_site_fract_y
 _atom_site_fract_z
 _atom_site_occupancy
  La  La0  1  0.154897  0.715650  0.155129  1
  Dy  Dy1  1  0.453404  0.488996  0.322729  1
  Dy  Dy2  1  0.552540  0.670552  0.010089  1
  Dy  Dy3  1  0.275737  0.984117  0.106357  1
  Dy  Dy4  1  0.848928  0.287642  0.845942  1
  Dy  Dy5  1  0.418578  0.242791  0.722056  1
  Dy  Dy6  1  0.723989  0.022144  0.891009  1
  Dy  Dy7  1  0.550779  0.503744  0.677948  1
  Dy  Dy8  1  0.453361  0.327739  0.985005  1
  Dy  Dy9  1  0.576309  0.755933  0.276915  1
  Dy  Dy10  1  0.817761  0.191292  0.588662  1
  Dy  Dy11  1  0.175402  0.811010  0.416626  1
  Mn  Mn12  1  0.347849  0.735831  0.207643  1
  Mn  Mn13  1  0.633155  0.262387  0.786692  1
  I  I14  1  0.055576  0.102233  0.324417  1
  I  I15  1  0.468350  0.948827  0.842023  1
  I  I16  1  0.429790  0.813333  0.530422  1
  I  I17  1  0.570855  0.186736  0.465374  1
  I  I18  1  0.835256  0.710067  0.049682  1
  I  I19  1  0.234476  0.408857  0.244947  1
  I  I20  1  0.689426  0.369990  0.101844  1
  I  I21  1  0.533268  0.045656  0.160640  1
  I  I22  1  0.741929  0.475711  0.413094  1
  I  I23  1  0.882030  0.789248  0.380085  1
  I  I24  1  0.948120  0.897366  0.675544  1
  I  I25  1  0.163817  0.289880  0.954218  1
  I  I26  1  0.320826  0.631055  0.891753  1
  I  I27  1  0.998729  0.009594  0.997778  1
  I  I28  1  0.107682  0.216699  0.633584  1
  I  I29  1  0.778219  0.578611  0.759709  1
  I  I30  1  0.258961  0.526310  0.582085  1
