# generated using pymatgen
data_La5Er2ThSb20
_symmetry_space_group_name_H-M   'P 1'
_cell_length_a   4.29574300
_cell_length_b   13.64999754
_cell_length_c   15.27987600
_cell_angle_alpha   78.82318013
_cell_angle_beta   90.00000000
_cell_angle_gamma   90.00000000
_symmetry_Int_Tables_number   1
_chemical_formula_structural   La5Er2ThSb20
_chemical_formula_sum   'La5 Er2 Th1 Sb20'
_cell_volume   878.97111046
_cell_formula_units_Z   1
loop_
 _symmetry_equiv_pos_site_id
 _symmetry_equiv_pos_as_xyz
  1  'x, y, z'
loop_
 _atom_site_type_symbol
 _atom_site_label
 _atom_site_symmetry_multiplicity
 _atom_site_fract_x
 _atom_site_fract_y
 _atom_site_fract_z
 _atom_site_occupancy
  La  La0  1  0.750000  0.332137  0.139811  1
  La  La1  1  0.250000  0.946864  0.364798  1
  La  La2  1  0.250000  0.666875  0.859314  1
  La  La3  1  0.250000  0.666683  0.576716  1
  La  La4  1  0.750000  0.053534  0.636306  1
  Er  Er5  1  0.250000  0.397908  0.769671  1
  Er  Er6  1  0.750000  0.602164  0.229761  1
  Th  Th7  1  0.750000  0.334219  0.423973  1
  Sb  Sb8  1  0.750000  0.858150  0.817095  1
  Sb  Sb9  1  0.250000  0.863154  0.675940  1
  Sb  Sb10  1  0.250000  0.152329  0.476325  1
  Sb  Sb11  1  0.750000  0.288093  0.928265  1
  Sb  Sb12  1  0.250000  0.150839  0.775091  1
  Sb  Sb13  1  0.750000  0.573633  0.441825  1
  Sb  Sb14  1  0.750000  0.139055  0.323147  1
  Sb  Sb15  1  0.250000  0.702410  0.349343  1
  Sb  Sb16  1  0.750000  0.296035  0.648161  1
  Sb  Sb17  1  0.750000  0.849116  0.224802  1
  Sb  Sb18  1  0.250000  0.420106  0.970402  1
  Sb  Sb19  1  0.250000  0.425278  0.555371  1
  Sb  Sb20  1  0.750000  0.571139  0.737329  1
  Sb  Sb21  1  0.250000  0.424130  0.267507  1
  Sb  Sb22  1  0.750000  0.855398  0.524113  1
  Sb  Sb23  1  0.750000  0.039090  0.885850  1
  Sb  Sb24  1  0.250000  0.709804  0.071231  1
  Sb  Sb25  1  0.250000  0.961757  0.115156  1
  Sb  Sb26  1  0.250000  0.142743  0.182852  1
  Sb  Sb27  1  0.750000  0.577354  0.029842  1
