# generated using pymatgen
data_Ta3Nb3Ni4(WN)2
_symmetry_space_group_name_H-M   'P 1'
_cell_length_a   8.17367285
_cell_length_b   8.17367287
_cell_length_c   8.17367300
_cell_angle_alpha   59.99999543
_cell_angle_beta   59.99999535
_cell_angle_gamma   60.00000398
_symmetry_Int_Tables_number   1
_chemical_formula_structural   Ta3Nb3Ni4(WN)2
_chemical_formula_sum   'Ta6 Nb6 Ni8 W4 N4'
_cell_volume   386.13284734
_cell_formula_units_Z   2
loop_
 _symmetry_equiv_pos_site_id
 _symmetry_equiv_pos_as_xyz
  1  'x, y, z'
loop_
 _atom_site_type_symbol
 _atom_site_label
 _atom_site_symmetry_multiplicity
 _atom_site_fract_x
 _atom_site_fract_y
 _atom_site_fract_z
 _atom_site_occupancy
  Ta  Ta0  1  0.438152  0.438152  0.061848  1
  Ta  Ta1  1  0.061848  0.061848  0.438152  1
  Ta  Ta2  1  0.438152  0.061848  0.438152  1
  Ta  Ta3  1  0.061848  0.438152  0.061848  1
  Ta  Ta4  1  0.061848  0.438152  0.438152  1
  Ta  Ta5  1  0.438152  0.061848  0.061848  1
  Nb  Nb6  1  0.812681  0.812681  0.187319  1
  Nb  Nb7  1  0.187319  0.187319  0.812681  1
  Nb  Nb8  1  0.812681  0.187319  0.812681  1
  Nb  Nb9  1  0.187319  0.812681  0.187319  1
  Nb  Nb10  1  0.187319  0.812681  0.812681  1
  Nb  Nb11  1  0.812681  0.187319  0.187319  1
  Ni  Ni12  1  0.740248  0.419917  0.419917  1
  Ni  Ni13  1  0.419917  0.740248  0.419917  1
  Ni  Ni14  1  0.419917  0.419917  0.740248  1
  Ni  Ni15  1  0.419917  0.419917  0.419917  1
  Ni  Ni16  1  0.512188  0.829271  0.829271  1
  Ni  Ni17  1  0.829271  0.512188  0.829271  1
  Ni  Ni18  1  0.829271  0.829271  0.512188  1
  Ni  Ni19  1  0.829271  0.829271  0.829271  1
  W  W20  1  0.125027  0.624991  0.624991  1
  W  W21  1  0.624991  0.125027  0.624991  1
  W  W22  1  0.624991  0.624991  0.125027  1
  W  W23  1  0.624991  0.624991  0.624991  1
  N  N24  1  0.619400  0.126867  0.126867  1
  N  N25  1  0.126867  0.619400  0.126867  1
  N  N26  1  0.126867  0.126867  0.619400  1
  N  N27  1  0.126867  0.126867  0.126867  1
