# generated using pymatgen
data_Ho3Er7Ga3NiBi2
_symmetry_space_group_name_H-M   'P 1'
_cell_length_a   8.50756996
_cell_length_b   8.50810878
_cell_length_c   8.69975506
_cell_angle_alpha   124.26988765
_cell_angle_beta   124.26566192
_cell_angle_gamma   81.28341521
_symmetry_Int_Tables_number   1
_chemical_formula_structural   Ho3Er7Ga3NiBi2
_chemical_formula_sum   'Ho3 Er7 Ga3 Ni1 Bi2'
_cell_volume   417.25584309
_cell_formula_units_Z   1
loop_
 _symmetry_equiv_pos_site_id
 _symmetry_equiv_pos_as_xyz
  1  'x, y, z'
loop_
 _atom_site_type_symbol
 _atom_site_label
 _atom_site_symmetry_multiplicity
 _atom_site_fract_x
 _atom_site_fract_y
 _atom_site_fract_z
 _atom_site_occupancy
  Ho  Ho0  1  0.296328  0.778532  0.794256  1
  Ho  Ho1  1  0.458989  0.304221  0.499972  1
  Ho  Ho2  1  0.793186  0.984672  0.500000  1
  Er  Er3  1  0.996755  0.994314  0.991153  1
  Er  Er4  1  0.505684  0.503146  0.008911  1
  Er  Er5  1  0.015867  0.498008  0.794191  1
  Er  Er6  1  0.721763  0.203898  0.205882  1
  Er  Er7  1  0.515318  0.707037  0.499969  1
  Er  Er8  1  0.195912  0.041052  0.499986  1
  Er  Er9  1  0.001989  0.484185  0.205772  1
  Ga  Ga10  1  0.351969  0.855071  0.207280  1
  Ga  Ga11  1  0.644786  0.147862  0.792835  1
  Ga  Ga12  1  0.865142  0.634547  0.499872  1
  Ni  Ni13  1  0.124023  0.375640  0.499902  1
  Bi  Bi14  1  0.756179  0.743870  0.000005  1
  Bi  Bi15  1  0.256109  0.243947  0.000015  1
