# generated using pymatgen
data_Mn11Si(W6C)2
_symmetry_space_group_name_H-M   'P 1'
_cell_length_a   7.77394217
_cell_length_b   7.77394219
_cell_length_c   7.77394341
_cell_angle_alpha   60.06109142
_cell_angle_beta   60.06109081
_cell_angle_gamma   60.06109275
_symmetry_Int_Tables_number   1
_chemical_formula_structural   Mn11Si(W6C)2
_chemical_formula_sum   'Mn11 Si1 W12 C2'
_cell_volume   332.66712308
_cell_formula_units_Z   1
loop_
 _symmetry_equiv_pos_site_id
 _symmetry_equiv_pos_as_xyz
  1  'x, y, z'
loop_
 _atom_site_type_symbol
 _atom_site_label
 _atom_site_symmetry_multiplicity
 _atom_site_fract_x
 _atom_site_fract_y
 _atom_site_fract_z
 _atom_site_occupancy
  Mn  Mn0  1  0.421680  0.421680  0.736063  1
  Mn  Mn1  1  0.421680  0.736063  0.421680  1
  Mn  Mn2  1  0.736063  0.421680  0.421680  1
  Mn  Mn3  1  0.422632  0.422632  0.422632  1
  Mn  Mn4  1  0.827572  0.827572  0.512197  1
  Mn  Mn5  1  0.827572  0.512197  0.827572  1
  Mn  Mn6  1  0.512197  0.827572  0.827572  1
  Mn  Mn7  1  0.623583  0.623583  0.124308  1
  Mn  Mn8  1  0.623583  0.124308  0.623583  1
  Mn  Mn9  1  0.124308  0.623583  0.623583  1
  Mn  Mn10  1  0.624434  0.624434  0.624434  1
  Si  Si11  1  0.831627  0.831627  0.831627  1
  W  W12  1  0.053937  0.053937  0.445685  1
  W  W13  1  0.444659  0.055427  0.444659  1
  W  W14  1  0.055427  0.444659  0.444659  1
  W  W15  1  0.444659  0.444659  0.055427  1
  W  W16  1  0.053937  0.445685  0.053937  1
  W  W17  1  0.445685  0.053937  0.053937  1
  W  W18  1  0.196209  0.196209  0.804803  1
  W  W19  1  0.804786  0.197442  0.804786  1
  W  W20  1  0.197442  0.804786  0.804786  1
  W  W21  1  0.804786  0.804786  0.197442  1
  W  W22  1  0.196209  0.804803  0.196209  1
  W  W23  1  0.804803  0.196209  0.196209  1
  C  C24  1  0.249530  0.249530  0.249530  1
  C  C25  1  0.001004  0.001004  0.001004  1
