# generated using pymatgen
data_Tb3ThAgIr
_symmetry_space_group_name_H-M   'P 1'
_cell_length_a   9.70200493
_cell_length_b   9.70200494
_cell_length_c   9.70200500
_cell_angle_alpha   60.00000320
_cell_angle_beta   60.00000315
_cell_angle_gamma   60.00000018
_symmetry_Int_Tables_number   1
_chemical_formula_structural   Tb3ThAgIr
_chemical_formula_sum   'Tb12 Th4 Ag4 Ir4'
_cell_volume   645.75756090
_cell_formula_units_Z   4
loop_
 _symmetry_equiv_pos_site_id
 _symmetry_equiv_pos_as_xyz
  1  'x, y, z'
loop_
 _atom_site_type_symbol
 _atom_site_label
 _atom_site_symmetry_multiplicity
 _atom_site_fract_x
 _atom_site_fract_y
 _atom_site_fract_z
 _atom_site_occupancy
  Tb  Tb0  1  0.061215  0.438785  0.438785  1
  Tb  Tb1  1  0.438785  0.061215  0.061215  1
  Tb  Tb2  1  0.438785  0.061215  0.438785  1
  Tb  Tb3  1  0.061215  0.438785  0.061215  1
  Tb  Tb4  1  0.438785  0.438785  0.061215  1
  Tb  Tb5  1  0.061215  0.061215  0.438785  1
  Tb  Tb6  1  0.184763  0.815237  0.815237  1
  Tb  Tb7  1  0.815237  0.184763  0.184763  1
  Tb  Tb8  1  0.815237  0.184763  0.815237  1
  Tb  Tb9  1  0.184763  0.815237  0.184763  1
  Tb  Tb10  1  0.815237  0.815237  0.184763  1
  Tb  Tb11  1  0.184763  0.184763  0.815237  1
  Th  Th12  1  0.601043  0.601043  0.601043  1
  Th  Th13  1  0.601043  0.601043  0.196872  1
  Th  Th14  1  0.601043  0.196872  0.601043  1
  Th  Th15  1  0.196872  0.601043  0.601043  1
  Ag  Ag16  1  0.832553  0.832553  0.832553  1
  Ag  Ag17  1  0.832553  0.832553  0.502341  1
  Ag  Ag18  1  0.832553  0.502341  0.832553  1
  Ag  Ag19  1  0.502341  0.832553  0.832553  1
  Ir  Ir20  1  0.393534  0.393534  0.393534  1
  Ir  Ir21  1  0.393534  0.393534  0.819400  1
  Ir  Ir22  1  0.393534  0.819400  0.393534  1
  Ir  Ir23  1  0.819400  0.393534  0.393534  1
