# generated using pymatgen
data_DyTm4(In2Rh)2
_symmetry_space_group_name_H-M   'P 1'
_cell_length_a   3.58989600
_cell_length_b   7.95341500
_cell_length_c   18.20271600
_cell_angle_alpha   90.00000000
_cell_angle_beta   90.00000000
_cell_angle_gamma   90.00000000
_symmetry_Int_Tables_number   1
_chemical_formula_structural   DyTm4(In2Rh)2
_chemical_formula_sum   'Dy2 Tm8 In8 Rh4'
_cell_volume   519.72272210
_cell_formula_units_Z   2
loop_
 _symmetry_equiv_pos_site_id
 _symmetry_equiv_pos_as_xyz
  1  'x, y, z'
loop_
 _atom_site_type_symbol
 _atom_site_label
 _atom_site_symmetry_multiplicity
 _atom_site_fract_x
 _atom_site_fract_y
 _atom_site_fract_z
 _atom_site_occupancy
  Dy  Dy0  1  0.000000  0.000000  0.000000  1
  Dy  Dy1  1  0.000000  0.500000  0.500000  1
  Tm  Tm2  1  0.000000  0.116006  0.411216  1
  Tm  Tm3  1  0.000000  0.883994  0.588784  1
  Tm  Tm4  1  0.000000  0.383994  0.911216  1
  Tm  Tm5  1  0.000000  0.616006  0.088784  1
  Tm  Tm6  1  0.000000  0.245366  0.221247  1
  Tm  Tm7  1  0.000000  0.754634  0.778753  1
  Tm  Tm8  1  0.000000  0.254634  0.721247  1
  Tm  Tm9  1  0.000000  0.745366  0.278753  1
  In  In10  1  0.500000  0.425629  0.349770  1
  In  In11  1  0.500000  0.574371  0.650230  1
  In  In12  1  0.500000  0.074371  0.849770  1
  In  In13  1  0.500000  0.925629  0.150230  1
  In  In14  1  0.500000  0.294445  0.067822  1
  In  In15  1  0.500000  0.705555  0.932178  1
  In  In16  1  0.500000  0.205555  0.567822  1
  In  In17  1  0.500000  0.794445  0.432178  1
  Rh  Rh18  1  0.500000  0.024086  0.304723  1
  Rh  Rh19  1  0.500000  0.975914  0.695277  1
  Rh  Rh20  1  0.500000  0.475914  0.804723  1
  Rh  Rh21  1  0.500000  0.524086  0.195277  1
