# generated using pymatgen
data_Ce3In2SiIr2Rh
_symmetry_space_group_name_H-M   'P 1'
_cell_length_a   7.45864100
_cell_length_b   7.45947547
_cell_length_c   3.96041500
_cell_angle_alpha   90.00000000
_cell_angle_beta   90.00000000
_cell_angle_gamma   119.99628621
_symmetry_Int_Tables_number   1
_chemical_formula_structural   Ce3In2SiIr2Rh
_chemical_formula_sum   'Ce3 In2 Si1 Ir2 Rh1'
_cell_volume   190.83392122
_cell_formula_units_Z   1
loop_
 _symmetry_equiv_pos_site_id
 _symmetry_equiv_pos_as_xyz
  1  'x, y, z'
loop_
 _atom_site_type_symbol
 _atom_site_label
 _atom_site_symmetry_multiplicity
 _atom_site_fract_x
 _atom_site_fract_y
 _atom_site_fract_z
 _atom_site_occupancy
  Ce  Ce0  1  0.435186  0.000000  0.500000  1
  Ce  Ce1  1  0.992589  0.403108  0.500000  1
  Ce  Ce2  1  0.589480  0.596892  0.500000  1
  In  In3  1  0.006857  0.755857  0.000000  1
  In  In4  1  0.251000  0.244143  0.000000  1
  Si  Si5  1  0.744776  0.000000  0.000000  1
  Ir  Ir6  1  0.360888  0.683817  0.000000  1
  Ir  Ir7  1  0.677072  0.316183  0.000000  1
  Rh  Rh8  1  0.942151  0.000000  0.500000  1
