# generated using pymatgen
data_Dy2Ho2ErSn4
_symmetry_space_group_name_H-M   'P 1'
_cell_length_a   8.01281400
_cell_length_b   8.15322800
_cell_length_c   15.42094100
_cell_angle_alpha   90.00000000
_cell_angle_beta   90.00000000
_cell_angle_gamma   90.00000000
_symmetry_Int_Tables_number   1
_chemical_formula_structural   Dy2Ho2ErSn4
_chemical_formula_sum   'Dy8 Ho8 Er4 Sn16'
_cell_volume   1007.45469354
_cell_formula_units_Z   4
loop_
 _symmetry_equiv_pos_site_id
 _symmetry_equiv_pos_as_xyz
  1  'x, y, z'
loop_
 _atom_site_type_symbol
 _atom_site_label
 _atom_site_symmetry_multiplicity
 _atom_site_fract_x
 _atom_site_fract_y
 _atom_site_fract_z
 _atom_site_occupancy
  Dy  Dy0  1  0.521413  0.320225  0.902457  1
  Dy  Dy1  1  0.021413  0.179775  0.597543  1
  Dy  Dy2  1  0.478587  0.679775  0.402457  1
  Dy  Dy3  1  0.978587  0.820225  0.097543  1
  Dy  Dy4  1  0.478587  0.679775  0.097543  1
  Dy  Dy5  1  0.978587  0.820225  0.402457  1
  Dy  Dy6  1  0.521413  0.320225  0.597543  1
  Dy  Dy7  1  0.021413  0.179775  0.902457  1
  Ho  Ho8  1  0.367701  0.836097  0.877937  1
  Ho  Ho9  1  0.867701  0.663903  0.622063  1
  Ho  Ho10  1  0.632299  0.163903  0.377937  1
  Ho  Ho11  1  0.132299  0.336097  0.122063  1
  Ho  Ho12  1  0.632299  0.163903  0.122063  1
  Ho  Ho13  1  0.132299  0.336097  0.377937  1
  Ho  Ho14  1  0.367701  0.836097  0.622063  1
  Ho  Ho15  1  0.867701  0.663903  0.877937  1
  Er  Er16  1  0.198200  0.503203  0.750000  1
  Er  Er17  1  0.698200  0.996797  0.750000  1
  Er  Er18  1  0.801800  0.496797  0.250000  1
  Er  Er19  1  0.301800  0.003203  0.250000  1
  Sn  Sn20  1  0.292794  0.035489  0.041880  1
  Sn  Sn21  1  0.792794  0.464511  0.458120  1
  Sn  Sn22  1  0.707206  0.964511  0.541880  1
  Sn  Sn23  1  0.207206  0.535489  0.958120  1
  Sn  Sn24  1  0.707206  0.964511  0.958120  1
  Sn  Sn25  1  0.207206  0.535489  0.541880  1
  Sn  Sn26  1  0.292794  0.035489  0.458120  1
  Sn  Sn27  1  0.792794  0.464511  0.041880  1
  Sn  Sn28  1  0.564887  0.619778  0.750000  1
  Sn  Sn29  1  0.064887  0.880222  0.750000  1
  Sn  Sn30  1  0.435113  0.380222  0.250000  1
  Sn  Sn31  1  0.935113  0.119778  0.250000  1
  Sn  Sn32  1  0.329712  0.147175  0.750000  1
  Sn  Sn33  1  0.829712  0.352825  0.750000  1
  Sn  Sn34  1  0.670288  0.852825  0.250000  1
  Sn  Sn35  1  0.170288  0.647175  0.250000  1
