# generated using pymatgen
data_PrThIr4
_symmetry_space_group_name_H-M   'P 1'
_cell_length_a   5.45653395
_cell_length_b   5.45653433
_cell_length_c   5.45653400
_cell_angle_alpha   60.00000199
_cell_angle_beta   59.99999968
_cell_angle_gamma   60.00000910
_symmetry_Int_Tables_number   1
_chemical_formula_structural   PrThIr4
_chemical_formula_sum   'Pr1 Th1 Ir4'
_cell_volume   114.87768007
_cell_formula_units_Z   1
loop_
 _symmetry_equiv_pos_site_id
 _symmetry_equiv_pos_as_xyz
  1  'x, y, z'
loop_
 _atom_site_type_symbol
 _atom_site_label
 _atom_site_symmetry_multiplicity
 _atom_site_fract_x
 _atom_site_fract_y
 _atom_site_fract_z
 _atom_site_occupancy
  Pr  Pr0  1  0.250000  0.250000  0.250000  1
  Th  Th1  1  0.000000  0.000000  0.000000  1
  Ir  Ir2  1  0.624865  0.624865  0.624865  1
  Ir  Ir3  1  0.125405  0.624865  0.624865  1
  Ir  Ir4  1  0.624865  0.125405  0.624865  1
  Ir  Ir5  1  0.624865  0.624865  0.125405  1
