# generated using pymatgen
data_Tm4AlTc3B16
_symmetry_space_group_name_H-M   'P 1'
_cell_length_a   3.56552700
_cell_length_b   5.93834030
_cell_length_c   11.45454345
_cell_angle_alpha   89.87877762
_cell_angle_beta   90.00000000
_cell_angle_gamma   90.00000000
_symmetry_Int_Tables_number   1
_chemical_formula_structural   Tm4AlTc3B16
_chemical_formula_sum   'Tm4 Al1 Tc3 B16'
_cell_volume   242.53008726
_cell_formula_units_Z   1
loop_
 _symmetry_equiv_pos_site_id
 _symmetry_equiv_pos_as_xyz
  1  'x, y, z'
loop_
 _atom_site_type_symbol
 _atom_site_label
 _atom_site_symmetry_multiplicity
 _atom_site_fract_x
 _atom_site_fract_y
 _atom_site_fract_z
 _atom_site_occupancy
  Tm  Tm0  1  0.000000  0.626033  0.350519  1
  Tm  Tm1  1  0.000000  0.372923  0.647363  1
  Tm  Tm2  1  0.000000  0.130188  0.153040  1
  Tm  Tm3  1  0.000000  0.873958  0.850724  1
  Al  Al4  1  0.000000  0.864220  0.587726  1
  Tc  Tc5  1  0.000000  0.635065  0.085829  1
  Tc  Tc6  1  0.000000  0.363339  0.912719  1
  Tc  Tc7  1  0.000000  0.127747  0.414784  1
  B  B8  1  0.500000  0.787246  0.186107  1
  B  B9  1  0.500000  0.210909  0.813457  1
  B  B10  1  0.500000  0.288924  0.315304  1
  B  B11  1  0.500000  0.711606  0.685661  1
  B  B12  1  0.500000  0.865631  0.031229  1
  B  B13  1  0.500000  0.134554  0.968786  1
  B  B14  1  0.500000  0.366058  0.468972  1
  B  B15  1  0.500000  0.634704  0.531697  1
  B  B16  1  0.500000  0.886332  0.450356  1
  B  B17  1  0.500000  0.118172  0.546977  1
  B  B18  1  0.500000  0.386858  0.047305  1
  B  B19  1  0.500000  0.614252  0.951837  1
  B  B20  1  0.500000  0.977686  0.307226  1
  B  B21  1  0.500000  0.022493  0.693610  1
  B  B22  1  0.500000  0.476677  0.193056  1
  B  B23  1  0.500000  0.524426  0.805716  1
