# generated using pymatgen
data_HoTm11IrOs3
_symmetry_space_group_name_H-M   'P 1'
_cell_length_a   6.28916305
_cell_length_b   7.30261557
_cell_length_c   8.92218500
_cell_angle_alpha   90.00000000
_cell_angle_beta   90.00000000
_cell_angle_gamma   90.04100877
_symmetry_Int_Tables_number   1
_chemical_formula_structural   HoTm11IrOs3
_chemical_formula_sum   'Ho1 Tm11 Ir1 Os3'
_cell_volume   409.77211878
_cell_formula_units_Z   1
loop_
 _symmetry_equiv_pos_site_id
 _symmetry_equiv_pos_as_xyz
  1  'x, y, z'
loop_
 _atom_site_type_symbol
 _atom_site_label
 _atom_site_symmetry_multiplicity
 _atom_site_fract_x
 _atom_site_fract_y
 _atom_site_fract_z
 _atom_site_occupancy
  Ho  Ho0  1  0.628554  0.039123  0.250000  1
  Tm  Tm1  1  0.332194  0.673749  0.061820  1
  Tm  Tm2  1  0.169310  0.176727  0.438824  1
  Tm  Tm3  1  0.669380  0.324956  0.562760  1
  Tm  Tm4  1  0.828444  0.823903  0.935292  1
  Tm  Tm5  1  0.669380  0.324956  0.937240  1
  Tm  Tm6  1  0.828444  0.823903  0.564708  1
  Tm  Tm7  1  0.332194  0.673749  0.438180  1
  Tm  Tm8  1  0.169310  0.176727  0.061176  1
  Tm  Tm9  1  0.871607  0.538052  0.250000  1
  Tm  Tm10  1  0.129387  0.461688  0.750000  1
  Tm  Tm11  1  0.369530  0.961260  0.750000  1
  Ir  Ir12  1  0.040847  0.883617  0.250000  1
  Os  Os13  1  0.461380  0.384886  0.250000  1
  Os  Os14  1  0.963377  0.116086  0.750000  1
  Os  Os15  1  0.536663  0.616620  0.750000  1
