# generated using pymatgen
data_Lu2Hf5PbF30
_symmetry_space_group_name_H-M   'P 1'
_cell_length_a   8.04583730
_cell_length_b   8.04583698
_cell_length_c   8.04262900
_cell_angle_alpha   79.87852437
_cell_angle_beta   79.87852478
_cell_angle_gamma   100.18649456
_symmetry_Int_Tables_number   1
_chemical_formula_structural   Lu2Hf5PbF30
_chemical_formula_sum   'Lu2 Hf5 Pb1 F30'
_cell_volume   492.83624244
_cell_formula_units_Z   1
loop_
 _symmetry_equiv_pos_site_id
 _symmetry_equiv_pos_as_xyz
  1  'x, y, z'
loop_
 _atom_site_type_symbol
 _atom_site_label
 _atom_site_symmetry_multiplicity
 _atom_site_fract_x
 _atom_site_fract_y
 _atom_site_fract_z
 _atom_site_occupancy
  Lu  Lu0  1  0.677104  0.322896  0.750000  1
  Lu  Lu1  1  0.323365  0.676635  0.250000  1
  Hf  Hf2  1  0.748709  0.251291  0.250000  1
  Hf  Hf3  1  0.823089  0.750919  0.326332  1
  Hf  Hf4  1  0.249081  0.176911  0.173668  1
  Hf  Hf5  1  0.178502  0.249274  0.674777  1
  Hf  Hf6  1  0.750726  0.821498  0.825223  1
  Pb  Pb7  1  0.251542  0.748458  0.750000  1
  F  F8  1  0.148180  0.177702  0.948629  1
  F  F9  1  0.680820  0.560331  0.851391  1
  F  F10  1  0.041591  0.655323  0.320092  1
  F  F11  1  0.659215  0.042063  0.816737  1
  F  F12  1  0.562421  0.686301  0.346701  1
  F  F13  1  0.182891  0.153363  0.446469  1
  F  F14  1  0.846637  0.817109  0.053531  1
  F  F15  1  0.313699  0.437579  0.153299  1
  F  F16  1  0.957937  0.340785  0.683263  1
  F  F17  1  0.344677  0.958409  0.179908  1
  F  F18  1  0.439669  0.319180  0.648609  1
  F  F19  1  0.822298  0.851820  0.551371  1
  F  F20  1  0.972298  0.027702  0.750000  1
  F  F21  1  0.538414  0.752886  0.025555  1
  F  F22  1  0.247114  0.461586  0.474445  1
  F  F23  1  0.455294  0.247687  0.968958  1
  F  F24  1  0.752313  0.544706  0.531042  1
  F  F25  1  0.033278  0.966722  0.250000  1
  F  F26  1  0.205126  0.724606  0.014572  1
  F  F27  1  0.223085  0.478509  0.794722  1
  F  F28  1  0.980824  0.708796  0.777431  1
  F  F29  1  0.723113  0.993138  0.277931  1
  F  F30  1  0.491040  0.222892  0.279981  1
  F  F31  1  0.724304  0.220417  0.504394  1
  F  F32  1  0.779583  0.275696  0.995606  1
  F  F33  1  0.777108  0.508960  0.220019  1
  F  F34  1  0.006862  0.276887  0.222069  1
  F  F35  1  0.291204  0.019176  0.722569  1
  F  F36  1  0.521491  0.776915  0.705278  1
  F  F37  1  0.275394  0.794874  0.485428  1
