# generated using pymatgen
data_Tm3Lu5(B6Rh)4
_symmetry_space_group_name_H-M   'P 1'
_cell_length_a   3.59782600
_cell_length_b   9.08742003
_cell_length_c   11.41206303
_cell_angle_alpha   90.00857499
_cell_angle_beta   90.00000000
_cell_angle_gamma   90.00000000
_symmetry_Int_Tables_number   1
_chemical_formula_structural   Tm3Lu5(B6Rh)4
_chemical_formula_sum   'Tm3 Lu5 B24 Rh4'
_cell_volume   373.11689498
_cell_formula_units_Z   1
loop_
 _symmetry_equiv_pos_site_id
 _symmetry_equiv_pos_as_xyz
  1  'x, y, z'
loop_
 _atom_site_type_symbol
 _atom_site_label
 _atom_site_symmetry_multiplicity
 _atom_site_fract_x
 _atom_site_fract_y
 _atom_site_fract_z
 _atom_site_occupancy
  Tm  Tm0  1  0.500000  0.321675  0.413580  1
  Tm  Tm1  1  0.500000  0.678348  0.586411  1
  Tm  Tm2  1  0.500000  0.178348  0.913624  1
  Lu  Lu3  1  0.500000  0.821399  0.086348  1
  Lu  Lu4  1  0.500000  0.444759  0.126598  1
  Lu  Lu5  1  0.500000  0.555493  0.873510  1
  Lu  Lu6  1  0.500000  0.055371  0.626639  1
  Lu  Lu7  1  0.500000  0.944563  0.373274  1
  B  B8  1  0.000000  0.107867  0.470647  1
  B  B9  1  0.000000  0.892072  0.529287  1
  B  B10  1  0.000000  0.391979  0.970654  1
  B  B11  1  0.000000  0.608572  0.029518  1
  B  B12  1  0.000000  0.132629  0.316455  1
  B  B13  1  0.000000  0.867316  0.683480  1
  B  B14  1  0.000000  0.367358  0.816581  1
  B  B15  1  0.000000  0.633000  0.183289  1
  B  B16  1  0.000000  0.053622  0.065050  1
  B  B17  1  0.000000  0.945820  0.935279  1
  B  B18  1  0.000000  0.446063  0.565055  1
  B  B19  1  0.000000  0.553966  0.434874  1
  B  B20  1  0.000000  0.482200  0.286424  1
  B  B21  1  0.000000  0.517948  0.713594  1
  B  B22  1  0.000000  0.017781  0.786516  1
  B  B23  1  0.000000  0.981730  0.213254  1
  B  B24  1  0.000000  0.250573  0.079133  1
  B  B25  1  0.000000  0.749562  0.921327  1
  B  B26  1  0.000000  0.249354  0.579075  1
  B  B27  1  0.000000  0.750636  0.420805  1
  B  B28  1  0.000000  0.295405  0.235995  1
  B  B29  1  0.000000  0.704642  0.764057  1
  B  B30  1  0.000000  0.204586  0.736092  1
  B  B31  1  0.000000  0.795531  0.263556  1
  Rh  Rh32  1  0.500000  0.139749  0.178945  1
  Rh  Rh33  1  0.500000  0.859875  0.821198  1
  Rh  Rh34  1  0.500000  0.359837  0.679191  1
  Rh  Rh35  1  0.500000  0.640371  0.320687  1
