# generated using pymatgen
data_Rb12Na8Sn4AsP11
_symmetry_space_group_name_H-M   'P 1'
_cell_length_a   10.78095421
_cell_length_b   10.77438460
_cell_length_c   15.80257966
_cell_angle_alpha   90.02798306
_cell_angle_beta   89.94170104
_cell_angle_gamma   143.02573729
_symmetry_Int_Tables_number   1
_chemical_formula_structural   Rb12Na8Sn4AsP11
_chemical_formula_sum   'Rb12 Na8 Sn4 As1 P11'
_cell_volume   1104.03131597
_cell_formula_units_Z   1
loop_
 _symmetry_equiv_pos_site_id
 _symmetry_equiv_pos_as_xyz
  1  'x, y, z'
loop_
 _atom_site_type_symbol
 _atom_site_label
 _atom_site_symmetry_multiplicity
 _atom_site_fract_x
 _atom_site_fract_y
 _atom_site_fract_z
 _atom_site_occupancy
  Rb  Rb0  1  0.940129  0.605798  0.825445  1
  Rb  Rb1  1  0.560028  0.894499  0.325657  1
  Rb  Rb2  1  0.394425  0.059979  0.175542  1
  Rb  Rb3  1  0.060496  0.393336  0.174873  1
  Rb  Rb4  1  0.894311  0.559844  0.327768  1
  Rb  Rb5  1  0.439915  0.105768  0.674114  1
  Rb  Rb6  1  0.605911  0.939791  0.825110  1
  Rb  Rb7  1  0.265687  0.265278  0.321263  1
  Rb  Rb8  1  0.764216  0.766549  0.179454  1
  Rb  Rb9  1  0.233788  0.234358  0.820375  1
  Rb  Rb10  1  0.734421  0.734420  0.678566  1
  Rb  Rb11  1  0.105816  0.440001  0.674261  1
  Na  Na12  1  0.919106  0.080720  0.999989  1
  Na  Na13  1  0.580686  0.419279  0.500061  1
  Na  Na14  1  0.081285  0.921110  0.999110  1
  Na  Na15  1  0.419278  0.580701  0.500003  1
  Na  Na16  1  0.753492  0.242759  0.999092  1
  Na  Na17  1  0.745471  0.254517  0.500065  1
  Na  Na18  1  0.248899  0.756425  0.999143  1
  Na  Na19  1  0.254546  0.745430  0.500038  1
  Sn  Sn20  1  0.583480  0.409807  0.998436  1
  Sn  Sn21  1  0.912228  0.087798  0.500041  1
  Sn  Sn22  1  0.411908  0.587874  0.999860  1
  Sn  Sn23  1  0.087859  0.912311  0.500143  1
  As  As24  1  0.879889  0.562222  0.101984  1
  P  P25  1  0.439092  0.124585  0.900772  1
  P  P26  1  0.624820  0.939591  0.598239  1
  P  P27  1  0.939330  0.624557  0.598257  1
  P  P28  1  0.124844  0.439367  0.901190  1
  P  P29  1  0.561017  0.875745  0.097949  1
  P  P30  1  0.375424  0.060754  0.402221  1
  P  P31  1  0.200976  0.201035  0.587781  1
  P  P32  1  0.700098  0.700864  0.911733  1
  P  P33  1  0.297428  0.298525  0.087167  1
  P  P34  1  0.060645  0.375255  0.401911  1
  P  P35  1  0.799055  0.799145  0.412388  1
