# generated using pymatgen
data_Ba(GaBr4)2
_symmetry_space_group_name_H-M   'P 1'
_cell_length_a   7.62382000
_cell_length_b   8.85306570
_cell_length_c   13.58769291
_cell_angle_alpha   79.23296652
_cell_angle_beta   90.00000000
_cell_angle_gamma   90.00000000
_symmetry_Int_Tables_number   1
_chemical_formula_structural   Ba(GaBr4)2
_chemical_formula_sum   'Ba2 Ga4 Br16'
_cell_volume   900.94471980
_cell_formula_units_Z   2
loop_
 _symmetry_equiv_pos_site_id
 _symmetry_equiv_pos_as_xyz
  1  'x, y, z'
loop_
 _atom_site_type_symbol
 _atom_site_label
 _atom_site_symmetry_multiplicity
 _atom_site_fract_x
 _atom_site_fract_y
 _atom_site_fract_z
 _atom_site_occupancy
  Ba  Ba0  1  0.856918  0.500000  0.750000  1
  Ba  Ba1  1  0.143082  0.500000  0.250000  1
  Ga  Ga2  1  0.272086  0.694997  0.560110  1
  Ga  Ga3  1  0.727914  0.694997  0.060110  1
  Ga  Ga4  1  0.727914  0.305003  0.439890  1
  Ga  Ga5  1  0.272086  0.305003  0.939890  1
  Br  Br6  1  0.801427  0.431005  0.106089  1
  Br  Br7  1  0.801427  0.568995  0.393911  1
  Br  Br8  1  0.277184  0.772047  0.383474  1
  Br  Br9  1  0.277184  0.227953  0.116526  1
  Br  Br10  1  0.722816  0.227953  0.616526  1
  Br  Br11  1  0.722816  0.772047  0.883474  1
  Br  Br12  1  0.055092  0.832208  0.631981  1
  Br  Br13  1  0.055092  0.167792  0.868019  1
  Br  Br14  1  0.944908  0.167792  0.368019  1
  Br  Br15  1  0.944908  0.832208  0.131981  1
  Br  Br16  1  0.552660  0.747848  0.620444  1
  Br  Br17  1  0.552660  0.252152  0.879556  1
  Br  Br18  1  0.447340  0.252152  0.379556  1
  Br  Br19  1  0.447340  0.747848  0.120444  1
  Br  Br20  1  0.198573  0.431005  0.606089  1
  Br  Br21  1  0.198573  0.568995  0.893911  1
