# generated using pymatgen
data_TcOsI18
_symmetry_space_group_name_H-M   'P 1'
_cell_length_a   10.07116548
_cell_length_b   10.07116665
_cell_length_c   10.07116698
_cell_angle_alpha   92.65143453
_cell_angle_beta   92.65142870
_cell_angle_gamma   92.65144104
_symmetry_Int_Tables_number   1
_chemical_formula_structural   TcOsI18
_chemical_formula_sum   'Tc1 Os1 I18'
_cell_volume   1018.11651004
_cell_formula_units_Z   1
loop_
 _symmetry_equiv_pos_site_id
 _symmetry_equiv_pos_as_xyz
  1  'x, y, z'
loop_
 _atom_site_type_symbol
 _atom_site_label
 _atom_site_symmetry_multiplicity
 _atom_site_fract_x
 _atom_site_fract_y
 _atom_site_fract_z
 _atom_site_occupancy
  Tc  Tc0  1  0.500000  0.500000  0.500000  1
  Os  Os1  1  0.000000  0.000000  0.000000  1
  I  I2  1  0.745642  0.130457  0.618607  1
  I  I3  1  0.985523  0.005939  0.732405  1
  I  I4  1  0.618607  0.745642  0.130457  1
  I  I5  1  0.994061  0.267595  0.014477  1
  I  I6  1  0.732405  0.985523  0.005939  1
  I  I7  1  0.005939  0.732405  0.985523  1
  I  I8  1  0.014477  0.994061  0.267595  1
  I  I9  1  0.869543  0.381393  0.254358  1
  I  I10  1  0.267595  0.014477  0.994061  1
  I  I11  1  0.254358  0.869543  0.381393  1
  I  I12  1  0.130457  0.618607  0.745642  1
  I  I13  1  0.381393  0.254358  0.869543  1
  I  I14  1  0.768692  0.534160  0.486646  1
  I  I15  1  0.534160  0.486646  0.768692  1
  I  I16  1  0.231308  0.465840  0.513354  1
  I  I17  1  0.465840  0.513354  0.231308  1
  I  I18  1  0.486646  0.768692  0.534160  1
  I  I19  1  0.513354  0.231308  0.465840  1
