# generated using pymatgen
data_PrWF7
_symmetry_space_group_name_H-M   'P 1'
_cell_length_a   5.85442100
_cell_length_b   6.29309110
_cell_length_c   8.51128667
_cell_angle_alpha   101.60897532
_cell_angle_beta   90.00000000
_cell_angle_gamma   90.00000000
_symmetry_Int_Tables_number   1
_chemical_formula_structural   PrWF7
_chemical_formula_sum   'Pr2 W2 F14'
_cell_volume   307.16167021
_cell_formula_units_Z   2
loop_
 _symmetry_equiv_pos_site_id
 _symmetry_equiv_pos_as_xyz
  1  'x, y, z'
loop_
 _atom_site_type_symbol
 _atom_site_label
 _atom_site_symmetry_multiplicity
 _atom_site_fract_x
 _atom_site_fract_y
 _atom_site_fract_z
 _atom_site_occupancy
  Pr  Pr0  1  0.701681  0.658692  0.688271  1
  Pr  Pr1  1  0.201681  0.341308  0.311729  1
  W  W2  1  0.709568  0.810454  0.223431  1
  W  W3  1  0.209568  0.189546  0.776569  1
  F  F4  1  0.888450  0.450804  0.473954  1
  F  F5  1  0.388450  0.549196  0.526046  1
  F  F6  1  0.426059  0.931758  0.770860  1
  F  F7  1  0.926059  0.068242  0.229140  1
  F  F8  1  0.947948  0.980581  0.760300  1
  F  F9  1  0.447948  0.019419  0.239700  1
  F  F10  1  0.993969  0.451934  0.789964  1
  F  F11  1  0.493969  0.548066  0.210036  1
  F  F12  1  0.700822  0.759093  0.984814  1
  F  F13  1  0.200822  0.240907  0.015186  1
  F  F14  1  0.722467  0.863236  0.463206  1
  F  F15  1  0.222467  0.136764  0.536794  1
  F  F16  1  0.485397  0.380388  0.787607  1
  F  F17  1  0.985397  0.619612  0.212393  1
