# generated using pymatgen
data_PrMgCo3P3Rh
_symmetry_space_group_name_H-M   'P 1'
_cell_length_a   3.78567600
_cell_length_b   10.68919500
_cell_length_c   12.47955700
_cell_angle_alpha   90.00000000
_cell_angle_beta   90.00000000
_cell_angle_gamma   90.00000000
_symmetry_Int_Tables_number   1
_chemical_formula_structural   PrMgCo3P3Rh
_chemical_formula_sum   'Pr4 Mg4 Co12 P12 Rh4'
_cell_volume   504.99561919
_cell_formula_units_Z   4
loop_
 _symmetry_equiv_pos_site_id
 _symmetry_equiv_pos_as_xyz
  1  'x, y, z'
loop_
 _atom_site_type_symbol
 _atom_site_label
 _atom_site_symmetry_multiplicity
 _atom_site_fract_x
 _atom_site_fract_y
 _atom_site_fract_z
 _atom_site_occupancy
  Pr  Pr0  1  0.250000  0.581816  0.707929  1
  Pr  Pr1  1  0.250000  0.918184  0.207929  1
  Pr  Pr2  1  0.750000  0.418184  0.292071  1
  Pr  Pr3  1  0.750000  0.081816  0.792071  1
  Mg  Mg4  1  0.250000  0.703893  0.991922  1
  Mg  Mg5  1  0.250000  0.796107  0.491922  1
  Mg  Mg6  1  0.750000  0.296107  0.008078  1
  Mg  Mg7  1  0.750000  0.203893  0.508078  1
  Co  Co8  1  0.250000  0.219951  0.177642  1
  Co  Co9  1  0.250000  0.280049  0.677642  1
  Co  Co10  1  0.750000  0.780049  0.822358  1
  Co  Co11  1  0.750000  0.719951  0.322358  1
  Co  Co12  1  0.250000  0.882820  0.695452  1
  Co  Co13  1  0.250000  0.617180  0.195452  1
  Co  Co14  1  0.750000  0.117180  0.304548  1
  Co  Co15  1  0.750000  0.382820  0.804548  1
  Co  Co16  1  0.250000  0.468006  0.935015  1
  Co  Co17  1  0.250000  0.031994  0.435015  1
  Co  Co18  1  0.750000  0.531994  0.064985  1
  Co  Co19  1  0.750000  0.968006  0.564985  1
  P  P20  1  0.250000  0.424945  0.113441  1
  P  P21  1  0.250000  0.075055  0.613441  1
  P  P22  1  0.750000  0.575055  0.886559  1
  P  P23  1  0.750000  0.924945  0.386559  1
  P  P24  1  0.250000  0.281313  0.855691  1
  P  P25  1  0.250000  0.218687  0.355691  1
  P  P26  1  0.750000  0.718687  0.144309  1
  P  P27  1  0.750000  0.781313  0.644309  1
  P  P28  1  0.250000  0.603910  0.379019  1
  P  P29  1  0.250000  0.896090  0.879019  1
  P  P30  1  0.750000  0.396090  0.620981  1
  P  P31  1  0.750000  0.103910  0.120981  1
  Rh  Rh32  1  0.250000  0.399736  0.486863  1
  Rh  Rh33  1  0.250000  0.100264  0.986863  1
  Rh  Rh34  1  0.750000  0.600264  0.513137  1
  Rh  Rh35  1  0.750000  0.899736  0.013137  1
