# generated using pymatgen
data_TmTh3Al4(Ga7Ir3)2
_symmetry_space_group_name_H-M   'P 1'
_cell_length_a   7.66182276
_cell_length_b   7.67796620
_cell_length_c   9.47853000
_cell_angle_alpha   90.00000000
_cell_angle_beta   90.00000000
_cell_angle_gamma   119.72649807
_symmetry_Int_Tables_number   1
_chemical_formula_structural   TmTh3Al4(Ga7Ir3)2
_chemical_formula_sum   'Tm1 Th3 Al4 Ga14 Ir6'
_cell_volume   484.21723391
_cell_formula_units_Z   1
loop_
 _symmetry_equiv_pos_site_id
 _symmetry_equiv_pos_as_xyz
  1  'x, y, z'
loop_
 _atom_site_type_symbol
 _atom_site_label
 _atom_site_symmetry_multiplicity
 _atom_site_fract_x
 _atom_site_fract_y
 _atom_site_fract_z
 _atom_site_occupancy
  Tm  Tm0  1  0.328250  0.002125  0.750000  1
  Th  Th1  1  0.998275  0.670333  0.250000  1
  Th  Th2  1  0.000126  0.329802  0.750000  1
  Th  Th3  1  0.669748  0.997410  0.250000  1
  Al  Al4  1  0.335112  0.331103  0.556171  1
  Al  Al5  1  0.664344  0.664179  0.451102  1
  Al  Al6  1  0.664344  0.664179  0.048898  1
  Al  Al7  1  0.335112  0.331103  0.943829  1
  Ga  Ga8  1  0.135813  0.132527  0.250000  1
  Ga  Ga9  1  0.871899  0.869411  0.750000  1
  Ga  Ga10  1  0.005032  0.335171  0.078828  1
  Ga  Ga11  1  0.002419  0.671184  0.917894  1
  Ga  Ga12  1  0.002419  0.671184  0.582106  1
  Ga  Ga13  1  0.335004  0.003258  0.428159  1
  Ga  Ga14  1  0.005032  0.335171  0.421172  1
  Ga  Ga15  1  0.658233  0.996192  0.582131  1
  Ga  Ga16  1  0.658233  0.996192  0.917869  1
  Ga  Ga17  1  0.335004  0.003258  0.071841  1
  Ga  Ga18  1  0.348885  0.546023  0.250000  1
  Ga  Ga19  1  0.648628  0.447288  0.750000  1
  Ga  Ga20  1  0.545623  0.345128  0.250000  1
  Ga  Ga21  1  0.452648  0.656973  0.750000  1
  Ir  Ir22  1  0.672932  0.331762  0.999973  1
  Ir  Ir23  1  0.329071  0.668167  0.000083  1
  Ir  Ir24  1  0.329071  0.668167  0.499917  1
  Ir  Ir25  1  0.672932  0.331762  0.500027  1
  Ir  Ir26  1  0.997907  0.000475  0.000285  1
  Ir  Ir27  1  0.997907  0.000475  0.499715  1
