# generated using pymatgen
data_ErTm11TlZnCo4
_symmetry_space_group_name_H-M   'P 1'
_cell_length_a   8.20372655
_cell_length_b   8.20372556
_cell_length_c   8.20318253
_cell_angle_alpha   110.35527065
_cell_angle_beta   111.55536105
_cell_angle_gamma   106.54731442
_symmetry_Int_Tables_number   1
_chemical_formula_structural   ErTm11TlZnCo4
_chemical_formula_sum   'Er1 Tm11 Tl1 Zn1 Co4'
_cell_volume   424.10448573
_cell_formula_units_Z   1
loop_
 _symmetry_equiv_pos_site_id
 _symmetry_equiv_pos_as_xyz
  1  'x, y, z'
loop_
 _atom_site_type_symbol
 _atom_site_label
 _atom_site_symmetry_multiplicity
 _atom_site_fract_x
 _atom_site_fract_y
 _atom_site_fract_z
 _atom_site_occupancy
  Er  Er0  1  0.287271  0.185337  0.472608  1
  Tm  Tm1  1  0.712882  0.814919  0.527801  1
  Tm  Tm2  1  0.287139  0.814696  0.101834  1
  Tm  Tm3  1  0.713075  0.185088  0.898163  1
  Tm  Tm4  1  0.618468  0.315057  0.303138  1
  Tm  Tm5  1  0.381764  0.685397  0.696910  1
  Tm  Tm6  1  0.011513  0.315147  0.696910  1
  Tm  Tm7  1  0.988080  0.684670  0.303138  1
  Tm  Tm8  1  0.224088  0.428470  0.204013  1
  Tm  Tm9  1  0.776475  0.572258  0.796166  1
  Tm  Tm10  1  0.223908  0.019691  0.796166  1
  Tm  Tm11  1  0.775542  0.979925  0.204013  1
  Tl  Tl12  1  0.499977  0.499888  0.999864  1
  Zn  Zn13  1  0.999548  0.000081  0.999629  1
  Co  Co14  1  0.999707  0.376133  0.375838  1
  Co  Co15  1  0.000131  0.623953  0.624084  1
  Co  Co16  1  0.386371  0.885799  0.499862  1
  Co  Co17  1  0.614062  0.113491  0.499862  1
