# generated using pymatgen
data_Tm5CrAsO12
_symmetry_space_group_name_H-M   'P 1'
_cell_length_a   6.73063280
_cell_length_b   6.73063364
_cell_length_c   7.16531900
_cell_angle_alpha   74.54303114
_cell_angle_beta   74.54303802
_cell_angle_gamma   50.88869937
_symmetry_Int_Tables_number   1
_chemical_formula_structural   Tm5CrAsO12
_chemical_formula_sum   'Tm5 Cr1 As1 O12'
_cell_volume   240.64391968
_cell_formula_units_Z   1
loop_
 _symmetry_equiv_pos_site_id
 _symmetry_equiv_pos_as_xyz
  1  'x, y, z'
loop_
 _atom_site_type_symbol
 _atom_site_label
 _atom_site_symmetry_multiplicity
 _atom_site_fract_x
 _atom_site_fract_y
 _atom_site_fract_z
 _atom_site_occupancy
  Tm  Tm0  1  0.300585  0.304722  0.360116  1
  Tm  Tm1  1  0.695278  0.699415  0.639884  1
  Tm  Tm2  1  0.307788  0.304137  0.832406  1
  Tm  Tm3  1  0.695863  0.692212  0.167594  1
  Tm  Tm4  1  0.993655  0.006345  0.500000  1
  Cr  Cr5  1  0.241359  0.758641  0.000000  1
  As  As6  1  0.755168  0.244832  0.000000  1
  O  O7  1  0.899126  0.417549  0.920002  1
  O  O8  1  0.428267  0.896444  0.920168  1
  O  O9  1  0.103556  0.571733  0.079832  1
  O  O10  1  0.582451  0.100874  0.079998  1
  O  O11  1  0.095451  0.599411  0.577449  1
  O  O12  1  0.595320  0.098119  0.574392  1
  O  O13  1  0.901881  0.404680  0.425608  1
  O  O14  1  0.400589  0.904549  0.422551  1
  O  O15  1  0.989824  0.010846  0.821483  1
  O  O16  1  0.989154  0.010176  0.178517  1
  O  O17  1  0.511961  0.487276  0.819321  1
  O  O18  1  0.512724  0.488039  0.180679  1
