# generated using pymatgen
data_Gd7DyEr2(SiB4)4
_symmetry_space_group_name_H-M   'P 1'
_cell_length_a   7.25582076
_cell_length_b   7.25484681
_cell_length_c   8.14055006
_cell_angle_alpha   90.01386446
_cell_angle_beta   90.00218971
_cell_angle_gamma   90.05228627
_symmetry_Int_Tables_number   1
_chemical_formula_structural   Gd7DyEr2(SiB4)4
_chemical_formula_sum   'Gd7 Dy1 Er2 Si4 B16'
_cell_volume   428.51728984
_cell_formula_units_Z   1
loop_
 _symmetry_equiv_pos_site_id
 _symmetry_equiv_pos_as_xyz
  1  'x, y, z'
loop_
 _atom_site_type_symbol
 _atom_site_label
 _atom_site_symmetry_multiplicity
 _atom_site_fract_x
 _atom_site_fract_y
 _atom_site_fract_z
 _atom_site_occupancy
  Gd  Gd0  1  0.680904  0.180861  0.225877  1
  Gd  Gd1  1  0.319583  0.819633  0.774446  1
  Gd  Gd2  1  0.319143  0.819533  0.226070  1
  Gd  Gd3  1  0.819738  0.680208  0.226248  1
  Gd  Gd4  1  0.819754  0.680299  0.774412  1
  Gd  Gd5  1  0.680427  0.180380  0.774234  1
  Gd  Gd6  1  0.180252  0.319720  0.774013  1
  Dy  Dy7  1  0.180327  0.319731  0.223178  1
  Er  Er8  1  0.000220  0.000053  0.499714  1
  Er  Er9  1  0.499934  0.499865  0.499707  1
  Si  Si10  1  0.115623  0.614430  0.498945  1
  Si  Si11  1  0.885524  0.384355  0.498952  1
  Si  Si12  1  0.384184  0.115863  0.499183  1
  Si  Si13  1  0.614718  0.885347  0.499501  1
  B  B14  1  0.172641  0.039473  0.000195  1
  B  B15  1  0.827580  0.960844  0.000408  1
  B  B16  1  0.961012  0.172584  0.000231  1
  B  B17  1  0.327333  0.539000  0.000176  1
  B  B18  1  0.039243  0.827601  0.000425  1
  B  B19  1  0.672301  0.460760  0.000464  1
  B  B20  1  0.539080  0.672429  0.000342  1
  B  B21  1  0.460478  0.327349  0.000251  1
  B  B22  1  0.089968  0.589769  0.000651  1
  B  B23  1  0.910144  0.409947  0.000662  1
  B  B24  1  0.410049  0.089959  0.000141  1
  B  B25  1  0.589896  0.910105  0.000183  1
  B  B26  1  0.000339  0.000380  0.160984  1
  B  B27  1  0.000040  0.999861  0.839721  1
  B  B28  1  0.500074  0.499932  0.839713  1
  B  B29  1  0.499490  0.499730  0.160974  1
