# generated using pymatgen
data_Tb2Dy2Zn3Ga5Ag4
_symmetry_space_group_name_H-M   'P 1'
_cell_length_a   4.33141700
_cell_length_b   6.96267204
_cell_length_c   10.33116300
_cell_angle_alpha   90.00597872
_cell_angle_beta   90.00000000
_cell_angle_gamma   90.00000000
_symmetry_Int_Tables_number   1
_chemical_formula_structural   Tb2Dy2Zn3Ga5Ag4
_chemical_formula_sum   'Tb2 Dy2 Zn3 Ga5 Ag4'
_cell_volume   311.56965058
_cell_formula_units_Z   1
loop_
 _symmetry_equiv_pos_site_id
 _symmetry_equiv_pos_as_xyz
  1  'x, y, z'
loop_
 _atom_site_type_symbol
 _atom_site_label
 _atom_site_symmetry_multiplicity
 _atom_site_fract_x
 _atom_site_fract_y
 _atom_site_fract_z
 _atom_site_occupancy
  Tb  Tb0  1  0.750000  0.215672  0.170008  1
  Tb  Tb1  1  0.750000  0.720404  0.328417  1
  Dy  Dy2  1  0.250000  0.781207  0.828434  1
  Dy  Dy3  1  0.250000  0.281923  0.673197  1
  Zn  Zn4  1  0.250000  0.922902  0.148252  1
  Zn  Zn5  1  0.750000  0.076645  0.850149  1
  Zn  Zn6  1  0.750000  0.577776  0.651394  1
  Ga  Ga7  1  0.250000  0.424124  0.347910  1
  Ga  Ga8  1  0.250000  0.702745  0.539052  1
  Ga  Ga9  1  0.750000  0.297217  0.467033  1
  Ga  Ga10  1  0.750000  0.797819  0.036877  1
  Ga  Ga11  1  0.250000  0.200282  0.962326  1
  Ag  Ag12  1  0.250000  0.541366  0.097442  1
  Ag  Ag13  1  0.750000  0.459546  0.899424  1
  Ag  Ag14  1  0.750000  0.959457  0.600709  1
  Ag  Ag15  1  0.250000  0.040915  0.399378  1
