# generated using pymatgen
data_Y3Er5B24(IrRu)2
_symmetry_space_group_name_H-M   'P 1'
_cell_length_a   3.64243400
_cell_length_b   9.15042467
_cell_length_c   11.48541716
_cell_angle_alpha   90.04759761
_cell_angle_beta   90.00000000
_cell_angle_gamma   90.00000000
_symmetry_Int_Tables_number   1
_chemical_formula_structural   Y3Er5B24(IrRu)2
_chemical_formula_sum   'Y3 Er5 B24 Ir2 Ru2'
_cell_volume   382.80673052
_cell_formula_units_Z   1
loop_
 _symmetry_equiv_pos_site_id
 _symmetry_equiv_pos_as_xyz
  1  'x, y, z'
loop_
 _atom_site_type_symbol
 _atom_site_label
 _atom_site_symmetry_multiplicity
 _atom_site_fract_x
 _atom_site_fract_y
 _atom_site_fract_z
 _atom_site_occupancy
  Y  Y0  1  0.000000  0.318646  0.412227  1
  Y  Y1  1  0.000000  0.681363  0.587881  1
  Y  Y2  1  0.000000  0.822648  0.084975  1
  Er  Er3  1  0.000000  0.177326  0.915179  1
  Er  Er4  1  0.000000  0.945657  0.372530  1
  Er  Er5  1  0.000000  0.054449  0.627494  1
  Er  Er6  1  0.000000  0.441969  0.125668  1
  Er  Er7  1  0.000000  0.557752  0.874164  1
  B  B8  1  0.500000  0.553078  0.433450  1
  B  B9  1  0.500000  0.446684  0.566777  1
  B  B10  1  0.500000  0.054568  0.066423  1
  B  B11  1  0.500000  0.946411  0.932990  1
  B  B12  1  0.500000  0.750960  0.419823  1
  B  B13  1  0.500000  0.248998  0.580435  1
  B  B14  1  0.500000  0.248225  0.079677  1
  B  B15  1  0.500000  0.751850  0.919569  1
  B  B16  1  0.500000  0.792605  0.265747  1
  B  B17  1  0.500000  0.207121  0.734807  1
  B  B18  1  0.500000  0.291488  0.233877  1
  B  B19  1  0.500000  0.708562  0.765926  1
  B  B20  1  0.500000  0.630970  0.183970  1
  B  B21  1  0.500000  0.368408  0.816363  1
  B  B22  1  0.500000  0.131508  0.314771  1
  B  B23  1  0.500000  0.868757  0.685220  1
  B  B24  1  0.500000  0.983684  0.212770  1
  B  B25  1  0.500000  0.017141  0.787354  1
  B  B26  1  0.500000  0.481605  0.286084  1
  B  B27  1  0.500000  0.518088  0.714004  1
  B  B28  1  0.500000  0.608965  0.030078  1
  B  B29  1  0.500000  0.390220  0.969647  1
  B  B30  1  0.500000  0.107941  0.470765  1
  B  B31  1  0.500000  0.892166  0.529288  1
  Ir  Ir32  1  0.000000  0.637653  0.321459  1
  Ir  Ir33  1  0.000000  0.361909  0.678939  1
  Ru  Ru34  1  0.000000  0.138112  0.178825  1
  Ru  Ru35  1  0.000000  0.862513  0.820847  1
