# generated using pymatgen
data_Ho2PaMn(Co4P3)2
_symmetry_space_group_name_H-M   'P 1'
_cell_length_a   3.70470200
_cell_length_b   10.57392900
_cell_length_c   12.16372100
_cell_angle_alpha   90.00000000
_cell_angle_beta   90.00000000
_cell_angle_gamma   90.00000000
_symmetry_Int_Tables_number   1
_chemical_formula_structural   Ho2PaMn(Co4P3)2
_chemical_formula_sum   'Ho4 Pa2 Mn2 Co16 P12'
_cell_volume   476.49255560
_cell_formula_units_Z   2
loop_
 _symmetry_equiv_pos_site_id
 _symmetry_equiv_pos_as_xyz
  1  'x, y, z'
loop_
 _atom_site_type_symbol
 _atom_site_label
 _atom_site_symmetry_multiplicity
 _atom_site_fract_x
 _atom_site_fract_y
 _atom_site_fract_z
 _atom_site_occupancy
  Ho  Ho0  1  0.500000  0.815742  0.204316  1
  Ho  Ho1  1  0.500000  0.184258  0.204316  1
  Ho  Ho2  1  0.000000  0.684258  0.795684  1
  Ho  Ho3  1  0.000000  0.315742  0.795684  1
  Pa  Pa4  1  0.000000  0.500000  0.529474  1
  Pa  Pa5  1  0.500000  0.000000  0.470526  1
  Mn  Mn6  1  0.500000  0.500000  0.153063  1
  Mn  Mn7  1  0.000000  0.000000  0.846937  1
  Co  Co8  1  0.000000  0.500000  0.984367  1
  Co  Co9  1  0.500000  0.000000  0.015633  1
  Co  Co10  1  0.500000  0.300814  0.432345  1
  Co  Co11  1  0.500000  0.699186  0.432345  1
  Co  Co12  1  0.000000  0.199186  0.567655  1
  Co  Co13  1  0.000000  0.800814  0.567655  1
  Co  Co14  1  0.500000  0.879563  0.709327  1
  Co  Co15  1  0.500000  0.120437  0.709327  1
  Co  Co16  1  0.000000  0.620437  0.290673  1
  Co  Co17  1  0.000000  0.379563  0.290673  1
  Co  Co18  1  0.500000  0.333425  0.993461  1
  Co  Co19  1  0.500000  0.666575  0.993461  1
  Co  Co20  1  0.000000  0.166575  0.006539  1
  Co  Co21  1  0.000000  0.833425  0.006539  1
  Co  Co22  1  0.500000  0.500000  0.695254  1
  Co  Co23  1  0.000000  0.000000  0.304746  1
  P  P24  1  0.500000  0.306340  0.617271  1
  P  P25  1  0.500000  0.693660  0.617271  1
  P  P26  1  0.000000  0.193660  0.382729  1
  P  P27  1  0.000000  0.806340  0.382729  1
  P  P28  1  0.500000  0.500000  0.878810  1
  P  P29  1  0.000000  0.000000  0.121190  1
  P  P30  1  0.500000  0.846025  0.894353  1
  P  P31  1  0.500000  0.153975  0.894353  1
  P  P32  1  0.000000  0.653975  0.105647  1
  P  P33  1  0.000000  0.346025  0.105647  1
  P  P34  1  0.500000  0.500000  0.345777  1
  P  P35  1  0.000000  0.000000  0.654223  1
