# generated using pymatgen
data_Ho10Co4IrRh
_symmetry_space_group_name_H-M   'P 1'
_cell_length_a   7.07719215
_cell_length_b   7.07719208
_cell_length_c   8.72338964
_cell_angle_alpha   113.93152292
_cell_angle_beta   113.93152077
_cell_angle_gamma   90.00000937
_symmetry_Int_Tables_number   1
_chemical_formula_structural   Ho10Co4IrRh
_chemical_formula_sum   'Ho10 Co4 Ir1 Rh1'
_cell_volume   357.88027118
_cell_formula_units_Z   1
loop_
 _symmetry_equiv_pos_site_id
 _symmetry_equiv_pos_as_xyz
  1  'x, y, z'
loop_
 _atom_site_type_symbol
 _atom_site_label
 _atom_site_symmetry_multiplicity
 _atom_site_fract_x
 _atom_site_fract_y
 _atom_site_fract_z
 _atom_site_occupancy
  Ho  Ho0  1  0.000068  0.000068  0.000136  1
  Ho  Ho1  1  0.499932  0.499932  0.999864  1
  Ho  Ho2  1  0.462767  0.318343  0.283334  1
  Ho  Ho3  1  0.964992  0.462767  0.283334  1
  Ho  Ho4  1  0.318343  0.820566  0.283334  1
  Ho  Ho5  1  0.820566  0.964992  0.283334  1
  Ho  Ho6  1  0.181657  0.037233  0.716665  1
  Ho  Ho7  1  0.679432  0.181657  0.716665  1
  Ho  Ho8  1  0.037233  0.535008  0.716665  1
  Ho  Ho9  1  0.535008  0.679432  0.716665  1
  Co  Co10  1  0.612242  0.112242  0.000000  1
  Co  Co11  1  0.112242  0.387759  0.000000  1
  Co  Co12  1  0.887758  0.612242  0.000000  1
  Co  Co13  1  0.387759  0.887758  0.000000  1
  Ir  Ir14  1  0.250000  0.250000  0.500000  1
  Rh  Rh15  1  0.750000  0.750000  0.500000  1
