# generated using pymatgen
data_LiZr6Zn22Si
_symmetry_space_group_name_H-M   'P 1'
_cell_length_a   8.76706474
_cell_length_b   8.76706436
_cell_length_c   8.76706500
_cell_angle_alpha   60.00000135
_cell_angle_beta   60.00000281
_cell_angle_gamma   59.99999824
_symmetry_Int_Tables_number   1
_chemical_formula_structural   LiZr6Zn22Si
_chemical_formula_sum   'Li1 Zr6 Zn22 Si1'
_cell_volume   476.48325730
_cell_formula_units_Z   1
loop_
 _symmetry_equiv_pos_site_id
 _symmetry_equiv_pos_as_xyz
  1  'x, y, z'
loop_
 _atom_site_type_symbol
 _atom_site_label
 _atom_site_symmetry_multiplicity
 _atom_site_fract_x
 _atom_site_fract_y
 _atom_site_fract_z
 _atom_site_occupancy
  Li  Li0  1  0.000000  0.000000  0.000000  1
  Zr  Zr1  1  0.711414  0.288586  0.288586  1
  Zr  Zr2  1  0.288586  0.711414  0.711414  1
  Zr  Zr3  1  0.288586  0.711414  0.288586  1
  Zr  Zr4  1  0.711414  0.288586  0.711414  1
  Zr  Zr5  1  0.288586  0.288586  0.711414  1
  Zr  Zr6  1  0.711414  0.711414  0.288586  1
  Zn  Zn7  1  0.122290  0.122290  0.122290  1
  Zn  Zn8  1  0.877710  0.877710  0.877710  1
  Zn  Zn9  1  0.122290  0.122290  0.633132  1
  Zn  Zn10  1  0.122290  0.633132  0.122290  1
  Zn  Zn11  1  0.877710  0.877710  0.366868  1
  Zn  Zn12  1  0.877710  0.366868  0.877710  1
  Zn  Zn13  1  0.633132  0.122290  0.122290  1
  Zn  Zn14  1  0.366868  0.877710  0.877710  1
  Zn  Zn15  1  0.500000  0.000000  0.000000  1
  Zn  Zn16  1  0.000000  0.500000  0.500000  1
  Zn  Zn17  1  0.000000  0.500000  0.000000  1
  Zn  Zn18  1  0.500000  0.000000  0.500000  1
  Zn  Zn19  1  0.000000  0.000000  0.500000  1
  Zn  Zn20  1  0.500000  0.500000  0.000000  1
  Zn  Zn21  1  0.335758  0.335758  0.335758  1
  Zn  Zn22  1  0.664242  0.664242  0.664242  1
  Zn  Zn23  1  0.335758  0.335758  0.992727  1
  Zn  Zn24  1  0.335758  0.992727  0.335758  1
  Zn  Zn25  1  0.664242  0.664242  0.007273  1
  Zn  Zn26  1  0.664242  0.007273  0.664242  1
  Zn  Zn27  1  0.992727  0.335758  0.335758  1
  Zn  Zn28  1  0.007273  0.664242  0.664242  1
  Si  Si29  1  0.500000  0.500000  0.500000  1
