# generated using pymatgen
data_Gd3Dy5(Si3Rh4)2
_symmetry_space_group_name_H-M   'P 1'
_cell_length_a   10.68791974
_cell_length_b   10.69153340
_cell_length_c   7.69755800
_cell_angle_alpha   71.26945439
_cell_angle_beta   71.27340878
_cell_angle_gamma   29.79147829
_symmetry_Int_Tables_number   1
_chemical_formula_structural   Gd3Dy5(Si3Rh4)2
_chemical_formula_sum   'Gd3 Dy5 Si6 Rh8'
_cell_volume   412.19879219
_cell_formula_units_Z   1
loop_
 _symmetry_equiv_pos_site_id
 _symmetry_equiv_pos_as_xyz
  1  'x, y, z'
loop_
 _atom_site_type_symbol
 _atom_site_label
 _atom_site_symmetry_multiplicity
 _atom_site_fract_x
 _atom_site_fract_y
 _atom_site_fract_z
 _atom_site_occupancy
  Gd  Gd0  1  0.074533  0.790796  0.667303  1
  Gd  Gd1  1  0.208951  0.925561  0.832742  1
  Gd  Gd2  1  0.790426  0.549398  0.600604  1
  Dy  Dy3  1  0.209999  0.450393  0.398990  1
  Dy  Dy4  1  0.549676  0.790139  0.100744  1
  Dy  Dy5  1  0.450575  0.209724  0.899599  1
  Dy  Dy6  1  0.925645  0.209596  0.332129  1
  Dy  Dy7  1  0.790303  0.074221  0.167678  1
  Si  Si8  1  0.636141  0.363361  0.750253  1
  Si  Si9  1  0.364210  0.635795  0.249828  1
  Si  Si10  1  0.295636  0.048813  0.444346  1
  Si  Si11  1  0.951706  0.704051  0.055158  1
  Si  Si12  1  0.703497  0.952517  0.554332  1
  Si  Si13  1  0.048122  0.296019  0.946286  1
  Rh  Rh14  1  0.299016  0.574424  0.021645  1
  Rh  Rh15  1  0.575822  0.298426  0.518843  1
  Rh  Rh16  1  0.701461  0.423891  0.981614  1
  Rh  Rh17  1  0.070821  0.371598  0.191254  1
  Rh  Rh18  1  0.627620  0.930568  0.307459  1
  Rh  Rh19  1  0.425037  0.700907  0.478347  1
  Rh  Rh20  1  0.929248  0.628561  0.808396  1
  Rh  Rh21  1  0.371554  0.071243  0.692452  1
