# generated using pymatgen
data_Co8Re2Mo3W11C4
_symmetry_space_group_name_H-M   'P 1'
_cell_length_a   8.01340760
_cell_length_b   7.98505006
_cell_length_c   7.98440054
_cell_angle_alpha   59.71239356
_cell_angle_beta   59.81505777
_cell_angle_gamma   59.82494999
_symmetry_Int_Tables_number   1
_chemical_formula_structural   Co8Re2Mo3W11C4
_chemical_formula_sum   'Co8 Re2 Mo3 W11 C4'
_cell_volume   359.49058747
_cell_formula_units_Z   1
loop_
 _symmetry_equiv_pos_site_id
 _symmetry_equiv_pos_as_xyz
  1  'x, y, z'
loop_
 _atom_site_type_symbol
 _atom_site_label
 _atom_site_symmetry_multiplicity
 _atom_site_fract_x
 _atom_site_fract_y
 _atom_site_fract_z
 _atom_site_occupancy
  Co  Co0  1  0.919401  0.241584  0.919661  1
  Co  Co1  1  0.247057  0.917609  0.917935  1
  Co  Co2  1  0.919557  0.919668  0.241497  1
  Co  Co3  1  0.003128  0.332091  0.332135  1
  Co  Co4  1  0.330414  0.008558  0.330368  1
  Co  Co5  1  0.917591  0.917698  0.917692  1
  Co  Co6  1  0.332498  0.332434  0.332085  1
  Co  Co7  1  0.330545  0.330528  0.008458  1
  Re  Re8  1  0.625071  0.125077  0.124909  1
  Re  Re9  1  0.124980  0.124986  0.125062  1
  Mo  Mo10  1  0.562942  0.938769  0.559170  1
  Mo  Mo11  1  0.687158  0.311150  0.690793  1
  Mo  Mo12  1  0.687028  0.690813  0.311424  1
  W  W13  1  0.311609  0.310433  0.690912  1
  W  W14  1  0.691104  0.308592  0.309110  1
  W  W15  1  0.313786  0.686842  0.686853  1
  W  W16  1  0.936147  0.563242  0.563168  1
  W  W17  1  0.125008  0.124990  0.624960  1
  W  W18  1  0.938428  0.939625  0.559035  1
  W  W19  1  0.311378  0.690925  0.310667  1
  W  W20  1  0.562831  0.558981  0.938739  1
  W  W21  1  0.938548  0.559151  0.939332  1
  W  W22  1  0.124933  0.625064  0.124970  1
  W  W23  1  0.559010  0.941315  0.940932  1
  C  C24  1  0.624972  0.624968  0.625077  1
  C  C25  1  0.124899  0.625015  0.625034  1
  C  C26  1  0.625004  0.124926  0.625036  1
  C  C27  1  0.624973  0.624966  0.124988  1
