# generated using pymatgen
data_TbEr(WF7)2
_symmetry_space_group_name_H-M   'P 1'
_cell_length_a   5.72605711
_cell_length_b   9.10822004
_cell_length_c   12.26850600
_cell_angle_alpha   63.74007993
_cell_angle_beta   89.98888317
_cell_angle_gamma   90.07815455
_symmetry_Int_Tables_number   1
_chemical_formula_structural   TbEr(WF7)2
_chemical_formula_sum   'Tb2 Er2 W4 F28'
_cell_volume   573.81781648
_cell_formula_units_Z   2
loop_
 _symmetry_equiv_pos_site_id
 _symmetry_equiv_pos_as_xyz
  1  'x, y, z'
loop_
 _atom_site_type_symbol
 _atom_site_label
 _atom_site_symmetry_multiplicity
 _atom_site_fract_x
 _atom_site_fract_y
 _atom_site_fract_z
 _atom_site_occupancy
  Tb  Tb0  1  0.761233  0.185690  0.233840  1
  Tb  Tb1  1  0.238767  0.814310  0.766160  1
  Er  Er2  1  0.261905  0.813099  0.266344  1
  Er  Er3  1  0.738095  0.186901  0.733656  1
  W  W4  1  0.755236  0.729170  0.044249  1
  W  W5  1  0.244764  0.270830  0.955751  1
  W  W6  1  0.255078  0.273480  0.457814  1
  W  W7  1  0.744922  0.726520  0.542186  1
  F  F8  1  0.961795  0.708409  0.420746  1
  F  F9  1  0.038205  0.291591  0.579254  1
  F  F10  1  0.461211  0.290060  0.077039  1
  F  F11  1  0.538789  0.709940  0.922961  1
  F  F12  1  0.476403  0.734886  0.149937  1
  F  F13  1  0.523597  0.265114  0.850063  1
  F  F14  1  0.977317  0.265870  0.352719  1
  F  F15  1  0.022683  0.734130  0.647281  1
  F  F16  1  0.967449  0.752461  0.167159  1
  F  F17  1  0.032551  0.247539  0.832841  1
  F  F18  1  0.465151  0.248925  0.335006  1
  F  F19  1  0.534849  0.751075  0.664994  1
  F  F20  1  0.760865  0.485036  0.141646  1
  F  F21  1  0.239135  0.514964  0.858354  1
  F  F22  1  0.261028  0.517333  0.359263  1
  F  F23  1  0.738972  0.482667  0.640737  1
  F  F24  1  0.954486  0.277213  0.054716  1
  F  F25  1  0.045514  0.722787  0.945284  1
  F  F26  1  0.453018  0.721930  0.443022  1
  F  F27  1  0.546982  0.278070  0.556978  1
  F  F28  1  0.745408  0.969235  0.445132  1
  F  F29  1  0.254592  0.030765  0.554868  1
  F  F30  1  0.245476  0.028604  0.053476  1
  F  F31  1  0.754524  0.971396  0.946524  1
  F  F32  1  0.559869  0.977929  0.235136  1
  F  F33  1  0.440131  0.022071  0.764864  1
  F  F34  1  0.064912  0.017240  0.264244  1
  F  F35  1  0.935088  0.982760  0.735756  1
