# generated using pymatgen
data_Tm6Fe3Co14MoP12
_symmetry_space_group_name_H-M   'P 1'
_cell_length_a   3.68121100
_cell_length_b   10.51989600
_cell_length_c   12.08412300
_cell_angle_alpha   90.00000000
_cell_angle_beta   90.00000000
_cell_angle_gamma   90.00000000
_symmetry_Int_Tables_number   1
_chemical_formula_structural   Tm6Fe3Co14MoP12
_chemical_formula_sum   'Tm6 Fe3 Co14 Mo1 P12'
_cell_volume   467.96922616
_cell_formula_units_Z   1
loop_
 _symmetry_equiv_pos_site_id
 _symmetry_equiv_pos_as_xyz
  1  'x, y, z'
loop_
 _atom_site_type_symbol
 _atom_site_label
 _atom_site_symmetry_multiplicity
 _atom_site_fract_x
 _atom_site_fract_y
 _atom_site_fract_z
 _atom_site_occupancy
  Tm  Tm0  1  0.000000  0.500000  0.525469  1
  Tm  Tm1  1  0.500000  0.000000  0.476799  1
  Tm  Tm2  1  0.500000  0.819564  0.204346  1
  Tm  Tm3  1  0.500000  0.180436  0.204346  1
  Tm  Tm4  1  0.000000  0.681274  0.796701  1
  Tm  Tm5  1  0.000000  0.318726  0.796701  1
  Fe  Fe6  1  0.000000  0.000000  0.842260  1
  Fe  Fe7  1  0.000000  0.500000  0.985082  1
  Fe  Fe8  1  0.500000  0.000000  0.011448  1
  Co  Co9  1  0.500000  0.500000  0.699564  1
  Co  Co10  1  0.000000  0.000000  0.299080  1
  Co  Co11  1  0.500000  0.329458  0.989686  1
  Co  Co12  1  0.500000  0.670542  0.989686  1
  Co  Co13  1  0.000000  0.166171  0.006008  1
  Co  Co14  1  0.000000  0.833829  0.006008  1
  Co  Co15  1  0.500000  0.295339  0.432562  1
  Co  Co16  1  0.500000  0.704661  0.432562  1
  Co  Co17  1  0.000000  0.202357  0.570639  1
  Co  Co18  1  0.000000  0.797643  0.570639  1
  Co  Co19  1  0.500000  0.879620  0.708833  1
  Co  Co20  1  0.500000  0.120380  0.708833  1
  Co  Co21  1  0.000000  0.623222  0.293163  1
  Co  Co22  1  0.000000  0.376778  0.293163  1
  Mo  Mo23  1  0.500000  0.500000  0.155972  1
  P  P24  1  0.500000  0.500000  0.881224  1
  P  P25  1  0.000000  0.000000  0.117196  1
  P  P26  1  0.500000  0.500000  0.350911  1
  P  P27  1  0.000000  0.000000  0.656141  1
  P  P28  1  0.500000  0.310976  0.617986  1
  P  P29  1  0.500000  0.689024  0.617986  1
  P  P30  1  0.000000  0.187655  0.384054  1
  P  P31  1  0.000000  0.812345  0.384054  1
  P  P32  1  0.500000  0.849339  0.891231  1
  P  P33  1  0.500000  0.150661  0.891231  1
  P  P34  1  0.000000  0.656208  0.104218  1
  P  P35  1  0.000000  0.343792  0.104218  1
