# generated using pymatgen
data_LaDyZn5Sn
_symmetry_space_group_name_H-M   'P 1'
_cell_length_a   8.52135881
_cell_length_b   8.52135936
_cell_length_c   9.07372500
_cell_angle_alpha   90.00000000
_cell_angle_beta   90.00000000
_cell_angle_gamma   149.63147850
_symmetry_Int_Tables_number   1
_chemical_formula_structural   LaDyZn5Sn
_chemical_formula_sum   'La2 Dy2 Zn10 Sn2'
_cell_volume   333.10096927
_cell_formula_units_Z   2
loop_
 _symmetry_equiv_pos_site_id
 _symmetry_equiv_pos_as_xyz
  1  'x, y, z'
loop_
 _atom_site_type_symbol
 _atom_site_label
 _atom_site_symmetry_multiplicity
 _atom_site_fract_x
 _atom_site_fract_y
 _atom_site_fract_z
 _atom_site_occupancy
  La  La0  1  0.000000  0.000000  0.500000  1
  La  La1  1  0.000000  0.000000  0.000000  1
  Dy  Dy2  1  0.206441  0.793559  0.250000  1
  Dy  Dy3  1  0.793559  0.206441  0.750000  1
  Zn  Zn4  1  0.812304  0.187696  0.389650  1
  Zn  Zn5  1  0.187696  0.812304  0.610350  1
  Zn  Zn6  1  0.812304  0.187696  0.110350  1
  Zn  Zn7  1  0.187696  0.812304  0.889650  1
  Zn  Zn8  1  0.659088  0.340912  0.483741  1
  Zn  Zn9  1  0.340912  0.659088  0.516259  1
  Zn  Zn10  1  0.659088  0.340912  0.016259  1
  Zn  Zn11  1  0.340912  0.659088  0.983741  1
  Zn  Zn12  1  0.395317  0.604683  0.250000  1
  Zn  Zn13  1  0.604683  0.395317  0.750000  1
  Sn  Sn14  1  0.559768  0.440232  0.250000  1
  Sn  Sn15  1  0.440232  0.559768  0.750000  1
