# generated using pymatgen
data_Gd6Ti2CrFeC12
_symmetry_space_group_name_H-M   'P 1'
_cell_length_a   8.29122000
_cell_length_b   8.29121874
_cell_length_c   5.10732400
_cell_angle_alpha   90.00000000
_cell_angle_beta   90.00000000
_cell_angle_gamma   119.99998694
_symmetry_Int_Tables_number   1
_chemical_formula_structural   Gd6Ti2CrFeC12
_chemical_formula_sum   'Gd6 Ti2 Cr1 Fe1 C12'
_cell_volume   304.06113351
_cell_formula_units_Z   1
loop_
 _symmetry_equiv_pos_site_id
 _symmetry_equiv_pos_as_xyz
  1  'x, y, z'
loop_
 _atom_site_type_symbol
 _atom_site_label
 _atom_site_symmetry_multiplicity
 _atom_site_fract_x
 _atom_site_fract_y
 _atom_site_fract_z
 _atom_site_occupancy
  Gd  Gd0  1  0.620998  0.679908  0.750000  1
  Gd  Gd1  1  0.935107  0.615110  0.250000  1
  Gd  Gd2  1  0.680004  0.064893  0.250000  1
  Gd  Gd3  1  0.320092  0.941092  0.750000  1
  Gd  Gd4  1  0.058908  0.379002  0.750000  1
  Gd  Gd5  1  0.384890  0.319996  0.250000  1
  Ti  Ti6  1  0.000000  0.000000  0.501723  1
  Ti  Ti7  1  0.000000  0.000000  0.998277  1
  Cr  Cr8  1  0.666667  0.333333  0.750000  1
  Fe  Fe9  1  0.333333  0.666667  0.250000  1
  C  C10  1  0.962211  0.765175  0.750000  1
  C  C11  1  0.200881  0.958517  0.250000  1
  C  C12  1  0.757636  0.799119  0.250000  1
  C  C13  1  0.234825  0.197036  0.750000  1
  C  C14  1  0.802964  0.037789  0.750000  1
  C  C15  1  0.041483  0.242364  0.250000  1
  C  C16  1  0.862684  0.573034  0.750000  1
  C  C17  1  0.291261  0.859953  0.250000  1
  C  C18  1  0.568691  0.708739  0.250000  1
  C  C19  1  0.426966  0.289649  0.750000  1
  C  C20  1  0.140047  0.431309  0.250000  1
  C  C21  1  0.710351  0.137316  0.750000  1
