# generated using pymatgen
data_KRbBaEuSb2
_symmetry_space_group_name_H-M   'P 1'
_cell_length_a   5.44935200
_cell_length_b   8.91361300
_cell_length_c   10.36313000
_cell_angle_alpha   90.00000000
_cell_angle_beta   90.00000000
_cell_angle_gamma   90.00000000
_symmetry_Int_Tables_number   1
_chemical_formula_structural   KRbBaEuSb2
_chemical_formula_sum   'K2 Rb2 Ba2 Eu2 Sb4'
_cell_volume   503.37261241
_cell_formula_units_Z   2
loop_
 _symmetry_equiv_pos_site_id
 _symmetry_equiv_pos_as_xyz
  1  'x, y, z'
loop_
 _atom_site_type_symbol
 _atom_site_label
 _atom_site_symmetry_multiplicity
 _atom_site_fract_x
 _atom_site_fract_y
 _atom_site_fract_z
 _atom_site_occupancy
  K  K0  1  0.000000  0.346843  0.339180  1
  K  K1  1  0.000000  0.846843  0.660820  1
  Rb  Rb2  1  0.500000  0.028505  0.419824  1
  Rb  Rb3  1  0.500000  0.528505  0.580176  1
  Ba  Ba4  1  0.000000  0.995076  0.056810  1
  Ba  Ba5  1  0.000000  0.495076  0.943190  1
  Eu  Eu6  1  0.500000  0.146908  0.820629  1
  Eu  Eu7  1  0.500000  0.646908  0.179371  1
  Sb  Sb8  1  0.000000  0.244317  0.679067  1
  Sb  Sb9  1  0.500000  0.283951  0.112926  1
  Sb  Sb10  1  0.000000  0.744317  0.320933  1
  Sb  Sb11  1  0.500000  0.783951  0.887074  1
