# generated using pymatgen
data_Li3Y4Si8Pd
_symmetry_space_group_name_H-M   'P 1'
_cell_length_a   3.81683900
_cell_length_b   7.51545503
_cell_length_c   10.12529794
_cell_angle_alpha   89.95346004
_cell_angle_beta   90.00000000
_cell_angle_gamma   90.00000000
_symmetry_Int_Tables_number   1
_chemical_formula_structural   Li3Y4Si8Pd
_chemical_formula_sum   'Li3 Y4 Si8 Pd1'
_cell_volume   290.44692958
_cell_formula_units_Z   1
loop_
 _symmetry_equiv_pos_site_id
 _symmetry_equiv_pos_as_xyz
  1  'x, y, z'
loop_
 _atom_site_type_symbol
 _atom_site_label
 _atom_site_symmetry_multiplicity
 _atom_site_fract_x
 _atom_site_fract_y
 _atom_site_fract_z
 _atom_site_occupancy
  Li  Li0  1  0.750000  0.008533  0.605756  1
  Li  Li1  1  0.250000  0.490589  0.109469  1
  Li  Li2  1  0.750000  0.506935  0.890360  1
  Y  Y3  1  0.250000  0.138333  0.865472  1
  Y  Y4  1  0.750000  0.861812  0.134360  1
  Y  Y5  1  0.250000  0.642093  0.632315  1
  Y  Y6  1  0.750000  0.365808  0.365087  1
  Si  Si7  1  0.750000  0.267804  0.071482  1
  Si  Si8  1  0.250000  0.727793  0.929492  1
  Si  Si9  1  0.750000  0.772553  0.434217  1
  Si  Si10  1  0.250000  0.225917  0.565420  1
  Si  Si11  1  0.750000  0.843166  0.820379  1
  Si  Si12  1  0.250000  0.155860  0.184379  1
  Si  Si13  1  0.750000  0.339477  0.676546  1
  Si  Si14  1  0.250000  0.661210  0.320777  1
  Pd  Pd15  1  0.250000  0.992117  0.394491  1
