# generated using pymatgen
data_NaLa4(CoP)10
_symmetry_space_group_name_H-M   'P 1'
_cell_length_a   8.44284800
_cell_length_b   8.19338569
_cell_length_c   8.44284800
_cell_angle_alpha   58.98761584
_cell_angle_beta   90.00000000
_cell_angle_gamma   58.98760768
_symmetry_Int_Tables_number   1
_chemical_formula_structural   NaLa4(CoP)10
_chemical_formula_sum   'Na1 La4 Co10 P10'
_cell_volume   400.00856558
_cell_formula_units_Z   1
loop_
 _symmetry_equiv_pos_site_id
 _symmetry_equiv_pos_as_xyz
  1  'x, y, z'
loop_
 _atom_site_type_symbol
 _atom_site_label
 _atom_site_symmetry_multiplicity
 _atom_site_fract_x
 _atom_site_fract_y
 _atom_site_fract_z
 _atom_site_occupancy
  Na  Na0  1  0.000000  0.000000  0.000000  1
  La  La1  1  0.195551  0.000000  0.605952  1
  La  La2  1  0.394048  0.000000  0.195551  1
  La  La3  1  0.605952  0.000000  0.804449  1
  La  La4  1  0.804449  0.000000  0.394048  1
  Co  Co5  1  0.950644  0.497498  0.850150  1
  Co  Co6  1  0.149850  0.502502  0.448142  1
  Co  Co7  1  0.347649  0.502502  0.049356  1
  Co  Co8  1  0.551858  0.497498  0.652351  1
  Co  Co9  1  0.750000  0.500000  0.250000  1
  Co  Co10  1  0.850150  0.497498  0.551858  1
  Co  Co11  1  0.049356  0.502502  0.149850  1
  Co  Co12  1  0.250000  0.500000  0.750000  1
  Co  Co13  1  0.448142  0.502502  0.347649  1
  Co  Co14  1  0.652351  0.497498  0.950644  1
  P  P15  1  0.154596  0.294395  0.751129  1
  P  P16  1  0.354700  0.290601  0.354700  1
  P  P17  1  0.551009  0.294395  0.954476  1
  P  P18  1  0.751129  0.294395  0.551009  1
  P  P19  1  0.954476  0.294395  0.154596  1
  P  P20  1  0.645300  0.709399  0.645300  1
  P  P21  1  0.845404  0.705605  0.248871  1
  P  P22  1  0.045523  0.705605  0.845404  1
  P  P23  1  0.248871  0.705605  0.448991  1
  P  P24  1  0.448991  0.705605  0.045523  1
