# generated using pymatgen
data_Li2Lu2Si2Ge
_symmetry_space_group_name_H-M   'P 1'
_cell_length_a   9.15696319
_cell_length_b   9.15696286
_cell_length_c   6.60528600
_cell_angle_alpha   90.00000000
_cell_angle_beta   90.00000000
_cell_angle_gamma   153.50477890
_symmetry_Int_Tables_number   1
_chemical_formula_structural   Li2Lu2Si2Ge
_chemical_formula_sum   'Li4 Lu4 Si4 Ge2'
_cell_volume   247.08667481
_cell_formula_units_Z   2
loop_
 _symmetry_equiv_pos_site_id
 _symmetry_equiv_pos_as_xyz
  1  'x, y, z'
loop_
 _atom_site_type_symbol
 _atom_site_label
 _atom_site_symmetry_multiplicity
 _atom_site_fract_x
 _atom_site_fract_y
 _atom_site_fract_z
 _atom_site_occupancy
  Li  Li0  1  0.810660  0.189340  0.558847  1
  Li  Li1  1  0.189340  0.810660  0.441153  1
  Li  Li2  1  0.189340  0.810660  0.058847  1
  Li  Li3  1  0.810660  0.189340  0.941153  1
  Lu  Lu4  1  0.551508  0.448492  0.250000  1
  Lu  Lu5  1  0.448492  0.551508  0.750000  1
  Lu  Lu6  1  0.346133  0.653867  0.250000  1
  Lu  Lu7  1  0.653867  0.346133  0.750000  1
  Si  Si8  1  0.939969  0.060031  0.070886  1
  Si  Si9  1  0.060031  0.939969  0.929114  1
  Si  Si10  1  0.060031  0.939969  0.570886  1
  Si  Si11  1  0.939969  0.060031  0.429114  1
  Ge  Ge12  1  0.719799  0.280201  0.250000  1
  Ge  Ge13  1  0.280201  0.719799  0.750000  1
