# generated using pymatgen
data_La6YIrRh2
_symmetry_space_group_name_H-M   'P 1'
_cell_length_a   10.27832868
_cell_length_b   10.27833007
_cell_length_c   6.44473519
_cell_angle_alpha   90.06024561
_cell_angle_beta   89.93975271
_cell_angle_gamma   119.97397643
_symmetry_Int_Tables_number   1
_chemical_formula_structural   La6YIrRh2
_chemical_formula_sum   'La12 Y2 Ir2 Rh4'
_cell_volume   589.78575090
_cell_formula_units_Z   2
loop_
 _symmetry_equiv_pos_site_id
 _symmetry_equiv_pos_as_xyz
  1  'x, y, z'
loop_
 _atom_site_type_symbol
 _atom_site_label
 _atom_site_symmetry_multiplicity
 _atom_site_fract_x
 _atom_site_fract_y
 _atom_site_fract_z
 _atom_site_occupancy
  La  La0  1  0.872200  0.746114  0.767310  1
  La  La1  1  0.253886  0.127800  0.767310  1
  La  La2  1  0.873324  0.126676  0.767537  1
  La  La3  1  0.127185  0.254408  0.266082  1
  La  La4  1  0.745592  0.872815  0.266082  1
  La  La5  1  0.126970  0.873030  0.266653  1
  La  La6  1  0.458203  0.915390  0.596277  1
  La  La7  1  0.084610  0.541797  0.596277  1
  La  La8  1  0.457790  0.542210  0.596766  1
  La  La9  1  0.543079  0.084974  0.095273  1
  La  La10  1  0.915026  0.456921  0.095273  1
  La  La11  1  0.542236  0.457764  0.094969  1
  Y  Y12  1  0.666627  0.333373  0.568643  1
  Y  Y13  1  0.333984  0.666016  0.066037  1
  Ir  Ir14  1  0.189256  0.379155  0.852012  1
  Ir  Ir15  1  0.620845  0.810744  0.852012  1
  Rh  Rh16  1  0.189257  0.810743  0.851405  1
  Rh  Rh17  1  0.810437  0.620166  0.349817  1
  Rh  Rh18  1  0.379834  0.189563  0.349817  1
  Rh  Rh19  1  0.809659  0.190341  0.349492  1
