# generated using pymatgen
data_Mg3ScU4(ReB6)4
_symmetry_space_group_name_H-M   'P 1'
_cell_length_a   3.60515300
_cell_length_b   8.91756181
_cell_length_c   11.26969502
_cell_angle_alpha   89.95127178
_cell_angle_beta   90.00000000
_cell_angle_gamma   90.00000000
_symmetry_Int_Tables_number   1
_chemical_formula_structural   Mg3ScU4(ReB6)4
_chemical_formula_sum   'Mg3 Sc1 U4 Re4 B24'
_cell_volume   362.31126293
_cell_formula_units_Z   1
loop_
 _symmetry_equiv_pos_site_id
 _symmetry_equiv_pos_as_xyz
  1  'x, y, z'
loop_
 _atom_site_type_symbol
 _atom_site_label
 _atom_site_symmetry_multiplicity
 _atom_site_fract_x
 _atom_site_fract_y
 _atom_site_fract_z
 _atom_site_occupancy
  Mg  Mg0  1  0.000000  0.947273  0.378378  1
  Mg  Mg1  1  0.000000  0.052297  0.620517  1
  Mg  Mg2  1  0.000000  0.447011  0.122562  1
  Sc  Sc3  1  0.000000  0.554089  0.875418  1
  U  U4  1  0.000000  0.321123  0.412569  1
  U  U5  1  0.000000  0.679954  0.584883  1
  U  U6  1  0.000000  0.821558  0.087655  1
  U  U7  1  0.000000  0.178672  0.914478  1
  Re  Re8  1  0.000000  0.640639  0.319561  1
  Re  Re9  1  0.000000  0.358822  0.679813  1
  Re  Re10  1  0.000000  0.140412  0.180293  1
  Re  Re11  1  0.000000  0.860163  0.819713  1
  B  B12  1  0.500000  0.553829  0.434010  1
  B  B13  1  0.500000  0.446035  0.565813  1
  B  B14  1  0.500000  0.053453  0.066100  1
  B  B15  1  0.500000  0.946445  0.934334  1
  B  B16  1  0.500000  0.753912  0.419888  1
  B  B17  1  0.500000  0.246502  0.579397  1
  B  B18  1  0.500000  0.252732  0.080336  1
  B  B19  1  0.500000  0.746659  0.920688  1
  B  B20  1  0.500000  0.794135  0.263140  1
  B  B21  1  0.500000  0.205470  0.737049  1
  B  B22  1  0.500000  0.293910  0.237042  1
  B  B23  1  0.500000  0.705399  0.764387  1
  B  B24  1  0.500000  0.630174  0.182295  1
  B  B25  1  0.500000  0.369554  0.818116  1
  B  B26  1  0.500000  0.129728  0.318285  1
  B  B27  1  0.500000  0.870065  0.682030  1
  B  B28  1  0.500000  0.980488  0.213000  1
  B  B29  1  0.500000  0.019802  0.787730  1
  B  B30  1  0.500000  0.480596  0.287174  1
  B  B31  1  0.500000  0.519200  0.713625  1
  B  B32  1  0.500000  0.601563  0.027896  1
  B  B33  1  0.500000  0.398211  0.972011  1
  B  B34  1  0.500000  0.100986  0.471950  1
  B  B35  1  0.500000  0.899140  0.527865  1
