# generated using pymatgen
data_Tb3Dy9Co4SnOs
_symmetry_space_group_name_H-M   'P 1'
_cell_length_a   8.30901880
_cell_length_b   8.30844432
_cell_length_c   8.30844418
_cell_angle_alpha   106.47295608
_cell_angle_beta   110.40819753
_cell_angle_gamma   111.57270576
_symmetry_Int_Tables_number   1
_chemical_formula_structural   Tb3Dy9Co4SnOs
_chemical_formula_sum   'Tb3 Dy9 Co4 Sn1 Os1'
_cell_volume   440.60522563
_cell_formula_units_Z   1
loop_
 _symmetry_equiv_pos_site_id
 _symmetry_equiv_pos_as_xyz
  1  'x, y, z'
loop_
 _atom_site_type_symbol
 _atom_site_label
 _atom_site_symmetry_multiplicity
 _atom_site_fract_x
 _atom_site_fract_y
 _atom_site_fract_z
 _atom_site_occupancy
  Tb  Tb0  1  0.468707  0.285542  0.183164  1
  Tb  Tb1  1  0.102482  0.285608  0.816874  1
  Tb  Tb2  1  0.897422  0.714425  0.182997  1
  Dy  Dy3  1  0.531547  0.714549  0.816999  1
  Dy  Dy4  1  0.305911  0.619572  0.313786  1
  Dy  Dy5  1  0.305911  0.992126  0.686339  1
  Dy  Dy6  1  0.694078  0.380502  0.686319  1
  Dy  Dy7  1  0.694078  0.007758  0.313576  1
  Dy  Dy8  1  0.194340  0.214910  0.409150  1
  Dy  Dy9  1  0.805648  0.785155  0.590991  1
  Dy  Dy10  1  0.194340  0.785190  0.979429  1
  Dy  Dy11  1  0.805648  0.214657  0.020495  1
  Co  Co12  1  0.500031  0.611688  0.111537  1
  Co  Co13  1  0.500031  0.388495  0.888344  1
  Co  Co14  1  0.378841  0.000021  0.378820  1
  Co  Co15  1  0.621147  0.999923  0.621224  1
  Sn  Sn16  1  0.000045  0.500016  0.500029  1
  Os  Os17  1  0.999793  0.999865  0.999928  1
