# generated using pymatgen
data_Yb19Eu(CdAg3)3
_symmetry_space_group_name_H-M   'P 1'
_cell_length_a   8.03065063
_cell_length_b   8.02938319
_cell_length_c   14.66884833
_cell_angle_alpha   89.94537852
_cell_angle_beta   89.96544325
_cell_angle_gamma   90.02956001
_symmetry_Int_Tables_number   1
_chemical_formula_structural   Yb19Eu(CdAg3)3
_chemical_formula_sum   'Yb19 Eu1 Cd3 Ag9'
_cell_volume   945.86379142
_cell_formula_units_Z   1
loop_
 _symmetry_equiv_pos_site_id
 _symmetry_equiv_pos_as_xyz
  1  'x, y, z'
loop_
 _atom_site_type_symbol
 _atom_site_label
 _atom_site_symmetry_multiplicity
 _atom_site_fract_x
 _atom_site_fract_y
 _atom_site_fract_z
 _atom_site_occupancy
  Yb  Yb0  1  0.999942  0.999723  0.754692  1
  Yb  Yb1  1  0.499376  0.500103  0.250595  1
  Yb  Yb2  1  0.999879  0.999719  0.244985  1
  Yb  Yb3  1  0.499820  0.500024  0.749290  1
  Yb  Yb4  1  0.667489  0.166149  0.609928  1
  Yb  Yb5  1  0.827758  0.337357  0.106478  1
  Yb  Yb6  1  0.332374  0.833513  0.609699  1
  Yb  Yb7  1  0.337877  0.170939  0.106401  1
  Yb  Yb8  1  0.834281  0.667297  0.609834  1
  Yb  Yb9  1  0.662079  0.828563  0.106434  1
  Yb  Yb10  1  0.165898  0.332994  0.609872  1
  Yb  Yb11  1  0.339577  0.830263  0.891909  1
  Yb  Yb12  1  0.833223  0.331932  0.390895  1
  Yb  Yb13  1  0.662061  0.171866  0.893081  1
  Yb  Yb14  1  0.166069  0.667482  0.390192  1
  Yb  Yb15  1  0.170921  0.337639  0.892774  1
  Yb  Yb16  1  0.667255  0.834201  0.390949  1
  Yb  Yb17  1  0.828566  0.661793  0.893109  1
  Yb  Yb18  1  0.332836  0.166084  0.391037  1
  Eu  Eu19  1  0.170394  0.662435  0.102510  1
  Cd  Cd20  1  0.999577  0.999882  0.500583  1
  Cd  Cd21  1  0.997765  0.005724  0.997711  1
  Cd  Cd22  1  0.500967  0.497706  0.500908  1
  Ag  Ag23  1  0.628211  0.128039  0.249495  1
  Ag  Ag24  1  0.128470  0.627746  0.751767  1
  Ag  Ag25  1  0.871373  0.372019  0.750727  1
  Ag  Ag26  1  0.374121  0.875972  0.250715  1
  Ag  Ag27  1  0.372356  0.127455  0.750973  1
  Ag  Ag28  1  0.869313  0.627379  0.251321  1
  Ag  Ag29  1  0.126713  0.368121  0.251798  1
  Ag  Ag30  1  0.628207  0.872212  0.750806  1
  Ag  Ag31  1  0.505250  0.497669  0.998534  1
