# generated using pymatgen
data_U6Mn20P13
_symmetry_space_group_name_H-M   'P 1'
_cell_length_a   13.08101400
_cell_length_b   13.08101363
_cell_length_c   3.55090400
_cell_angle_alpha   90.00000000
_cell_angle_beta   90.00000000
_cell_angle_gamma   120.00000094
_symmetry_Int_Tables_number   1
_chemical_formula_structural   U6Mn20P13
_chemical_formula_sum   'U6 Mn20 P13'
_cell_volume   526.20184590
_cell_formula_units_Z   1
loop_
 _symmetry_equiv_pos_site_id
 _symmetry_equiv_pos_as_xyz
  1  'x, y, z'
loop_
 _atom_site_type_symbol
 _atom_site_label
 _atom_site_symmetry_multiplicity
 _atom_site_fract_x
 _atom_site_fract_y
 _atom_site_fract_z
 _atom_site_occupancy
  U  U0  1  0.522328  0.717637  0.248251  1
  U  U1  1  0.282363  0.804691  0.248251  1
  U  U2  1  0.195309  0.477672  0.248251  1
  U  U3  1  0.477672  0.282363  0.751749  1
  U  U4  1  0.717637  0.195309  0.751749  1
  U  U5  1  0.804691  0.522328  0.751749  1
  Mn  Mn6  1  0.333333  0.666667  0.749022  1
  Mn  Mn7  1  0.926029  0.247409  0.250488  1
  Mn  Mn8  1  0.752591  0.678619  0.250488  1
  Mn  Mn9  1  0.321381  0.073971  0.250488  1
  Mn  Mn10  1  0.432237  0.014563  0.750618  1
  Mn  Mn11  1  0.985437  0.417675  0.750618  1
  Mn  Mn12  1  0.582325  0.567763  0.750618  1
  Mn  Mn13  1  0.666667  0.333333  0.250978  1
  Mn  Mn14  1  0.089409  0.188848  0.237864  1
  Mn  Mn15  1  0.811152  0.900562  0.237864  1
  Mn  Mn16  1  0.099438  0.910591  0.237864  1
  Mn  Mn17  1  0.014563  0.582325  0.249382  1
  Mn  Mn18  1  0.417675  0.432237  0.249382  1
  Mn  Mn19  1  0.567763  0.985437  0.249382  1
  Mn  Mn20  1  0.678619  0.926029  0.749512  1
  Mn  Mn21  1  0.073971  0.752591  0.749512  1
  Mn  Mn22  1  0.247409  0.321381  0.749512  1
  Mn  Mn23  1  0.910591  0.811152  0.762136  1
  Mn  Mn24  1  0.188848  0.099438  0.762136  1
  Mn  Mn25  1  0.900562  0.089409  0.762136  1
  P  P26  1  0.522426  0.136040  0.250964  1
  P  P27  1  0.863960  0.386386  0.250964  1
  P  P28  1  0.613614  0.477574  0.250964  1
  P  P29  1  0.945037  0.713889  0.254844  1
  P  P30  1  0.286111  0.231147  0.254844  1
  P  P31  1  0.768853  0.054963  0.254844  1
  P  P32  1  0.386386  0.522426  0.749036  1
  P  P33  1  0.477574  0.863960  0.749036  1
  P  P34  1  0.136040  0.613614  0.749036  1
  P  P35  1  0.713889  0.768853  0.745156  1
  P  P36  1  0.231147  0.945037  0.745156  1
  P  P37  1  0.054963  0.286111  0.745156  1
  P  P38  1  0.000000  0.000000  0.000000  1
