# generated using pymatgen
data_Ho7Tm(Sc3Si4)4
_symmetry_space_group_name_H-M   'P 1'
_cell_length_a   7.07040914
_cell_length_b   7.36501422
_cell_length_c   13.95013126
_cell_angle_alpha   89.98061660
_cell_angle_beta   90.01051812
_cell_angle_gamma   90.01995778
_symmetry_Int_Tables_number   1
_chemical_formula_structural   Ho7Tm(Sc3Si4)4
_chemical_formula_sum   'Ho7 Tm1 Sc12 Si16'
_cell_volume   726.43434745
_cell_formula_units_Z   1
loop_
 _symmetry_equiv_pos_site_id
 _symmetry_equiv_pos_as_xyz
  1  'x, y, z'
loop_
 _atom_site_type_symbol
 _atom_site_label
 _atom_site_symmetry_multiplicity
 _atom_site_fract_x
 _atom_site_fract_y
 _atom_site_fract_z
 _atom_site_occupancy
  Ho  Ho0  1  0.011986  0.175782  0.096789  1
  Ho  Ho1  1  0.988029  0.824182  0.903145  1
  Ho  Ho2  1  0.487927  0.675689  0.903324  1
  Ho  Ho3  1  0.987933  0.824049  0.596779  1
  Ho  Ho4  1  0.512068  0.324316  0.096771  1
  Ho  Ho5  1  0.012104  0.175787  0.403324  1
  Ho  Ho6  1  0.511993  0.324363  0.403356  1
  Tm  Tm7  1  0.487897  0.676032  0.596971  1
  Sc  Sc8  1  0.160744  0.503145  0.749908  1
  Sc  Sc9  1  0.839431  0.497006  0.249991  1
  Sc  Sc10  1  0.339362  0.003046  0.250016  1
  Sc  Sc11  1  0.660504  0.996829  0.749882  1
  Sc  Sc12  1  0.330856  0.176936  0.625174  1
  Sc  Sc13  1  0.669090  0.822984  0.374891  1
  Sc  Sc14  1  0.169370  0.676789  0.374894  1
  Sc  Sc15  1  0.669231  0.823214  0.125173  1
  Sc  Sc16  1  0.830583  0.323442  0.625181  1
  Sc  Sc17  1  0.330726  0.176815  0.874743  1
  Sc  Sc18  1  0.830715  0.323210  0.874734  1
  Sc  Sc19  1  0.169293  0.676761  0.125168  1
  Si  Si20  1  0.032972  0.116211  0.749978  1
  Si  Si21  1  0.966976  0.883845  0.250028  1
  Si  Si22  1  0.467025  0.616099  0.250024  1
  Si  Si23  1  0.532889  0.384244  0.749858  1
  Si  Si24  1  0.285404  0.872184  0.749752  1
  Si  Si25  1  0.714932  0.127410  0.249992  1
  Si  Si26  1  0.214876  0.372594  0.249998  1
  Si  Si27  1  0.784707  0.627524  0.749741  1
  Si  Si28  1  0.159182  0.465355  0.539558  1
  Si  Si29  1  0.841300  0.535022  0.460619  1
  Si  Si30  1  0.341711  0.964614  0.460715  1
  Si  Si31  1  0.841538  0.534979  0.039432  1
  Si  Si32  1  0.658236  0.034531  0.539562  1
  Si  Si33  1  0.158383  0.464989  0.960535  1
  Si  Si34  1  0.658502  0.034986  0.960563  1
  Si  Si35  1  0.341527  0.965035  0.039429  1
