# generated using pymatgen
data_Y4Sn4Bi2Rh7
_symmetry_space_group_name_H-M   'P 1'
_cell_length_a   7.60867747
_cell_length_b   7.61608153
_cell_length_c   7.60867700
_cell_angle_alpha   109.54191038
_cell_angle_beta   109.29040657
_cell_angle_gamma   109.54191286
_symmetry_Int_Tables_number   1
_chemical_formula_structural   Y4Sn4Bi2Rh7
_chemical_formula_sum   'Y4 Sn4 Bi2 Rh7'
_cell_volume   339.57608191
_cell_formula_units_Z   1
loop_
 _symmetry_equiv_pos_site_id
 _symmetry_equiv_pos_as_xyz
  1  'x, y, z'
loop_
 _atom_site_type_symbol
 _atom_site_label
 _atom_site_symmetry_multiplicity
 _atom_site_fract_x
 _atom_site_fract_y
 _atom_site_fract_z
 _atom_site_occupancy
  Y  Y0  1  0.497580  0.995160  0.997580  1
  Y  Y1  1  0.997519  0.509743  0.997519  1
  Y  Y2  1  0.997580  0.995160  0.497580  1
  Y  Y3  1  0.512223  0.509743  0.512223  1
  Sn  Sn4  1  0.316332  0.001104  0.316332  1
  Sn  Sn5  1  0.000419  0.682669  0.682250  1
  Sn  Sn6  1  0.682250  0.682669  0.000419  1
  Sn  Sn7  1  0.684771  0.001104  0.684771  1
  Bi  Bi8  1  0.001178  0.311290  0.310112  1
  Bi  Bi9  1  0.310112  0.311290  0.001178  1
  Rh  Rh10  1  0.252232  0.504464  0.752232  1
  Rh  Rh11  1  0.502246  0.251124  0.748878  1
  Rh  Rh12  1  0.748878  0.251124  0.502246  1
  Rh  Rh13  1  0.502689  0.755074  0.252384  1
  Rh  Rh14  1  0.989374  0.978748  0.989374  1
  Rh  Rh15  1  0.252384  0.755074  0.502689  1
  Rh  Rh16  1  0.752232  0.504464  0.252232  1
