# generated using pymatgen
data_Tb5Y(Si3Os)8
_symmetry_space_group_name_H-M   'P 1'
_cell_length_a   10.14659659
_cell_length_b   10.14659615
_cell_length_c   8.17419731
_cell_angle_alpha   90.02898573
_cell_angle_beta   89.97101216
_cell_angle_gamma   132.52507160
_symmetry_Int_Tables_number   1
_chemical_formula_structural   Tb5Y(Si3Os)8
_chemical_formula_sum   'Tb5 Y1 Si24 Os8'
_cell_volume   620.21531788
_cell_formula_units_Z   1
loop_
 _symmetry_equiv_pos_site_id
 _symmetry_equiv_pos_as_xyz
  1  'x, y, z'
loop_
 _atom_site_type_symbol
 _atom_site_label
 _atom_site_symmetry_multiplicity
 _atom_site_fract_x
 _atom_site_fract_y
 _atom_site_fract_z
 _atom_site_occupancy
  Tb  Tb0  1  0.501329  0.001329  0.750000  1
  Tb  Tb1  1  0.998730  0.498730  0.250000  1
  Tb  Tb2  1  0.498840  0.998840  0.250000  1
  Tb  Tb3  1  0.000002  0.999998  0.999973  1
  Tb  Tb4  1  0.499998  0.500002  0.500027  1
  Y  Y5  1  0.001103  0.501103  0.750000  1
  Si  Si6  1  0.795156  0.204921  0.500058  1
  Si  Si7  1  0.704921  0.295156  0.999942  1
  Si  Si8  1  0.204779  0.795080  0.500105  1
  Si  Si9  1  0.295080  0.704779  0.999895  1
  Si  Si10  1  0.667499  0.667598  0.166865  1
  Si  Si11  1  0.167598  0.167499  0.333135  1
  Si  Si12  1  0.832441  0.832488  0.666843  1
  Si  Si13  1  0.332488  0.332441  0.833157  1
  Si  Si14  1  0.844913  0.610893  0.995367  1
  Si  Si15  1  0.110893  0.344913  0.504633  1
  Si  Si16  1  0.654944  0.889065  0.495375  1
  Si  Si17  1  0.389065  0.154944  0.004625  1
  Si  Si18  1  0.155106  0.389079  0.004706  1
  Si  Si19  1  0.889079  0.655106  0.495294  1
  Si  Si20  1  0.121089  0.886563  0.727955  1
  Si  Si21  1  0.386563  0.621089  0.772045  1
  Si  Si22  1  0.379227  0.613774  0.228031  1
  Si  Si23  1  0.113774  0.879227  0.271969  1
  Si  Si24  1  0.878898  0.113594  0.272081  1
  Si  Si25  1  0.613594  0.378898  0.227919  1
  Si  Si26  1  0.620726  0.386118  0.772068  1
  Si  Si27  1  0.886118  0.120726  0.727932  1
  Si  Si28  1  0.610929  0.845038  0.995318  1
  Si  Si29  1  0.345038  0.110929  0.504682  1
  Os  Os30  1  0.626868  0.626767  0.872410  1
  Os  Os31  1  0.126767  0.126868  0.627590  1
  Os  Os32  1  0.373266  0.373209  0.127623  1
  Os  Os33  1  0.873209  0.873266  0.372377  1
  Os  Os34  1  0.168650  0.830666  0.999800  1
  Os  Os35  1  0.330666  0.668650  0.500200  1
  Os  Os36  1  0.831338  0.169315  0.000035  1
  Os  Os37  1  0.669315  0.331338  0.499965  1
