# generated using pymatgen
data_MgScFe8Co4P7
_symmetry_space_group_name_H-M   'P 1'
_cell_length_a   8.85861525
_cell_length_b   8.89457832
_cell_length_c   3.55410300
_cell_angle_alpha   90.00000000
_cell_angle_beta   90.00000000
_cell_angle_gamma   119.85611393
_symmetry_Int_Tables_number   1
_chemical_formula_structural   MgScFe8Co4P7
_chemical_formula_sum   'Mg1 Sc1 Fe8 Co4 P7'
_cell_volume   242.87325877
_cell_formula_units_Z   1
loop_
 _symmetry_equiv_pos_site_id
 _symmetry_equiv_pos_as_xyz
  1  'x, y, z'
loop_
 _atom_site_type_symbol
 _atom_site_label
 _atom_site_symmetry_multiplicity
 _atom_site_fract_x
 _atom_site_fract_y
 _atom_site_fract_z
 _atom_site_occupancy
  Mg  Mg0  1  0.334393  0.667895  0.500000  1
  Sc  Sc1  1  0.998576  0.997986  0.000000  1
  Fe  Fe2  1  0.054771  0.769848  0.500000  1
  Fe  Fe3  1  0.717092  0.945664  0.500000  1
  Fe  Fe4  1  0.890648  0.432035  0.500000  1
  Fe  Fe5  1  0.542374  0.111524  0.500000  1
  Fe  Fe6  1  0.566461  0.459162  0.500000  1
  Fe  Fe7  1  0.388483  0.214243  0.000000  1
  Fe  Fe8  1  0.786565  0.177864  0.000000  1
  Fe  Fe9  1  0.822216  0.607386  0.000000  1
  Co  Co10  1  0.604115  0.705508  0.000000  1
  Co  Co11  1  0.295565  0.899471  0.000000  1
  Co  Co12  1  0.102720  0.396238  0.000000  1
  Co  Co13  1  0.227526  0.281886  0.500000  1
  P  P14  1  0.260413  0.044613  0.500000  1
  P  P15  1  0.951947  0.212882  0.500000  1
  P  P16  1  0.786897  0.739477  0.500000  1
  P  P17  1  0.373250  0.451214  0.000000  1
  P  P18  1  0.552256  0.923828  0.000000  1
  P  P19  1  0.078431  0.628494  0.000000  1
  P  P20  1  0.665305  0.332783  0.000000  1
