# generated using pymatgen
data_Lu5NpCdO12
_symmetry_space_group_name_H-M   'P 1'
_cell_length_a   6.47835483
_cell_length_b   6.47230801
_cell_length_c   6.42223814
_cell_angle_alpha   98.52708991
_cell_angle_beta   98.81010900
_cell_angle_gamma   99.30839313
_symmetry_Int_Tables_number   1
_chemical_formula_structural   Lu5NpCdO12
_chemical_formula_sum   'Lu5 Np1 Cd1 O12'
_cell_volume   258.43488481
_cell_formula_units_Z   1
loop_
 _symmetry_equiv_pos_site_id
 _symmetry_equiv_pos_as_xyz
  1  'x, y, z'
loop_
 _atom_site_type_symbol
 _atom_site_label
 _atom_site_symmetry_multiplicity
 _atom_site_fract_x
 _atom_site_fract_y
 _atom_site_fract_z
 _atom_site_occupancy
  Lu  Lu0  1  0.857030  0.388347  0.667458  1
  Lu  Lu1  1  0.667885  0.852479  0.393517  1
  Lu  Lu2  1  0.610781  0.331711  0.147363  1
  Lu  Lu3  1  0.148488  0.610311  0.328168  1
  Lu  Lu4  1  0.333189  0.148900  0.612511  1
  Np  Np5  1  0.998647  0.003414  0.003201  1
  Cd  Cd6  1  0.399204  0.664476  0.850071  1
  O  O7  1  0.168920  0.407429  0.567789  1
  O  O8  1  0.592719  0.176813  0.422458  1
  O  O9  1  0.427256  0.588961  0.182784  1
  O  O10  1  0.822724  0.578289  0.409323  1
  O  O11  1  0.406412  0.825528  0.571608  1
  O  O12  1  0.586944  0.384721  0.820824  1
  O  O13  1  0.909725  0.042664  0.692205  1
  O  O14  1  0.960574  0.309959  0.087340  1
  O  O15  1  0.299243  0.103339  0.961505  1
  O  O16  1  0.090418  0.954336  0.308462  1
  O  O17  1  0.019665  0.697213  0.915382  1
  O  O18  1  0.700177  0.931112  0.058030  1
