# generated using pymatgen
data_DyY9(Pb3Cl)2
_symmetry_space_group_name_H-M   'P 1'
_cell_length_a   9.22190300
_cell_length_b   9.22190252
_cell_length_c   6.64190100
_cell_angle_alpha   90.00000000
_cell_angle_beta   90.00000000
_cell_angle_gamma   119.99999815
_symmetry_Int_Tables_number   1
_chemical_formula_structural   DyY9(Pb3Cl)2
_chemical_formula_sum   'Dy1 Y9 Pb6 Cl2'
_cell_volume   489.17484341
_cell_formula_units_Z   1
loop_
 _symmetry_equiv_pos_site_id
 _symmetry_equiv_pos_as_xyz
  1  'x, y, z'
loop_
 _atom_site_type_symbol
 _atom_site_label
 _atom_site_symmetry_multiplicity
 _atom_site_fract_x
 _atom_site_fract_y
 _atom_site_fract_z
 _atom_site_occupancy
  Dy  Dy0  1  0.333333  0.666667  0.000000  1
  Y  Y1  1  0.260853  0.999992  0.750014  1
  Y  Y2  1  0.739139  0.999992  0.249986  1
  Y  Y3  1  0.000008  0.260861  0.750014  1
  Y  Y4  1  0.000008  0.739147  0.249986  1
  Y  Y5  1  0.739139  0.739147  0.750014  1
  Y  Y6  1  0.260853  0.260861  0.249986  1
  Y  Y7  1  0.333333  0.666667  0.500000  1
  Y  Y8  1  0.666667  0.333333  0.500000  1
  Y  Y9  1  0.666667  0.333333  0.000000  1
  Pb  Pb10  1  0.610472  0.999894  0.750325  1
  Pb  Pb11  1  0.389422  0.999894  0.249675  1
  Pb  Pb12  1  0.000106  0.610578  0.750325  1
  Pb  Pb13  1  0.000106  0.389528  0.249675  1
  Pb  Pb14  1  0.389422  0.389528  0.750325  1
  Pb  Pb15  1  0.610472  0.610578  0.249675  1
  Cl  Cl16  1  0.000000  0.000000  0.500000  1
  Cl  Cl17  1  0.000000  0.000000  0.000000  1
