# generated using pymatgen
data_K4YUSe6
_symmetry_space_group_name_H-M   'P 1'
_cell_length_a   7.54545834
_cell_length_b   7.54545778
_cell_length_c   8.05954779
_cell_angle_alpha   80.88207702
_cell_angle_beta   80.88208231
_cell_angle_gamma   119.99541852
_symmetry_Int_Tables_number   1
_chemical_formula_structural   K4YUSe6
_chemical_formula_sum   'K4 Y1 U1 Se6'
_cell_volume   376.92010508
_cell_formula_units_Z   1
loop_
 _symmetry_equiv_pos_site_id
 _symmetry_equiv_pos_as_xyz
  1  'x, y, z'
loop_
 _atom_site_type_symbol
 _atom_site_label
 _atom_site_symmetry_multiplicity
 _atom_site_fract_x
 _atom_site_fract_y
 _atom_site_fract_z
 _atom_site_occupancy
  K  K0  1  0.344699  0.655301  0.500000  1
  K  K1  1  0.654723  0.345277  0.500000  1
  K  K2  1  0.000594  0.999406  0.500000  1
  K  K3  1  0.499975  0.500025  0.000000  1
  Y  Y4  1  0.167842  0.832158  0.000000  1
  U  U5  1  0.832189  0.167811  0.000000  1
  Se  Se6  1  0.796431  0.808095  0.205405  1
  Se  Se7  1  0.441377  0.062330  0.208965  1
  Se  Se8  1  0.049321  0.416723  0.208103  1
  Se  Se9  1  0.583277  0.950679  0.791897  1
  Se  Se10  1  0.937670  0.558623  0.791035  1
  Se  Se11  1  0.191905  0.203569  0.794595  1
