# generated using pymatgen
data_EuLu(Co5P3)2
_symmetry_space_group_name_H-M   'P 1'
_cell_length_a   3.64423000
_cell_length_b   10.29723900
_cell_length_c   11.75542500
_cell_angle_alpha   90.00000000
_cell_angle_beta   90.00000000
_cell_angle_gamma   90.00000000
_symmetry_Int_Tables_number   1
_chemical_formula_structural   EuLu(Co5P3)2
_chemical_formula_sum   'Eu2 Lu2 Co20 P12'
_cell_volume   441.12828643
_cell_formula_units_Z   2
loop_
 _symmetry_equiv_pos_site_id
 _symmetry_equiv_pos_as_xyz
  1  'x, y, z'
loop_
 _atom_site_type_symbol
 _atom_site_label
 _atom_site_symmetry_multiplicity
 _atom_site_fract_x
 _atom_site_fract_y
 _atom_site_fract_z
 _atom_site_occupancy
  Eu  Eu0  1  0.250000  0.585932  0.704368  1
  Eu  Eu1  1  0.250000  0.914068  0.204368  1
  Lu  Lu2  1  0.750000  0.416482  0.297706  1
  Lu  Lu3  1  0.750000  0.083518  0.797706  1
  Co  Co4  1  0.250000  0.714757  0.989114  1
  Co  Co5  1  0.250000  0.785243  0.489114  1
  Co  Co6  1  0.750000  0.281251  0.007753  1
  Co  Co7  1  0.750000  0.218749  0.507753  1
  Co  Co8  1  0.250000  0.406372  0.484694  1
  Co  Co9  1  0.250000  0.093628  0.984694  1
  Co  Co10  1  0.750000  0.592400  0.508199  1
  Co  Co11  1  0.750000  0.907600  0.008199  1
  Co  Co12  1  0.250000  0.220295  0.176161  1
  Co  Co13  1  0.250000  0.279705  0.676161  1
  Co  Co14  1  0.750000  0.782110  0.823799  1
  Co  Co15  1  0.750000  0.717890  0.323799  1
  Co  Co16  1  0.250000  0.886864  0.698859  1
  Co  Co17  1  0.250000  0.613136  0.198859  1
  Co  Co18  1  0.750000  0.120926  0.302993  1
  Co  Co19  1  0.750000  0.379074  0.802993  1
  Co  Co20  1  0.250000  0.464583  0.934716  1
  Co  Co21  1  0.250000  0.035417  0.434716  1
  Co  Co22  1  0.750000  0.528279  0.070456  1
  Co  Co23  1  0.750000  0.971721  0.570456  1
  P  P24  1  0.250000  0.416103  0.114426  1
  P  P25  1  0.250000  0.083897  0.614426  1
  P  P26  1  0.750000  0.581207  0.890669  1
  P  P27  1  0.750000  0.918793  0.390669  1
  P  P28  1  0.250000  0.269266  0.869090  1
  P  P29  1  0.250000  0.230734  0.369090  1
  P  P30  1  0.750000  0.726171  0.127781  1
  P  P31  1  0.750000  0.773829  0.627781  1
  P  P32  1  0.250000  0.600888  0.390676  1
  P  P33  1  0.250000  0.899112  0.890676  1
  P  P34  1  0.750000  0.398689  0.608541  1
  P  P35  1  0.750000  0.101311  0.108541  1
