# generated using pymatgen
data_TbNdEu(Co3P2)3
_symmetry_space_group_name_H-M   'P 1'
_cell_length_a   3.73960200
_cell_length_b   10.59871200
_cell_length_c   12.27435700
_cell_angle_alpha   90.00000000
_cell_angle_beta   90.00000000
_cell_angle_gamma   90.00000000
_symmetry_Int_Tables_number   1
_chemical_formula_structural   TbNdEu(Co3P2)3
_chemical_formula_sum   'Tb2 Nd2 Eu2 Co18 P12'
_cell_volume   486.49370509
_cell_formula_units_Z   2
loop_
 _symmetry_equiv_pos_site_id
 _symmetry_equiv_pos_as_xyz
  1  'x, y, z'
loop_
 _atom_site_type_symbol
 _atom_site_label
 _atom_site_symmetry_multiplicity
 _atom_site_fract_x
 _atom_site_fract_y
 _atom_site_fract_z
 _atom_site_occupancy
  Tb  Tb0  1  0.500000  0.817863  0.205072  1
  Tb  Tb1  1  0.500000  0.182137  0.205072  1
  Nd  Nd2  1  0.000000  0.500000  0.521824  1
  Nd  Nd3  1  0.500000  0.000000  0.477167  1
  Eu  Eu4  1  0.000000  0.680791  0.794672  1
  Eu  Eu5  1  0.000000  0.319209  0.794672  1
  Co  Co6  1  0.500000  0.500000  0.156961  1
  Co  Co7  1  0.000000  0.000000  0.844550  1
  Co  Co8  1  0.500000  0.500000  0.703998  1
  Co  Co9  1  0.000000  0.000000  0.294596  1
  Co  Co10  1  0.000000  0.500000  0.990532  1
  Co  Co11  1  0.500000  0.000000  0.013767  1
  Co  Co12  1  0.500000  0.332186  0.997648  1
  Co  Co13  1  0.500000  0.667814  0.997648  1
  Co  Co14  1  0.000000  0.165885  0.006328  1
  Co  Co15  1  0.000000  0.834115  0.006328  1
  Co  Co16  1  0.500000  0.296869  0.428056  1
  Co  Co17  1  0.500000  0.703131  0.428056  1
  Co  Co18  1  0.000000  0.202822  0.568309  1
  Co  Co19  1  0.000000  0.797178  0.568309  1
  Co  Co20  1  0.500000  0.881299  0.710505  1
  Co  Co21  1  0.500000  0.118701  0.710505  1
  Co  Co22  1  0.000000  0.620034  0.287511  1
  Co  Co23  1  0.000000  0.379966  0.287511  1
  P  P24  1  0.500000  0.500000  0.887888  1
  P  P25  1  0.000000  0.000000  0.116168  1
  P  P26  1  0.500000  0.500000  0.338647  1
  P  P27  1  0.000000  0.000000  0.661387  1
  P  P28  1  0.500000  0.305253  0.614844  1
  P  P29  1  0.500000  0.694747  0.614844  1
  P  P30  1  0.000000  0.193070  0.382260  1
  P  P31  1  0.000000  0.806930  0.382260  1
  P  P32  1  0.500000  0.847581  0.894972  1
  P  P33  1  0.500000  0.152419  0.894972  1
  P  P34  1  0.000000  0.654215  0.106084  1
  P  P35  1  0.000000  0.345785  0.106084  1
