# generated using pymatgen
data_Y10In2OsPd
_symmetry_space_group_name_H-M   'P 1'
_cell_length_a   9.80750000
_cell_length_b   9.65229200
_cell_length_c   9.46941200
_cell_angle_alpha   90.00000000
_cell_angle_beta   90.00000000
_cell_angle_gamma   119.77667111
_symmetry_Int_Tables_number   1
_chemical_formula_structural   Y10In2OsPd
_chemical_formula_sum   'Y20 In4 Os2 Pd2'
_cell_volume   778.06407082
_cell_formula_units_Z   2
loop_
 _symmetry_equiv_pos_site_id
 _symmetry_equiv_pos_as_xyz
  1  'x, y, z'
loop_
 _atom_site_type_symbol
 _atom_site_label
 _atom_site_symmetry_multiplicity
 _atom_site_fract_x
 _atom_site_fract_y
 _atom_site_fract_z
 _atom_site_occupancy
  Y  Y0  1  0.976558  0.987830  0.457113  1
  Y  Y1  1  0.976558  0.987830  0.042887  1
  Y  Y2  1  0.555396  0.475139  0.250000  1
  Y  Y3  1  0.555098  0.080893  0.250000  1
  Y  Y4  1  0.930731  0.464898  0.250000  1
  Y  Y5  1  0.460168  0.534342  0.750000  1
  Y  Y6  1  0.463056  0.927630  0.750000  1
  Y  Y7  1  0.084425  0.541575  0.750000  1
  Y  Y8  1  0.208338  0.798240  0.439545  1
  Y  Y9  1  0.206854  0.410562  0.439547  1
  Y  Y10  1  0.574640  0.788538  0.444665  1
  Y  Y11  1  0.797140  0.208683  0.558253  1
  Y  Y12  1  0.796531  0.587635  0.558244  1
  Y  Y13  1  0.413759  0.207237  0.556396  1
  Y  Y14  1  0.797140  0.208683  0.941747  1
  Y  Y15  1  0.796531  0.587635  0.941756  1
  Y  Y16  1  0.413759  0.207237  0.943604  1
  Y  Y17  1  0.208338  0.798240  0.060455  1
  Y  Y18  1  0.206854  0.410562  0.060453  1
  Y  Y19  1  0.574640  0.788538  0.055335  1
  In  In20  1  0.257201  0.127483  0.250000  1
  In  In21  1  0.108278  0.893703  0.750000  1
  In  In22  1  0.108993  0.215125  0.750000  1
  In  In23  1  0.778325  0.889852  0.750000  1
  Os  Os24  1  0.329290  0.663820  0.250000  1
  Os  Os25  1  0.662963  0.329907  0.750000  1
  Pd  Pd26  1  0.878807  0.143387  0.250000  1
  Pd  Pd27  1  0.879626  0.734800  0.250000  1
