# generated using pymatgen
data_NaSc(SeO4)2
_symmetry_space_group_name_H-M   'P 1'
_cell_length_a   5.14219712
_cell_length_b   5.14219738
_cell_length_c   7.49497509
_cell_angle_alpha   89.84518705
_cell_angle_beta   89.84518834
_cell_angle_gamma   66.47205097
_symmetry_Int_Tables_number   1
_chemical_formula_structural   NaSc(SeO4)2
_chemical_formula_sum   'Na1 Sc1 Se2 O8'
_cell_volume   181.70672526
_cell_formula_units_Z   1
loop_
 _symmetry_equiv_pos_site_id
 _symmetry_equiv_pos_as_xyz
  1  'x, y, z'
loop_
 _atom_site_type_symbol
 _atom_site_label
 _atom_site_symmetry_multiplicity
 _atom_site_fract_x
 _atom_site_fract_y
 _atom_site_fract_z
 _atom_site_occupancy
  Na  Na0  1  0.000000  0.000000  0.500000  1
  Sc  Sc1  1  0.000000  0.000000  0.000000  1
  Se  Se2  1  0.358480  0.358480  0.772467  1
  Se  Se3  1  0.641520  0.641520  0.227533  1
  O  O4  1  0.274429  0.274429  0.577487  1
  O  O5  1  0.725571  0.725571  0.422513  1
  O  O6  1  0.715322  0.230791  0.792506  1
  O  O7  1  0.284678  0.769209  0.207494  1
  O  O8  1  0.769209  0.284678  0.207494  1
  O  O9  1  0.230791  0.715322  0.792506  1
  O  O10  1  0.237264  0.237264  0.947810  1
  O  O11  1  0.762736  0.762736  0.052190  1
