# generated using pymatgen
data_Li3Zr2In(Si2O5)6
_symmetry_space_group_name_H-M   'P 1'
_cell_length_a   10.25809800
_cell_length_b   10.25809673
_cell_length_c   14.57863000
_cell_angle_alpha   90.00000000
_cell_angle_beta   90.00000000
_cell_angle_gamma   120.00000408
_symmetry_Int_Tables_number   1
_chemical_formula_structural   Li3Zr2In(Si2O5)6
_chemical_formula_sum   'Li6 Zr4 In2 Si24 O60'
_cell_volume   1328.55935427
_cell_formula_units_Z   2
loop_
 _symmetry_equiv_pos_site_id
 _symmetry_equiv_pos_as_xyz
  1  'x, y, z'
loop_
 _atom_site_type_symbol
 _atom_site_label
 _atom_site_symmetry_multiplicity
 _atom_site_fract_x
 _atom_site_fract_y
 _atom_site_fract_z
 _atom_site_occupancy
  Li  Li0  1  0.000000  0.500000  0.250000  1
  Li  Li1  1  0.500000  0.500000  0.750000  1
  Li  Li2  1  0.500000  0.000000  0.750000  1
  Li  Li3  1  0.000000  0.500000  0.750000  1
  Li  Li4  1  0.500000  0.500000  0.250000  1
  Li  Li5  1  0.500000  0.000000  0.250000  1
  Zr  Zr6  1  0.666667  0.333333  0.750000  1
  Zr  Zr7  1  0.333333  0.666667  0.750000  1
  Zr  Zr8  1  0.666667  0.333333  0.250000  1
  Zr  Zr9  1  0.333333  0.666667  0.250000  1
  In  In10  1  0.000000  0.000000  0.750000  1
  In  In11  1  0.000000  0.000000  0.250000  1
  Si  Si12  1  0.887355  0.239538  0.608309  1
  Si  Si13  1  0.760462  0.647818  0.608309  1
  Si  Si14  1  0.352182  0.112645  0.608309  1
  Si  Si15  1  0.647818  0.887355  0.608309  1
  Si  Si16  1  0.112645  0.352182  0.891691  1
  Si  Si17  1  0.112645  0.760462  0.608309  1
  Si  Si18  1  0.239538  0.352182  0.608309  1
  Si  Si19  1  0.760462  0.112645  0.891691  1
  Si  Si20  1  0.352182  0.239538  0.891691  1
  Si  Si21  1  0.647818  0.760462  0.891691  1
  Si  Si22  1  0.239538  0.887355  0.891691  1
  Si  Si23  1  0.887355  0.647818  0.891691  1
  Si  Si24  1  0.112645  0.760462  0.391691  1
  Si  Si25  1  0.239538  0.352182  0.391691  1
  Si  Si26  1  0.647818  0.887355  0.391691  1
  Si  Si27  1  0.112645  0.352182  0.108309  1
  Si  Si28  1  0.887355  0.647818  0.108309  1
  Si  Si29  1  0.887355  0.239538  0.391691  1
  Si  Si30  1  0.760462  0.647818  0.391691  1
  Si  Si31  1  0.239538  0.887355  0.108309  1
  Si  Si32  1  0.647818  0.760462  0.108309  1
  Si  Si33  1  0.352182  0.239538  0.108309  1
  Si  Si34  1  0.760462  0.112645  0.108309  1
  Si  Si35  1  0.352182  0.112645  0.391691  1
  O  O36  1  0.218476  0.278194  0.131854  1
  O  O37  1  0.659257  0.156033  0.827668  1
  O  O38  1  0.496775  0.340743  0.827668  1
  O  O39  1  0.503225  0.659257  0.827668  1
  O  O40  1  0.340743  0.843967  0.827668  1
  O  O41  1  0.843967  0.503225  0.827668  1
  O  O42  1  0.156033  0.659257  0.327668  1
  O  O43  1  0.340743  0.496775  0.327668  1
  O  O44  1  0.503225  0.843967  0.327668  1
  O  O45  1  0.496775  0.156033  0.327668  1
  O  O46  1  0.843967  0.503225  0.172332  1
  O  O47  1  0.843967  0.340743  0.327668  1
  O  O48  1  0.659257  0.503225  0.327668  1
  O  O49  1  0.340743  0.843967  0.172332  1
  O  O50  1  0.503225  0.659257  0.172332  1
  O  O51  1  0.496775  0.340743  0.172332  1
  O  O52  1  0.659257  0.156033  0.172332  1
  O  O53  1  0.059719  0.278194  0.631854  1
  O  O54  1  0.781524  0.059719  0.631854  1
  O  O55  1  0.940281  0.721806  0.631854  1
  O  O56  1  0.278194  0.218476  0.631854  1
  O  O57  1  0.721806  0.781524  0.631854  1
  O  O58  1  0.218476  0.278194  0.868146  1
  O  O59  1  0.218476  0.940281  0.631854  1
  O  O60  1  0.843967  0.340743  0.672332  1
  O  O61  1  0.156033  0.659257  0.672332  1
  O  O62  1  0.156033  0.496775  0.827668  1
  O  O63  1  0.503225  0.843967  0.672332  1
  O  O64  1  0.496775  0.156033  0.672332  1
  O  O65  1  0.659257  0.503225  0.672332  1
  O  O66  1  0.126932  0.396092  0.000000  1
  O  O67  1  0.730839  0.126932  0.000000  1
  O  O68  1  0.396092  0.269161  0.000000  1
  O  O69  1  0.603908  0.730839  0.000000  1
  O  O70  1  0.269161  0.873068  0.000000  1
  O  O71  1  0.730839  0.603908  0.500000  1
  O  O72  1  0.873068  0.269161  0.500000  1
  O  O73  1  0.873068  0.603908  0.000000  1
  O  O74  1  0.396092  0.126932  0.500000  1
  O  O75  1  0.603908  0.873068  0.500000  1
  O  O76  1  0.269161  0.396092  0.500000  1
  O  O77  1  0.126932  0.730839  0.500000  1
  O  O78  1  0.340743  0.496775  0.672332  1
  O  O79  1  0.940281  0.218476  0.131854  1
  O  O80  1  0.278194  0.059719  0.131854  1
  O  O81  1  0.721806  0.940281  0.131854  1
  O  O82  1  0.059719  0.781524  0.131854  1
  O  O83  1  0.940281  0.721806  0.368146  1
  O  O84  1  0.781524  0.059719  0.368146  1
  O  O85  1  0.781524  0.721806  0.131854  1
  O  O86  1  0.278194  0.218476  0.368146  1
  O  O87  1  0.721806  0.781524  0.368146  1
  O  O88  1  0.059719  0.278194  0.368146  1
  O  O89  1  0.218476  0.940281  0.368146  1
  O  O90  1  0.781524  0.721806  0.868146  1
  O  O91  1  0.059719  0.781524  0.868146  1
  O  O92  1  0.721806  0.940281  0.868146  1
  O  O93  1  0.278194  0.059719  0.868146  1
  O  O94  1  0.940281  0.218476  0.868146  1
  O  O95  1  0.156033  0.496775  0.172332  1
