# generated using pymatgen
data_CsTb8Er2(C2I9)2
_symmetry_space_group_name_H-M   'P 1'
_cell_length_a   11.49551018
_cell_length_b   11.50593822
_cell_length_c   11.52409844
_cell_angle_alpha   113.21296000
_cell_angle_beta   86.71910005
_cell_angle_gamma   120.02476181
_symmetry_Int_Tables_number   1
_chemical_formula_structural   CsTb8Er2(C2I9)2
_chemical_formula_sum   'Cs1 Tb8 Er2 C4 I18'
_cell_volume   1193.95939406
_cell_formula_units_Z   1
loop_
 _symmetry_equiv_pos_site_id
 _symmetry_equiv_pos_as_xyz
  1  'x, y, z'
loop_
 _atom_site_type_symbol
 _atom_site_label
 _atom_site_symmetry_multiplicity
 _atom_site_fract_x
 _atom_site_fract_y
 _atom_site_fract_z
 _atom_site_occupancy
  Cs  Cs0  1  0.500000  0.999873  0.499908  1
  Tb  Tb1  1  0.093637  0.391176  0.292018  1
  Tb  Tb2  1  0.964315  0.037612  0.323259  1
  Tb  Tb3  1  0.906826  0.608982  0.707986  1
  Tb  Tb4  1  0.104311  0.944460  0.000348  1
  Tb  Tb5  1  0.035548  0.962507  0.676166  1
  Tb  Tb6  1  0.321877  0.275382  0.288597  1
  Tb  Tb7  1  0.722701  0.647357  0.984512  1
  Tb  Tb8  1  0.895504  0.055666  0.999824  1
  Er  Er9  1  0.680632  0.725371  0.713432  1
  Er  Er10  1  0.275025  0.350153  0.016220  1
  C  C11  1  0.151881  0.220090  0.120748  1
  C  C12  1  0.847380  0.779576  0.878377  1
  C  C13  1  0.923083  0.855708  0.802625  1
  C  C14  1  0.076120  0.144044  0.196372  1
  I  I15  1  0.450542  0.530820  0.831119  1
  I  I16  1  0.383366  0.039632  0.157398  1
  I  I17  1  0.776308  0.853825  0.502897  1
  I  I18  1  0.837572  0.309917  0.153176  1
  I  I19  1  0.546812  0.468965  0.166107  1
  I  I20  1  0.222355  0.144977  0.498632  1
  I  I21  1  0.317305  0.099488  0.831933  1
  I  I22  1  0.682452  0.903989  0.170354  1
  I  I23  1  0.974789  0.756089  0.169397  1
  I  I24  1  0.933199  0.298511  0.501934  1
  I  I25  1  0.028807  0.246014  0.832592  1
  I  I26  1  0.067195  0.701888  0.498120  1
  I  I27  1  0.261967  0.618852  0.179413  1
  I  I28  1  0.739159  0.377890  0.817361  1
  I  I29  1  0.642079  0.439058  0.502802  1
  I  I30  1  0.162392  0.690053  0.846238  1
  I  I31  1  0.617279  0.956595  0.840339  1
  I  I32  1  0.357582  0.565479  0.499793  1
