# generated using pymatgen
data_Ti8Al15Os5Pt2
_symmetry_space_group_name_H-M   'P 1'
_cell_length_a   8.70034675
_cell_length_b   8.68744081
_cell_length_c   8.70031288
_cell_angle_alpha   120.27670187
_cell_angle_beta   119.88637596
_cell_angle_gamma   89.90272131
_symmetry_Int_Tables_number   1
_chemical_formula_structural   Ti8Al15Os5Pt2
_chemical_formula_sum   'Ti8 Al15 Os5 Pt2'
_cell_volume   464.23724021
_cell_formula_units_Z   1
loop_
 _symmetry_equiv_pos_site_id
 _symmetry_equiv_pos_as_xyz
  1  'x, y, z'
loop_
 _atom_site_type_symbol
 _atom_site_label
 _atom_site_symmetry_multiplicity
 _atom_site_fract_x
 _atom_site_fract_y
 _atom_site_fract_z
 _atom_site_occupancy
  Ti  Ti0  1  0.797811  0.288369  0.067496  1
  Ti  Ti1  1  0.220860  0.288365  0.490549  1
  Ti  Ti2  1  0.210750  0.700994  0.490242  1
  Ti  Ti3  1  0.211143  0.716172  0.930259  1
  Ti  Ti4  1  0.785917  0.716167  0.505029  1
  Ti  Ti5  1  0.778427  0.292202  0.513776  1
  Ti  Ti6  1  0.385501  0.129124  0.743625  1
  Ti  Ti7  1  0.378952  0.635013  0.256065  1
  Al  Al8  1  0.995607  0.495461  0.499847  1
  Al  Al9  1  0.159877  0.340471  0.180589  1
  Al  Al10  1  0.153451  0.962998  0.809544  1
  Al  Al11  1  0.152904  0.347090  0.805378  1
  Al  Al12  1  0.541714  0.347088  0.194183  1
  Al  Al13  1  0.843266  0.658838  0.815576  1
  Al  Al14  1  0.847399  0.045754  0.198348  1
  Al  Al15  1  0.842090  0.653001  0.187804  1
  Al  Al16  1  0.465200  0.653004  0.810916  1
  Al  Al17  1  0.377525  0.120500  0.258243  1
  Al  Al18  1  0.862260  0.120494  0.742974  1
  Al  Al19  1  0.617577  0.873671  0.256103  1
  Al  Al20  1  0.619900  0.366239  0.746326  1
  Al  Al21  1  0.621065  0.876520  0.739259  1
  Al  Al22  1  0.137258  0.876519  0.255456  1
  Os  Os23  1  0.498254  0.498975  0.000722  1
  Os  Os24  1  0.498915  0.498223  0.499325  1
  Os  Os25  1  0.998901  0.498223  0.999310  1
  Os  Os26  1  0.999498  0.002286  0.002797  1
  Os  Os27  1  0.499665  0.000517  0.500856  1
  Pt  Pt28  1  0.999445  0.998860  0.499989  1
  Pt  Pt29  1  0.498867  0.998858  0.999411  1
