# generated using pymatgen
data_Pr2Be2Fe(SiO5)2
_symmetry_space_group_name_H-M   'P 1'
_cell_length_a   7.77898300
_cell_length_b   4.87890515
_cell_length_c   10.22917814
_cell_angle_alpha   90.38261879
_cell_angle_beta   90.00000000
_cell_angle_gamma   90.00000000
_symmetry_Int_Tables_number   1
_chemical_formula_structural   Pr2Be2Fe(SiO5)2
_chemical_formula_sum   'Pr4 Be4 Fe2 Si4 O20'
_cell_volume   388.21852522
_cell_formula_units_Z   2
loop_
 _symmetry_equiv_pos_site_id
 _symmetry_equiv_pos_as_xyz
  1  'x, y, z'
loop_
 _atom_site_type_symbol
 _atom_site_label
 _atom_site_symmetry_multiplicity
 _atom_site_fract_x
 _atom_site_fract_y
 _atom_site_fract_z
 _atom_site_occupancy
  Pr  Pr0  1  0.610214  0.996727  0.827110  1
  Pr  Pr1  1  0.110214  0.003273  0.672890  1
  Pr  Pr2  1  0.389786  0.003273  0.172890  1
  Pr  Pr3  1  0.889786  0.996727  0.327110  1
  Be  Be4  1  0.912318  0.530410  0.839517  1
  Be  Be5  1  0.412318  0.469590  0.660483  1
  Be  Be6  1  0.087682  0.469590  0.160483  1
  Be  Be7  1  0.587682  0.530410  0.339517  1
  Fe  Fe8  1  0.000000  0.000000  0.000000  1
  Fe  Fe9  1  0.500000  0.000000  0.500000  1
  Si  Si10  1  0.773604  0.478603  0.580508  1
  Si  Si11  1  0.273604  0.521397  0.919492  1
  Si  Si12  1  0.226396  0.521397  0.419492  1
  Si  Si13  1  0.726396  0.478603  0.080508  1
  O  O14  1  0.601781  0.318075  0.639002  1
  O  O15  1  0.101781  0.681925  0.860998  1
  O  O16  1  0.398219  0.681925  0.360998  1
  O  O17  1  0.898219  0.318075  0.139002  1
  O  O18  1  0.413087  0.796619  0.661491  1
  O  O19  1  0.913087  0.203381  0.838509  1
  O  O20  1  0.586913  0.203381  0.338509  1
  O  O21  1  0.209934  0.328503  0.043162  1
  O  O22  1  0.591498  0.243280  0.032877  1
  O  O23  1  0.091498  0.756720  0.467123  1
  O  O24  1  0.843988  0.677013  0.700527  1
  O  O25  1  0.908502  0.243280  0.532877  1
  O  O26  1  0.709934  0.671497  0.456838  1
  O  O27  1  0.408502  0.756720  0.967123  1
  O  O28  1  0.290066  0.328503  0.543162  1
  O  O29  1  0.790066  0.671497  0.956838  1
  O  O30  1  0.656012  0.677013  0.200527  1
  O  O31  1  0.156012  0.322987  0.299473  1
  O  O32  1  0.343988  0.322987  0.799473  1
  O  O33  1  0.086913  0.796619  0.161491  1
