# generated using pymatgen
data_Ni8Bi8B
_symmetry_space_group_name_H-M   'P 1'
_cell_length_a   4.20279100
_cell_length_b   10.08827600
_cell_length_c   17.74783300
_cell_angle_alpha   90.00000000
_cell_angle_beta   90.00000000
_cell_angle_gamma   90.00000000
_symmetry_Int_Tables_number   1
_chemical_formula_structural   Ni8Bi8B
_chemical_formula_sum   'Ni16 Bi16 B2'
_cell_volume   752.48887307
_cell_formula_units_Z   2
loop_
 _symmetry_equiv_pos_site_id
 _symmetry_equiv_pos_as_xyz
  1  'x, y, z'
loop_
 _atom_site_type_symbol
 _atom_site_label
 _atom_site_symmetry_multiplicity
 _atom_site_fract_x
 _atom_site_fract_y
 _atom_site_fract_z
 _atom_site_occupancy
  Ni  Ni0  1  0.500850  0.826433  0.969650  1
  Ni  Ni1  1  0.500850  0.173567  0.030350  1
  Ni  Ni2  1  0.499150  0.673567  0.469650  1
  Ni  Ni3  1  0.499150  0.326433  0.530350  1
  Ni  Ni4  1  0.996950  0.916421  0.910432  1
  Ni  Ni5  1  0.996950  0.083579  0.089568  1
  Ni  Ni6  1  0.003050  0.583579  0.410432  1
  Ni  Ni7  1  0.003050  0.416421  0.589568  1
  Ni  Ni8  1  0.996432  0.837020  0.048798  1
  Ni  Ni9  1  0.996432  0.162980  0.951202  1
  Ni  Ni10  1  0.003568  0.662980  0.548798  1
  Ni  Ni11  1  0.003568  0.337020  0.451202  1
  Ni  Ni12  1  0.501505  0.945629  0.098353  1
  Ni  Ni13  1  0.501505  0.054371  0.901647  1
  Ni  Ni14  1  0.498495  0.554371  0.598353  1
  Ni  Ni15  1  0.498495  0.445629  0.401647  1
  Bi  Bi16  1  0.497356  0.832673  0.817102  1
  Bi  Bi17  1  0.497356  0.167327  0.182898  1
  Bi  Bi18  1  0.502644  0.667327  0.317102  1
  Bi  Bi19  1  0.502644  0.332673  0.682898  1
  Bi  Bi20  1  0.496448  0.677870  0.095921  1
  Bi  Bi21  1  0.496448  0.322130  0.904079  1
  Bi  Bi22  1  0.503552  0.822130  0.595921  1
  Bi  Bi23  1  0.503552  0.177870  0.404079  1
  Bi  Bi24  1  0.000284  0.652059  0.938041  1
  Bi  Bi25  1  0.000284  0.347941  0.061959  1
  Bi  Bi26  1  0.999716  0.847941  0.438041  1
  Bi  Bi27  1  0.999716  0.152059  0.561959  1
  Bi  Bi28  1  0.002076  0.897717  0.198123  1
  Bi  Bi29  1  0.002076  0.102283  0.801877  1
  Bi  Bi30  1  0.997924  0.602283  0.698123  1
  Bi  Bi31  1  0.997924  0.397717  0.301877  1
  B  B32  1  0.748418  0.000000  0.000000  1
  B  B33  1  0.251582  0.500000  0.500000  1
