# generated using pymatgen
data_HoPa(ZnCo)2
_symmetry_space_group_name_H-M   'P 1'
_cell_length_a   3.62008600
_cell_length_b   6.90336663
_cell_length_c   8.31299170
_cell_angle_alpha   92.44815715
_cell_angle_beta   90.00000000
_cell_angle_gamma   90.00000000
_symmetry_Int_Tables_number   1
_chemical_formula_structural   HoPa(ZnCo)2
_chemical_formula_sum   'Ho2 Pa2 Zn4 Co4'
_cell_volume   207.55853826
_cell_formula_units_Z   2
loop_
 _symmetry_equiv_pos_site_id
 _symmetry_equiv_pos_as_xyz
  1  'x, y, z'
loop_
 _atom_site_type_symbol
 _atom_site_label
 _atom_site_symmetry_multiplicity
 _atom_site_fract_x
 _atom_site_fract_y
 _atom_site_fract_z
 _atom_site_occupancy
  Ho  Ho0  1  0.250000  0.046096  0.315552  1
  Ho  Ho1  1  0.750000  0.953904  0.684448  1
  Pa  Pa2  1  0.250000  0.538433  0.190392  1
  Pa  Pa3  1  0.750000  0.461567  0.809608  1
  Zn  Zn4  1  0.250000  0.128755  0.945322  1
  Zn  Zn5  1  0.750000  0.871245  0.054678  1
  Zn  Zn6  1  0.250000  0.639090  0.550719  1
  Zn  Zn7  1  0.750000  0.360910  0.449281  1
  Co  Co8  1  0.750000  0.734001  0.340377  1
  Co  Co9  1  0.250000  0.265999  0.659623  1
  Co  Co10  1  0.750000  0.284689  0.134588  1
  Co  Co11  1  0.250000  0.715311  0.865412  1
