# generated using pymatgen
data_DyEr19Si15Rh
_symmetry_space_group_name_H-M   'P 1'
_cell_length_a   7.37120919
_cell_length_b   7.61319493
_cell_length_c   14.44861205
_cell_angle_alpha   90.29602120
_cell_angle_beta   90.34489059
_cell_angle_gamma   90.19845470
_symmetry_Int_Tables_number   1
_chemical_formula_structural   DyEr19Si15Rh
_chemical_formula_sum   'Dy1 Er19 Si15 Rh1'
_cell_volume   810.80328521
_cell_formula_units_Z   1
loop_
 _symmetry_equiv_pos_site_id
 _symmetry_equiv_pos_as_xyz
  1  'x, y, z'
loop_
 _atom_site_type_symbol
 _atom_site_label
 _atom_site_symmetry_multiplicity
 _atom_site_fract_x
 _atom_site_fract_y
 _atom_site_fract_z
 _atom_site_occupancy
  Dy  Dy0  1  0.024864  0.818792  0.599457  1
  Er  Er1  1  0.525689  0.683601  0.597752  1
  Er  Er2  1  0.321318  0.818889  0.121850  1
  Er  Er3  1  0.816710  0.680103  0.122549  1
  Er  Er4  1  0.851559  0.506490  0.749301  1
  Er  Er5  1  0.471421  0.316092  0.099529  1
  Er  Er6  1  0.028186  0.818443  0.901769  1
  Er  Er7  1  0.472025  0.316043  0.401682  1
  Er  Er8  1  0.652691  0.012121  0.257747  1
  Er  Er9  1  0.529569  0.682520  0.900566  1
  Er  Er10  1  0.681296  0.179865  0.877659  1
  Er  Er11  1  0.178103  0.320988  0.623818  1
  Er  Er12  1  0.184204  0.322635  0.875620  1
  Er  Er13  1  0.816388  0.688308  0.382222  1
  Er  Er14  1  0.323333  0.825193  0.377813  1
  Er  Er15  1  0.352452  0.990693  0.747562  1
  Er  Er16  1  0.683395  0.165067  0.618094  1
  Er  Er17  1  0.147169  0.490259  0.252179  1
  Er  Er18  1  0.971227  0.181056  0.098242  1
  Er  Er19  1  0.971653  0.177027  0.401359  1
  Si  Si20  1  0.233460  0.629091  0.750886  1
  Si  Si21  1  0.343144  0.028500  0.541040  1
  Si  Si22  1  0.027071  0.892842  0.246714  1
  Si  Si23  1  0.733752  0.869469  0.752195  1
  Si  Si24  1  0.265685  0.128419  0.246187  1
  Si  Si25  1  0.850960  0.471522  0.541838  1
  Si  Si26  1  0.481316  0.391726  0.748702  1
  Si  Si27  1  0.148408  0.531367  0.461474  1
  Si  Si28  1  0.147431  0.528105  0.039867  1
  Si  Si29  1  0.977837  0.104189  0.751820  1
  Si  Si30  1  0.768431  0.375790  0.248824  1
  Si  Si31  1  0.350719  0.029955  0.959874  1
  Si  Si32  1  0.856018  0.471288  0.959243  1
  Si  Si33  1  0.646928  0.970761  0.039175  1
  Si  Si34  1  0.521940  0.603447  0.248507  1
  Rh  Rh35  1  0.643650  0.979342  0.456887  1
