# generated using pymatgen
data_LuZn8(CuNi)2
_symmetry_space_group_name_H-M   'P 1'
_cell_length_a   6.61040419
_cell_length_b   6.60023393
_cell_length_c   6.61040327
_cell_angle_alpha   98.16042586
_cell_angle_beta   98.45568349
_cell_angle_gamma   135.42438454
_symmetry_Int_Tables_number   1
_chemical_formula_structural   LuZn8(CuNi)2
_chemical_formula_sum   'Lu1 Zn8 Cu2 Ni2'
_cell_volume   187.15495056
_cell_formula_units_Z   1
loop_
 _symmetry_equiv_pos_site_id
 _symmetry_equiv_pos_as_xyz
  1  'x, y, z'
loop_
 _atom_site_type_symbol
 _atom_site_label
 _atom_site_symmetry_multiplicity
 _atom_site_fract_x
 _atom_site_fract_y
 _atom_site_fract_z
 _atom_site_occupancy
  Lu  Lu0  1  0.000000  0.000000  0.000000  1
  Zn  Zn1  1  0.009413  0.353872  0.344459  1
  Zn  Zn2  1  0.990587  0.646128  0.655541  1
  Zn  Zn3  1  0.655670  0.000000  0.655670  1
  Zn  Zn4  1  0.344330  0.000000  0.344330  1
  Zn  Zn5  1  0.505777  0.286740  0.780963  1
  Zn  Zn6  1  0.494223  0.713260  0.219037  1
  Zn  Zn7  1  0.719337  0.500000  0.219337  1
  Zn  Zn8  1  0.280663  0.500000  0.780663  1
  Cu  Cu9  1  0.000000  0.000000  0.500000  1
  Cu  Cu10  1  0.500000  0.000000  0.000000  1
  Ni  Ni11  1  0.500000  0.500000  0.500000  1
  Ni  Ni12  1  0.000000  0.500000  0.000000  1
