# generated using pymatgen
data_HoErU2(B4Ru)4
_symmetry_space_group_name_H-M   'P 1'
_cell_length_a   3.54265400
_cell_length_b   5.95135676
_cell_length_c   11.51513200
_cell_angle_alpha   89.89728161
_cell_angle_beta   90.00000000
_cell_angle_gamma   90.00000000
_symmetry_Int_Tables_number   1
_chemical_formula_structural   HoErU2(B4Ru)4
_chemical_formula_sum   'Ho1 Er1 U2 B16 Ru4'
_cell_volume   242.78002201
_cell_formula_units_Z   1
loop_
 _symmetry_equiv_pos_site_id
 _symmetry_equiv_pos_as_xyz
  1  'x, y, z'
loop_
 _atom_site_type_symbol
 _atom_site_label
 _atom_site_symmetry_multiplicity
 _atom_site_fract_x
 _atom_site_fract_y
 _atom_site_fract_z
 _atom_site_occupancy
  Ho  Ho0  1  0.000000  0.129220  0.148278  1
  Er  Er1  1  0.000000  0.870905  0.851848  1
  U  U2  1  0.000000  0.628618  0.349230  1
  U  U3  1  0.000000  0.371392  0.650799  1
  B  B4  1  0.500000  0.789320  0.187177  1
  B  B5  1  0.500000  0.210176  0.812834  1
  B  B6  1  0.500000  0.291279  0.313059  1
  B  B7  1  0.500000  0.708826  0.687115  1
  B  B8  1  0.500000  0.863848  0.030701  1
  B  B9  1  0.500000  0.135994  0.968931  1
  B  B10  1  0.500000  0.367900  0.467387  1
  B  B11  1  0.500000  0.632096  0.532640  1
  B  B12  1  0.500000  0.885871  0.452905  1
  B  B13  1  0.500000  0.114054  0.547160  1
  B  B14  1  0.500000  0.386850  0.045968  1
  B  B15  1  0.500000  0.613617  0.953724  1
  B  B16  1  0.500000  0.975213  0.307683  1
  B  B17  1  0.500000  0.024563  0.692530  1
  B  B18  1  0.500000  0.474450  0.191915  1
  B  B19  1  0.500000  0.525890  0.808072  1
  Ru  Ru20  1  0.000000  0.639217  0.094765  1
  Ru  Ru21  1  0.000000  0.360749  0.905000  1
  Ru  Ru22  1  0.000000  0.141264  0.406734  1
  Ru  Ru23  1  0.000000  0.858686  0.593545  1
