# generated using pymatgen
data_CsCuWSe4
_symmetry_space_group_name_H-M   'P 1'
_cell_length_a   6.96864379
_cell_length_b   6.96864498
_cell_length_c   6.96864456
_cell_angle_alpha   99.37482253
_cell_angle_beta   99.37483475
_cell_angle_gamma   132.39322464
_symmetry_Int_Tables_number   1
_chemical_formula_structural   CsCuWSe4
_chemical_formula_sum   'Cs1 Cu1 W1 Se4'
_cell_volume   228.66865707
_cell_formula_units_Z   1
loop_
 _symmetry_equiv_pos_site_id
 _symmetry_equiv_pos_as_xyz
  1  'x, y, z'
loop_
 _atom_site_type_symbol
 _atom_site_label
 _atom_site_symmetry_multiplicity
 _atom_site_fract_x
 _atom_site_fract_y
 _atom_site_fract_z
 _atom_site_occupancy
  Cs  Cs0  1  0.750000  0.250000  0.500000  1
  Cu  Cu1  1  0.500000  0.500000  0.000000  1
  W  W2  1  0.000000  0.000000  0.000000  1
  Se  Se3  1  0.344138  0.426613  0.293473  1
  Se  Se4  1  0.133140  0.050664  0.706527  1
  Se  Se5  1  0.949336  0.655862  0.082477  1
  Se  Se6  1  0.573387  0.866860  0.917523  1
