# generated using pymatgen
data_SrB(PdPt)2
_symmetry_space_group_name_H-M   'P 1'
_cell_length_a   5.57869500
_cell_length_b   6.15197600
_cell_length_c   11.98830000
_cell_angle_alpha   90.00000000
_cell_angle_beta   90.00000000
_cell_angle_gamma   90.00000000
_symmetry_Int_Tables_number   1
_chemical_formula_structural   SrB(PdPt)2
_chemical_formula_sum   'Sr4 B4 Pd8 Pt8'
_cell_volume   411.43842904
_cell_formula_units_Z   4
loop_
 _symmetry_equiv_pos_site_id
 _symmetry_equiv_pos_as_xyz
  1  'x, y, z'
loop_
 _atom_site_type_symbol
 _atom_site_label
 _atom_site_symmetry_multiplicity
 _atom_site_fract_x
 _atom_site_fract_y
 _atom_site_fract_z
 _atom_site_occupancy
  Sr  Sr0  1  0.750000  0.312974  0.162054  1
  Sr  Sr1  1  0.750000  0.812974  0.337946  1
  Sr  Sr2  1  0.250000  0.687026  0.837946  1
  Sr  Sr3  1  0.250000  0.187026  0.662054  1
  B  B4  1  0.750000  0.406928  0.548338  1
  B  B5  1  0.750000  0.906928  0.951662  1
  B  B6  1  0.250000  0.593072  0.451662  1
  B  B7  1  0.250000  0.093072  0.048338  1
  Pd  Pd8  1  0.750000  0.386642  0.734600  1
  Pd  Pd9  1  0.750000  0.886642  0.765400  1
  Pd  Pd10  1  0.250000  0.613358  0.265400  1
  Pd  Pd11  1  0.250000  0.113358  0.234600  1
  Pd  Pd12  1  0.750000  0.062612  0.557592  1
  Pd  Pd13  1  0.750000  0.562612  0.942408  1
  Pd  Pd14  1  0.250000  0.937388  0.442408  1
  Pd  Pd15  1  0.250000  0.437388  0.057592  1
  Pt  Pt16  1  0.997225  0.166495  0.912589  1
  Pt  Pt17  1  0.502775  0.666495  0.587411  1
  Pt  Pt18  1  0.497225  0.833505  0.087411  1
  Pt  Pt19  1  0.002775  0.333505  0.412589  1
  Pt  Pt20  1  0.002775  0.833505  0.087411  1
  Pt  Pt21  1  0.497225  0.333505  0.412589  1
  Pt  Pt22  1  0.502775  0.166495  0.912589  1
  Pt  Pt23  1  0.997225  0.666495  0.587411  1
