# generated using pymatgen
data_YTa(Bi3O7)2
_symmetry_space_group_name_H-M   'P 1'
_cell_length_a   6.65378225
_cell_length_b   6.86873674
_cell_length_c   7.79402600
_cell_angle_alpha   106.38559990
_cell_angle_beta   89.68704854
_cell_angle_gamma   100.05230979
_symmetry_Int_Tables_number   1
_chemical_formula_structural   YTa(Bi3O7)2
_chemical_formula_sum   'Y1 Ta1 Bi6 O14'
_cell_volume   336.13573982
_cell_formula_units_Z   1
loop_
 _symmetry_equiv_pos_site_id
 _symmetry_equiv_pos_as_xyz
  1  'x, y, z'
loop_
 _atom_site_type_symbol
 _atom_site_label
 _atom_site_symmetry_multiplicity
 _atom_site_fract_x
 _atom_site_fract_y
 _atom_site_fract_z
 _atom_site_occupancy
  Y  Y0  1  0.458446  0.998332  0.245990  1
  Ta  Ta1  1  0.998186  0.001476  0.001647  1
  Bi  Bi2  1  0.998579  0.004105  0.499413  1
  Bi  Bi3  1  0.525890  0.996231  0.753064  1
  Bi  Bi4  1  0.250790  0.519882  0.882456  1
  Bi  Bi5  1  0.737218  0.492087  0.115900  1
  Bi  Bi6  1  0.722642  0.468666  0.604768  1
  Bi  Bi7  1  0.268662  0.515789  0.385054  1
  O  O8  1  0.462596  0.652160  0.179226  1
  O  O9  1  0.532274  0.362228  0.819429  1
  O  O10  1  0.293413  0.942624  0.957725  1
  O  O11  1  0.726948  0.041653  0.071268  1
  O  O12  1  0.296402  0.921999  0.510099  1
  O  O13  1  0.706844  0.091018  0.488047  1
  O  O14  1  0.523303  0.344809  0.352476  1
  O  O15  1  0.463245  0.648001  0.638863  1
  O  O16  1  0.923262  0.692058  0.975225  1
  O  O17  1  0.089147  0.298786  0.023574  1
  O  O18  1  0.100505  0.331464  0.614235  1
  O  O19  1  0.890592  0.680481  0.378959  1
  O  O20  1  0.914153  0.932735  0.744269  1
  O  O21  1  0.116904  0.063414  0.258312  1
