# generated using pymatgen
data_Dy15ErIn2(AgRh2)2
_symmetry_space_group_name_H-M   'P 1'
_cell_length_a   9.61695046
_cell_length_b   9.58586224
_cell_length_c   9.59113937
_cell_angle_alpha   59.95989566
_cell_angle_beta   59.82102600
_cell_angle_gamma   59.80953830
_symmetry_Int_Tables_number   1
_chemical_formula_structural   Dy15ErIn2(AgRh2)2
_chemical_formula_sum   'Dy15 Er1 In2 Ag2 Rh4'
_cell_volume   623.26750005
_cell_formula_units_Z   1
loop_
 _symmetry_equiv_pos_site_id
 _symmetry_equiv_pos_as_xyz
  1  'x, y, z'
loop_
 _atom_site_type_symbol
 _atom_site_label
 _atom_site_symmetry_multiplicity
 _atom_site_fract_x
 _atom_site_fract_y
 _atom_site_fract_z
 _atom_site_occupancy
  Dy  Dy0  1  0.188468  0.188486  0.812887  1
  Dy  Dy1  1  0.438032  0.060723  0.061400  1
  Dy  Dy2  1  0.435349  0.060018  0.435753  1
  Dy  Dy3  1  0.066690  0.436778  0.058697  1
  Dy  Dy4  1  0.650235  0.052222  0.646605  1
  Dy  Dy5  1  0.190258  0.811118  0.811450  1
  Dy  Dy6  1  0.067234  0.058744  0.436261  1
  Dy  Dy7  1  0.808185  0.191443  0.192098  1
  Dy  Dy8  1  0.812129  0.810665  0.189978  1
  Dy  Dy9  1  0.649404  0.647086  0.052789  1
  Dy  Dy10  1  0.651569  0.650360  0.650167  1
  Dy  Dy11  1  0.062794  0.435594  0.435234  1
  Dy  Dy12  1  0.051304  0.648383  0.647415  1
  Dy  Dy13  1  0.811706  0.190298  0.810482  1
  Dy  Dy14  1  0.434921  0.436104  0.060010  1
  Er  Er15  1  0.188418  0.812014  0.189026  1
  In  In16  1  0.742836  0.421719  0.421839  1
  In  In17  1  0.417319  0.421383  0.421127  1
  Ag  Ag18  1  0.416027  0.749018  0.418560  1
  Ag  Ag19  1  0.416344  0.418664  0.748829  1
  Rh  Rh20  1  0.856883  0.427736  0.857448  1
  Rh  Rh21  1  0.857821  0.857412  0.426929  1
  Rh  Rh22  1  0.428754  0.856382  0.857520  1
  Rh  Rh23  1  0.857322  0.857646  0.857494  1
