# generated using pymatgen
data_Dy2Sc8BiSb5
_symmetry_space_group_name_H-M   'P 1'
_cell_length_a   7.74375000
_cell_length_b   8.89391667
_cell_length_c   11.38159385
_cell_angle_alpha   90.04428850
_cell_angle_beta   90.00000000
_cell_angle_gamma   90.00000000
_symmetry_Int_Tables_number   1
_chemical_formula_structural   Dy2Sc8BiSb5
_chemical_formula_sum   'Dy4 Sc16 Bi2 Sb10'
_cell_volume   783.87593827
_cell_formula_units_Z   2
loop_
 _symmetry_equiv_pos_site_id
 _symmetry_equiv_pos_as_xyz
  1  'x, y, z'
loop_
 _atom_site_type_symbol
 _atom_site_label
 _atom_site_symmetry_multiplicity
 _atom_site_fract_x
 _atom_site_fract_y
 _atom_site_fract_z
 _atom_site_occupancy
  Dy  Dy0  1  0.317870  0.250885  0.219050  1
  Dy  Dy1  1  0.817870  0.249115  0.280950  1
  Dy  Dy2  1  0.683097  0.750133  0.780591  1
  Dy  Dy3  1  0.183097  0.749867  0.719409  1
  Sc  Sc4  1  0.348403  0.750496  0.218086  1
  Sc  Sc5  1  0.848403  0.749504  0.281914  1
  Sc  Sc6  1  0.651490  0.250016  0.781330  1
  Sc  Sc7  1  0.151490  0.249984  0.718670  1
  Sc  Sc8  1  0.693126  0.563830  0.060149  1
  Sc  Sc9  1  0.193126  0.936170  0.439851  1
  Sc  Sc10  1  0.308987  0.064061  0.935451  1
  Sc  Sc11  1  0.808987  0.435939  0.564549  1
  Sc  Sc12  1  0.308096  0.436627  0.937112  1
  Sc  Sc13  1  0.808096  0.063373  0.562888  1
  Sc  Sc14  1  0.689581  0.935758  0.061794  1
  Sc  Sc15  1  0.189581  0.564242  0.438206  1
  Sc  Sc16  1  0.478020  0.247539  0.490821  1
  Sc  Sc17  1  0.978020  0.252461  0.009179  1
  Sc  Sc18  1  0.520793  0.752561  0.512864  1
  Sc  Sc19  1  0.020793  0.747439  0.987136  1
  Bi  Bi20  1  0.564075  0.510374  0.328816  1
  Bi  Bi21  1  0.064075  0.989626  0.171184  1
  Sb  Sb22  1  0.404352  0.749945  0.967563  1
  Sb  Sb23  1  0.904352  0.750055  0.532437  1
  Sb  Sb24  1  0.595461  0.250120  0.032146  1
  Sb  Sb25  1  0.095461  0.249880  0.467854  1
  Sb  Sb26  1  0.563014  0.989658  0.329107  1
  Sb  Sb27  1  0.063014  0.510342  0.170893  1
  Sb  Sb28  1  0.436945  0.489786  0.670529  1
  Sb  Sb29  1  0.936945  0.010214  0.829471  1
  Sb  Sb30  1  0.436690  0.010226  0.671389  1
  Sb  Sb31  1  0.936690  0.489774  0.828611  1
