# generated using pymatgen
data_Hf6FeI14
_symmetry_space_group_name_H-M   'P 1'
_cell_length_a   10.82164000
_cell_length_b   10.82164054
_cell_length_c   13.03541200
_cell_angle_alpha   90.00000000
_cell_angle_beta   90.00000000
_cell_angle_gamma   94.69052756
_symmetry_Int_Tables_number   1
_chemical_formula_structural   Hf6FeI14
_chemical_formula_sum   'Hf12 Fe2 I28'
_cell_volume   1521.43716354
_cell_formula_units_Z   2
loop_
 _symmetry_equiv_pos_site_id
 _symmetry_equiv_pos_as_xyz
  1  'x, y, z'
loop_
 _atom_site_type_symbol
 _atom_site_label
 _atom_site_symmetry_multiplicity
 _atom_site_fract_x
 _atom_site_fract_y
 _atom_site_fract_z
 _atom_site_occupancy
  Hf  Hf0  1  0.954258  0.174447  0.111824  1
  Hf  Hf1  1  0.045742  0.825553  0.888176  1
  Hf  Hf2  1  0.545742  0.325553  0.611824  1
  Hf  Hf3  1  0.674447  0.454258  0.388176  1
  Hf  Hf4  1  0.454258  0.674447  0.388176  1
  Hf  Hf5  1  0.325553  0.545742  0.611824  1
  Hf  Hf6  1  0.825553  0.045742  0.888176  1
  Hf  Hf7  1  0.174447  0.954258  0.111824  1
  Hf  Hf8  1  0.362279  0.362279  0.399372  1
  Hf  Hf9  1  0.637721  0.637721  0.600628  1
  Hf  Hf10  1  0.137721  0.137721  0.899372  1
  Hf  Hf11  1  0.862279  0.862279  0.100628  1
  Fe  Fe12  1  0.000000  0.000000  0.000000  1
  Fe  Fe13  1  0.500000  0.500000  0.500000  1
  I  I14  1  0.283778  0.534812  0.250207  1
  I  I15  1  0.716222  0.465188  0.749793  1
  I  I16  1  0.216222  0.965188  0.750207  1
  I  I17  1  0.034812  0.783778  0.249793  1
  I  I18  1  0.783778  0.034812  0.249793  1
  I  I19  1  0.965188  0.216222  0.750207  1
  I  I20  1  0.465188  0.716222  0.749793  1
  I  I21  1  0.534812  0.283778  0.250207  1
  I  I22  1  0.115336  0.365895  0.009739  1
  I  I23  1  0.884664  0.634105  0.990261  1
  I  I24  1  0.384664  0.134105  0.509739  1
  I  I25  1  0.865895  0.615336  0.490261  1
  I  I26  1  0.615336  0.865895  0.490261  1
  I  I27  1  0.134105  0.384664  0.509739  1
  I  I28  1  0.634105  0.884664  0.990261  1
  I  I29  1  0.365895  0.115336  0.009739  1
  I  I30  1  0.897450  0.397450  0.250000  1
  I  I31  1  0.102550  0.602550  0.750000  1
  I  I32  1  0.602550  0.102550  0.750000  1
  I  I33  1  0.397450  0.897450  0.250000  1
  I  I34  1  0.745575  0.254425  0.000000  1
  I  I35  1  0.254425  0.745575  0.000000  1
  I  I36  1  0.754425  0.245575  0.500000  1
  I  I37  1  0.245575  0.754425  0.500000  1
  I  I38  1  0.151787  0.151787  0.264922  1
  I  I39  1  0.848213  0.848213  0.735078  1
  I  I40  1  0.348213  0.348213  0.764922  1
  I  I41  1  0.651787  0.651787  0.235078  1
