# generated using pymatgen
data_La2Ho4TcBi2
_symmetry_space_group_name_H-M   'P 1'
_cell_length_a   8.51162700
_cell_length_b   8.39439528
_cell_length_c   4.37115500
_cell_angle_alpha   90.00000000
_cell_angle_beta   90.00000000
_cell_angle_gamma   120.46304771
_symmetry_Int_Tables_number   1
_chemical_formula_structural   La2Ho4TcBi2
_chemical_formula_sum   'La2 Ho4 Tc1 Bi2'
_cell_volume   269.20520985
_cell_formula_units_Z   1
loop_
 _symmetry_equiv_pos_site_id
 _symmetry_equiv_pos_as_xyz
  1  'x, y, z'
loop_
 _atom_site_type_symbol
 _atom_site_label
 _atom_site_symmetry_multiplicity
 _atom_site_fract_x
 _atom_site_fract_y
 _atom_site_fract_z
 _atom_site_occupancy
  La  La0  1  0.004136  0.605525  0.500000  1
  La  La1  1  0.398611  0.394475  0.500000  1
  Ho  Ho2  1  0.221702  0.000000  0.000000  1
  Ho  Ho3  1  0.768400  0.768468  0.000000  1
  Ho  Ho4  1  0.999933  0.231532  0.000000  1
  Ho  Ho5  1  0.613126  0.000000  0.500000  1
  Tc  Tc6  1  0.985628  0.000000  0.500000  1
  Bi  Bi7  1  0.343999  0.679535  0.000000  1
  Bi  Bi8  1  0.664465  0.320465  0.000000  1
