# generated using pymatgen
data_RbCaMoH9
_symmetry_space_group_name_H-M   'P 1'
_cell_length_a   9.01323100
_cell_length_b   9.01323037
_cell_length_c   5.56250300
_cell_angle_alpha   90.00000000
_cell_angle_beta   90.00000000
_cell_angle_gamma   120.00000598
_symmetry_Int_Tables_number   1
_chemical_formula_structural   RbCaMoH9
_chemical_formula_sum   'Rb3 Ca3 Mo3 H27'
_cell_volume   391.34684493
_cell_formula_units_Z   3
loop_
 _symmetry_equiv_pos_site_id
 _symmetry_equiv_pos_as_xyz
  1  'x, y, z'
loop_
 _atom_site_type_symbol
 _atom_site_label
 _atom_site_symmetry_multiplicity
 _atom_site_fract_x
 _atom_site_fract_y
 _atom_site_fract_z
 _atom_site_occupancy
  Rb  Rb0  1  0.000000  0.587166  0.000000  1
  Rb  Rb1  1  0.412834  0.412834  0.000000  1
  Rb  Rb2  1  0.587166  0.000000  0.000000  1
  Ca  Ca3  1  0.000000  0.275464  0.500000  1
  Ca  Ca4  1  0.724536  0.724536  0.500000  1
  Ca  Ca5  1  0.275464  0.000000  0.500000  1
  Mo  Mo6  1  0.666667  0.333333  0.500000  1
  Mo  Mo7  1  0.333333  0.666667  0.500000  1
  Mo  Mo8  1  0.000000  0.000000  0.000000  1
  H  H9  1  0.789267  0.303378  0.723627  1
  H  H10  1  0.696622  0.485889  0.723627  1
  H  H11  1  0.514111  0.210733  0.723627  1
  H  H12  1  0.210733  0.514111  0.276373  1
  H  H13  1  0.514111  0.210733  0.276373  1
  H  H14  1  0.789267  0.303378  0.276373  1
  H  H15  1  0.696622  0.485889  0.276373  1
  H  H16  1  0.303378  0.789267  0.723627  1
  H  H17  1  0.485889  0.696622  0.723627  1
  H  H18  1  0.193192  0.000000  0.000000  1
  H  H19  1  0.806808  0.806808  0.000000  1
  H  H20  1  0.000000  0.193192  0.000000  1
  H  H21  1  0.864402  0.000000  0.234836  1
  H  H22  1  0.135598  0.135598  0.765164  1
  H  H23  1  0.000000  0.864402  0.765164  1
  H  H24  1  0.000000  0.864402  0.234836  1
  H  H25  1  0.135598  0.135598  0.234836  1
  H  H26  1  0.864402  0.000000  0.765164  1
  H  H27  1  0.125403  0.628192  0.500000  1
  H  H28  1  0.502790  0.874597  0.500000  1
  H  H29  1  0.371808  0.497210  0.500000  1
  H  H30  1  0.497210  0.371808  0.500000  1
  H  H31  1  0.874597  0.502790  0.500000  1
  H  H32  1  0.628192  0.125403  0.500000  1
  H  H33  1  0.210733  0.514111  0.723627  1
  H  H34  1  0.303378  0.789267  0.276373  1
  H  H35  1  0.485889  0.696622  0.276373  1
