# generated using pymatgen
data_ReCl30
_symmetry_space_group_name_H-M   'P 1'
_cell_length_a   13.72739551
_cell_length_b   13.72739636
_cell_length_c   15.97287606
_cell_angle_alpha   83.89406819
_cell_angle_beta   83.89406578
_cell_angle_gamma   125.42721047
_symmetry_Int_Tables_number   1
_chemical_formula_structural   ReCl30
_chemical_formula_sum   'Re1 Cl30'
_cell_volume   2385.73553987
_cell_formula_units_Z   1
loop_
 _symmetry_equiv_pos_site_id
 _symmetry_equiv_pos_as_xyz
  1  'x, y, z'
loop_
 _atom_site_type_symbol
 _atom_site_label
 _atom_site_symmetry_multiplicity
 _atom_site_fract_x
 _atom_site_fract_y
 _atom_site_fract_z
 _atom_site_occupancy
  Re  Re0  1  0.000000  0.000000  0.000000  1
  Cl  Cl1  1  0.946332  0.946332  0.150294  1
  Cl  Cl2  1  0.053668  0.053668  0.849706  1
  Cl  Cl3  1  0.060249  0.192812  0.005281  1
  Cl  Cl4  1  0.939751  0.807188  0.994719  1
  Cl  Cl5  1  0.192812  0.060249  0.005281  1
  Cl  Cl6  1  0.807188  0.939751  0.994719  1
  Cl  Cl7  1  0.203438  0.742783  0.064357  1
  Cl  Cl8  1  0.796562  0.257217  0.935643  1
  Cl  Cl9  1  0.700313  0.076910  0.263499  1
  Cl  Cl10  1  0.257217  0.796562  0.935643  1
  Cl  Cl11  1  0.299687  0.923090  0.736501  1
  Cl  Cl12  1  0.742783  0.203438  0.064357  1
  Cl  Cl13  1  0.976719  0.199076  0.781116  1
  Cl  Cl14  1  0.923090  0.299687  0.736501  1
  Cl  Cl15  1  0.023281  0.800924  0.218884  1
  Cl  Cl16  1  0.076910  0.700313  0.263499  1
  Cl  Cl17  1  0.800924  0.023281  0.218884  1
  Cl  Cl18  1  0.199076  0.976719  0.781116  1
  Cl  Cl19  1  0.465033  0.546738  0.259249  1
  Cl  Cl20  1  0.534967  0.453262  0.740751  1
  Cl  Cl21  1  0.507712  0.205714  0.451213  1
  Cl  Cl22  1  0.453262  0.534967  0.740751  1
  Cl  Cl23  1  0.492288  0.794286  0.548787  1
  Cl  Cl24  1  0.546738  0.465033  0.259249  1
  Cl  Cl25  1  0.240079  0.429233  0.543743  1
  Cl  Cl26  1  0.794286  0.492288  0.548787  1
  Cl  Cl27  1  0.759921  0.570767  0.456257  1
  Cl  Cl28  1  0.205714  0.507712  0.451213  1
  Cl  Cl29  1  0.570767  0.759921  0.456257  1
  Cl  Cl30  1  0.429233  0.240079  0.543743  1
