# generated using pymatgen
data_Ce3PuB16
_symmetry_space_group_name_H-M   'P 1'
_cell_length_a   7.15696546
_cell_length_b   7.15696546
_cell_length_c   4.06257600
_cell_angle_alpha   90.00000000
_cell_angle_beta   90.00000000
_cell_angle_gamma   89.66568580
_symmetry_Int_Tables_number   1
_chemical_formula_structural   Ce3PuB16
_chemical_formula_sum   'Ce3 Pu1 B16'
_cell_volume   208.09035346
_cell_formula_units_Z   1
loop_
 _symmetry_equiv_pos_site_id
 _symmetry_equiv_pos_as_xyz
  1  'x, y, z'
loop_
 _atom_site_type_symbol
 _atom_site_label
 _atom_site_symmetry_multiplicity
 _atom_site_fract_x
 _atom_site_fract_y
 _atom_site_fract_z
 _atom_site_occupancy
  Ce  Ce0  1  0.686517  0.813146  0.000000  1
  Ce  Ce1  1  0.313146  0.186517  0.000000  1
  Ce  Ce2  1  0.814204  0.314204  0.000000  1
  Pu  Pu3  1  0.187290  0.687290  0.000000  1
  B  B4  1  0.322863  0.462166  0.500000  1
  B  B5  1  0.675606  0.538607  0.500000  1
  B  B6  1  0.538299  0.324323  0.500000  1
  B  B7  1  0.459881  0.676838  0.500000  1
  B  B8  1  0.000532  0.999140  0.201892  1
  B  B9  1  0.499140  0.500532  0.798108  1
  B  B10  1  0.000532  0.999140  0.798108  1
  B  B11  1  0.499140  0.500532  0.201892  1
  B  B12  1  0.587609  0.087609  0.500000  1
  B  B13  1  0.088236  0.412518  0.500000  1
  B  B14  1  0.912518  0.588236  0.500000  1
  B  B15  1  0.412552  0.912552  0.500000  1
  B  B16  1  0.038607  0.175606  0.500000  1
  B  B17  1  0.176838  0.959881  0.500000  1
  B  B18  1  0.824323  0.038299  0.500000  1
  B  B19  1  0.962166  0.822863  0.500000  1
