# generated using pymatgen
data_Ho2Si5PdRh2
_symmetry_space_group_name_H-M   'P 1'
_cell_length_a   8.13357830
_cell_length_b   8.18508517
_cell_length_c   8.18508510
_cell_angle_alpha   138.72107954
_cell_angle_beta   104.78609110
_cell_angle_gamma   89.70524383
_symmetry_Int_Tables_number   1
_chemical_formula_structural   Ho2Si5PdRh2
_chemical_formula_sum   'Ho4 Si10 Pd2 Rh4'
_cell_volume   332.37597361
_cell_formula_units_Z   2
loop_
 _symmetry_equiv_pos_site_id
 _symmetry_equiv_pos_as_xyz
  1  'x, y, z'
loop_
 _atom_site_type_symbol
 _atom_site_label
 _atom_site_symmetry_multiplicity
 _atom_site_fract_x
 _atom_site_fract_y
 _atom_site_fract_z
 _atom_site_occupancy
  Ho  Ho0  1  0.636046  0.869571  0.766477  1
  Ho  Ho1  1  0.363954  0.130429  0.233523  1
  Ho  Ho2  1  0.100498  0.369034  0.731464  1
  Ho  Ho3  1  0.899502  0.630966  0.268536  1
  Si  Si4  1  0.276296  0.029255  0.749178  1
  Si  Si5  1  0.723704  0.970745  0.250822  1
  Si  Si6  1  0.723704  0.472881  0.752958  1
  Si  Si7  1  0.276296  0.527119  0.247042  1
  Si  Si8  1  0.451909  0.604793  0.847117  1
  Si  Si9  1  0.548091  0.395207  0.152883  1
  Si  Si10  1  0.763349  0.105791  0.657557  1
  Si  Si11  1  0.236651  0.894209  0.342443  1
  Si  Si12  1  0.000000  0.756983  0.756983  1
  Si  Si13  1  0.000000  0.243017  0.243017  1
  Pd  Pd14  1  0.252197  0.640056  0.612140  1
  Pd  Pd15  1  0.747803  0.359944  0.387860  1
  Rh  Rh16  1  0.028973  0.138877  0.890097  1
  Rh  Rh17  1  0.971027  0.861123  0.109903  1
  Rh  Rh18  1  0.500000  0.751829  0.251829  1
  Rh  Rh19  1  0.500000  0.248171  0.748171  1
