# generated using pymatgen
data_Nd5MgUCo17P12
_symmetry_space_group_name_H-M   'P 1'
_cell_length_a   3.76795200
_cell_length_b   10.63745650
_cell_length_c   12.46089437
_cell_angle_alpha   90.17931563
_cell_angle_beta   90.00000000
_cell_angle_gamma   90.00000000
_symmetry_Int_Tables_number   1
_chemical_formula_structural   Nd5MgUCo17P12
_chemical_formula_sum   'Nd5 Mg1 U1 Co17 P12'
_cell_volume   499.44796326
_cell_formula_units_Z   1
loop_
 _symmetry_equiv_pos_site_id
 _symmetry_equiv_pos_as_xyz
  1  'x, y, z'
loop_
 _atom_site_type_symbol
 _atom_site_label
 _atom_site_symmetry_multiplicity
 _atom_site_fract_x
 _atom_site_fract_y
 _atom_site_fract_z
 _atom_site_occupancy
  Nd  Nd0  1  0.000000  0.500663  0.524945  1
  Nd  Nd1  1  0.500000  0.999800  0.479728  1
  Nd  Nd2  1  0.500000  0.180421  0.207151  1
  Nd  Nd3  1  0.000000  0.683911  0.795195  1
  Nd  Nd4  1  0.000000  0.315456  0.795587  1
  Mg  Mg5  1  0.500000  0.502094  0.151025  1
  U  U6  1  0.500000  0.821284  0.213349  1
  Co  Co7  1  0.000000  0.999989  0.839191  1
  Co  Co8  1  0.500000  0.498870  0.706063  1
  Co  Co9  1  0.000000  0.984721  0.289048  1
  Co  Co10  1  0.000000  0.501822  0.987636  1
  Co  Co11  1  0.500000  0.998164  0.014999  1
  Co  Co12  1  0.500000  0.329687  0.994397  1
  Co  Co13  1  0.500000  0.673339  0.996023  1
  Co  Co14  1  0.000000  0.161751  0.001955  1
  Co  Co15  1  0.000000  0.838015  0.000985  1
  Co  Co16  1  0.500000  0.294263  0.432749  1
  Co  Co17  1  0.500000  0.702593  0.430018  1
  Co  Co18  1  0.000000  0.201409  0.570349  1
  Co  Co19  1  0.000000  0.797411  0.570492  1
  Co  Co20  1  0.500000  0.881750  0.709501  1
  Co  Co21  1  0.500000  0.117679  0.709974  1
  Co  Co22  1  0.000000  0.633866  0.283584  1
  Co  Co23  1  0.000000  0.383500  0.296196  1
  P  P24  1  0.500000  0.500832  0.886734  1
  P  P25  1  0.000000  0.997753  0.111950  1
  P  P26  1  0.500000  0.497116  0.350103  1
  P  P27  1  0.000000  0.999727  0.659702  1
  P  P28  1  0.500000  0.305479  0.615900  1
  P  P29  1  0.500000  0.693246  0.615734  1
  P  P30  1  0.000000  0.192030  0.387413  1
  P  P31  1  0.000000  0.806130  0.390023  1
  P  P32  1  0.500000  0.853028  0.891510  1
  P  P33  1  0.500000  0.146352  0.893289  1
  P  P34  1  0.000000  0.666543  0.098727  1
  P  P35  1  0.000000  0.339308  0.098775  1
