# generated using pymatgen
data_Zr8In4Co3Cu5
_symmetry_space_group_name_H-M   'P 1'
_cell_length_a   7.27207568
_cell_length_b   7.27207519
_cell_length_c   6.80394365
_cell_angle_alpha   90.01749281
_cell_angle_beta   90.01748998
_cell_angle_gamma   90.62741986
_symmetry_Int_Tables_number   1
_chemical_formula_structural   Zr8In4Co3Cu5
_chemical_formula_sum   'Zr8 In4 Co3 Cu5'
_cell_volume   359.79189712
_cell_formula_units_Z   1
loop_
 _symmetry_equiv_pos_site_id
 _symmetry_equiv_pos_as_xyz
  1  'x, y, z'
loop_
 _atom_site_type_symbol
 _atom_site_label
 _atom_site_symmetry_multiplicity
 _atom_site_fract_x
 _atom_site_fract_y
 _atom_site_fract_z
 _atom_site_occupancy
  Zr  Zr0  1  0.157097  0.157097  0.006855  1
  Zr  Zr1  1  0.828929  0.828929  0.996813  1
  Zr  Zr2  1  0.653841  0.352420  0.493531  1
  Zr  Zr3  1  0.352420  0.653841  0.493531  1
  Zr  Zr4  1  0.676506  0.335867  0.007094  1
  Zr  Zr5  1  0.335867  0.676506  0.007094  1
  Zr  Zr6  1  0.805374  0.805374  0.502067  1
  Zr  Zr7  1  0.192780  0.192780  0.490194  1
  In  In8  1  0.501882  0.004799  0.246005  1
  In  In9  1  0.498297  0.000851  0.752611  1
  In  In10  1  0.004799  0.501882  0.246005  1
  In  In11  1  0.000851  0.498297  0.752611  1
  Co  Co12  1  0.370639  0.370639  0.225075  1
  Co  Co13  1  0.622255  0.622255  0.767891  1
  Co  Co14  1  0.629606  0.629606  0.229042  1
  Cu  Cu15  1  0.876736  0.123535  0.712469  1
  Cu  Cu16  1  0.874943  0.120636  0.285849  1
  Cu  Cu17  1  0.373008  0.373008  0.786944  1
  Cu  Cu18  1  0.120636  0.874943  0.285849  1
  Cu  Cu19  1  0.123535  0.876736  0.712469  1
