# generated using pymatgen
data_Er16Cd4OsPt3
_symmetry_space_group_name_H-M   'P 1'
_cell_length_a   9.62654533
_cell_length_b   9.62654685
_cell_length_c   9.62654549
_cell_angle_alpha   59.40015209
_cell_angle_beta   59.40014566
_cell_angle_gamma   59.40014897
_symmetry_Int_Tables_number   1
_chemical_formula_structural   Er16Cd4OsPt3
_chemical_formula_sum   'Er16 Cd4 Os1 Pt3'
_cell_volume   622.19613058
_cell_formula_units_Z   1
loop_
 _symmetry_equiv_pos_site_id
 _symmetry_equiv_pos_as_xyz
  1  'x, y, z'
loop_
 _atom_site_type_symbol
 _atom_site_label
 _atom_site_symmetry_multiplicity
 _atom_site_fract_x
 _atom_site_fract_y
 _atom_site_fract_z
 _atom_site_occupancy
  Er  Er0  1  0.351944  0.351944  0.351944  1
  Er  Er1  1  0.350780  0.350780  0.947027  1
  Er  Er2  1  0.350780  0.947027  0.350780  1
  Er  Er3  1  0.947027  0.350780  0.350780  1
  Er  Er4  1  0.814576  0.188652  0.188652  1
  Er  Er5  1  0.188454  0.809920  0.809920  1
  Er  Er6  1  0.188652  0.814576  0.188652  1
  Er  Er7  1  0.809920  0.188454  0.809920  1
  Er  Er8  1  0.188652  0.188652  0.814576  1
  Er  Er9  1  0.809920  0.809920  0.188454  1
  Er  Er10  1  0.935173  0.565814  0.565814  1
  Er  Er11  1  0.557873  0.937842  0.937842  1
  Er  Er12  1  0.565814  0.935173  0.565814  1
  Er  Er13  1  0.937842  0.557873  0.937842  1
  Er  Er14  1  0.565814  0.565814  0.935173  1
  Er  Er15  1  0.937842  0.937842  0.557873  1
  Cd  Cd16  1  0.580180  0.580180  0.580180  1
  Cd  Cd17  1  0.581086  0.581086  0.253619  1
  Cd  Cd18  1  0.581086  0.253619  0.581086  1
  Cd  Cd19  1  0.253619  0.581086  0.581086  1
  Os  Os20  1  0.143417  0.143417  0.143417  1
  Pt  Pt21  1  0.143539  0.143539  0.572473  1
  Pt  Pt22  1  0.143539  0.572473  0.143539  1
  Pt  Pt23  1  0.572473  0.143539  0.143539  1
