# generated using pymatgen
data_Li6Ho2UN6
_symmetry_space_group_name_H-M   'P 1'
_cell_length_a   5.99489000
_cell_length_b   5.99489134
_cell_length_c   5.47172200
_cell_angle_alpha   90.00000000
_cell_angle_beta   90.00000000
_cell_angle_gamma   120.00000366
_symmetry_Int_Tables_number   1
_chemical_formula_structural   Li6Ho2UN6
_chemical_formula_sum   'Li6 Ho2 U1 N6'
_cell_volume   170.30099059
_cell_formula_units_Z   1
loop_
 _symmetry_equiv_pos_site_id
 _symmetry_equiv_pos_as_xyz
  1  'x, y, z'
loop_
 _atom_site_type_symbol
 _atom_site_label
 _atom_site_symmetry_multiplicity
 _atom_site_fract_x
 _atom_site_fract_y
 _atom_site_fract_z
 _atom_site_occupancy
  Li  Li0  1  0.983408  0.655287  0.606911  1
  Li  Li1  1  0.344713  0.328121  0.606911  1
  Li  Li2  1  0.671879  0.016592  0.606911  1
  Li  Li3  1  0.009840  0.339332  0.391499  1
  Li  Li4  1  0.660668  0.670508  0.391499  1
  Li  Li5  1  0.329492  0.990160  0.391499  1
  Ho  Ho6  1  0.000000  0.000000  0.999549  1
  Ho  Ho7  1  0.333333  0.666667  0.992118  1
  U  U8  1  0.666667  0.333333  0.005441  1
  N  N9  1  0.978756  0.645416  0.226557  1
  N  N10  1  0.354584  0.333341  0.226557  1
  N  N11  1  0.666659  0.021244  0.226557  1
  N  N12  1  0.976898  0.333631  0.775996  1
  N  N13  1  0.666369  0.643267  0.775996  1
  N  N14  1  0.356733  0.023102  0.775996  1
