# generated using pymatgen
data_SrGa3CoRu
_symmetry_space_group_name_H-M   'P 1'
_cell_length_a   6.44147154
_cell_length_b   6.44147214
_cell_length_c   5.46762400
_cell_angle_alpha   90.00000000
_cell_angle_beta   90.00000000
_cell_angle_gamma   103.48121999
_symmetry_Int_Tables_number   1
_chemical_formula_structural   SrGa3CoRu
_chemical_formula_sum   'Sr2 Ga6 Co2 Ru2'
_cell_volume   220.61474325
_cell_formula_units_Z   2
loop_
 _symmetry_equiv_pos_site_id
 _symmetry_equiv_pos_as_xyz
  1  'x, y, z'
loop_
 _atom_site_type_symbol
 _atom_site_label
 _atom_site_symmetry_multiplicity
 _atom_site_fract_x
 _atom_site_fract_y
 _atom_site_fract_z
 _atom_site_occupancy
  Sr  Sr0  1  0.343100  0.343100  0.250000  1
  Sr  Sr1  1  0.656900  0.656900  0.750000  1
  Ga  Ga2  1  0.921124  0.528086  0.245928  1
  Ga  Ga3  1  0.078876  0.471914  0.745928  1
  Ga  Ga4  1  0.051683  0.051683  0.750000  1
  Ga  Ga5  1  0.948317  0.948317  0.250000  1
  Ga  Ga6  1  0.471914  0.078876  0.754072  1
  Ga  Ga7  1  0.528086  0.921124  0.254072  1
  Co  Co8  1  0.797676  0.202324  0.000000  1
  Co  Co9  1  0.202324  0.797676  0.500000  1
  Ru  Ru10  1  0.203753  0.796247  0.000000  1
  Ru  Ru11  1  0.796247  0.203753  0.500000  1
