# generated using pymatgen
data_CaTh3(CoB4)4
_symmetry_space_group_name_H-M   'P 1'
_cell_length_a   6.92812181
_cell_length_b   6.92812168
_cell_length_c   6.92812184
_cell_angle_alpha   112.42956848
_cell_angle_beta   112.42956360
_cell_angle_gamma   103.70394817
_symmetry_Int_Tables_number   1
_chemical_formula_structural   CaTh3(CoB4)4
_chemical_formula_sum   'Ca1 Th3 Co4 B16'
_cell_volume   254.07224391
_cell_formula_units_Z   1
loop_
 _symmetry_equiv_pos_site_id
 _symmetry_equiv_pos_as_xyz
  1  'x, y, z'
loop_
 _atom_site_type_symbol
 _atom_site_label
 _atom_site_symmetry_multiplicity
 _atom_site_fract_x
 _atom_site_fract_y
 _atom_site_fract_z
 _atom_site_occupancy
  Ca  Ca0  1  0.788965  0.788965  0.000000  1
  Th  Th1  1  0.750882  0.250882  0.500000  1
  Th  Th2  1  0.250882  0.750882  0.500000  1
  Th  Th3  1  0.207998  0.207998  0.000000  1
  Co  Co4  1  0.498898  0.270802  0.771904  1
  Co  Co5  1  0.498898  0.726995  0.228096  1
  Co  Co6  1  0.726995  0.498898  0.228096  1
  Co  Co7  1  0.270802  0.498898  0.771904  1
  B  B8  1  0.417475  0.417475  0.534607  1
  B  B9  1  0.882868  0.882868  0.465393  1
  B  B10  1  0.582250  0.119272  0.000000  1
  B  B11  1  0.119272  0.582250  0.000000  1
  B  B12  1  0.582250  0.582250  0.462977  1
  B  B13  1  0.119272  0.119272  0.537023  1
  B  B14  1  0.882868  0.417475  0.000000  1
  B  B15  1  0.417475  0.882868  0.000000  1
  B  B16  1  0.112553  0.276820  0.388887  1
  B  B17  1  0.887935  0.723667  0.611113  1
  B  B18  1  0.887935  0.276820  0.164267  1
  B  B19  1  0.112553  0.723667  0.835733  1
  B  B20  1  0.723667  0.887935  0.611113  1
  B  B21  1  0.276820  0.112553  0.388887  1
  B  B22  1  0.723667  0.112553  0.835733  1
  B  B23  1  0.276820  0.887935  0.164267  1
