# generated using pymatgen
data_YCdCu3Ir
_symmetry_space_group_name_H-M   'P 1'
_cell_length_a   5.10906570
_cell_length_b   5.10906514
_cell_length_c   5.23268656
_cell_angle_alpha   60.77848562
_cell_angle_beta   60.77848123
_cell_angle_gamma   60.00000402
_symmetry_Int_Tables_number   1
_chemical_formula_structural   YCdCu3Ir
_chemical_formula_sum   'Y1 Cd1 Cu3 Ir1'
_cell_volume   97.70210560
_cell_formula_units_Z   1
loop_
 _symmetry_equiv_pos_site_id
 _symmetry_equiv_pos_as_xyz
  1  'x, y, z'
loop_
 _atom_site_type_symbol
 _atom_site_label
 _atom_site_symmetry_multiplicity
 _atom_site_fract_x
 _atom_site_fract_y
 _atom_site_fract_z
 _atom_site_occupancy
  Y  Y0  1  0.747610  0.747610  0.757172  1
  Cd  Cd1  1  0.998643  0.998643  0.004072  1
  Cu  Cu2  1  0.375809  0.876815  0.371568  1
  Cu  Cu3  1  0.375809  0.375809  0.371568  1
  Cu  Cu4  1  0.876815  0.375809  0.371568  1
  Ir  Ir5  1  0.375316  0.375316  0.874051  1
