# generated using pymatgen
data_K3RbS6
_symmetry_space_group_name_H-M   'P 1'
_cell_length_a   6.33854650
_cell_length_b   6.33854612
_cell_length_c   7.68780781
_cell_angle_alpha   89.69871206
_cell_angle_beta   90.30128956
_cell_angle_gamma   108.37498815
_symmetry_Int_Tables_number   1
_chemical_formula_structural   K3RbS6
_chemical_formula_sum   'K3 Rb1 S6'
_cell_volume   293.11983751
_cell_formula_units_Z   1
loop_
 _symmetry_equiv_pos_site_id
 _symmetry_equiv_pos_as_xyz
  1  'x, y, z'
loop_
 _atom_site_type_symbol
 _atom_site_label
 _atom_site_symmetry_multiplicity
 _atom_site_fract_x
 _atom_site_fract_y
 _atom_site_fract_z
 _atom_site_occupancy
  K  K0  1  0.583577  0.416423  0.656814  1
  K  K1  1  0.894189  0.105811  0.886623  1
  K  K2  1  0.105434  0.894566  0.388091  1
  Rb  Rb3  1  0.421179  0.578821  0.156946  1
  S  S4  1  0.383874  0.070749  0.996322  1
  S  S5  1  0.614208  0.931265  0.503219  1
  S  S6  1  0.929251  0.616126  0.996322  1
  S  S7  1  0.068735  0.385792  0.503219  1
  S  S8  1  0.801128  0.198872  0.349402  1
  S  S9  1  0.198426  0.801574  0.844441  1
