# generated using pymatgen
data_Hf12Pa8Si15Sn
_symmetry_space_group_name_H-M   'P 1'
_cell_length_a   7.26365623
_cell_length_b   7.29210841
_cell_length_c   13.35386400
_cell_angle_alpha   89.75722655
_cell_angle_beta   90.01450605
_cell_angle_gamma   89.82781500
_symmetry_Int_Tables_number   1
_chemical_formula_structural   Hf12Pa8Si15Sn
_chemical_formula_sum   'Hf12 Pa8 Si15 Sn1'
_cell_volume   707.30946986
_cell_formula_units_Z   1
loop_
 _symmetry_equiv_pos_site_id
 _symmetry_equiv_pos_as_xyz
  1  'x, y, z'
loop_
 _atom_site_type_symbol
 _atom_site_label
 _atom_site_symmetry_multiplicity
 _atom_site_fract_x
 _atom_site_fract_y
 _atom_site_fract_z
 _atom_site_occupancy
  Hf  Hf0  1  0.171790  0.171989  0.999147  1
  Hf  Hf1  1  0.828252  0.828751  0.500788  1
  Hf  Hf2  1  0.329996  0.680037  0.248288  1
  Hf  Hf3  1  0.671825  0.327672  0.750693  1
  Hf  Hf4  1  0.144003  0.991979  0.374726  1
  Hf  Hf5  1  0.849698  0.997598  0.874379  1
  Hf  Hf6  1  0.497792  0.654107  0.625866  1
  Hf  Hf7  1  0.348596  0.500426  0.875443  1
  Hf  Hf8  1  0.502687  0.349620  0.118758  1
  Hf  Hf9  1  0.664838  0.511152  0.378289  1
  Hf  Hf10  1  0.000046  0.153014  0.625999  1
  Hf  Hf11  1  0.997844  0.846430  0.123217  1
  Pa  Pa12  1  0.986073  0.339701  0.212978  1
  Pa  Pa13  1  0.003968  0.658180  0.717041  1
  Pa  Pa14  1  0.148558  0.507405  0.473180  1
  Pa  Pa15  1  0.504423  0.840194  0.032118  1
  Pa  Pa16  1  0.842232  0.503038  0.964964  1
  Pa  Pa17  1  0.499191  0.155102  0.539258  1
  Pa  Pa18  1  0.341727  0.996083  0.783902  1
  Pa  Pa19  1  0.665017  0.996559  0.281503  1
  Si  Si20  1  0.635876  0.704992  0.817818  1
  Si  Si21  1  0.204979  0.867922  0.569518  1
  Si  Si22  1  0.136508  0.793222  0.931548  1
  Si  Si23  1  0.793500  0.133090  0.065585  1
  Si  Si24  1  0.863761  0.206311  0.431973  1
  Si  Si25  1  0.294132  0.365555  0.682527  1
  Si  Si26  1  0.704056  0.634548  0.181085  1
  Si  Si27  1  0.295160  0.038807  0.180966  1
  Si  Si28  1  0.707056  0.952450  0.686610  1
  Si  Si29  1  0.454519  0.798142  0.435476  1
  Si  Si30  1  0.203666  0.544440  0.065111  1
  Si  Si31  1  0.545219  0.202849  0.933463  1
  Si  Si32  1  0.792368  0.455123  0.567663  1
  Si  Si33  1  0.045302  0.295025  0.814886  1
  Si  Si34  1  0.958926  0.701540  0.312844  1
  Sn  Sn35  1  0.366410  0.296946  0.322390  1
