# generated using pymatgen
data_SmNiAsH
_symmetry_space_group_name_H-M   'P 1'
_cell_length_a   4.05281800
_cell_length_b   8.34487600
_cell_length_c   7.08525400
_cell_angle_alpha   90.00000000
_cell_angle_beta   90.00000000
_cell_angle_gamma   90.00000000
_symmetry_Int_Tables_number   1
_chemical_formula_structural   SmNiAsH
_chemical_formula_sum   'Sm4 Ni4 As4 H4'
_cell_volume   239.62515838
_cell_formula_units_Z   4
loop_
 _symmetry_equiv_pos_site_id
 _symmetry_equiv_pos_as_xyz
  1  'x, y, z'
loop_
 _atom_site_type_symbol
 _atom_site_label
 _atom_site_symmetry_multiplicity
 _atom_site_fract_x
 _atom_site_fract_y
 _atom_site_fract_z
 _atom_site_occupancy
  Sm  Sm0  1  0.750000  0.506171  0.754399  1
  Sm  Sm1  1  0.250000  0.493829  0.245601  1
  Sm  Sm2  1  0.250000  0.993829  0.254399  1
  Sm  Sm3  1  0.750000  0.006171  0.745601  1
  Ni  Ni4  1  0.750000  0.233607  0.411660  1
  Ni  Ni5  1  0.250000  0.766393  0.588340  1
  Ni  Ni6  1  0.250000  0.266393  0.911660  1
  Ni  Ni7  1  0.750000  0.733607  0.088340  1
  As  As8  1  0.750000  0.235344  0.078138  1
  As  As9  1  0.250000  0.764656  0.921862  1
  As  As10  1  0.250000  0.264656  0.578138  1
  As  As11  1  0.750000  0.735344  0.421862  1
  H  H12  1  0.250000  0.956148  0.583930  1
  H  H13  1  0.750000  0.043852  0.416070  1
  H  H14  1  0.750000  0.543852  0.083930  1
  H  H15  1  0.250000  0.456148  0.916070  1
