# generated using pymatgen
data_Ho6TmCoBr12
_symmetry_space_group_name_H-M   'P 1'
_cell_length_a   9.15736425
_cell_length_b   9.15736433
_cell_length_c   9.15736271
_cell_angle_alpha   106.75534932
_cell_angle_beta   106.75535017
_cell_angle_gamma   106.75535931
_symmetry_Int_Tables_number   1
_chemical_formula_structural   Ho6TmCoBr12
_chemical_formula_sum   'Ho6 Tm1 Co1 Br12'
_cell_volume   643.74468935
_cell_formula_units_Z   1
loop_
 _symmetry_equiv_pos_site_id
 _symmetry_equiv_pos_as_xyz
  1  'x, y, z'
loop_
 _atom_site_type_symbol
 _atom_site_label
 _atom_site_symmetry_multiplicity
 _atom_site_fract_x
 _atom_site_fract_y
 _atom_site_fract_z
 _atom_site_occupancy
  Ho  Ho0  1  0.300504  0.096482  0.021673  1
  Ho  Ho1  1  0.096482  0.021673  0.300504  1
  Ho  Ho2  1  0.021673  0.300504  0.096482  1
  Ho  Ho3  1  0.699496  0.903518  0.978327  1
  Ho  Ho4  1  0.903518  0.978327  0.699496  1
  Ho  Ho5  1  0.978327  0.699496  0.903518  1
  Tm  Tm6  1  0.500000  0.500000  0.500000  1
  Co  Co7  1  0.000000  0.000000  0.000000  1
  Br  Br8  1  0.222377  0.070648  0.676966  1
  Br  Br9  1  0.070648  0.676966  0.222377  1
  Br  Br10  1  0.676966  0.222377  0.070648  1
  Br  Br11  1  0.777623  0.929352  0.323034  1
  Br  Br12  1  0.929352  0.323034  0.777623  1
  Br  Br13  1  0.323034  0.777623  0.929352  1
  Br  Br14  1  0.389155  0.462684  0.170392  1
  Br  Br15  1  0.462684  0.170392  0.389155  1
  Br  Br16  1  0.170392  0.389155  0.462684  1
  Br  Br17  1  0.610845  0.537316  0.829608  1
  Br  Br18  1  0.537316  0.829608  0.610845  1
  Br  Br19  1  0.829608  0.610845  0.537316  1
