# generated using pymatgen
data_Tb11Y4Th(CdNi)4
_symmetry_space_group_name_H-M   'P 1'
_cell_length_a   9.60896760
_cell_length_b   9.62997142
_cell_length_c   9.62997022
_cell_angle_alpha   59.96070146
_cell_angle_beta   60.00990317
_cell_angle_gamma   60.00990463
_symmetry_Int_Tables_number   1
_chemical_formula_structural   Tb11Y4Th(CdNi)4
_chemical_formula_sum   'Tb11 Y4 Th1 Cd4 Ni4'
_cell_volume   630.01005443
_cell_formula_units_Z   1
loop_
 _symmetry_equiv_pos_site_id
 _symmetry_equiv_pos_as_xyz
  1  'x, y, z'
loop_
 _atom_site_type_symbol
 _atom_site_label
 _atom_site_symmetry_multiplicity
 _atom_site_fract_x
 _atom_site_fract_y
 _atom_site_fract_z
 _atom_site_occupancy
  Tb  Tb0  1  0.598348  0.598754  0.201368  1
  Tb  Tb1  1  0.598348  0.201368  0.598754  1
  Tb  Tb2  1  0.203353  0.597997  0.597997  1
  Tb  Tb3  1  0.060942  0.439478  0.439478  1
  Tb  Tb4  1  0.439998  0.061944  0.061944  1
  Tb  Tb5  1  0.439126  0.062139  0.439137  1
  Tb  Tb6  1  0.061083  0.440163  0.061693  1
  Tb  Tb7  1  0.439126  0.439137  0.062139  1
  Tb  Tb8  1  0.061083  0.061693  0.440163  1
  Tb  Tb9  1  0.186940  0.814619  0.814619  1
  Tb  Tb10  1  0.814036  0.186411  0.186411  1
  Y  Y11  1  0.814545  0.187702  0.813916  1
  Y  Y12  1  0.185240  0.814013  0.186583  1
  Y  Y13  1  0.814545  0.813916  0.187702  1
  Y  Y14  1  0.185240  0.186583  0.814013  1
  Th  Th15  1  0.594566  0.594422  0.594422  1
  Cd  Cd16  1  0.831044  0.830906  0.830906  1
  Cd  Cd17  1  0.832215  0.831245  0.505443  1
  Cd  Cd18  1  0.832215  0.505443  0.831245  1
  Cd  Cd19  1  0.506779  0.831387  0.831387  1
  Ni  Ni20  1  0.393150  0.392354  0.392354  1
  Ni  Ni21  1  0.393975  0.393439  0.820947  1
  Ni  Ni22  1  0.393975  0.820947  0.393439  1
  Ni  Ni23  1  0.820130  0.393941  0.393941  1
