# generated using pymatgen
data_Mn7Cr(Se2O5)12
_symmetry_space_group_name_H-M   'P 1'
_cell_length_a   11.64486000
_cell_length_b   11.18337772
_cell_length_c   15.63951300
_cell_angle_alpha   49.69718803
_cell_angle_beta   90.00000000
_cell_angle_gamma   90.00000000
_symmetry_Int_Tables_number   1
_chemical_formula_structural   Mn7Cr(Se2O5)12
_chemical_formula_sum   'Mn7 Cr1 Se24 O60'
_cell_volume   1553.27419111
_cell_formula_units_Z   1
loop_
 _symmetry_equiv_pos_site_id
 _symmetry_equiv_pos_as_xyz
  1  'x, y, z'
loop_
 _atom_site_type_symbol
 _atom_site_label
 _atom_site_symmetry_multiplicity
 _atom_site_fract_x
 _atom_site_fract_y
 _atom_site_fract_z
 _atom_site_occupancy
  Mn  Mn0  1  0.000000  0.500000  0.500000  1
  Mn  Mn1  1  0.500000  0.500000  0.000000  1
  Mn  Mn2  1  0.000000  0.000000  0.500000  1
  Mn  Mn3  1  0.500000  0.500000  0.500000  1
  Mn  Mn4  1  0.000000  0.500000  0.000000  1
  Mn  Mn5  1  0.500000  0.000000  0.500000  1
  Mn  Mn6  1  0.000000  0.000000  0.000000  1
  Cr  Cr7  1  0.500000  0.000000  0.000000  1
  Se  Se8  1  0.031498  0.116995  0.737307  1
  Se  Se9  1  0.469017  0.115045  0.240189  1
  Se  Se10  1  0.968502  0.883005  0.262693  1
  Se  Se11  1  0.530983  0.884955  0.759811  1
  Se  Se12  1  0.951535  0.828354  0.753076  1
  Se  Se13  1  0.547308  0.828418  0.255081  1
  Se  Se14  1  0.048465  0.171646  0.246924  1
  Se  Se15  1  0.452692  0.171582  0.744919  1
  Se  Se16  1  0.611147  0.660646  0.609039  1
  Se  Se17  1  0.884915  0.662226  0.109528  1
  Se  Se18  1  0.388853  0.339354  0.390961  1
  Se  Se19  1  0.115085  0.337774  0.890472  1
  Se  Se20  1  0.871603  0.694925  0.551115  1
  Se  Se21  1  0.626615  0.704844  0.043435  1
  Se  Se22  1  0.128397  0.305075  0.448885  1
  Se  Se23  1  0.373385  0.295156  0.956565  1
  Se  Se24  1  0.746379  0.389139  0.483804  1
  Se  Se25  1  0.753366  0.386378  0.986600  1
  Se  Se26  1  0.253621  0.610861  0.516196  1
  Se  Se27  1  0.246634  0.613622  0.013400  1
  Se  Se28  1  0.746186  0.166505  0.421374  1
  Se  Se29  1  0.754743  0.166280  0.921700  1
  Se  Se30  1  0.253814  0.833495  0.578626  1
  Se  Se31  1  0.245257  0.833720  0.078300  1
  O  O32  1  0.924723  0.958863  0.780644  1
  O  O33  1  0.575260  0.957668  0.284205  1
  O  O34  1  0.075277  0.041137  0.219356  1
  O  O35  1  0.424740  0.042332  0.715795  1
  O  O36  1  0.974364  0.258242  0.607564  1
  O  O37  1  0.526050  0.256772  0.110433  1
  O  O38  1  0.025636  0.741758  0.392436  1
  O  O39  1  0.473950  0.743228  0.889567  1
  O  O40  1  0.979523  0.154750  0.817435  1
  O  O41  1  0.521253  0.155005  0.319120  1
  O  O42  1  0.020477  0.845250  0.182565  1
  O  O43  1  0.478747  0.844995  0.680880  1
  O  O44  1  0.050617  0.701864  0.854432  1
  O  O45  1  0.448447  0.700500  0.356649  1
  O  O46  1  0.949383  0.298136  0.145568  1
  O  O47  1  0.551553  0.299500  0.643351  1
  O  O48  1  0.047252  0.944284  0.642238  1
  O  O49  1  0.452281  0.943743  0.145503  1
  O  O50  1  0.952748  0.055716  0.357762  1
  O  O51  1  0.547719  0.056257  0.854497  1
  O  O52  1  0.758394  0.620769  0.659550  1
  O  O53  1  0.734832  0.629552  0.154533  1
  O  O54  1  0.241606  0.379231  0.340450  1
  O  O55  1  0.265168  0.370448  0.845467  1
  O  O56  1  0.617708  0.864376  0.515777  1
  O  O57  1  0.881245  0.865573  0.014682  1
  O  O58  1  0.382292  0.135624  0.484223  1
  O  O59  1  0.118755  0.134427  0.985318  1
  O  O60  1  0.624148  0.622206  0.521834  1
  O  O61  1  0.875227  0.620579  0.024026  1
  O  O62  1  0.375852  0.377794  0.478166  1
  O  O63  1  0.124773  0.379421  0.975974  1
  O  O64  1  0.960936  0.753421  0.602219  1
  O  O65  1  0.535637  0.770326  0.090434  1
  O  O66  1  0.039064  0.246579  0.397781  1
  O  O67  1  0.464363  0.229674  0.909566  1
  O  O68  1  0.928021  0.514804  0.605769  1
  O  O69  1  0.567974  0.524763  0.102550  1
  O  O70  1  0.071979  0.485196  0.394231  1
  O  O71  1  0.432026  0.475237  0.897450  1
  O  O72  1  0.785226  0.348637  0.389282  1
  O  O73  1  0.715382  0.347748  0.891808  1
  O  O74  1  0.214774  0.651363  0.610718  1
  O  O75  1  0.284618  0.652252  0.108192  1
  O  O76  1  0.619584  0.485728  0.417914  1
  O  O77  1  0.879622  0.485188  0.919983  1
  O  O78  1  0.380416  0.514272  0.582086  1
  O  O79  1  0.120378  0.514812  0.080017  1
  O  O80  1  0.838990  0.539969  0.425251  1
  O  O81  1  0.660425  0.537362  0.928890  1
  O  O82  1  0.161010  0.460031  0.574749  1
  O  O83  1  0.339575  0.462638  0.071110  1
  O  O84  1  0.840493  0.036032  0.526693  1
  O  O85  1  0.662115  0.034970  0.026799  1
  O  O86  1  0.159507  0.963968  0.473307  1
  O  O87  1  0.337885  0.965030  0.973201  1
  O  O88  1  0.624875  0.127377  0.498081  1
  O  O89  1  0.877768  0.128709  0.996697  1
  O  O90  1  0.375125  0.872623  0.501919  1
  O  O91  1  0.122232  0.871291  0.003303  1
