# generated using pymatgen
data_BaSbAsPd
_symmetry_space_group_name_H-M   'P 1'
_cell_length_a   9.50523611
_cell_length_b   9.50523663
_cell_length_c   4.72013200
_cell_angle_alpha   90.00000000
_cell_angle_beta   90.00000000
_cell_angle_gamma   150.39298001
_symmetry_Int_Tables_number   1
_chemical_formula_structural   BaSbAsPd
_chemical_formula_sum   'Ba2 Sb2 As2 Pd2'
_cell_volume   210.69269531
_cell_formula_units_Z   2
loop_
 _symmetry_equiv_pos_site_id
 _symmetry_equiv_pos_as_xyz
  1  'x, y, z'
loop_
 _atom_site_type_symbol
 _atom_site_label
 _atom_site_symmetry_multiplicity
 _atom_site_fract_x
 _atom_site_fract_y
 _atom_site_fract_z
 _atom_site_occupancy
  Ba  Ba0  1  0.401603  0.598397  0.750000  1
  Ba  Ba1  1  0.598397  0.401603  0.250000  1
  Sb  Sb2  1  0.251450  0.748550  0.250000  1
  Sb  Sb3  1  0.748550  0.251450  0.750000  1
  As  As4  1  0.034625  0.965375  0.750000  1
  As  As5  1  0.965375  0.034625  0.250000  1
  Pd  Pd6  1  0.824737  0.175263  0.250000  1
  Pd  Pd7  1  0.175263  0.824737  0.750000  1
