# generated using pymatgen
data_TbYTi3Co9P7
_symmetry_space_group_name_H-M   'P 1'
_cell_length_a   3.64907200
_cell_length_b   9.20360227
_cell_length_c   9.20271000
_cell_angle_alpha   119.98975606
_cell_angle_beta   89.99954466
_cell_angle_gamma   90.00043926
_symmetry_Int_Tables_number   1
_chemical_formula_structural   TbYTi3Co9P7
_chemical_formula_sum   'Tb1 Y1 Ti3 Co9 P7'
_cell_volume   267.68957848
_cell_formula_units_Z   1
loop_
 _symmetry_equiv_pos_site_id
 _symmetry_equiv_pos_as_xyz
  1  'x, y, z'
loop_
 _atom_site_type_symbol
 _atom_site_label
 _atom_site_symmetry_multiplicity
 _atom_site_fract_x
 _atom_site_fract_y
 _atom_site_fract_z
 _atom_site_occupancy
  Tb  Tb0  1  0.261833  0.666659  0.333338  1
  Y  Y1  1  0.761924  0.333393  0.666654  1
  Ti  Ti2  1  0.761986  0.107013  0.884021  1
  Ti  Ti3  1  0.761981  0.115878  0.222942  1
  Ti  Ti4  1  0.761994  0.776997  0.892967  1
  Co  Co5  1  0.261852  0.880449  0.160384  1
  Co  Co6  1  0.261891  0.839619  0.720086  1
  Co  Co7  1  0.261862  0.279840  0.119522  1
  Co  Co8  1  0.761889  0.611358  0.560746  1
  Co  Co9  1  0.761870  0.439288  0.050635  1
  Co  Co10  1  0.761854  0.949407  0.388605  1
  Co  Co11  1  0.261893  0.367378  0.428449  1
  Co  Co12  1  0.261872  0.571587  0.938962  1
  Co  Co13  1  0.261836  0.061097  0.632632  1
  P  P14  1  0.262036  0.999957  0.000000  1
  P  P15  1  0.761874  0.876695  0.588303  1
  P  P16  1  0.761878  0.411615  0.288373  1
  P  P17  1  0.761863  0.711646  0.123329  1
  P  P18  1  0.261928  0.109598  0.417501  1
  P  P19  1  0.261950  0.582529  0.692073  1
  P  P20  1  0.261933  0.307991  0.890479  1
