# generated using pymatgen
data_PrSmGa5Au3
_symmetry_space_group_name_H-M   'P 1'
_cell_length_a   4.35308100
_cell_length_b   4.35809500
_cell_length_c   10.90617300
_cell_angle_alpha   90.00000000
_cell_angle_beta   90.00000000
_cell_angle_gamma   90.00000000
_symmetry_Int_Tables_number   1
_chemical_formula_structural   PrSmGa5Au3
_chemical_formula_sum   'Pr1 Sm1 Ga5 Au3'
_cell_volume   206.90254074
_cell_formula_units_Z   1
loop_
 _symmetry_equiv_pos_site_id
 _symmetry_equiv_pos_as_xyz
  1  'x, y, z'
loop_
 _atom_site_type_symbol
 _atom_site_label
 _atom_site_symmetry_multiplicity
 _atom_site_fract_x
 _atom_site_fract_y
 _atom_site_fract_z
 _atom_site_occupancy
  Pr  Pr0  1  0.500000  0.000000  0.748147  1
  Sm  Sm1  1  0.000000  0.500000  0.251799  1
  Ga  Ga2  1  0.500000  0.500000  0.000766  1
  Ga  Ga3  1  0.000000  0.000000  0.000663  1
  Ga  Ga4  1  0.000000  0.500000  0.636538  1
  Ga  Ga5  1  0.500000  0.000000  0.362746  1
  Ga  Ga6  1  0.000000  0.000000  0.499502  1
  Au  Au7  1  0.000000  0.500000  0.867884  1
  Au  Au8  1  0.500000  0.000000  0.133185  1
  Au  Au9  1  0.500000  0.500000  0.498771  1
