# generated using pymatgen
data_Dy5CdRu4
_symmetry_space_group_name_H-M   'P 1'
_cell_length_a   3.40963800
_cell_length_b   3.40963800
_cell_length_c   18.12668100
_cell_angle_alpha   90.00000000
_cell_angle_beta   90.00000000
_cell_angle_gamma   90.00000000
_symmetry_Int_Tables_number   1
_chemical_formula_structural   Dy5CdRu4
_chemical_formula_sum   'Dy5 Cd1 Ru4'
_cell_volume   210.73410984
_cell_formula_units_Z   1
loop_
 _symmetry_equiv_pos_site_id
 _symmetry_equiv_pos_as_xyz
  1  'x, y, z'
loop_
 _atom_site_type_symbol
 _atom_site_label
 _atom_site_symmetry_multiplicity
 _atom_site_fract_x
 _atom_site_fract_y
 _atom_site_fract_z
 _atom_site_occupancy
  Dy  Dy0  1  0.000000  0.000000  0.873511  1
  Dy  Dy1  1  0.000000  0.000000  0.126489  1
  Dy  Dy2  1  0.000000  0.000000  0.312017  1
  Dy  Dy3  1  0.000000  0.000000  0.500000  1
  Dy  Dy4  1  0.000000  0.000000  0.687983  1
  Cd  Cd5  1  0.500000  0.500000  0.000000  1
  Ru  Ru6  1  0.500000  0.500000  0.214238  1
  Ru  Ru7  1  0.500000  0.500000  0.404963  1
  Ru  Ru8  1  0.500000  0.500000  0.595037  1
  Ru  Ru9  1  0.500000  0.500000  0.785762  1
