# generated using pymatgen
data_Li3ZnPd
_symmetry_space_group_name_H-M   'P 1'
_cell_length_a   6.79822100
_cell_length_b   6.79822100
_cell_length_c   6.79822100
_cell_angle_alpha   90.00000000
_cell_angle_beta   90.00000000
_cell_angle_gamma   90.00000000
_symmetry_Int_Tables_number   1
_chemical_formula_structural   Li3ZnPd
_chemical_formula_sum   'Li12 Zn4 Pd4'
_cell_volume   314.18528168
_cell_formula_units_Z   4
loop_
 _symmetry_equiv_pos_site_id
 _symmetry_equiv_pos_as_xyz
  1  'x, y, z'
loop_
 _atom_site_type_symbol
 _atom_site_label
 _atom_site_symmetry_multiplicity
 _atom_site_fract_x
 _atom_site_fract_y
 _atom_site_fract_z
 _atom_site_occupancy
  Li  Li0  1  0.124352  0.797784  0.055494  1
  Li  Li1  1  0.797784  0.055494  0.124352  1
  Li  Li2  1  0.555494  0.375648  0.202215  1
  Li  Li3  1  0.444505  0.875647  0.297784  1
  Li  Li4  1  0.202215  0.555494  0.375648  1
  Li  Li5  1  0.875647  0.297784  0.444505  1
  Li  Li6  1  0.375648  0.202215  0.555494  1
  Li  Li7  1  0.702215  0.944505  0.624352  1
  Li  Li8  1  0.944505  0.624352  0.702215  1
  Li  Li9  1  0.055494  0.124352  0.797784  1
  Li  Li10  1  0.297784  0.444505  0.875647  1
  Li  Li11  1  0.624352  0.702215  0.944505  1
  Zn  Zn12  1  0.187162  0.187162  0.187162  1
  Zn  Zn13  1  0.812837  0.687162  0.312837  1
  Zn  Zn14  1  0.312837  0.812837  0.687162  1
  Zn  Zn15  1  0.687162  0.312837  0.812837  1
  Pd  Pd16  1  0.941148  0.441148  0.058851  1
  Pd  Pd17  1  0.058851  0.941148  0.441148  1
  Pd  Pd18  1  0.558851  0.558851  0.558851  1
  Pd  Pd19  1  0.441148  0.058851  0.941148  1
