# generated using pymatgen
data_LaPr3V4F28
_symmetry_space_group_name_H-M   'P 1'
_cell_length_a   5.64844419
_cell_length_b   9.18363399
_cell_length_c   12.22172377
_cell_angle_alpha   62.73526901
_cell_angle_beta   90.03749896
_cell_angle_gamma   90.07429694
_symmetry_Int_Tables_number   1
_chemical_formula_structural   LaPr3V4F28
_chemical_formula_sum   'La1 Pr3 V4 F28'
_cell_volume   563.54436975
_cell_formula_units_Z   1
loop_
 _symmetry_equiv_pos_site_id
 _symmetry_equiv_pos_as_xyz
  1  'x, y, z'
loop_
 _atom_site_type_symbol
 _atom_site_label
 _atom_site_symmetry_multiplicity
 _atom_site_fract_x
 _atom_site_fract_y
 _atom_site_fract_z
 _atom_site_occupancy
  La  La0  1  0.758721  0.808224  0.767216  1
  Pr  Pr1  1  0.258669  0.195237  0.732406  1
  Pr  Pr2  1  0.241530  0.193669  0.232475  1
  Pr  Pr3  1  0.741043  0.806880  0.267541  1
  V  V4  1  0.754899  0.273116  0.957410  1
  V  V5  1  0.254913  0.725637  0.542124  1
  V  V6  1  0.244664  0.725513  0.044311  1
  V  V7  1  0.745032  0.275396  0.455929  1
  F  F8  1  0.434033  0.706856  0.924181  1
  F  F9  1  0.937424  0.290153  0.577750  1
  F  F10  1  0.562729  0.289677  0.077916  1
  F  F11  1  0.062219  0.709289  0.421458  1
  F  F12  1  0.465916  0.283500  0.541891  1
  F  F13  1  0.964466  0.715035  0.960811  1
  F  F14  1  0.535535  0.714812  0.458408  1
  F  F15  1  0.034534  0.282967  0.042208  1
  F  F16  1  0.765333  0.497972  0.867439  1
  F  F17  1  0.267463  0.500103  0.631205  1
  F  F18  1  0.236827  0.499573  0.133253  1
  F  F19  1  0.735251  0.500576  0.366766  1
  F  F20  1  0.761174  0.049421  0.045760  1
  F  F21  1  0.259038  0.949693  0.454963  1
  F  F22  1  0.238050  0.949615  0.955337  1
  F  F23  1  0.738733  0.051641  0.543612  1
  F  F24  1  0.980676  0.732183  0.629097  1
  F  F25  1  0.481233  0.268135  0.868517  1
  F  F26  1  0.018201  0.269394  0.367753  1
  F  F27  1  0.518962  0.732182  0.132024  1
  F  F28  1  0.054257  0.743638  0.166476  1
  F  F29  1  0.553013  0.258266  0.333595  1
  F  F30  1  0.946209  0.257061  0.834172  1
  F  F31  1  0.444404  0.741538  0.665608  1
  F  F32  1  0.407561  0.969348  0.228253  1
  F  F33  1  0.907789  0.030928  0.272201  1
  F  F34  1  0.593000  0.032636  0.772768  1
  F  F35  1  0.096499  0.970137  0.727166  1
