# generated using pymatgen
data_CaY6CoCl12
_symmetry_space_group_name_H-M   'P 1'
_cell_length_a   8.82242480
_cell_length_b   8.82242519
_cell_length_c   8.82242482
_cell_angle_alpha   106.53619544
_cell_angle_beta   106.53617979
_cell_angle_gamma   106.53619822
_symmetry_Int_Tables_number   1
_chemical_formula_structural   CaY6CoCl12
_chemical_formula_sum   'Ca1 Y6 Co1 Cl12'
_cell_volume   578.96945920
_cell_formula_units_Z   1
loop_
 _symmetry_equiv_pos_site_id
 _symmetry_equiv_pos_as_xyz
  1  'x, y, z'
loop_
 _atom_site_type_symbol
 _atom_site_label
 _atom_site_symmetry_multiplicity
 _atom_site_fract_x
 _atom_site_fract_y
 _atom_site_fract_z
 _atom_site_occupancy
  Ca  Ca0  1  0.500000  0.500000  0.500000  1
  Y  Y1  1  0.314111  0.106783  0.021723  1
  Y  Y2  1  0.106783  0.021723  0.314111  1
  Y  Y3  1  0.021723  0.314111  0.106783  1
  Y  Y4  1  0.685889  0.893217  0.978277  1
  Y  Y5  1  0.893217  0.978277  0.685889  1
  Y  Y6  1  0.978277  0.685889  0.893217  1
  Co  Co7  1  0.000000  0.000000  0.000000  1
  Cl  Cl8  1  0.213847  0.070295  0.676840  1
  Cl  Cl9  1  0.070295  0.676840  0.213847  1
  Cl  Cl10  1  0.676840  0.213847  0.070295  1
  Cl  Cl11  1  0.786153  0.929705  0.323160  1
  Cl  Cl12  1  0.929705  0.323160  0.786153  1
  Cl  Cl13  1  0.323160  0.786153  0.929705  1
  Cl  Cl14  1  0.370821  0.451771  0.158272  1
  Cl  Cl15  1  0.451771  0.158272  0.370821  1
  Cl  Cl16  1  0.158272  0.370821  0.451771  1
  Cl  Cl17  1  0.629179  0.548229  0.841728  1
  Cl  Cl18  1  0.548229  0.841728  0.629179  1
  Cl  Cl19  1  0.841728  0.629179  0.548229  1
