# generated using pymatgen
data_Yb3(Si3Pt2)2
_symmetry_space_group_name_H-M   'P 1'
_cell_length_a   4.32542900
_cell_length_b   8.50835944
_cell_length_c   12.90240409
_cell_angle_alpha   79.63716499
_cell_angle_beta   90.00000000
_cell_angle_gamma   90.00000000
_symmetry_Int_Tables_number   1
_chemical_formula_structural   Yb3(Si3Pt2)2
_chemical_formula_sum   'Yb6 Si12 Pt8'
_cell_volume   467.09281503
_cell_formula_units_Z   2
loop_
 _symmetry_equiv_pos_site_id
 _symmetry_equiv_pos_as_xyz
  1  'x, y, z'
loop_
 _atom_site_type_symbol
 _atom_site_label
 _atom_site_symmetry_multiplicity
 _atom_site_fract_x
 _atom_site_fract_y
 _atom_site_fract_z
 _atom_site_occupancy
  Yb  Yb0  1  0.250000  0.768201  0.436909  1
  Yb  Yb1  1  0.250000  0.584859  0.187797  1
  Yb  Yb2  1  0.750000  0.231799  0.563091  1
  Yb  Yb3  1  0.750000  0.415141  0.812203  1
  Yb  Yb4  1  0.750000  0.928337  0.812284  1
  Yb  Yb5  1  0.250000  0.071663  0.187716  1
  Si  Si6  1  0.750000  0.588989  0.567657  1
  Si  Si7  1  0.750000  0.129812  0.004935  1
  Si  Si8  1  0.750000  0.872167  0.570223  1
  Si  Si9  1  0.250000  0.695707  0.708538  1
  Si  Si10  1  0.750000  0.304293  0.291462  1
  Si  Si11  1  0.750000  0.808682  0.277032  1
  Si  Si12  1  0.250000  0.870188  0.995065  1
  Si  Si13  1  0.250000  0.191318  0.722968  1
  Si  Si14  1  0.250000  0.378068  0.002781  1
  Si  Si15  1  0.250000  0.127833  0.429777  1
  Si  Si16  1  0.750000  0.621932  0.997219  1
  Si  Si17  1  0.250000  0.411011  0.432343  1
  Pt  Pt18  1  0.750000  0.350961  0.104212  1
  Pt  Pt19  1  0.250000  0.971174  0.620793  1
  Pt  Pt20  1  0.750000  0.849137  0.089361  1
  Pt  Pt21  1  0.750000  0.028826  0.379207  1
  Pt  Pt22  1  0.250000  0.649039  0.895788  1
  Pt  Pt23  1  0.250000  0.150863  0.910639  1
  Pt  Pt24  1  0.750000  0.533152  0.378861  1
  Pt  Pt25  1  0.250000  0.466848  0.621139  1
