# generated using pymatgen
data_Er12Ga8RuRh7
_symmetry_space_group_name_H-M   'P 1'
_cell_length_a   5.56033476
_cell_length_b   7.69739124
_cell_length_c   13.55899364
_cell_angle_alpha   89.95336010
_cell_angle_beta   90.18952696
_cell_angle_gamma   90.07383387
_symmetry_Int_Tables_number   1
_chemical_formula_structural   Er12Ga8RuRh7
_chemical_formula_sum   'Er12 Ga8 Ru1 Rh7'
_cell_volume   580.32205801
_cell_formula_units_Z   1
loop_
 _symmetry_equiv_pos_site_id
 _symmetry_equiv_pos_as_xyz
  1  'x, y, z'
loop_
 _atom_site_type_symbol
 _atom_site_label
 _atom_site_symmetry_multiplicity
 _atom_site_fract_x
 _atom_site_fract_y
 _atom_site_fract_z
 _atom_site_occupancy
  Er  Er0  1  0.626908  0.262596  0.249797  1
  Er  Er1  1  0.371395  0.736053  0.749820  1
  Er  Er2  1  0.372247  0.765657  0.249029  1
  Er  Er3  1  0.628801  0.236178  0.749992  1
  Er  Er4  1  0.155628  0.398358  0.096638  1
  Er  Er5  1  0.843927  0.599782  0.903030  1
  Er  Er6  1  0.844726  0.600200  0.596453  1
  Er  Er7  1  0.844976  0.900085  0.403156  1
  Er  Er8  1  0.154590  0.399752  0.403669  1
  Er  Er9  1  0.154958  0.099930  0.596805  1
  Er  Er10  1  0.156077  0.099994  0.904022  1
  Er  Er11  1  0.845841  0.901741  0.097128  1
  Ga  Ga12  1  0.121628  0.109818  0.249982  1
  Ga  Ga13  1  0.879668  0.889657  0.750024  1
  Ga  Ga14  1  0.878935  0.609891  0.250286  1
  Ga  Ga15  1  0.121071  0.389437  0.749891  1
  Ga  Ga16  1  0.655342  0.249635  0.000118  1
  Ga  Ga17  1  0.342834  0.750970  0.000554  1
  Ga  Ga18  1  0.342433  0.749861  0.499871  1
  Ga  Ga19  1  0.657937  0.250149  0.500028  1
  Ru  Ru20  1  0.362135  0.040787  0.094344  1
  Rh  Rh21  1  0.637606  0.958082  0.904756  1
  Rh  Rh22  1  0.637235  0.958660  0.594900  1
  Rh  Rh23  1  0.637050  0.541005  0.405401  1
  Rh  Rh24  1  0.362642  0.041658  0.405747  1
  Rh  Rh25  1  0.362516  0.458936  0.594780  1
  Rh  Rh26  1  0.363157  0.460929  0.905019  1
  Rh  Rh27  1  0.637738  0.540198  0.094761  1
