# generated using pymatgen
data_VCr3(CoP)4
_symmetry_space_group_name_H-M   'P 1'
_cell_length_a   3.51685600
_cell_length_b   5.74999866
_cell_length_c   6.67591487
_cell_angle_alpha   90.08642999
_cell_angle_beta   90.00000000
_cell_angle_gamma   90.00000000
_symmetry_Int_Tables_number   1
_chemical_formula_structural   VCr3(CoP)4
_chemical_formula_sum   'V1 Cr3 Co4 P4'
_cell_volume   134.99964474
_cell_formula_units_Z   1
loop_
 _symmetry_equiv_pos_site_id
 _symmetry_equiv_pos_as_xyz
  1  'x, y, z'
loop_
 _atom_site_type_symbol
 _atom_site_label
 _atom_site_symmetry_multiplicity
 _atom_site_fract_x
 _atom_site_fract_y
 _atom_site_fract_z
 _atom_site_occupancy
  V  V0  1  0.750000  0.527275  0.173450  1
  Cr  Cr1  1  0.750000  0.028412  0.326975  1
  Cr  Cr2  1  0.250000  0.473258  0.827836  1
  Cr  Cr3  1  0.250000  0.975816  0.671879  1
  Co  Co4  1  0.750000  0.639446  0.563623  1
  Co  Co5  1  0.750000  0.144520  0.934889  1
  Co  Co6  1  0.250000  0.357220  0.437221  1
  Co  Co7  1  0.250000  0.855146  0.063605  1
  P  P8  1  0.750000  0.260666  0.623570  1
  P  P9  1  0.750000  0.762828  0.875768  1
  P  P10  1  0.250000  0.740953  0.378196  1
  P  P11  1  0.250000  0.234459  0.122991  1
