# generated using pymatgen
data_NaDy(S2O7)2
_symmetry_space_group_name_H-M   'P 1'
_cell_length_a   5.26542479
_cell_length_b   6.99656186
_cell_length_c   9.31923500
_cell_angle_alpha   91.52548824
_cell_angle_beta   96.46732047
_cell_angle_gamma   106.01995280
_symmetry_Int_Tables_number   1
_chemical_formula_structural   NaDy(S2O7)2
_chemical_formula_sum   'Na1 Dy1 S4 O14'
_cell_volume   327.28779277
_cell_formula_units_Z   1
loop_
 _symmetry_equiv_pos_site_id
 _symmetry_equiv_pos_as_xyz
  1  'x, y, z'
loop_
 _atom_site_type_symbol
 _atom_site_label
 _atom_site_symmetry_multiplicity
 _atom_site_fract_x
 _atom_site_fract_y
 _atom_site_fract_z
 _atom_site_occupancy
  Na  Na0  1  0.000000  0.500000  0.000000  1
  Dy  Dy1  1  0.500000  0.000000  0.500000  1
  S  S2  1  0.483808  0.646647  0.771087  1
  S  S3  1  0.516192  0.353353  0.228913  1
  S  S4  1  0.134642  0.252790  0.693079  1
  S  S5  1  0.865358  0.747210  0.306921  1
  O  O6  1  0.675149  0.547674  0.828335  1
  O  O7  1  0.324851  0.452326  0.171665  1
  O  O8  1  0.325391  0.711023  0.867811  1
  O  O9  1  0.674609  0.288977  0.132189  1
  O  O10  1  0.585597  0.793392  0.665398  1
  O  O11  1  0.414403  0.206608  0.334602  1
  O  O12  1  0.262392  0.477296  0.649499  1
  O  O13  1  0.737608  0.522704  0.350501  1
  O  O14  1  0.907852  0.190740  0.577575  1
  O  O15  1  0.092148  0.809260  0.422425  1
  O  O16  1  0.332367  0.145096  0.671215  1
  O  O17  1  0.667633  0.854904  0.328785  1
  O  O18  1  0.068462  0.253517  0.838096  1
  O  O19  1  0.931538  0.746483  0.161904  1
