# generated using pymatgen
data_LiCe2(TmPb2)2
_symmetry_space_group_name_H-M   'P 1'
_cell_length_a   7.82940100
_cell_length_b   16.00067600
_cell_length_c   8.45977200
_cell_angle_alpha   90.00000000
_cell_angle_beta   90.00000000
_cell_angle_gamma   90.00000000
_symmetry_Int_Tables_number   1
_chemical_formula_structural   LiCe2(TmPb2)2
_chemical_formula_sum   'Li4 Ce8 Tm8 Pb16'
_cell_volume   1059.80393253
_cell_formula_units_Z   4
loop_
 _symmetry_equiv_pos_site_id
 _symmetry_equiv_pos_as_xyz
  1  'x, y, z'
loop_
 _atom_site_type_symbol
 _atom_site_label
 _atom_site_symmetry_multiplicity
 _atom_site_fract_x
 _atom_site_fract_y
 _atom_site_fract_z
 _atom_site_occupancy
  Li  Li0  1  0.834593  0.750000  0.505377  1
  Li  Li1  1  0.334593  0.750000  0.994623  1
  Li  Li2  1  0.165407  0.250000  0.494623  1
  Li  Li3  1  0.665407  0.250000  0.005377  1
  Ce  Ce4  1  0.498498  0.595329  0.686853  1
  Ce  Ce5  1  0.998498  0.904671  0.813147  1
  Ce  Ce6  1  0.501502  0.095329  0.313147  1
  Ce  Ce7  1  0.001502  0.404671  0.186853  1
  Ce  Ce8  1  0.501502  0.404671  0.313147  1
  Ce  Ce9  1  0.001502  0.095329  0.186853  1
  Ce  Ce10  1  0.498498  0.904671  0.686853  1
  Ce  Ce11  1  0.998498  0.595329  0.813147  1
  Tm  Tm12  1  0.666379  0.626352  0.163357  1
  Tm  Tm13  1  0.166379  0.873648  0.336643  1
  Tm  Tm14  1  0.333621  0.126352  0.836643  1
  Tm  Tm15  1  0.833621  0.373648  0.663357  1
  Tm  Tm16  1  0.333621  0.373648  0.836643  1
  Tm  Tm17  1  0.833621  0.126352  0.663357  1
  Tm  Tm18  1  0.666379  0.873648  0.163357  1
  Tm  Tm19  1  0.166379  0.626352  0.336643  1
  Pb  Pb20  1  0.685602  0.459205  0.958966  1
  Pb  Pb21  1  0.185602  0.040795  0.541034  1
  Pb  Pb22  1  0.314398  0.959205  0.041034  1
  Pb  Pb23  1  0.814398  0.540795  0.458966  1
  Pb  Pb24  1  0.314398  0.540795  0.041034  1
  Pb  Pb25  1  0.814398  0.959205  0.458966  1
  Pb  Pb26  1  0.685602  0.040795  0.958966  1
  Pb  Pb27  1  0.185602  0.459205  0.541034  1
  Pb  Pb28  1  0.482518  0.750000  0.389203  1
  Pb  Pb29  1  0.982518  0.750000  0.110797  1
  Pb  Pb30  1  0.517482  0.250000  0.610797  1
  Pb  Pb31  1  0.017482  0.250000  0.889203  1
  Pb  Pb32  1  0.694397  0.750000  0.855010  1
  Pb  Pb33  1  0.194397  0.750000  0.644990  1
  Pb  Pb34  1  0.305603  0.250000  0.144990  1
  Pb  Pb35  1  0.805603  0.250000  0.355010  1
