# generated using pymatgen
data_PrLu19(CoBi5)2
_symmetry_space_group_name_H-M   'P 1'
_cell_length_a   8.03969420
_cell_length_b   9.37453300
_cell_length_c   12.08776900
_cell_angle_alpha   90.00000000
_cell_angle_beta   90.18782932
_cell_angle_gamma   90.00000000
_symmetry_Int_Tables_number   1
_chemical_formula_structural   PrLu19(CoBi5)2
_chemical_formula_sum   'Pr1 Lu19 Co2 Bi10'
_cell_volume   911.03065497
_cell_formula_units_Z   1
loop_
 _symmetry_equiv_pos_site_id
 _symmetry_equiv_pos_as_xyz
  1  'x, y, z'
loop_
 _atom_site_type_symbol
 _atom_site_label
 _atom_site_symmetry_multiplicity
 _atom_site_fract_x
 _atom_site_fract_y
 _atom_site_fract_z
 _atom_site_occupancy
  Pr  Pr0  1  0.575081  0.500000  0.773854  1
  Lu  Lu1  1  0.429925  0.173241  0.562531  1
  Lu  Lu2  1  0.570189  0.826071  0.062524  1
  Lu  Lu3  1  0.073925  0.733390  0.435960  1
  Lu  Lu4  1  0.924893  0.267313  0.936347  1
  Lu  Lu5  1  0.073925  0.266610  0.435960  1
  Lu  Lu6  1  0.924893  0.732687  0.936347  1
  Lu  Lu7  1  0.429925  0.826759  0.562531  1
  Lu  Lu8  1  0.570189  0.173929  0.062524  1
  Lu  Lu9  1  0.429707  0.500000  0.271660  1
  Lu  Lu10  1  0.904378  0.000000  0.198968  1
  Lu  Lu11  1  0.095192  0.000000  0.696736  1
  Lu  Lu12  1  0.255802  0.500000  0.992445  1
  Lu  Lu13  1  0.745210  0.500000  0.491805  1
  Lu  Lu14  1  0.190755  0.000000  0.997617  1
  Lu  Lu15  1  0.805967  0.000000  0.494412  1
  Lu  Lu16  1  0.088185  0.500000  0.719261  1
  Lu  Lu17  1  0.911682  0.500000  0.223346  1
  Lu  Lu18  1  0.367498  0.000000  0.310736  1
  Lu  Lu19  1  0.634228  0.000000  0.810701  1
  Co  Co20  1  0.176878  0.000000  0.488175  1
  Co  Co21  1  0.822874  0.000000  0.990434  1
  Bi  Bi22  1  0.820105  0.745215  0.667675  1
  Bi  Bi23  1  0.186762  0.260392  0.171590  1
  Bi  Bi24  1  0.679116  0.241092  0.325551  1
  Bi  Bi25  1  0.313815  0.762294  0.826501  1
  Bi  Bi26  1  0.679116  0.758908  0.325551  1
  Bi  Bi27  1  0.313815  0.237706  0.826501  1
  Bi  Bi28  1  0.820105  0.254785  0.667675  1
  Bi  Bi29  1  0.186762  0.739608  0.171590  1
  Bi  Bi30  1  0.346642  0.500000  0.525842  1
  Bi  Bi31  1  0.652461  0.500000  0.036653  1
