# generated using pymatgen
data_Dy4TmPb4
_symmetry_space_group_name_H-M   'P 1'
_cell_length_a   8.35690989
_cell_length_b   8.30723500
_cell_length_c   7.99023900
_cell_angle_alpha   90.00000000
_cell_angle_beta   111.71768616
_cell_angle_gamma   90.00000000
_symmetry_Int_Tables_number   1
_chemical_formula_structural   Dy4TmPb4
_chemical_formula_sum   'Dy8 Tm2 Pb8'
_cell_volume   515.33103509
_cell_formula_units_Z   2
loop_
 _symmetry_equiv_pos_site_id
 _symmetry_equiv_pos_as_xyz
  1  'x, y, z'
loop_
 _atom_site_type_symbol
 _atom_site_label
 _atom_site_symmetry_multiplicity
 _atom_site_fract_x
 _atom_site_fract_y
 _atom_site_fract_z
 _atom_site_occupancy
  Dy  Dy0  1  0.692740  0.320205  0.049252  1
  Dy  Dy1  1  0.744319  0.841687  0.235979  1
  Dy  Dy2  1  0.255681  0.341688  0.264021  1
  Dy  Dy3  1  0.307259  0.820206  0.450748  1
  Dy  Dy4  1  0.692741  0.179795  0.549253  1
  Dy  Dy5  1  0.744319  0.658313  0.735979  1
  Dy  Dy6  1  0.255681  0.158313  0.764021  1
  Dy  Dy7  1  0.307260  0.679794  0.950748  1
  Tm  Tm8  1  0.000000  0.000000  0.000000  1
  Tm  Tm9  1  0.000000  0.500000  0.500000  1
  Pb  Pb10  1  0.016143  0.645862  0.144793  1
  Pb  Pb11  1  0.410811  0.034922  0.175979  1
  Pb  Pb12  1  0.589190  0.534922  0.324021  1
  Pb  Pb13  1  0.983856  0.145862  0.355206  1
  Pb  Pb14  1  0.016144  0.854138  0.644793  1
  Pb  Pb15  1  0.410810  0.465078  0.675978  1
  Pb  Pb16  1  0.589190  0.965078  0.824021  1
  Pb  Pb17  1  0.983856  0.354139  0.855206  1
