# generated using pymatgen
data_La3CeAl17SiRh6
_symmetry_space_group_name_H-M   'P 1'
_cell_length_a   7.65905700
_cell_length_b   7.64576273
_cell_length_c   9.54326800
_cell_angle_alpha   90.00000000
_cell_angle_beta   90.00000000
_cell_angle_gamma   119.51507986
_symmetry_Int_Tables_number   1
_chemical_formula_structural   La3CeAl17SiRh6
_chemical_formula_sum   'La3 Ce1 Al17 Si1 Rh6'
_cell_volume   486.32357670
_cell_formula_units_Z   1
loop_
 _symmetry_equiv_pos_site_id
 _symmetry_equiv_pos_as_xyz
  1  'x, y, z'
loop_
 _atom_site_type_symbol
 _atom_site_label
 _atom_site_symmetry_multiplicity
 _atom_site_fract_x
 _atom_site_fract_y
 _atom_site_fract_z
 _atom_site_occupancy
  La  La0  1  0.003753  0.330197  0.250000  1
  La  La1  1  0.676078  0.994674  0.750000  1
  La  La2  1  0.330261  0.003140  0.250000  1
  Ce  Ce3  1  0.995520  0.676823  0.750000  1
  Al  Al4  1  0.870248  0.869752  0.250000  1
  Al  Al5  1  0.004215  0.339479  0.577459  1
  Al  Al6  1  0.995599  0.665173  0.428757  1
  Al  Al7  1  0.995599  0.665173  0.071243  1
  Al  Al8  1  0.336198  0.002988  0.922359  1
  Al  Al9  1  0.004215  0.339479  0.922541  1
  Al  Al10  1  0.665340  0.995669  0.073772  1
  Al  Al11  1  0.665340  0.995669  0.426228  1
  Al  Al12  1  0.336198  0.002988  0.577641  1
  Al  Al13  1  0.334111  0.334150  0.050721  1
  Al  Al14  1  0.662600  0.661369  0.953142  1
  Al  Al15  1  0.662600  0.661369  0.546858  1
  Al  Al16  1  0.334111  0.334150  0.449279  1
  Al  Al17  1  0.333469  0.545470  0.750000  1
  Al  Al18  1  0.660634  0.454862  0.250000  1
  Al  Al19  1  0.548534  0.340440  0.750000  1
  Al  Al20  1  0.455073  0.660019  0.250000  1
  Si  Si21  1  0.134449  0.131529  0.750000  1
  Rh  Rh22  1  0.670001  0.328844  0.502015  1
  Rh  Rh23  1  0.327368  0.669556  0.502081  1
  Rh  Rh24  1  0.327368  0.669556  0.997919  1
  Rh  Rh25  1  0.670001  0.328844  0.997985  1
  Rh  Rh26  1  0.000559  0.999318  0.508564  1
  Rh  Rh27  1  0.000559  0.999318  0.991436  1
