# generated using pymatgen
data_Cs4V2SnSe8
_symmetry_space_group_name_H-M   'P 1'
_cell_length_a   9.99009952
_cell_length_b   10.15433057
_cell_length_c   12.22610149
_cell_angle_alpha   105.72704921
_cell_angle_beta   103.21888557
_cell_angle_gamma   93.62365646
_symmetry_Int_Tables_number   1
_chemical_formula_structural   Cs4V2SnSe8
_chemical_formula_sum   'Cs8 V4 Sn2 Se16'
_cell_volume   1151.76994977
_cell_formula_units_Z   2
loop_
 _symmetry_equiv_pos_site_id
 _symmetry_equiv_pos_as_xyz
  1  'x, y, z'
loop_
 _atom_site_type_symbol
 _atom_site_label
 _atom_site_symmetry_multiplicity
 _atom_site_fract_x
 _atom_site_fract_y
 _atom_site_fract_z
 _atom_site_occupancy
  Cs  Cs0  1  0.937786  0.516617  0.251033  1
  Cs  Cs1  1  0.062214  0.483383  0.748967  1
  Cs  Cs2  1  0.763573  0.993774  0.468393  1
  Cs  Cs3  1  0.236427  0.006226  0.531607  1
  Cs  Cs4  1  0.597528  0.747752  0.022729  1
  Cs  Cs5  1  0.402472  0.252248  0.977271  1
  Cs  Cs6  1  0.616970  0.683105  0.619192  1
  Cs  Cs7  1  0.383030  0.316895  0.380808  1
  V  V8  1  0.951461  0.111494  0.234814  1
  V  V9  1  0.048539  0.888506  0.765186  1
  V  V10  1  0.373182  0.683236  0.258748  1
  V  V11  1  0.626818  0.316764  0.741252  1
  Sn  Sn12  1  0.847505  0.136025  0.921456  1
  Sn  Sn13  1  0.152495  0.863975  0.078544  1
  Se  Se14  1  0.963988  0.883361  0.230903  1
  Se  Se15  1  0.036012  0.116639  0.769097  1
  Se  Se16  1  0.597474  0.083795  0.733471  1
  Se  Se17  1  0.402526  0.916205  0.266529  1
  Se  Se18  1  0.289448  0.659614  0.411392  1
  Se  Se19  1  0.710552  0.340386  0.588608  1
  Se  Se20  1  0.791332  0.415866  0.916973  1
  Se  Se21  1  0.208668  0.584134  0.083027  1
  Se  Se22  1  0.021028  0.254336  0.420499  1
  Se  Se23  1  0.978972  0.745664  0.579501  1
  Se  Se24  1  0.098487  0.160024  0.124556  1
  Se  Se25  1  0.901513  0.839976  0.875444  1
  Se  Se26  1  0.735015  0.138001  0.135629  1
  Se  Se27  1  0.264985  0.861999  0.864371  1
  Se  Se28  1  0.573374  0.586683  0.263347  1
  Se  Se29  1  0.426626  0.413317  0.736653  1
