# generated using pymatgen
data_Hf3Zr7Ga2BiPb5
_symmetry_space_group_name_H-M   'P 1'
_cell_length_a   8.83871103
_cell_length_b   8.84176444
_cell_length_c   5.93664405
_cell_angle_alpha   90.00849702
_cell_angle_beta   89.98535977
_cell_angle_gamma   119.91224916
_symmetry_Int_Tables_number   1
_chemical_formula_structural   Hf3Zr7Ga2BiPb5
_chemical_formula_sum   'Hf3 Zr7 Ga2 Bi1 Pb5'
_cell_volume   402.14515769
_cell_formula_units_Z   1
loop_
 _symmetry_equiv_pos_site_id
 _symmetry_equiv_pos_as_xyz
  1  'x, y, z'
loop_
 _atom_site_type_symbol
 _atom_site_label
 _atom_site_symmetry_multiplicity
 _atom_site_fract_x
 _atom_site_fract_y
 _atom_site_fract_z
 _atom_site_occupancy
  Hf  Hf0  1  0.666860  0.333402  0.000221  1
  Hf  Hf1  1  0.333480  0.666809  0.000243  1
  Hf  Hf2  1  0.333452  0.666756  0.499730  1
  Zr  Zr3  1  0.666574  0.333511  0.500005  1
  Zr  Zr4  1  0.736265  0.736646  0.750117  1
  Zr  Zr5  1  0.262894  0.998849  0.750210  1
  Zr  Zr6  1  0.999652  0.263232  0.750129  1
  Zr  Zr7  1  0.263510  0.263782  0.249788  1
  Zr  Zr8  1  0.736788  0.999526  0.249835  1
  Zr  Zr9  1  0.000080  0.737034  0.249760  1
  Ga  Ga10  1  0.999708  0.999715  0.000069  1
  Ga  Ga11  1  0.999706  0.999712  0.499932  1
  Bi  Bi12  1  0.390055  0.390386  0.750445  1
  Pb  Pb13  1  0.610425  0.999601  0.750490  1
  Pb  Pb14  1  0.000259  0.610748  0.750517  1
  Pb  Pb15  1  0.610736  0.611061  0.249519  1
  Pb  Pb16  1  0.389330  0.999610  0.249443  1
  Pb  Pb17  1  0.000226  0.389619  0.249547  1
