# generated using pymatgen
data_ScZnCoRh3O8
_symmetry_space_group_name_H-M   'P 1'
_cell_length_a   6.22683592
_cell_length_b   6.22683441
_cell_length_c   6.00657845
_cell_angle_alpha   58.77939311
_cell_angle_beta   58.77939841
_cell_angle_gamma   60.00001362
_symmetry_Int_Tables_number   1
_chemical_formula_structural   ScZnCoRh3O8
_chemical_formula_sum   'Sc1 Zn1 Co1 Rh3 O8'
_cell_volume   161.57831336
_cell_formula_units_Z   1
loop_
 _symmetry_equiv_pos_site_id
 _symmetry_equiv_pos_as_xyz
  1  'x, y, z'
loop_
 _atom_site_type_symbol
 _atom_site_label
 _atom_site_symmetry_multiplicity
 _atom_site_fract_x
 _atom_site_fract_y
 _atom_site_fract_z
 _atom_site_occupancy
  Sc  Sc0  1  0.125045  0.125045  0.624865  1
  Zn  Zn1  1  0.742382  0.742382  0.772854  1
  Co  Co2  1  0.506636  0.506636  0.480092  1
  Rh  Rh3  1  0.624379  0.125165  0.125291  1
  Rh  Rh4  1  0.125165  0.125165  0.125291  1
  Rh  Rh5  1  0.125165  0.624379  0.125291  1
  O  O6  1  0.370594  0.370594  0.359853  1
  O  O7  1  0.350861  0.879942  0.889257  1
  O  O8  1  0.885711  0.885711  0.342866  1
  O  O9  1  0.879942  0.350861  0.889257  1
  O  O10  1  0.364627  0.364627  0.906120  1
  O  O11  1  0.370594  0.898956  0.359853  1
  O  O12  1  0.879942  0.879942  0.889257  1
  O  O13  1  0.898956  0.370594  0.359853  1
