# generated using pymatgen
data_Hf6Al6Os2Pd3Pt
_symmetry_space_group_name_H-M   'P 1'
_cell_length_a   7.37080500
_cell_length_b   7.37080492
_cell_length_c   6.66105300
_cell_angle_alpha   90.00000000
_cell_angle_beta   90.00000000
_cell_angle_gamma   120.00000483
_symmetry_Int_Tables_number   1
_chemical_formula_structural   Hf6Al6Os2Pd3Pt
_chemical_formula_sum   'Hf6 Al6 Os2 Pd3 Pt1'
_cell_volume   313.40313675
_cell_formula_units_Z   1
loop_
 _symmetry_equiv_pos_site_id
 _symmetry_equiv_pos_as_xyz
  1  'x, y, z'
loop_
 _atom_site_type_symbol
 _atom_site_label
 _atom_site_symmetry_multiplicity
 _atom_site_fract_x
 _atom_site_fract_y
 _atom_site_fract_z
 _atom_site_occupancy
  Hf  Hf0  1  0.606294  0.010341  0.750889  1
  Hf  Hf1  1  0.989659  0.595954  0.750889  1
  Hf  Hf2  1  0.404046  0.393706  0.750889  1
  Hf  Hf3  1  0.988548  0.595832  0.249137  1
  Hf  Hf4  1  0.607284  0.011452  0.249137  1
  Hf  Hf5  1  0.404168  0.392716  0.249137  1
  Al  Al6  1  0.732383  0.732723  0.999835  1
  Al  Al7  1  0.267277  0.999660  0.999835  1
  Al  Al8  1  0.000340  0.267617  0.999835  1
  Al  Al9  1  0.732839  0.733172  0.500175  1
  Al  Al10  1  0.266828  0.999667  0.500175  1
  Al  Al11  1  0.000333  0.267161  0.500175  1
  Os  Os12  1  0.666667  0.333333  0.999626  1
  Os  Os13  1  0.666667  0.333333  0.500357  1
  Pd  Pd14  1  0.000000  0.000000  0.750482  1
  Pd  Pd15  1  0.000000  0.000000  0.249505  1
  Pd  Pd16  1  0.333333  0.666667  0.498689  1
  Pt  Pt17  1  0.333333  0.666667  0.001235  1
