# generated using pymatgen
data_TeSe7Cl2
_symmetry_space_group_name_H-M   'P 1'
_cell_length_a   9.50158900
_cell_length_b   12.83423900
_cell_length_c   14.47722200
_cell_angle_alpha   90.00000000
_cell_angle_beta   90.00000000
_cell_angle_gamma   90.00000000
_symmetry_Int_Tables_number   1
_chemical_formula_structural   TeSe7Cl2
_chemical_formula_sum   'Te4 Se28 Cl8'
_cell_volume   1765.43445120
_cell_formula_units_Z   4
loop_
 _symmetry_equiv_pos_site_id
 _symmetry_equiv_pos_as_xyz
  1  'x, y, z'
loop_
 _atom_site_type_symbol
 _atom_site_label
 _atom_site_symmetry_multiplicity
 _atom_site_fract_x
 _atom_site_fract_y
 _atom_site_fract_z
 _atom_site_occupancy
  Te  Te0  1  0.298759  0.750000  0.402153  1
  Te  Te1  1  0.201241  0.250000  0.902153  1
  Te  Te2  1  0.798759  0.750000  0.097847  1
  Te  Te3  1  0.701241  0.250000  0.597847  1
  Se  Se4  1  0.736303  0.250000  0.216362  1
  Se  Se5  1  0.857709  0.397172  0.271483  1
  Se  Se6  1  0.142291  0.897172  0.728517  1
  Se  Se7  1  0.357709  0.102828  0.228517  1
  Se  Se8  1  0.142291  0.602828  0.728517  1
  Se  Se9  1  0.226340  0.032222  0.103837  1
  Se  Se10  1  0.726340  0.032222  0.396163  1
  Se  Se11  1  0.663587  0.912760  0.030154  1
  Se  Se12  1  0.836413  0.412760  0.530154  1
  Se  Se13  1  0.773660  0.532222  0.896163  1
  Se  Se14  1  0.642291  0.602828  0.771483  1
  Se  Se15  1  0.273660  0.532222  0.603837  1
  Se  Se16  1  0.336413  0.412760  0.969846  1
  Se  Se17  1  0.163587  0.912760  0.469846  1
  Se  Se18  1  0.263697  0.750000  0.783638  1
  Se  Se19  1  0.336413  0.087240  0.969846  1
  Se  Se20  1  0.236303  0.250000  0.283638  1
  Se  Se21  1  0.726340  0.467778  0.396163  1
  Se  Se22  1  0.763697  0.750000  0.716362  1
  Se  Se23  1  0.663587  0.587240  0.030154  1
  Se  Se24  1  0.273660  0.967778  0.603837  1
  Se  Se25  1  0.857709  0.102828  0.271483  1
  Se  Se26  1  0.226340  0.467778  0.103837  1
  Se  Se27  1  0.773660  0.967778  0.896163  1
  Se  Se28  1  0.836413  0.087240  0.530154  1
  Se  Se29  1  0.163587  0.587240  0.469846  1
  Se  Se30  1  0.357709  0.397172  0.228517  1
  Se  Se31  1  0.642291  0.897172  0.771483  1
  Cl  Cl32  1  0.920206  0.250000  0.700286  1
  Cl  Cl33  1  0.579794  0.750000  0.200286  1
  Cl  Cl34  1  0.482345  0.750000  0.520691  1
  Cl  Cl35  1  0.017655  0.250000  0.020691  1
  Cl  Cl36  1  0.420206  0.250000  0.799714  1
  Cl  Cl37  1  0.982345  0.750000  0.979309  1
  Cl  Cl38  1  0.517655  0.250000  0.479309  1
  Cl  Cl39  1  0.079794  0.750000  0.299714  1
