# generated using pymatgen
data_TbZrNp6F30
_symmetry_space_group_name_H-M   'P 1'
_cell_length_a   8.64296847
_cell_length_b   8.63514973
_cell_length_c   8.64296941
_cell_angle_alpha   100.67929112
_cell_angle_beta   100.32951913
_cell_angle_gamma   100.67928744
_symmetry_Int_Tables_number   1
_chemical_formula_structural   TbZrNp6F30
_chemical_formula_sum   'Tb1 Zr1 Np6 F30'
_cell_volume   607.46531333
_cell_formula_units_Z   1
loop_
 _symmetry_equiv_pos_site_id
 _symmetry_equiv_pos_as_xyz
  1  'x, y, z'
loop_
 _atom_site_type_symbol
 _atom_site_label
 _atom_site_symmetry_multiplicity
 _atom_site_fract_x
 _atom_site_fract_y
 _atom_site_fract_z
 _atom_site_occupancy
  Tb  Tb0  1  0.822105  0.250000  0.677895  1
  Zr  Zr1  1  0.251186  0.250000  0.248814  1
  Np  Np2  1  0.178399  0.750000  0.321601  1
  Np  Np3  1  0.246434  0.677652  0.821056  1
  Np  Np4  1  0.678944  0.822348  0.253566  1
  Np  Np5  1  0.749586  0.750000  0.750414  1
  Np  Np6  1  0.323583  0.179844  0.746781  1
  Np  Np7  1  0.753219  0.320156  0.176417  1
  F  F8  1  0.967085  0.532427  0.252217  1
  F  F9  1  0.811869  0.336957  0.441764  1
  F  F10  1  0.485961  0.716692  0.716018  1
  F  F11  1  0.343310  0.449440  0.823444  1
  F  F12  1  0.014092  0.787509  0.783843  1
  F  F13  1  0.753342  0.030042  0.465897  1
  F  F14  1  0.947999  0.839438  0.323368  1
  F  F15  1  0.225520  0.221481  0.005526  1
  F  F16  1  0.779667  0.009257  0.779004  1
  F  F17  1  0.325623  0.949250  0.839990  1
  F  F18  1  0.279451  0.278185  0.495734  1
  F  F19  1  0.447556  0.822256  0.343197  1
  F  F20  1  0.531793  0.250000  0.968207  1
  F  F21  1  0.275279  0.496131  0.278930  1
  F  F22  1  0.156803  0.677744  0.052444  1
  F  F23  1  0.841628  0.320677  0.949715  1
  F  F24  1  0.720996  0.490743  0.720333  1
  F  F25  1  0.465014  0.750000  0.034986  1
  F  F26  1  0.550285  0.179323  0.658372  1
  F  F27  1  0.716157  0.712491  0.485908  1
  F  F28  1  0.676556  0.050560  0.156690  1
  F  F29  1  0.221070  0.003869  0.224721  1
  F  F30  1  0.783982  0.783308  0.014039  1
  F  F31  1  0.058236  0.163043  0.688131  1
  F  F32  1  0.247783  0.967573  0.532915  1
  F  F33  1  0.004266  0.221815  0.220549  1
  F  F34  1  0.660010  0.550750  0.174377  1
  F  F35  1  0.494474  0.278519  0.274480  1
  F  F36  1  0.176632  0.660562  0.552001  1
  F  F37  1  0.034103  0.469958  0.746658  1
