# generated using pymatgen
data_Lu16In6FeRh
_symmetry_space_group_name_H-M   'P 1'
_cell_length_a   10.18689100
_cell_length_b   10.18689091
_cell_length_c   6.87465900
_cell_angle_alpha   90.00000000
_cell_angle_beta   90.00000000
_cell_angle_gamma   120.00000354
_symmetry_Int_Tables_number   1
_chemical_formula_structural   Lu16In6FeRh
_chemical_formula_sum   'Lu16 In6 Fe1 Rh1'
_cell_volume   617.82445085
_cell_formula_units_Z   1
loop_
 _symmetry_equiv_pos_site_id
 _symmetry_equiv_pos_as_xyz
  1  'x, y, z'
loop_
 _atom_site_type_symbol
 _atom_site_label
 _atom_site_symmetry_multiplicity
 _atom_site_fract_x
 _atom_site_fract_y
 _atom_site_fract_z
 _atom_site_occupancy
  Lu  Lu0  1  0.535178  0.070355  0.522894  1
  Lu  Lu1  1  0.929645  0.464822  0.522894  1
  Lu  Lu2  1  0.535178  0.464822  0.522894  1
  Lu  Lu3  1  0.469493  0.938985  0.023897  1
  Lu  Lu4  1  0.061015  0.530507  0.023897  1
  Lu  Lu5  1  0.469493  0.530507  0.023897  1
  Lu  Lu6  1  0.177164  0.354328  0.726752  1
  Lu  Lu7  1  0.645672  0.822836  0.726752  1
  Lu  Lu8  1  0.177164  0.822836  0.726752  1
  Lu  Lu9  1  0.820634  0.641269  0.230544  1
  Lu  Lu10  1  0.358731  0.179366  0.230544  1
  Lu  Lu11  1  0.820634  0.179366  0.230544  1
  Lu  Lu12  1  0.666667  0.333333  0.911404  1
  Lu  Lu13  1  0.333333  0.666667  0.400697  1
  Lu  Lu14  1  0.000000  0.000000  0.507932  1
  Lu  Lu15  1  0.000000  0.000000  0.008913  1
  In  In16  1  0.837229  0.674457  0.770106  1
  In  In17  1  0.325543  0.162771  0.770106  1
  In  In18  1  0.837229  0.162771  0.770106  1
  In  In19  1  0.162435  0.324871  0.268788  1
  In  In20  1  0.675129  0.837565  0.268788  1
  In  In21  1  0.162435  0.837565  0.268788  1
  Fe  Fe22  1  0.666667  0.333333  0.299174  1
  Rh  Rh23  1  0.333333  0.666667  0.798615  1
