# generated using pymatgen
data_SmEu3(Ga5Pd3)2
_symmetry_space_group_name_H-M   'P 1'
_cell_length_a   8.77190105
_cell_length_b   8.77780177
_cell_length_c   8.77780185
_cell_angle_alpha   140.81451988
_cell_angle_beta   107.86663276
_cell_angle_gamma   85.31050527
_symmetry_Int_Tables_number   1
_chemical_formula_structural   SmEu3(Ga5Pd3)2
_chemical_formula_sum   'Sm1 Eu3 Ga10 Pd6'
_cell_volume   392.52167496
_cell_formula_units_Z   1
loop_
 _symmetry_equiv_pos_site_id
 _symmetry_equiv_pos_as_xyz
  1  'x, y, z'
loop_
 _atom_site_type_symbol
 _atom_site_label
 _atom_site_symmetry_multiplicity
 _atom_site_fract_x
 _atom_site_fract_y
 _atom_site_fract_z
 _atom_site_occupancy
  Sm  Sm0  1  0.912733  0.638234  0.274499  1
  Eu  Eu1  1  0.636324  0.861799  0.774525  1
  Eu  Eu2  1  0.363759  0.138186  0.225573  1
  Eu  Eu3  1  0.087389  0.361817  0.725572  1
  Ga  Ga4  1  0.289946  0.040018  0.749763  1
  Ga  Ga5  1  0.710067  0.959696  0.250028  1
  Ga  Ga6  1  0.710067  0.460039  0.750371  1
  Ga  Ga7  1  0.289946  0.540183  0.249928  1
  Ga  Ga8  1  0.430262  0.596273  0.833989  1
  Ga  Ga9  1  0.569989  0.403932  0.166057  1
  Ga  Ga10  1  0.762555  0.096329  0.666226  1
  Ga  Ga11  1  0.237418  0.903553  0.333866  1
  Ga  Ga12  1  0.999870  0.749783  0.749688  1
  Ga  Ga13  1  0.999870  0.250182  0.250088  1
  Pd  Pd14  1  0.240541  0.644266  0.596276  1
  Pd  Pd15  1  0.759115  0.355648  0.403466  1
  Pd  Pd16  1  0.047543  0.144442  0.903101  1
  Pd  Pd17  1  0.952248  0.855482  0.096767  1
  Pd  Pd18  1  0.500178  0.749936  0.249976  1
  Pd  Pd19  1  0.500178  0.250202  0.750242  1
