# generated using pymatgen
data_La8Tm2(GaSn)3
_symmetry_space_group_name_H-M   'P 1'
_cell_length_a   9.25102175
_cell_length_b   9.25101149
_cell_length_c   9.34243300
_cell_angle_alpha   96.63609509
_cell_angle_beta   96.63472218
_cell_angle_gamma   140.05028593
_symmetry_Int_Tables_number   1
_chemical_formula_structural   La8Tm2(GaSn)3
_chemical_formula_sum   'La8 Tm2 Ga3 Sn3'
_cell_volume   483.13253415
_cell_formula_units_Z   1
loop_
 _symmetry_equiv_pos_site_id
 _symmetry_equiv_pos_as_xyz
  1  'x, y, z'
loop_
 _atom_site_type_symbol
 _atom_site_label
 _atom_site_symmetry_multiplicity
 _atom_site_fract_x
 _atom_site_fract_y
 _atom_site_fract_z
 _atom_site_occupancy
  La  La0  1  0.913407  0.217975  0.131399  1
  La  La1  1  0.218881  0.087751  0.306640  1
  La  La2  1  0.785563  0.907926  0.693504  1
  La  La3  1  0.084480  0.781385  0.865847  1
  La  La4  1  0.718639  0.415500  0.134140  1
  La  La5  1  0.282027  0.586617  0.868595  1
  La  La6  1  0.592057  0.714444  0.306503  1
  La  La7  1  0.412255  0.281115  0.693372  1
  Tm  Tm8  1  0.745924  0.255903  0.499998  1
  Tm  Tm9  1  0.244088  0.754075  0.499996  1
  Ga  Ga10  1  0.750297  0.749666  0.000005  1
  Ga  Ga11  1  0.250336  0.249707  0.000005  1
  Ga  Ga12  1  0.848010  0.651978  0.499990  1
  Sn  Sn13  1  0.655144  0.152396  0.807542  1
  Sn  Sn14  1  0.347600  0.844848  0.192463  1
  Sn  Sn15  1  0.151291  0.348713  0.499999  1
