# generated using pymatgen
data_La6HoTm3(In3Br)2
_symmetry_space_group_name_H-M   'P 1'
_cell_length_a   9.59992500
_cell_length_b   9.59992532
_cell_length_c   6.78177500
_cell_angle_alpha   90.00000000
_cell_angle_beta   90.00000000
_cell_angle_gamma   120.00000236
_symmetry_Int_Tables_number   1
_chemical_formula_structural   La6HoTm3(In3Br)2
_chemical_formula_sum   'La6 Ho1 Tm3 In6 Br2'
_cell_volume   541.26468568
_cell_formula_units_Z   1
loop_
 _symmetry_equiv_pos_site_id
 _symmetry_equiv_pos_as_xyz
  1  'x, y, z'
loop_
 _atom_site_type_symbol
 _atom_site_label
 _atom_site_symmetry_multiplicity
 _atom_site_fract_x
 _atom_site_fract_y
 _atom_site_fract_z
 _atom_site_occupancy
  La  La0  1  0.731004  0.731122  0.250070  1
  La  La1  1  0.000118  0.731122  0.749930  1
  La  La2  1  0.731004  0.999882  0.749930  1
  La  La3  1  0.268878  0.268996  0.749930  1
  La  La4  1  0.000118  0.268996  0.250070  1
  La  La5  1  0.268878  0.999882  0.250070  1
  Ho  Ho6  1  0.666667  0.333333  0.000000  1
  Tm  Tm7  1  0.333333  0.666667  0.500000  1
  Tm  Tm8  1  0.666667  0.333333  0.500000  1
  Tm  Tm9  1  0.333333  0.666667  0.000000  1
  In  In10  1  0.394200  0.999884  0.749959  1
  In  In11  1  0.000116  0.605800  0.250041  1
  In  In12  1  0.605684  0.999884  0.250041  1
  In  In13  1  0.000116  0.394316  0.749959  1
  In  In14  1  0.394200  0.394316  0.250041  1
  In  In15  1  0.605684  0.605800  0.749959  1
  Br  Br16  1  0.000000  0.000000  0.500000  1
  Br  Br17  1  0.000000  0.000000  0.000000  1
