# generated using pymatgen
data_DyEr3(GaRh)4
_symmetry_space_group_name_H-M   'P 1'
_cell_length_a   4.25318500
_cell_length_b   6.83912870
_cell_length_c   7.81087371
_cell_angle_alpha   89.85092147
_cell_angle_beta   90.00000000
_cell_angle_gamma   90.00000000
_symmetry_Int_Tables_number   1
_chemical_formula_structural   DyEr3(GaRh)4
_chemical_formula_sum   'Dy1 Er3 Ga4 Rh4'
_cell_volume   227.20254717
_cell_formula_units_Z   1
loop_
 _symmetry_equiv_pos_site_id
 _symmetry_equiv_pos_as_xyz
  1  'x, y, z'
loop_
 _atom_site_type_symbol
 _atom_site_label
 _atom_site_symmetry_multiplicity
 _atom_site_fract_x
 _atom_site_fract_y
 _atom_site_fract_z
 _atom_site_occupancy
  Dy  Dy0  1  0.250000  0.972119  0.310511  1
  Er  Er1  1  0.250000  0.472381  0.189365  1
  Er  Er2  1  0.750000  0.027945  0.690533  1
  Er  Er3  1  0.750000  0.527368  0.809776  1
  Ga  Ga4  1  0.250000  0.345537  0.570345  1
  Ga  Ga5  1  0.250000  0.844484  0.929019  1
  Ga  Ga6  1  0.750000  0.654502  0.429868  1
  Ga  Ga7  1  0.750000  0.155843  0.070166  1
  Rh  Rh8  1  0.250000  0.234297  0.890894  1
  Rh  Rh9  1  0.250000  0.733757  0.610310  1
  Rh  Rh10  1  0.750000  0.764998  0.108324  1
  Rh  Rh11  1  0.750000  0.266770  0.390889  1
