# generated using pymatgen
data_Sm4YNi16(MoAs4)3
_symmetry_space_group_name_H-M   'P 1'
_cell_length_a   12.67357626
_cell_length_b   12.66909652
_cell_length_c   3.89638800
_cell_angle_alpha   90.00000000
_cell_angle_beta   90.00000000
_cell_angle_gamma   119.98830834
_symmetry_Int_Tables_number   1
_chemical_formula_structural   Sm4YNi16(MoAs4)3
_chemical_formula_sum   'Sm4 Y1 Ni16 Mo3 As12'
_cell_volume   541.86214225
_cell_formula_units_Z   1
loop_
 _symmetry_equiv_pos_site_id
 _symmetry_equiv_pos_as_xyz
  1  'x, y, z'
loop_
 _atom_site_type_symbol
 _atom_site_label
 _atom_site_symmetry_multiplicity
 _atom_site_fract_x
 _atom_site_fract_y
 _atom_site_fract_z
 _atom_site_occupancy
  Sm  Sm0  1  0.186157  0.185876  0.500000  1
  Sm  Sm1  1  0.813843  0.999719  0.500000  1
  Sm  Sm2  1  0.333630  0.666853  0.000000  1
  Sm  Sm3  1  0.666370  0.333222  0.000000  1
  Y  Y4  1  0.000000  0.813583  0.500000  1
  Ni  Ni5  1  0.719281  0.718423  0.500000  1
  Ni  Ni6  1  0.280719  0.999143  0.500000  1
  Ni  Ni7  1  0.000000  0.281755  0.500000  1
  Ni  Ni8  1  0.183245  0.377678  0.000000  1
  Ni  Ni9  1  0.623117  0.805679  0.000000  1
  Ni  Ni10  1  0.193240  0.816676  0.000000  1
  Ni  Ni11  1  0.806760  0.623436  0.000000  1
  Ni  Ni12  1  0.816755  0.194433  0.000000  1
  Ni  Ni13  1  0.376883  0.182561  0.000000  1
  Ni  Ni14  1  0.360541  0.482891  0.500000  1
  Ni  Ni15  1  0.517231  0.877705  0.500000  1
  Ni  Ni16  1  0.122337  0.640128  0.500000  1
  Ni  Ni17  1  0.877663  0.517790  0.500000  1
  Ni  Ni18  1  0.639459  0.122349  0.500000  1
  Ni  Ni19  1  0.482769  0.360473  0.500000  1
  Ni  Ni20  1  0.000000  0.999554  0.000000  1
  Mo  Mo21  1  0.563592  0.563251  0.000000  1
  Mo  Mo22  1  0.436408  0.999658  0.000000  1
  Mo  Mo23  1  0.000000  0.437603  0.000000  1
  As  As24  1  0.821607  0.820208  0.000000  1
  As  As25  1  0.178393  0.998602  0.000000  1
  As  As26  1  0.000000  0.179666  0.000000  1
  As  As27  1  0.166282  0.479716  0.500000  1
  As  As28  1  0.521089  0.687046  0.500000  1
  As  As29  1  0.313202  0.833493  0.500000  1
  As  As30  1  0.686798  0.520291  0.500000  1
  As  As31  1  0.833718  0.313435  0.500000  1
  As  As32  1  0.478911  0.165958  0.500000  1
  As  As33  1  0.366872  0.366817  0.000000  1
  As  As34  1  0.633128  0.999945  0.000000  1
  As  As35  1  0.000000  0.634383  0.000000  1
