# generated using pymatgen
data_RbMnNb3Cl11
_symmetry_space_group_name_H-M   'P 1'
_cell_length_a   6.89598000
_cell_length_b   13.65287500
_cell_length_c   17.24663200
_cell_angle_alpha   90.00000000
_cell_angle_beta   90.00000000
_cell_angle_gamma   90.00000000
_symmetry_Int_Tables_number   1
_chemical_formula_structural   RbMnNb3Cl11
_chemical_formula_sum   'Rb4 Mn4 Nb12 Cl44'
_cell_volume   1623.76959122
_cell_formula_units_Z   4
loop_
 _symmetry_equiv_pos_site_id
 _symmetry_equiv_pos_as_xyz
  1  'x, y, z'
loop_
 _atom_site_type_symbol
 _atom_site_label
 _atom_site_symmetry_multiplicity
 _atom_site_fract_x
 _atom_site_fract_y
 _atom_site_fract_z
 _atom_site_occupancy
  Rb  Rb0  1  0.250000  0.507029  0.737517  1
  Rb  Rb1  1  0.750000  0.492971  0.262483  1
  Rb  Rb2  1  0.750000  0.992971  0.237517  1
  Rb  Rb3  1  0.250000  0.007029  0.762483  1
  Mn  Mn4  1  0.750000  0.679720  0.662608  1
  Mn  Mn5  1  0.250000  0.320280  0.337392  1
  Mn  Mn6  1  0.750000  0.179720  0.837392  1
  Mn  Mn7  1  0.250000  0.820280  0.162608  1
  Nb  Nb8  1  0.750000  0.190594  0.646759  1
  Nb  Nb9  1  0.043509  0.252842  0.012532  1
  Nb  Nb10  1  0.250000  0.309406  0.146759  1
  Nb  Nb11  1  0.543509  0.747158  0.987468  1
  Nb  Nb12  1  0.956491  0.747158  0.987468  1
  Nb  Nb13  1  0.456491  0.752842  0.487468  1
  Nb  Nb14  1  0.750000  0.690594  0.853241  1
  Nb  Nb15  1  0.043509  0.752842  0.487468  1
  Nb  Nb16  1  0.456491  0.252842  0.012532  1
  Nb  Nb17  1  0.250000  0.809406  0.353241  1
  Nb  Nb18  1  0.956491  0.247158  0.512532  1
  Nb  Nb19  1  0.543509  0.247158  0.512532  1
  Cl  Cl20  1  0.007786  0.109337  0.921336  1
  Cl  Cl21  1  0.250000  0.321468  0.583696  1
  Cl  Cl22  1  0.750000  0.159129  0.419353  1
  Cl  Cl23  1  0.250000  0.143674  0.090160  1
  Cl  Cl24  1  0.250000  0.174745  0.430009  1
  Cl  Cl25  1  0.996525  0.090614  0.581518  1
  Cl  Cl26  1  0.250000  0.340871  0.919353  1
  Cl  Cl27  1  0.503475  0.590614  0.918482  1
  Cl  Cl28  1  0.750000  0.356326  0.590160  1
  Cl  Cl29  1  0.507802  0.255744  0.744003  1
  Cl  Cl30  1  0.992198  0.755744  0.755997  1
  Cl  Cl31  1  0.750000  0.325255  0.930009  1
  Cl  Cl32  1  0.007786  0.609337  0.578664  1
  Cl  Cl33  1  0.492214  0.609337  0.578664  1
  Cl  Cl34  1  0.492198  0.244256  0.244003  1
  Cl  Cl35  1  0.250000  0.643674  0.409840  1
  Cl  Cl36  1  0.492198  0.744256  0.255997  1
  Cl  Cl37  1  0.250000  0.840871  0.580647  1
  Cl  Cl38  1  0.750000  0.040577  0.743478  1
  Cl  Cl39  1  0.996525  0.590614  0.918482  1
  Cl  Cl40  1  0.007802  0.744256  0.255997  1
  Cl  Cl41  1  0.250000  0.959423  0.256522  1
  Cl  Cl42  1  0.750000  0.825255  0.569991  1
  Cl  Cl43  1  0.007802  0.244256  0.244003  1
  Cl  Cl44  1  0.492214  0.109337  0.921336  1
  Cl  Cl45  1  0.750000  0.178532  0.083696  1
  Cl  Cl46  1  0.750000  0.678532  0.416304  1
  Cl  Cl47  1  0.003475  0.409386  0.081518  1
  Cl  Cl48  1  0.496525  0.409386  0.081518  1
  Cl  Cl49  1  0.503475  0.090614  0.581518  1
  Cl  Cl50  1  0.992198  0.255744  0.744003  1
  Cl  Cl51  1  0.250000  0.674745  0.069991  1
  Cl  Cl52  1  0.250000  0.821468  0.916304  1
  Cl  Cl53  1  0.507786  0.890663  0.078664  1
  Cl  Cl54  1  0.750000  0.659129  0.080647  1
  Cl  Cl55  1  0.496525  0.909386  0.418482  1
  Cl  Cl56  1  0.507802  0.755744  0.755997  1
  Cl  Cl57  1  0.250000  0.459423  0.243478  1
  Cl  Cl58  1  0.992214  0.390663  0.421336  1
  Cl  Cl59  1  0.750000  0.540577  0.756522  1
  Cl  Cl60  1  0.992214  0.890663  0.078664  1
  Cl  Cl61  1  0.507786  0.390663  0.421336  1
  Cl  Cl62  1  0.003475  0.909386  0.418482  1
  Cl  Cl63  1  0.750000  0.856326  0.909840  1
