# generated using pymatgen
data_Ho3Si3Os2
_symmetry_space_group_name_H-M   'P 1'
_cell_length_a   5.74054629
_cell_length_b   5.74054601
_cell_length_c   13.63700800
_cell_angle_alpha   90.00000000
_cell_angle_beta   90.00000000
_cell_angle_gamma   137.16116344
_symmetry_Int_Tables_number   1
_chemical_formula_structural   Ho3Si3Os2
_chemical_formula_sum   'Ho6 Si6 Os4'
_cell_volume   305.55904677
_cell_formula_units_Z   2
loop_
 _symmetry_equiv_pos_site_id
 _symmetry_equiv_pos_as_xyz
  1  'x, y, z'
loop_
 _atom_site_type_symbol
 _atom_site_label
 _atom_site_symmetry_multiplicity
 _atom_site_fract_x
 _atom_site_fract_y
 _atom_site_fract_z
 _atom_site_occupancy
  Ho  Ho0  1  0.640884  0.359116  0.250000  1
  Ho  Ho1  1  0.359116  0.640884  0.750000  1
  Ho  Ho2  1  0.924154  0.075846  0.115763  1
  Ho  Ho3  1  0.075846  0.924154  0.884237  1
  Ho  Ho4  1  0.075846  0.924154  0.615763  1
  Ho  Ho5  1  0.924154  0.075846  0.384237  1
  Si  Si6  1  0.325951  0.674049  0.250000  1
  Si  Si7  1  0.674049  0.325951  0.750000  1
  Si  Si8  1  0.616687  0.383313  0.038003  1
  Si  Si9  1  0.383313  0.616687  0.961997  1
  Si  Si10  1  0.383313  0.616687  0.538003  1
  Si  Si11  1  0.616687  0.383313  0.461997  1
  Os  Os12  1  0.786920  0.213080  0.581850  1
  Os  Os13  1  0.213080  0.786920  0.418150  1
  Os  Os14  1  0.213080  0.786920  0.081850  1
  Os  Os15  1  0.786920  0.213080  0.918150  1
