# generated using pymatgen
data_Y3Er5(CdPt)2
_symmetry_space_group_name_H-M   'P 1'
_cell_length_a   9.65438777
_cell_length_b   9.65438742
_cell_length_c   9.65438700
_cell_angle_alpha   59.99999802
_cell_angle_beta   59.99999921
_cell_angle_gamma   59.99999631
_symmetry_Int_Tables_number   1
_chemical_formula_structural   Y3Er5(CdPt)2
_chemical_formula_sum   'Y6 Er10 Cd4 Pt4'
_cell_volume   636.29593060
_cell_formula_units_Z   2
loop_
 _symmetry_equiv_pos_site_id
 _symmetry_equiv_pos_as_xyz
  1  'x, y, z'
loop_
 _atom_site_type_symbol
 _atom_site_label
 _atom_site_symmetry_multiplicity
 _atom_site_fract_x
 _atom_site_fract_y
 _atom_site_fract_z
 _atom_site_occupancy
  Y  Y0  1  0.936170  0.563830  0.563830  1
  Y  Y1  1  0.563830  0.936170  0.936170  1
  Y  Y2  1  0.563830  0.936170  0.563830  1
  Y  Y3  1  0.936170  0.563830  0.936170  1
  Y  Y4  1  0.563830  0.563830  0.936170  1
  Y  Y5  1  0.936170  0.936170  0.563830  1
  Er  Er6  1  0.352371  0.352371  0.352371  1
  Er  Er7  1  0.352371  0.352371  0.942886  1
  Er  Er8  1  0.352371  0.942886  0.352371  1
  Er  Er9  1  0.942886  0.352371  0.352371  1
  Er  Er10  1  0.810705  0.189295  0.189295  1
  Er  Er11  1  0.189295  0.810705  0.810705  1
  Er  Er12  1  0.189295  0.810705  0.189295  1
  Er  Er13  1  0.810705  0.189295  0.810705  1
  Er  Er14  1  0.189295  0.189295  0.810705  1
  Er  Er15  1  0.810705  0.810705  0.189295  1
  Cd  Cd16  1  0.581688  0.581688  0.581688  1
  Cd  Cd17  1  0.581688  0.581688  0.254936  1
  Cd  Cd18  1  0.581688  0.254936  0.581688  1
  Cd  Cd19  1  0.254936  0.581688  0.581688  1
  Pt  Pt20  1  0.143414  0.143414  0.143414  1
  Pt  Pt21  1  0.143414  0.143414  0.569758  1
  Pt  Pt22  1  0.143414  0.569758  0.143414  1
  Pt  Pt23  1  0.569758  0.143414  0.143414  1
