# generated using pymatgen
data_La10Nd6Cd4TcPt3
_symmetry_space_group_name_H-M   'P 1'
_cell_length_a   10.15527282
_cell_length_b   10.15527291
_cell_length_c   10.15527206
_cell_angle_alpha   59.53958364
_cell_angle_beta   59.53957353
_cell_angle_gamma   59.53958925
_symmetry_Int_Tables_number   1
_chemical_formula_structural   La10Nd6Cd4TcPt3
_chemical_formula_sum   'La10 Nd6 Cd4 Tc1 Pt3'
_cell_volume   732.80652981
_cell_formula_units_Z   1
loop_
 _symmetry_equiv_pos_site_id
 _symmetry_equiv_pos_as_xyz
  1  'x, y, z'
loop_
 _atom_site_type_symbol
 _atom_site_label
 _atom_site_symmetry_multiplicity
 _atom_site_fract_x
 _atom_site_fract_y
 _atom_site_fract_z
 _atom_site_occupancy
  La  La0  1  0.350389  0.350389  0.350389  1
  La  La1  1  0.345136  0.345136  0.958653  1
  La  La2  1  0.345136  0.958653  0.345136  1
  La  La3  1  0.958653  0.345136  0.345136  1
  La  La4  1  0.816432  0.189773  0.189773  1
  La  La5  1  0.192682  0.803662  0.803662  1
  La  La6  1  0.189773  0.816432  0.189773  1
  La  La7  1  0.803662  0.192682  0.803662  1
  La  La8  1  0.189773  0.189773  0.816432  1
  La  La9  1  0.803662  0.803662  0.192682  1
  Nd  Nd10  1  0.934398  0.567293  0.567293  1
  Nd  Nd11  1  0.559661  0.934919  0.934919  1
  Nd  Nd12  1  0.567293  0.934398  0.567293  1
  Nd  Nd13  1  0.934919  0.559661  0.934919  1
  Nd  Nd14  1  0.567293  0.567293  0.934398  1
  Nd  Nd15  1  0.934919  0.934919  0.559661  1
  Cd  Cd16  1  0.580195  0.580195  0.580195  1
  Cd  Cd17  1  0.581113  0.581113  0.255841  1
  Cd  Cd18  1  0.581113  0.255841  0.581113  1
  Cd  Cd19  1  0.255841  0.581113  0.581113  1
  Tc  Tc20  1  0.140716  0.140716  0.140716  1
  Pt  Pt21  1  0.144970  0.144970  0.577304  1
  Pt  Pt22  1  0.144970  0.577304  0.144970  1
  Pt  Pt23  1  0.577304  0.144970  0.144970  1
