# generated using pymatgen
data_HfNb3Si2(PRh2)2
_symmetry_space_group_name_H-M   'P 1'
_cell_length_a   3.77503300
_cell_length_b   6.42285449
_cell_length_c   7.33991858
_cell_angle_alpha   89.73781246
_cell_angle_beta   90.00000000
_cell_angle_gamma   90.00000000
_symmetry_Int_Tables_number   1
_chemical_formula_structural   HfNb3Si2(PRh2)2
_chemical_formula_sum   'Hf1 Nb3 Si2 P2 Rh4'
_cell_volume   177.96538207
_cell_formula_units_Z   1
loop_
 _symmetry_equiv_pos_site_id
 _symmetry_equiv_pos_as_xyz
  1  'x, y, z'
loop_
 _atom_site_type_symbol
 _atom_site_label
 _atom_site_symmetry_multiplicity
 _atom_site_fract_x
 _atom_site_fract_y
 _atom_site_fract_z
 _atom_site_occupancy
  Hf  Hf0  1  0.750000  0.474551  0.322334  1
  Nb  Nb1  1  0.250000  0.026973  0.828852  1
  Nb  Nb2  1  0.750000  0.974252  0.171637  1
  Nb  Nb3  1  0.250000  0.529807  0.674377  1
  Si  Si4  1  0.750000  0.733688  0.874260  1
  Si  Si5  1  0.750000  0.232178  0.628907  1
  P  P6  1  0.250000  0.258596  0.120455  1
  P  P7  1  0.250000  0.769277  0.377743  1
  Rh  Rh8  1  0.250000  0.643386  0.066792  1
  Rh  Rh9  1  0.250000  0.148426  0.434581  1
  Rh  Rh10  1  0.750000  0.854813  0.558522  1
  Rh  Rh11  1  0.750000  0.354054  0.941539  1
