# generated using pymatgen
data_Y2Nb3Si7Pt9
_symmetry_space_group_name_H-M   'P 1'
_cell_length_a   9.89745100
_cell_length_b   9.89745075
_cell_length_c   4.03175000
_cell_angle_alpha   90.00000000
_cell_angle_beta   90.00000000
_cell_angle_gamma   119.99999749
_symmetry_Int_Tables_number   1
_chemical_formula_structural   Y2Nb3Si7Pt9
_chemical_formula_sum   'Y2 Nb3 Si7 Pt9'
_cell_volume   342.03531340
_cell_formula_units_Z   1
loop_
 _symmetry_equiv_pos_site_id
 _symmetry_equiv_pos_as_xyz
  1  'x, y, z'
loop_
 _atom_site_type_symbol
 _atom_site_label
 _atom_site_symmetry_multiplicity
 _atom_site_fract_x
 _atom_site_fract_y
 _atom_site_fract_z
 _atom_site_occupancy
  Y  Y0  1  0.000000  0.000000  0.000000  1
  Y  Y1  1  0.333333  0.666667  0.500000  1
  Nb  Nb2  1  0.882661  0.455596  0.500000  1
  Nb  Nb3  1  0.572935  0.117339  0.500000  1
  Nb  Nb4  1  0.544404  0.427065  0.500000  1
  Si  Si5  1  0.257505  0.211998  0.500000  1
  Si  Si6  1  0.788002  0.045508  0.500000  1
  Si  Si7  1  0.954492  0.742495  0.500000  1
  Si  Si8  1  0.553836  0.635625  0.000000  1
  Si  Si9  1  0.364375  0.918209  0.000000  1
  Si  Si10  1  0.081791  0.446164  0.000000  1
  Si  Si11  1  0.666667  0.333333  0.000000  1
  Pt  Pt12  1  0.223951  0.942779  0.500000  1
  Pt  Pt13  1  0.057221  0.281175  0.500000  1
  Pt  Pt14  1  0.718825  0.776049  0.500000  1
  Pt  Pt15  1  0.304640  0.408266  0.000000  1
  Pt  Pt16  1  0.591734  0.896374  0.000000  1
  Pt  Pt17  1  0.103626  0.695360  0.000000  1
  Pt  Pt18  1  0.386297  0.173862  0.000000  1
  Pt  Pt19  1  0.826138  0.212436  0.000000  1
  Pt  Pt20  1  0.787564  0.613703  0.000000  1
