# generated using pymatgen
data_ThZr2P4Pd7
_symmetry_space_group_name_H-M   'P 1'
_cell_length_a   7.82841302
_cell_length_b   7.82841344
_cell_length_c   9.38830287
_cell_angle_alpha   56.61048218
_cell_angle_beta   56.61048129
_cell_angle_gamma   29.13859842
_symmetry_Int_Tables_number   1
_chemical_formula_structural   ThZr2P4Pd7
_chemical_formula_sum   'Th1 Zr2 P4 Pd7'
_cell_volume   230.45566019
_cell_formula_units_Z   1
loop_
 _symmetry_equiv_pos_site_id
 _symmetry_equiv_pos_as_xyz
  1  'x, y, z'
loop_
 _atom_site_type_symbol
 _atom_site_label
 _atom_site_symmetry_multiplicity
 _atom_site_fract_x
 _atom_site_fract_y
 _atom_site_fract_z
 _atom_site_occupancy
  Th  Th0  1  0.000000  0.000000  0.000000  1
  Zr  Zr1  1  0.682152  0.682152  0.319415  1
  Zr  Zr2  1  0.317848  0.317848  0.680585  1
  P  P3  1  0.333650  0.333650  0.256499  1
  P  P4  1  0.666350  0.666350  0.743501  1
  P  P5  1  0.889779  0.889779  0.813836  1
  P  P6  1  0.110221  0.110221  0.186164  1
  Pd  Pd7  1  0.310841  0.310841  0.020248  1
  Pd  Pd8  1  0.689159  0.689159  0.979752  1
  Pd  Pd9  1  0.511903  0.511903  0.704248  1
  Pd  Pd10  1  0.830679  0.830679  0.431952  1
  Pd  Pd11  1  0.488097  0.488097  0.295752  1
  Pd  Pd12  1  0.169321  0.169321  0.568048  1
  Pd  Pd13  1  0.000000  0.000000  0.500000  1
