# generated using pymatgen
data_Gd6Zn21Ru2O
_symmetry_space_group_name_H-M   'P 1'
_cell_length_a   9.04181749
_cell_length_b   9.04181868
_cell_length_c   8.92653200
_cell_angle_alpha   60.42089063
_cell_angle_beta   60.42088634
_cell_angle_gamma   59.15822102
_symmetry_Int_Tables_number   1
_chemical_formula_structural   Gd6Zn21Ru2O
_chemical_formula_sum   'Gd6 Zn21 Ru2 O1'
_cell_volume   515.86947932
_cell_formula_units_Z   1
loop_
 _symmetry_equiv_pos_site_id
 _symmetry_equiv_pos_as_xyz
  1  'x, y, z'
loop_
 _atom_site_type_symbol
 _atom_site_label
 _atom_site_symmetry_multiplicity
 _atom_site_fract_x
 _atom_site_fract_y
 _atom_site_fract_z
 _atom_site_occupancy
  Gd  Gd0  1  0.699560  0.300440  0.300440  1
  Gd  Gd1  1  0.699560  0.300440  0.699560  1
  Gd  Gd2  1  0.710571  0.710571  0.289429  1
  Gd  Gd3  1  0.300440  0.699560  0.699560  1
  Gd  Gd4  1  0.300440  0.699560  0.300440  1
  Gd  Gd5  1  0.289429  0.289429  0.710571  1
  Zn  Zn6  1  0.633669  0.129356  0.118488  1
  Zn  Zn7  1  0.129356  0.633669  0.118488  1
  Zn  Zn8  1  0.118488  0.118488  0.633669  1
  Zn  Zn9  1  0.118488  0.118488  0.129356  1
  Zn  Zn10  1  0.366331  0.870644  0.881512  1
  Zn  Zn11  1  0.870644  0.366331  0.881512  1
  Zn  Zn12  1  0.881512  0.881512  0.366331  1
  Zn  Zn13  1  0.881512  0.881512  0.870644  1
  Zn  Zn14  1  0.500000  0.000000  0.000000  1
  Zn  Zn15  1  0.500000  0.000000  0.500000  1
  Zn  Zn16  1  0.000000  0.500000  0.500000  1
  Zn  Zn17  1  0.000000  0.500000  0.000000  1
  Zn  Zn18  1  0.000000  0.000000  0.000000  1
  Zn  Zn19  1  0.016135  0.325764  0.329049  1
  Zn  Zn20  1  0.325764  0.016135  0.329049  1
  Zn  Zn21  1  0.329049  0.329049  0.016135  1
  Zn  Zn22  1  0.329049  0.329049  0.325764  1
  Zn  Zn23  1  0.983865  0.674236  0.670951  1
  Zn  Zn24  1  0.674236  0.983865  0.670951  1
  Zn  Zn25  1  0.670951  0.670951  0.983865  1
  Zn  Zn26  1  0.670951  0.670951  0.674236  1
  Ru  Ru27  1  0.500000  0.500000  0.000000  1
  Ru  Ru28  1  0.000000  0.000000  0.500000  1
  O  O29  1  0.500000  0.500000  0.500000  1
