# generated using pymatgen
data_Hf4Fe2P4IrRh
_symmetry_space_group_name_H-M   'P 1'
_cell_length_a   3.75977600
_cell_length_b   6.37731779
_cell_length_c   7.23878310
_cell_angle_alpha   89.16795842
_cell_angle_beta   90.00000000
_cell_angle_gamma   90.00000000
_symmetry_Int_Tables_number   1
_chemical_formula_structural   Hf4Fe2P4IrRh
_chemical_formula_sum   'Hf4 Fe2 P4 Ir1 Rh1'
_cell_volume   173.54807437
_cell_formula_units_Z   1
loop_
 _symmetry_equiv_pos_site_id
 _symmetry_equiv_pos_as_xyz
  1  'x, y, z'
loop_
 _atom_site_type_symbol
 _atom_site_label
 _atom_site_symmetry_multiplicity
 _atom_site_fract_x
 _atom_site_fract_y
 _atom_site_fract_z
 _atom_site_occupancy
  Hf  Hf0  1  0.250000  0.526104  0.685666  1
  Hf  Hf1  1  0.750000  0.474327  0.314458  1
  Hf  Hf2  1  0.250000  0.018745  0.823656  1
  Hf  Hf3  1  0.750000  0.980962  0.176251  1
  Fe  Fe4  1  0.750000  0.358198  0.942671  1
  Fe  Fe5  1  0.250000  0.643266  0.057274  1
  P  P6  1  0.250000  0.280840  0.103015  1
  P  P7  1  0.750000  0.718540  0.897600  1
  P  P8  1  0.250000  0.759361  0.361357  1
  P  P9  1  0.750000  0.239905  0.638549  1
  Ir  Ir10  1  0.750000  0.846715  0.564717  1
  Rh  Rh11  1  0.250000  0.153038  0.434787  1
