# generated using pymatgen
data_TbDy7(BCl6)2
_symmetry_space_group_name_H-M   'P 1'
_cell_length_a   3.86973700
_cell_length_b   12.66454772
_cell_length_c   13.13494974
_cell_angle_alpha   90.03855328
_cell_angle_beta   90.00000000
_cell_angle_gamma   90.00000000
_symmetry_Int_Tables_number   1
_chemical_formula_structural   TbDy7(BCl6)2
_chemical_formula_sum   'Tb1 Dy7 B2 Cl12'
_cell_volume   643.72363011
_cell_formula_units_Z   1
loop_
 _symmetry_equiv_pos_site_id
 _symmetry_equiv_pos_as_xyz
  1  'x, y, z'
loop_
 _atom_site_type_symbol
 _atom_site_label
 _atom_site_symmetry_multiplicity
 _atom_site_fract_x
 _atom_site_fract_y
 _atom_site_fract_z
 _atom_site_occupancy
  Tb  Tb0  1  0.500000  0.126749  0.850847  1
  Dy  Dy1  1  0.000000  0.106308  0.084397  1
  Dy  Dy2  1  0.000000  0.893473  0.915860  1
  Dy  Dy3  1  0.000000  0.606407  0.415745  1
  Dy  Dy4  1  0.000000  0.393602  0.584241  1
  Dy  Dy5  1  0.500000  0.873494  0.148871  1
  Dy  Dy6  1  0.500000  0.626460  0.648797  1
  Dy  Dy7  1  0.500000  0.373554  0.351195  1
  B  B8  1  0.500000  0.999708  0.000347  1
  B  B9  1  0.500000  0.500028  0.499976  1
  Cl  Cl10  1  0.500000  0.268356  0.682083  1
  Cl  Cl11  1  0.500000  0.732076  0.317390  1
  Cl  Cl12  1  0.500000  0.767857  0.817336  1
  Cl  Cl13  1  0.500000  0.232133  0.182672  1
  Cl  Cl14  1  0.000000  0.256874  0.929980  1
  Cl  Cl15  1  0.000000  0.743745  0.070710  1
  Cl  Cl16  1  0.000000  0.478125  0.243844  1
  Cl  Cl17  1  0.000000  0.521885  0.756159  1
  Cl  Cl18  1  0.000000  0.978139  0.256236  1
  Cl  Cl19  1  0.000000  0.021032  0.743321  1
  Cl  Cl20  1  0.000000  0.243819  0.429282  1
  Cl  Cl21  1  0.000000  0.756174  0.570711  1
