# generated using pymatgen
data_ErTm11(OsPt)2
_symmetry_space_group_name_H-M   'P 1'
_cell_length_a   7.21043656
_cell_length_b   8.99942400
_cell_length_c   6.37408123
_cell_angle_alpha   90.00000000
_cell_angle_beta   89.74180675
_cell_angle_gamma   90.00000000
_symmetry_Int_Tables_number   1
_chemical_formula_structural   ErTm11(OsPt)2
_chemical_formula_sum   'Er1 Tm11 Os2 Pt2'
_cell_volume   413.60850234
_cell_formula_units_Z   1
loop_
 _symmetry_equiv_pos_site_id
 _symmetry_equiv_pos_as_xyz
  1  'x, y, z'
loop_
 _atom_site_type_symbol
 _atom_site_label
 _atom_site_symmetry_multiplicity
 _atom_site_fract_x
 _atom_site_fract_y
 _atom_site_fract_z
 _atom_site_occupancy
  Er  Er0  1  0.026712  0.250000  0.619379  1
  Tm  Tm1  1  0.973194  0.750000  0.380577  1
  Tm  Tm2  1  0.461982  0.750000  0.123182  1
  Tm  Tm3  1  0.538059  0.250000  0.876863  1
  Tm  Tm4  1  0.175305  0.058579  0.166743  1
  Tm  Tm5  1  0.824434  0.940915  0.833152  1
  Tm  Tm6  1  0.316507  0.938417  0.679960  1
  Tm  Tm7  1  0.824434  0.559085  0.833152  1
  Tm  Tm8  1  0.683425  0.061140  0.320003  1
  Tm  Tm9  1  0.175305  0.441421  0.166743  1
  Tm  Tm10  1  0.683425  0.438860  0.320003  1
  Tm  Tm11  1  0.316507  0.561583  0.679960  1
  Os  Os12  1  0.113717  0.750000  0.965833  1
  Os  Os13  1  0.886005  0.250000  0.035000  1
  Pt  Pt14  1  0.389237  0.250000  0.459821  1
  Pt  Pt15  1  0.611750  0.750000  0.539629  1
