# generated using pymatgen
data_Dy2Lu(SnRh)3
_symmetry_space_group_name_H-M   'P 1'
_cell_length_a   7.63002554
_cell_length_b   7.63002576
_cell_length_c   3.73444400
_cell_angle_alpha   90.00000000
_cell_angle_beta   90.00000000
_cell_angle_gamma   119.65023144
_symmetry_Int_Tables_number   1
_chemical_formula_structural   Dy2Lu(SnRh)3
_chemical_formula_sum   'Dy2 Lu1 Sn3 Rh3'
_cell_volume   188.94199014
_cell_formula_units_Z   1
loop_
 _symmetry_equiv_pos_site_id
 _symmetry_equiv_pos_as_xyz
  1  'x, y, z'
loop_
 _atom_site_type_symbol
 _atom_site_label
 _atom_site_symmetry_multiplicity
 _atom_site_fract_x
 _atom_site_fract_y
 _atom_site_fract_z
 _atom_site_occupancy
  Dy  Dy0  1  0.596402  0.000589  0.500000  1
  Dy  Dy1  1  0.000589  0.596402  0.500000  1
  Lu  Lu2  1  0.403398  0.403398  0.500000  1
  Sn  Sn3  1  0.733635  0.733635  0.000000  1
  Sn  Sn4  1  0.265753  0.002333  0.000000  1
  Sn  Sn5  1  0.002333  0.265753  0.000000  1
  Rh  Rh6  1  0.662971  0.334399  0.000000  1
  Rh  Rh7  1  0.334399  0.662971  0.000000  1
  Rh  Rh8  1  0.000520  0.000520  0.500000  1
