# generated using pymatgen
data_Dy4Ir3Os3Ru2
_symmetry_space_group_name_H-M   'P 1'
_cell_length_a   5.32661049
_cell_length_b   5.32661161
_cell_length_c   8.80671800
_cell_angle_alpha   90.00000000
_cell_angle_beta   90.00000000
_cell_angle_gamma   119.99836474
_symmetry_Int_Tables_number   1
_chemical_formula_structural   Dy4Ir3Os3Ru2
_chemical_formula_sum   'Dy4 Ir3 Os3 Ru2'
_cell_volume   216.39830221
_cell_formula_units_Z   1
loop_
 _symmetry_equiv_pos_site_id
 _symmetry_equiv_pos_as_xyz
  1  'x, y, z'
loop_
 _atom_site_type_symbol
 _atom_site_label
 _atom_site_symmetry_multiplicity
 _atom_site_fract_x
 _atom_site_fract_y
 _atom_site_fract_z
 _atom_site_occupancy
  Dy  Dy0  1  0.666691  0.333309  0.568524  1
  Dy  Dy1  1  0.333303  0.666697  0.436174  1
  Dy  Dy2  1  0.333303  0.666697  0.063826  1
  Dy  Dy3  1  0.666691  0.333309  0.931476  1
  Ir  Ir4  1  0.168824  0.337612  0.750000  1
  Ir  Ir5  1  0.168798  0.831202  0.750000  1
  Ir  Ir6  1  0.662388  0.831176  0.750000  1
  Os  Os7  1  0.828581  0.657249  0.250000  1
  Os  Os8  1  0.828673  0.171327  0.250000  1
  Os  Os9  1  0.342751  0.171419  0.250000  1
  Ru  Ru10  1  0.000000  0.000000  0.500150  1
  Ru  Ru11  1  0.000000  0.000000  0.999850  1
