# generated using pymatgen
data_KRbMg2(H6Ir)2
_symmetry_space_group_name_H-M   'P 1'
_cell_length_a   7.41660300
_cell_length_b   7.41660300
_cell_length_c   7.35566200
_cell_angle_alpha   90.00000000
_cell_angle_beta   90.00000000
_cell_angle_gamma   90.00000000
_symmetry_Int_Tables_number   1
_chemical_formula_structural   KRbMg2(H6Ir)2
_chemical_formula_sum   'K2 Rb2 Mg4 H24 Ir4'
_cell_volume   404.60554441
_cell_formula_units_Z   2
loop_
 _symmetry_equiv_pos_site_id
 _symmetry_equiv_pos_as_xyz
  1  'x, y, z'
loop_
 _atom_site_type_symbol
 _atom_site_label
 _atom_site_symmetry_multiplicity
 _atom_site_fract_x
 _atom_site_fract_y
 _atom_site_fract_z
 _atom_site_occupancy
  K  K0  1  0.000000  0.500000  0.000000  1
  K  K1  1  0.500000  0.000000  0.000000  1
  Rb  Rb2  1  0.000000  0.000000  0.500000  1
  Rb  Rb3  1  0.000000  0.000000  0.000000  1
  Mg  Mg4  1  0.500000  0.500000  0.500000  1
  Mg  Mg5  1  0.000000  0.500000  0.500000  1
  Mg  Mg6  1  0.500000  0.000000  0.500000  1
  Mg  Mg7  1  0.500000  0.500000  0.000000  1
  H  H8  1  0.722258  0.722258  0.506909  1
  H  H9  1  0.277742  0.277742  0.506909  1
  H  H10  1  0.056170  0.709547  0.716994  1
  H  H11  1  0.290453  0.943830  0.716994  1
  H  H12  1  0.709547  0.056170  0.716994  1
  H  H13  1  0.943830  0.290453  0.716994  1
  H  H14  1  0.723628  0.508915  0.726602  1
  H  H15  1  0.508915  0.723628  0.726602  1
  H  H16  1  0.491085  0.276372  0.726602  1
  H  H17  1  0.276372  0.491085  0.726602  1
  H  H18  1  0.286999  0.713001  0.949521  1
  H  H19  1  0.713001  0.286999  0.949521  1
  H  H20  1  0.713001  0.713001  0.050479  1
  H  H21  1  0.286999  0.286999  0.050479  1
  H  H22  1  0.276372  0.508915  0.273398  1
  H  H23  1  0.491085  0.723628  0.273398  1
  H  H24  1  0.508915  0.276372  0.273398  1
  H  H25  1  0.723628  0.491085  0.273398  1
  H  H26  1  0.943830  0.709547  0.283006  1
  H  H27  1  0.709547  0.943830  0.283006  1
  H  H28  1  0.290453  0.056170  0.283006  1
  H  H29  1  0.056170  0.290453  0.283006  1
  H  H30  1  0.277742  0.722258  0.493091  1
  H  H31  1  0.722258  0.277742  0.493091  1
  Ir  Ir32  1  0.286464  0.713536  0.718321  1
  Ir  Ir33  1  0.713536  0.286464  0.718321  1
  Ir  Ir34  1  0.713536  0.713536  0.281679  1
  Ir  Ir35  1  0.286464  0.286464  0.281679  1
