# generated using pymatgen
data_NaSnSbI6
_symmetry_space_group_name_H-M   'P 1'
_cell_length_a   8.73359227
_cell_length_b   8.73354353
_cell_length_c   8.73341075
_cell_angle_alpha   53.65562104
_cell_angle_beta   53.65573680
_cell_angle_gamma   53.65539952
_symmetry_Int_Tables_number   1
_chemical_formula_structural   NaSnSbI6
_chemical_formula_sum   'Na1 Sn1 Sb1 I6'
_cell_volume   401.14481226
_cell_formula_units_Z   1
loop_
 _symmetry_equiv_pos_site_id
 _symmetry_equiv_pos_as_xyz
  1  'x, y, z'
loop_
 _atom_site_type_symbol
 _atom_site_label
 _atom_site_symmetry_multiplicity
 _atom_site_fract_x
 _atom_site_fract_y
 _atom_site_fract_z
 _atom_site_occupancy
  Na  Na0  1  0.669791  0.669794  0.669794  1
  Sn  Sn1  1  0.331158  0.331172  0.331175  1
  Sb  Sb2  1  0.999503  0.999491  0.999501  1
  I  I3  1  0.235149  0.606027  0.917569  1
  I  I4  1  0.606031  0.917583  0.235131  1
  I  I5  1  0.917570  0.235150  0.606022  1
  I  I6  1  0.758660  0.389839  0.092300  1
  I  I7  1  0.389847  0.092290  0.758660  1
  I  I8  1  0.092292  0.758654  0.389849  1
