# generated using pymatgen
data_NdTm2Lu2(FeB3)2
_symmetry_space_group_name_H-M   'P 1'
_cell_length_a   8.20687680
_cell_length_b   8.20687656
_cell_length_c   8.20687666
_cell_angle_alpha   38.27018629
_cell_angle_beta   38.27018773
_cell_angle_gamma   38.27017940
_symmetry_Int_Tables_number   1
_chemical_formula_structural   NdTm2Lu2(FeB3)2
_chemical_formula_sum   'Nd1 Tm2 Lu2 Fe2 B6'
_cell_volume   190.43898063
_cell_formula_units_Z   1
loop_
 _symmetry_equiv_pos_site_id
 _symmetry_equiv_pos_as_xyz
  1  'x, y, z'
loop_
 _atom_site_type_symbol
 _atom_site_label
 _atom_site_symmetry_multiplicity
 _atom_site_fract_x
 _atom_site_fract_y
 _atom_site_fract_z
 _atom_site_occupancy
  Nd  Nd0  1  0.000000  0.000000  0.000000  1
  Tm  Tm1  1  0.750171  0.750171  0.750171  1
  Tm  Tm2  1  0.249829  0.249829  0.249829  1
  Lu  Lu3  1  0.581655  0.581655  0.581655  1
  Lu  Lu4  1  0.418345  0.418345  0.418345  1
  Fe  Fe5  1  0.883985  0.883985  0.883985  1
  Fe  Fe6  1  0.116015  0.116015  0.116015  1
  B  B7  1  0.500000  0.831451  0.168549  1
  B  B8  1  0.168549  0.500000  0.831451  1
  B  B9  1  0.831451  0.168549  0.500000  1
  B  B10  1  0.500000  0.168549  0.831451  1
  B  B11  1  0.831451  0.500000  0.168549  1
  B  B12  1  0.168549  0.831451  0.500000  1
