# generated using pymatgen
data_Nd20Si15Cl
_symmetry_space_group_name_H-M   'P 1'
_cell_length_a   7.84487218
_cell_length_b   7.91150427
_cell_length_c   15.24253629
_cell_angle_alpha   88.74684029
_cell_angle_beta   85.78408278
_cell_angle_gamma   89.78480484
_symmetry_Int_Tables_number   1
_chemical_formula_structural   Nd20Si15Cl
_chemical_formula_sum   'Nd20 Si15 Cl1'
_cell_volume   943.23635019
_cell_formula_units_Z   1
loop_
 _symmetry_equiv_pos_site_id
 _symmetry_equiv_pos_as_xyz
  1  'x, y, z'
loop_
 _atom_site_type_symbol
 _atom_site_label
 _atom_site_symmetry_multiplicity
 _atom_site_fract_x
 _atom_site_fract_y
 _atom_site_fract_z
 _atom_site_occupancy
  Nd  Nd0  1  0.155908  0.514688  0.746319  1
  Nd  Nd1  1  0.846498  0.349544  0.614227  1
  Nd  Nd2  1  0.460573  0.692387  0.895460  1
  Nd  Nd3  1  0.959264  0.814100  0.896462  1
  Nd  Nd4  1  0.183284  0.674920  0.121794  1
  Nd  Nd5  1  0.682873  0.817150  0.121846  1
  Nd  Nd6  1  0.316474  0.182295  0.880671  1
  Nd  Nd7  1  0.151532  0.660416  0.383482  1
  Nd  Nd8  1  0.040581  0.184245  0.105891  1
  Nd  Nd9  1  0.353593  0.175621  0.616251  1
  Nd  Nd10  1  0.840872  0.484616  0.241343  1
  Nd  Nd11  1  0.342109  0.998490  0.254109  1
  Nd  Nd12  1  0.498836  0.302118  0.395748  1
  Nd  Nd13  1  0.818205  0.323801  0.880005  1
  Nd  Nd14  1  0.006907  0.843069  0.605812  1
  Nd  Nd15  1  0.479744  0.704701  0.610802  1
  Nd  Nd16  1  0.006298  0.163052  0.396204  1
  Nd  Nd17  1  0.647836  0.824924  0.385647  1
  Nd  Nd18  1  0.660164  0.004380  0.746367  1
  Nd  Nd19  1  0.538474  0.306131  0.105030  1
  Si  Si20  1  0.461067  0.597722  0.253592  1
  Si  Si21  1  0.230536  0.370129  0.250522  1
  Si  Si22  1  0.540107  0.403438  0.752056  1
  Si  Si23  1  0.633462  0.025530  0.957283  1
  Si  Si24  1  0.037814  0.115843  0.751719  1
  Si  Si25  1  0.766094  0.628310  0.751372  1
  Si  Si26  1  0.728943  0.112383  0.251182  1
  Si  Si27  1  0.303473  0.961850  0.456299  1
  Si  Si28  1  0.960087  0.888440  0.251436  1
  Si  Si29  1  0.367540  0.973380  0.044392  1
  Si  Si30  1  0.708791  0.039020  0.541099  1
  Si  Si31  1  0.135489  0.476216  0.957848  1
  Si  Si32  1  0.200946  0.479866  0.548472  1
  Si  Si33  1  0.866484  0.523880  0.042417  1
  Si  Si34  1  0.266758  0.887373  0.754106  1
  Cl  Cl35  1  0.802384  0.495973  0.432732  1
