# generated using pymatgen
data_LaTh(BRu)4
_symmetry_space_group_name_H-M   'P 1'
_cell_length_a   6.82281377
_cell_length_b   6.04039361
_cell_length_c   5.60647804
_cell_angle_alpha   71.60977401
_cell_angle_beta   57.15165589
_cell_angle_gamma   51.23856020
_symmetry_Int_Tables_number   1
_chemical_formula_structural   LaTh(BRu)4
_chemical_formula_sum   'La1 Th1 B4 Ru4'
_cell_volume   151.25891964
_cell_formula_units_Z   1
loop_
 _symmetry_equiv_pos_site_id
 _symmetry_equiv_pos_as_xyz
  1  'x, y, z'
loop_
 _atom_site_type_symbol
 _atom_site_label
 _atom_site_symmetry_multiplicity
 _atom_site_fract_x
 _atom_site_fract_y
 _atom_site_fract_z
 _atom_site_occupancy
  La  La0  1  0.000000  0.000000  0.000000  1
  Th  Th1  1  0.250000  0.250000  0.250000  1
  B  B2  1  0.318451  0.681549  0.318451  1
  B  B3  1  0.681549  0.318451  0.681549  1
  B  B4  1  0.569569  0.930431  0.569569  1
  B  B5  1  0.930431  0.569569  0.930431  1
  Ru  Ru6  1  0.637073  0.637073  0.362927  1
  Ru  Ru7  1  0.362927  0.362927  0.637073  1
  Ru  Ru8  1  0.613219  0.613219  0.886781  1
  Ru  Ru9  1  0.886781  0.886781  0.613219  1
