# generated using pymatgen
data_Tb5DyInCuOs
_symmetry_space_group_name_H-M   'P 1'
_cell_length_a   8.53991452
_cell_length_b   8.53632107
_cell_length_c   8.53991182
_cell_angle_alpha   113.39739471
_cell_angle_beta   110.39817792
_cell_angle_gamma   104.75136271
_symmetry_Int_Tables_number   1
_chemical_formula_structural   Tb5DyInCuOs
_chemical_formula_sum   'Tb10 Dy2 In2 Cu2 Os2'
_cell_volume   476.36912183
_cell_formula_units_Z   2
loop_
 _symmetry_equiv_pos_site_id
 _symmetry_equiv_pos_as_xyz
  1  'x, y, z'
loop_
 _atom_site_type_symbol
 _atom_site_label
 _atom_site_symmetry_multiplicity
 _atom_site_fract_x
 _atom_site_fract_y
 _atom_site_fract_z
 _atom_site_occupancy
  Tb  Tb0  1  0.436460  0.238019  0.197623  1
  Tb  Tb1  1  0.563540  0.761981  0.802377  1
  Tb  Tb2  1  0.040396  0.238019  0.801559  1
  Tb  Tb3  1  0.959604  0.761981  0.198441  1
  Tb  Tb4  1  0.187169  0.278107  0.465752  1
  Tb  Tb5  1  0.812831  0.721893  0.534248  1
  Tb  Tb6  1  0.187644  0.721893  0.909061  1
  Tb  Tb7  1  0.812356  0.278107  0.090939  1
  Tb  Tb8  1  0.333149  0.645397  0.312249  1
  Tb  Tb9  1  0.666851  0.354603  0.687751  1
  Dy  Dy10  1  0.333530  0.020815  0.687285  1
  Dy  Dy11  1  0.666470  0.979185  0.312715  1
  In  In12  1  0.500000  0.500000  0.000000  1
  In  In13  1  0.000000  0.000000  0.000000  1
  Cu  Cu14  1  0.119129  0.619554  0.500425  1
  Cu  Cu15  1  0.880871  0.380446  0.499575  1
  Os  Os16  1  0.332696  0.000000  0.332696  1
  Os  Os17  1  0.667304  0.000000  0.667304  1
