# generated using pymatgen
data_Tm10Tl3Re
_symmetry_space_group_name_H-M   'P 1'
_cell_length_a   9.65331200
_cell_length_b   9.65331387
_cell_length_c   9.66351900
_cell_angle_alpha   90.00000000
_cell_angle_beta   90.00000000
_cell_angle_gamma   120.00000046
_symmetry_Int_Tables_number   1
_chemical_formula_structural   Tm10Tl3Re
_chemical_formula_sum   'Tm20 Tl6 Re2'
_cell_volume   779.86369769
_cell_formula_units_Z   2
loop_
 _symmetry_equiv_pos_site_id
 _symmetry_equiv_pos_as_xyz
  1  'x, y, z'
loop_
 _atom_site_type_symbol
 _atom_site_label
 _atom_site_symmetry_multiplicity
 _atom_site_fract_x
 _atom_site_fract_y
 _atom_site_fract_z
 _atom_site_occupancy
  Tm  Tm0  1  0.000000  0.000000  0.500000  1
  Tm  Tm1  1  0.000000  0.000000  0.000000  1
  Tm  Tm2  1  0.210402  0.789598  0.440562  1
  Tm  Tm3  1  0.210402  0.420805  0.440562  1
  Tm  Tm4  1  0.579195  0.789598  0.440562  1
  Tm  Tm5  1  0.789598  0.210402  0.559438  1
  Tm  Tm6  1  0.789598  0.579195  0.559438  1
  Tm  Tm7  1  0.420805  0.210402  0.559438  1
  Tm  Tm8  1  0.789598  0.210402  0.940562  1
  Tm  Tm9  1  0.789598  0.579195  0.940562  1
  Tm  Tm10  1  0.420805  0.210402  0.940562  1
  Tm  Tm11  1  0.210402  0.789598  0.059438  1
  Tm  Tm12  1  0.210402  0.420805  0.059438  1
  Tm  Tm13  1  0.579195  0.789598  0.059438  1
  Tm  Tm14  1  0.534582  0.465418  0.250000  1
  Tm  Tm15  1  0.534582  0.069162  0.250000  1
  Tm  Tm16  1  0.930838  0.465418  0.250000  1
  Tm  Tm17  1  0.465418  0.534582  0.750000  1
  Tm  Tm18  1  0.465418  0.930838  0.750000  1
  Tm  Tm19  1  0.069162  0.534582  0.750000  1
  Tl  Tl20  1  0.881718  0.118282  0.250000  1
  Tl  Tl21  1  0.881718  0.763436  0.250000  1
  Tl  Tl22  1  0.236564  0.118282  0.250000  1
  Tl  Tl23  1  0.118282  0.881718  0.750000  1
  Tl  Tl24  1  0.118282  0.236564  0.750000  1
  Tl  Tl25  1  0.763436  0.881718  0.750000  1
  Re  Re26  1  0.333333  0.666667  0.250000  1
  Re  Re27  1  0.666667  0.333333  0.750000  1
