# generated using pymatgen
data_CsHo5Tm5(C2I9)2
_symmetry_space_group_name_H-M   'P 1'
_cell_length_a   11.43556253
_cell_length_b   11.44027676
_cell_length_c   11.43053322
_cell_angle_alpha   113.17864669
_cell_angle_beta   86.65131342
_cell_angle_gamma   120.15579516
_symmetry_Int_Tables_number   1
_chemical_formula_structural   CsHo5Tm5(C2I9)2
_chemical_formula_sum   'Cs1 Ho5 Tm5 C4 I18'
_cell_volume   1170.25655899
_cell_formula_units_Z   1
loop_
 _symmetry_equiv_pos_site_id
 _symmetry_equiv_pos_as_xyz
  1  'x, y, z'
loop_
 _atom_site_type_symbol
 _atom_site_label
 _atom_site_symmetry_multiplicity
 _atom_site_fract_x
 _atom_site_fract_y
 _atom_site_fract_z
 _atom_site_occupancy
  Cs  Cs0  1  0.500009  0.999897  0.499960  1
  Ho  Ho1  1  0.103460  0.945577  0.000844  1
  Ho  Ho2  1  0.036315  0.963179  0.676719  1
  Ho  Ho3  1  0.317998  0.273022  0.285823  1
  Ho  Ho4  1  0.723546  0.648301  0.985408  1
  Ho  Ho5  1  0.896654  0.054840  0.999449  1
  Tm  Tm6  1  0.683506  0.727594  0.715285  1
  Tm  Tm7  1  0.274954  0.350242  0.015361  1
  Tm  Tm8  1  0.093125  0.384722  0.287901  1
  Tm  Tm9  1  0.964385  0.037560  0.321794  1
  Tm  Tm10  1  0.906987  0.615273  0.712188  1
  C  C11  1  0.151108  0.219295  0.119282  1
  C  C12  1  0.847883  0.780205  0.880124  1
  C  C13  1  0.924818  0.857297  0.803096  1
  C  C14  1  0.074194  0.142209  0.196220  1
  I  I15  1  0.450963  0.530707  0.831878  1
  I  I16  1  0.382384  0.040523  0.157430  1
  I  I17  1  0.778569  0.855198  0.501988  1
  I  I18  1  0.840593  0.309645  0.154093  1
  I  I19  1  0.547522  0.469163  0.166761  1
  I  I20  1  0.219313  0.144140  0.497355  1
  I  I21  1  0.317814  0.098992  0.830473  1
  I  I22  1  0.683944  0.903739  0.171996  1
  I  I23  1  0.973822  0.757555  0.171503  1
  I  I24  1  0.935208  0.296188  0.498409  1
  I  I25  1  0.028067  0.245395  0.831094  1
  I  I26  1  0.064943  0.701483  0.500504  1
  I  I27  1  0.259226  0.617270  0.181138  1
  I  I28  1  0.741414  0.380928  0.817203  1
  I  I29  1  0.645993  0.440499  0.505163  1
  I  I30  1  0.159197  0.690241  0.845767  1
  I  I31  1  0.618105  0.957227  0.841457  1
  I  I32  1  0.353983  0.561896  0.496333  1
