# generated using pymatgen
data_SmPaCdRh2
_symmetry_space_group_name_H-M   'P 1'
_cell_length_a   7.75161982
_cell_length_b   7.75161982
_cell_length_c   3.64455700
_cell_angle_alpha   90.00000000
_cell_angle_beta   90.00000000
_cell_angle_gamma   95.07901855
_symmetry_Int_Tables_number   1
_chemical_formula_structural   SmPaCdRh2
_chemical_formula_sum   'Sm2 Pa2 Cd2 Rh4'
_cell_volume   218.13285551
_cell_formula_units_Z   2
loop_
 _symmetry_equiv_pos_site_id
 _symmetry_equiv_pos_as_xyz
  1  'x, y, z'
loop_
 _atom_site_type_symbol
 _atom_site_label
 _atom_site_symmetry_multiplicity
 _atom_site_fract_x
 _atom_site_fract_y
 _atom_site_fract_z
 _atom_site_occupancy
  Sm  Sm0  1  0.168578  0.331422  0.500000  1
  Sm  Sm1  1  0.831422  0.668578  0.500000  1
  Pa  Pa2  1  0.666762  0.166762  0.500000  1
  Pa  Pa3  1  0.333238  0.833238  0.500000  1
  Cd  Cd4  1  0.000000  0.000000  0.000000  1
  Cd  Cd5  1  0.500000  0.500000  0.000000  1
  Rh  Rh6  1  0.150563  0.650563  0.000000  1
  Rh  Rh7  1  0.849437  0.349437  0.000000  1
  Rh  Rh8  1  0.622429  0.877571  0.000000  1
  Rh  Rh9  1  0.377571  0.122429  0.000000  1
