# generated using pymatgen
data_Nb12Ga2GePt5N4
_symmetry_space_group_name_H-M   'P 1'
_cell_length_a   7.06690350
_cell_length_b   7.07016108
_cell_length_c   7.06851310
_cell_angle_alpha   90.19886012
_cell_angle_beta   89.91047692
_cell_angle_gamma   89.89811580
_symmetry_Int_Tables_number   1
_chemical_formula_structural   Nb12Ga2GePt5N4
_chemical_formula_sum   'Nb12 Ga2 Ge1 Pt5 N4'
_cell_volume   353.16910091
_cell_formula_units_Z   1
loop_
 _symmetry_equiv_pos_site_id
 _symmetry_equiv_pos_as_xyz
  1  'x, y, z'
loop_
 _atom_site_type_symbol
 _atom_site_label
 _atom_site_symmetry_multiplicity
 _atom_site_fract_x
 _atom_site_fract_y
 _atom_site_fract_z
 _atom_site_occupancy
  Nb  Nb0  1  0.789580  0.956083  0.378924  1
  Nb  Nb1  1  0.708253  0.049828  0.881547  1
  Nb  Nb2  1  0.212035  0.454092  0.123633  1
  Nb  Nb3  1  0.296383  0.541735  0.628022  1
  Nb  Nb4  1  0.949230  0.383344  0.790012  1
  Nb  Nb5  1  0.042834  0.877073  0.710114  1
  Nb  Nb6  1  0.459026  0.128257  0.204017  1
  Nb  Nb7  1  0.546459  0.623068  0.287994  1
  Nb  Nb8  1  0.378345  0.786442  0.953224  1
  Nb  Nb9  1  0.871476  0.703460  0.041365  1
  Nb  Nb10  1  0.123323  0.209811  0.457531  1
  Nb  Nb11  1  0.618629  0.291832  0.550586  1
  Ga  Ga12  1  0.428860  0.928767  0.565598  1
  Ga  Ga13  1  0.934671  0.570506  0.427965  1
  Ge  Ge14  1  0.071666  0.065228  0.070403  1
  Pt  Pt15  1  0.178708  0.821463  0.319960  1
  Pt  Pt16  1  0.312007  0.170777  0.815512  1
  Pt  Pt17  1  0.829469  0.315016  0.187553  1
  Pt  Pt18  1  0.684419  0.688052  0.670914  1
  Pt  Pt19  1  0.566556  0.433421  0.933411  1
  N  N20  1  0.871637  0.128034  0.627530  1
  N  N21  1  0.623804  0.873949  0.123605  1
  N  N22  1  0.125766  0.623240  0.876109  1
  N  N23  1  0.376865  0.376523  0.374474  1
