# generated using pymatgen
data_DyEr3Th6(Ge3C)2
_symmetry_space_group_name_H-M   'P 1'
_cell_length_a   8.79924300
_cell_length_b   8.79924451
_cell_length_c   6.39664500
_cell_angle_alpha   90.00000000
_cell_angle_beta   90.00000000
_cell_angle_gamma   119.99999058
_symmetry_Int_Tables_number   1
_chemical_formula_structural   DyEr3Th6(Ge3C)2
_chemical_formula_sum   'Dy1 Er3 Th6 Ge6 C2'
_cell_volume   428.91735478
_cell_formula_units_Z   1
loop_
 _symmetry_equiv_pos_site_id
 _symmetry_equiv_pos_as_xyz
  1  'x, y, z'
loop_
 _atom_site_type_symbol
 _atom_site_label
 _atom_site_symmetry_multiplicity
 _atom_site_fract_x
 _atom_site_fract_y
 _atom_site_fract_z
 _atom_site_occupancy
  Dy  Dy0  1  0.666667  0.333333  0.000000  1
  Er  Er1  1  0.333333  0.666667  0.000000  1
  Er  Er2  1  0.333333  0.666667  0.500000  1
  Er  Er3  1  0.666667  0.333333  0.500000  1
  Th  Th4  1  0.768367  0.768429  0.749920  1
  Th  Th5  1  0.231571  0.999938  0.749920  1
  Th  Th6  1  0.000062  0.231633  0.749920  1
  Th  Th7  1  0.231571  0.231633  0.250080  1
  Th  Th8  1  0.768367  0.999938  0.250080  1
  Th  Th9  1  0.000062  0.768429  0.250080  1
  Ge  Ge10  1  0.403799  0.403987  0.749863  1
  Ge  Ge11  1  0.596013  0.999811  0.749863  1
  Ge  Ge12  1  0.000189  0.596201  0.749863  1
  Ge  Ge13  1  0.596013  0.596201  0.250137  1
  Ge  Ge14  1  0.403799  0.999811  0.250137  1
  Ge  Ge15  1  0.000189  0.403987  0.250137  1
  C  C16  1  0.000000  0.000000  0.000000  1
  C  C17  1  0.000000  0.000000  0.500000  1
