# generated using pymatgen
data_YbTm4Th3Sb20
_symmetry_space_group_name_H-M   'P 1'
_cell_length_a   4.25006300
_cell_length_b   13.28028504
_cell_length_c   14.67015500
_cell_angle_alpha   77.33649782
_cell_angle_beta   90.00000000
_cell_angle_gamma   90.00000000
_symmetry_Int_Tables_number   1
_chemical_formula_structural   YbTm4Th3Sb20
_chemical_formula_sum   'Yb1 Tm4 Th3 Sb20'
_cell_volume   807.87165772
_cell_formula_units_Z   1
loop_
 _symmetry_equiv_pos_site_id
 _symmetry_equiv_pos_as_xyz
  1  'x, y, z'
loop_
 _atom_site_type_symbol
 _atom_site_label
 _atom_site_symmetry_multiplicity
 _atom_site_fract_x
 _atom_site_fract_y
 _atom_site_fract_z
 _atom_site_occupancy
  Yb  Yb0  1  0.750000  0.047559  0.642272  1
  Tm  Tm1  1  0.250000  0.389858  0.776665  1
  Tm  Tm2  1  0.750000  0.608712  0.224681  1
  Tm  Tm3  1  0.250000  0.659919  0.858467  1
  Tm  Tm4  1  0.750000  0.339407  0.140976  1
  Th  Th5  1  0.250000  0.670441  0.574548  1
  Th  Th6  1  0.750000  0.330403  0.426835  1
  Th  Th7  1  0.250000  0.951949  0.354171  1
  Sb  Sb8  1  0.250000  0.145192  0.781042  1
  Sb  Sb9  1  0.750000  0.856969  0.218750  1
  Sb  Sb10  1  0.250000  0.141052  0.476740  1
  Sb  Sb11  1  0.750000  0.857885  0.516182  1
  Sb  Sb12  1  0.250000  0.153155  0.161514  1
  Sb  Sb13  1  0.750000  0.845130  0.838053  1
  Sb  Sb14  1  0.250000  0.421368  0.978203  1
  Sb  Sb15  1  0.750000  0.579745  0.022528  1
  Sb  Sb16  1  0.750000  0.033382  0.910971  1
  Sb  Sb17  1  0.250000  0.968605  0.086096  1
  Sb  Sb18  1  0.750000  0.144631  0.311869  1
  Sb  Sb19  1  0.250000  0.859750  0.692856  1
  Sb  Sb20  1  0.750000  0.277844  0.940459  1
  Sb  Sb21  1  0.250000  0.722019  0.060697  1
  Sb  Sb22  1  0.750000  0.285931  0.661134  1
  Sb  Sb23  1  0.250000  0.711424  0.340212  1
  Sb  Sb24  1  0.750000  0.572935  0.738573  1
  Sb  Sb25  1  0.250000  0.426291  0.261949  1
  Sb  Sb26  1  0.750000  0.571273  0.445705  1
  Sb  Sb27  1  0.250000  0.427171  0.557852  1
