# generated using pymatgen
data_CsLaY9(C2Br9)2
_symmetry_space_group_name_H-M   'P 1'
_cell_length_a   10.80293941
_cell_length_b   10.87998474
_cell_length_c   10.99247569
_cell_angle_alpha   113.48247705
_cell_angle_beta   87.28161348
_cell_angle_gamma   118.91994141
_symmetry_Int_Tables_number   1
_chemical_formula_structural   CsLaY9(C2Br9)2
_chemical_formula_sum   'Cs1 La1 Y9 C4 Br18'
_cell_volume   1020.11079875
_cell_formula_units_Z   1
loop_
 _symmetry_equiv_pos_site_id
 _symmetry_equiv_pos_as_xyz
  1  'x, y, z'
loop_
 _atom_site_type_symbol
 _atom_site_label
 _atom_site_symmetry_multiplicity
 _atom_site_fract_x
 _atom_site_fract_y
 _atom_site_fract_z
 _atom_site_occupancy
  Cs  Cs0  1  0.500104  0.001476  0.499740  1
  La  La1  1  0.652034  0.712855  0.696340  1
  Y  Y2  1  0.281085  0.363187  0.013258  1
  Y  Y3  1  0.091966  0.404489  0.299407  1
  Y  Y4  1  0.961151  0.038134  0.332537  1
  Y  Y5  1  0.907118  0.594634  0.699750  1
  Y  Y6  1  0.112274  0.942529  0.001878  1
  Y  Y7  1  0.041636  0.963501  0.669038  1
  Y  Y8  1  0.336138  0.281523  0.295843  1
  Y  Y9  1  0.721141  0.637689  0.988989  1
  Y  Y10  1  0.889814  0.058590  0.999420  1
  C  C11  1  0.156221  0.226541  0.123497  1
  C  C12  1  0.845540  0.773948  0.877576  1
  C  C13  1  0.923491  0.852093  0.798084  1
  C  C14  1  0.078329  0.148464  0.203153  1
  Br  Br15  1  0.448791  0.526067  0.841446  1
  Br  Br16  1  0.380821  0.039173  0.158864  1
  Br  Br17  1  0.786262  0.864084  0.498230  1
  Br  Br18  1  0.840151  0.310388  0.154420  1
  Br  Br19  1  0.547185  0.469150  0.165616  1
  Br  Br20  1  0.220222  0.142001  0.497970  1
  Br  Br21  1  0.314490  0.100793  0.829340  1
  Br  Br22  1  0.687100  0.899840  0.171001  1
  Br  Br23  1  0.973909  0.761802  0.173477  1
  Br  Br24  1  0.933767  0.302399  0.499968  1
  Br  Br25  1  0.027182  0.238322  0.827628  1
  Br  Br26  1  0.066869  0.697894  0.500206  1
  Br  Br27  1  0.259824  0.621489  0.187948  1
  Br  Br28  1  0.740162  0.378875  0.812354  1
  Br  Br29  1  0.639140  0.420183  0.491078  1
  Br  Br30  1  0.160591  0.690308  0.846261  1
  Br  Br31  1  0.619664  0.974764  0.849217  1
  Br  Br32  1  0.355828  0.562812  0.496465  1
