# generated using pymatgen
data_Sc6InNi6Sn5
_symmetry_space_group_name_H-M   'P 1'
_cell_length_a   7.22520000
_cell_length_b   7.24196835
_cell_length_c   7.08824513
_cell_angle_alpha   89.99494789
_cell_angle_beta   90.00000000
_cell_angle_gamma   119.92342623
_symmetry_Int_Tables_number   1
_chemical_formula_structural   Sc6InNi6Sn5
_chemical_formula_sum   'Sc6 In1 Ni6 Sn5'
_cell_volume   321.44778799
_cell_formula_units_Z   1
loop_
 _symmetry_equiv_pos_site_id
 _symmetry_equiv_pos_as_xyz
  1  'x, y, z'
loop_
 _atom_site_type_symbol
 _atom_site_label
 _atom_site_symmetry_multiplicity
 _atom_site_fract_x
 _atom_site_fract_y
 _atom_site_fract_z
 _atom_site_occupancy
  Sc  Sc0  1  0.401219  0.004518  0.248058  1
  Sc  Sc1  1  0.604244  0.601109  0.248191  1
  Sc  Sc2  1  0.993920  0.394489  0.248350  1
  Sc  Sc3  1  0.396702  0.995482  0.751942  1
  Sc  Sc4  1  0.599430  0.605511  0.751650  1
  Sc  Sc5  1  0.003135  0.398891  0.751809  1
  In  In6  1  0.731590  0.000000  0.000000  1
  Ni  Ni7  1  0.328849  0.663479  0.018413  1
  Ni  Ni8  1  0.333768  0.665634  0.480499  1
  Ni  Ni9  1  0.665371  0.336521  0.981587  1
  Ni  Ni10  1  0.668135  0.334366  0.519501  1
  Ni  Ni11  1  0.003640  0.999824  0.256678  1
  Ni  Ni12  1  0.003817  0.000176  0.743322  1
  Sn  Sn13  1  0.273225  0.272025  0.500125  1
  Sn  Sn14  1  0.001201  0.727975  0.499875  1
  Sn  Sn15  1  0.997935  0.734324  0.999826  1
  Sn  Sn16  1  0.263611  0.265676  0.000174  1
  Sn  Sn17  1  0.730206  0.000000  0.500000  1
