# generated using pymatgen
data_Zr6Al13V3Co7
_symmetry_space_group_name_H-M   'P 1'
_cell_length_a   8.50957216
_cell_length_b   8.50957134
_cell_length_c   8.50957290
_cell_angle_alpha   59.80802601
_cell_angle_beta   59.80803119
_cell_angle_gamma   59.80802448
_symmetry_Int_Tables_number   1
_chemical_formula_structural   Zr6Al13V3Co7
_chemical_formula_sum   'Zr6 Al13 V3 Co7'
_cell_volume   433.82192900
_cell_formula_units_Z   1
loop_
 _symmetry_equiv_pos_site_id
 _symmetry_equiv_pos_as_xyz
  1  'x, y, z'
loop_
 _atom_site_type_symbol
 _atom_site_label
 _atom_site_symmetry_multiplicity
 _atom_site_fract_x
 _atom_site_fract_y
 _atom_site_fract_z
 _atom_site_occupancy
  Zr  Zr0  1  0.695490  0.305274  0.305274  1
  Zr  Zr1  1  0.695760  0.304461  0.695760  1
  Zr  Zr2  1  0.695760  0.695760  0.304461  1
  Zr  Zr3  1  0.304461  0.695760  0.695760  1
  Zr  Zr4  1  0.305274  0.695490  0.305274  1
  Zr  Zr5  1  0.305274  0.305274  0.695490  1
  Al  Al6  1  0.118168  0.118168  0.118168  1
  Al  Al7  1  0.354104  0.881328  0.881328  1
  Al  Al8  1  0.881328  0.354104  0.881328  1
  Al  Al9  1  0.881328  0.881328  0.354104  1
  Al  Al10  1  0.880440  0.880440  0.880440  1
  Al  Al11  1  0.999775  0.334042  0.334042  1
  Al  Al12  1  0.334042  0.999775  0.334042  1
  Al  Al13  1  0.334042  0.334042  0.999775  1
  Al  Al14  1  0.333873  0.333873  0.333873  1
  Al  Al15  1  0.002358  0.665606  0.665606  1
  Al  Al16  1  0.665606  0.002358  0.665606  1
  Al  Al17  1  0.665606  0.665606  0.002358  1
  Al  Al18  1  0.665645  0.665645  0.665645  1
  V  V19  1  0.641681  0.119086  0.119086  1
  V  V20  1  0.119086  0.641681  0.119086  1
  V  V21  1  0.119086  0.119086  0.641681  1
  Co  Co22  1  0.994943  0.994943  0.994943  1
  Co  Co23  1  0.504342  0.002735  0.002735  1
  Co  Co24  1  0.496693  0.003673  0.496693  1
  Co  Co25  1  0.496693  0.496693  0.003673  1
  Co  Co26  1  0.003673  0.496693  0.496693  1
  Co  Co27  1  0.002735  0.504342  0.002735  1
  Co  Co28  1  0.002735  0.002735  0.504342  1
