# generated using pymatgen
data_CI31
_symmetry_space_group_name_H-M   'P 1'
_cell_length_a   9.15498000
_cell_length_b   10.53347653
_cell_length_c   20.86355400
_cell_angle_alpha   80.71571424
_cell_angle_beta   90.00000000
_cell_angle_gamma   90.00000000
_symmetry_Int_Tables_number   1
_chemical_formula_structural   CI31
_chemical_formula_sum   'C1 I31'
_cell_volume   1985.59454738
_cell_formula_units_Z   1
loop_
 _symmetry_equiv_pos_site_id
 _symmetry_equiv_pos_as_xyz
  1  'x, y, z'
loop_
 _atom_site_type_symbol
 _atom_site_label
 _atom_site_symmetry_multiplicity
 _atom_site_fract_x
 _atom_site_fract_y
 _atom_site_fract_z
 _atom_site_occupancy
  C  C0  1  0.750000  0.861076  0.143511  1
  I  I1  1  0.750000  0.432686  0.336034  1
  I  I2  1  0.250000  0.569891  0.650726  1
  I  I3  1  0.250000  0.128580  0.850847  1
  I  I4  1  0.250000  0.397147  0.184605  1
  I  I5  1  0.750000  0.905947  0.776365  1
  I  I6  1  0.750000  0.842905  0.249225  1
  I  I7  1  0.556408  0.768163  0.111474  1
  I  I8  1  0.250000  0.622958  0.261073  1
  I  I9  1  0.502829  0.749842  0.608850  1
  I  I10  1  0.250000  0.627828  0.782161  1
  I  I11  1  0.250000  0.105934  0.439281  1
  I  I12  1  0.750000  0.584374  0.442966  1
  I  I13  1  0.501019  0.252023  0.907748  1
  I  I14  1  0.250000  0.821598  0.943784  1
  I  I15  1  0.750000  0.311772  0.220092  1
  I  I16  1  0.496062  0.263935  0.391751  1
  I  I17  1  0.750000  0.163993  0.656679  1
  I  I18  1  0.250000  0.857746  0.312355  1
  I  I19  1  0.003938  0.263935  0.391751  1
  I  I20  1  0.750000  0.915436  0.568256  1
  I  I21  1  0.943592  0.768163  0.111474  1
  I  I22  1  0.250000  0.122637  0.233477  1
  I  I23  1  0.750000  0.064530  0.099931  1
  I  I24  1  0.750000  0.671456  0.856924  1
  I  I25  1  0.750000  0.384694  0.709483  1
  I  I26  1  0.250000  0.607408  0.039226  1
  I  I27  1  0.997171  0.749842  0.608850  1
  I  I28  1  0.750000  0.374642  0.963610  1
  I  I29  1  0.250000  0.467130  0.528854  1
  I  I30  1  0.250000  0.089706  0.710889  1
  I  I31  1  0.998981  0.252023  0.907748  1
