# generated using pymatgen
data_Zr3Ta(SnRh5)2
_symmetry_space_group_name_H-M   'P 1'
_cell_length_a   5.65423406
_cell_length_b   5.65423430
_cell_length_c   8.23920109
_cell_angle_alpha   89.98855459
_cell_angle_beta   89.98855330
_cell_angle_gamma   97.18383229
_symmetry_Int_Tables_number   1
_chemical_formula_structural   Zr3Ta(SnRh5)2
_chemical_formula_sum   'Zr3 Ta1 Sn2 Rh10'
_cell_volume   261.34248423
_cell_formula_units_Z   1
loop_
 _symmetry_equiv_pos_site_id
 _symmetry_equiv_pos_as_xyz
  1  'x, y, z'
loop_
 _atom_site_type_symbol
 _atom_site_label
 _atom_site_symmetry_multiplicity
 _atom_site_fract_x
 _atom_site_fract_y
 _atom_site_fract_z
 _atom_site_occupancy
  Zr  Zr0  1  0.216787  0.783213  0.000000  1
  Zr  Zr1  1  0.217352  0.782648  0.500000  1
  Zr  Zr2  1  0.784221  0.215779  0.000000  1
  Ta  Ta3  1  0.791210  0.208790  0.500000  1
  Sn  Sn4  1  0.501702  0.500701  0.748837  1
  Sn  Sn5  1  0.499299  0.498298  0.251163  1
  Rh  Rh6  1  0.729114  0.729292  0.000585  1
  Rh  Rh7  1  0.727982  0.732169  0.499515  1
  Rh  Rh8  1  0.270708  0.270886  0.999415  1
  Rh  Rh9  1  0.267831  0.272018  0.500485  1
  Rh  Rh10  1  0.503798  0.005126  0.745124  1
  Rh  Rh11  1  0.503806  0.004367  0.254822  1
  Rh  Rh12  1  0.998034  0.002351  0.254511  1
  Rh  Rh13  1  0.997649  0.001966  0.745489  1
  Rh  Rh14  1  0.995633  0.496194  0.745178  1
  Rh  Rh15  1  0.994874  0.496202  0.254876  1
