# generated using pymatgen
data_Sc3Al12Fe3Cu
_symmetry_space_group_name_H-M   'P 1'
_cell_length_a   8.51346700
_cell_length_b   8.54472409
_cell_length_c   9.14380536
_cell_angle_alpha   89.78059624
_cell_angle_beta   90.00000000
_cell_angle_gamma   119.87906990
_symmetry_Int_Tables_number   1
_chemical_formula_structural   Sc3Al12Fe3Cu
_chemical_formula_sum   'Sc6 Al24 Fe6 Cu2'
_cell_volume   576.74760578
_cell_formula_units_Z   2
loop_
 _symmetry_equiv_pos_site_id
 _symmetry_equiv_pos_as_xyz
  1  'x, y, z'
loop_
 _atom_site_type_symbol
 _atom_site_label
 _atom_site_symmetry_multiplicity
 _atom_site_fract_x
 _atom_site_fract_y
 _atom_site_fract_z
 _atom_site_occupancy
  Sc  Sc0  1  0.803415  0.192003  0.746519  1
  Sc  Sc1  1  0.196585  0.807997  0.253481  1
  Sc  Sc2  1  0.388589  0.192003  0.746519  1
  Sc  Sc3  1  0.611411  0.807997  0.253481  1
  Sc  Sc4  1  0.807082  0.614164  0.748767  1
  Sc  Sc5  1  0.192918  0.385836  0.251233  1
  Al  Al6  1  0.662356  0.324711  0.972652  1
  Al  Al7  1  0.337644  0.675289  0.027348  1
  Al  Al8  1  0.333036  0.666072  0.472727  1
  Al  Al9  1  0.666964  0.333928  0.527273  1
  Al  Al10  1  0.837815  0.162697  0.426376  1
  Al  Al11  1  0.162185  0.837303  0.573624  1
  Al  Al12  1  0.324884  0.162697  0.426376  1
  Al  Al13  1  0.167405  0.847065  0.920689  1
  Al  Al14  1  0.675116  0.837303  0.573624  1
  Al  Al15  1  0.832595  0.152935  0.079311  1
  Al  Al16  1  0.838516  0.677030  0.426449  1
  Al  Al17  1  0.679659  0.847065  0.920689  1
  Al  Al18  1  0.161484  0.322970  0.573551  1
  Al  Al19  1  0.320341  0.152935  0.079311  1
  Al  Al20  1  0.158499  0.316998  0.918642  1
  Al  Al21  1  0.841501  0.683002  0.081358  1
  Al  Al22  1  0.441963  0.558242  0.744981  1
  Al  Al23  1  0.558037  0.441758  0.255019  1
  Al  Al24  1  0.116280  0.558242  0.744981  1
  Al  Al25  1  0.883720  0.441758  0.255019  1
  Al  Al26  1  0.444240  0.888480  0.750158  1
  Al  Al27  1  0.555760  0.111520  0.249842  1
  Al  Al28  1  0.999193  0.998386  0.749081  1
  Al  Al29  1  0.000807  0.001614  0.250919  1
  Fe  Fe30  1  0.500000  0.500000  0.500000  1
  Fe  Fe31  1  0.500000  0.000000  0.000000  1
  Fe  Fe32  1  0.000000  0.500000  0.500000  1
  Fe  Fe33  1  0.500000  0.000000  0.500000  1
  Fe  Fe34  1  0.000000  0.000000  0.000000  1
  Fe  Fe35  1  0.000000  0.000000  0.500000  1
  Cu  Cu36  1  0.500000  0.500000  0.000000  1
  Cu  Cu37  1  0.000000  0.500000  0.000000  1
