# generated using pymatgen
data_Hf17Pa(MnMo4)2
_symmetry_space_group_name_H-M   'P 1'
_cell_length_a   8.48122195
_cell_length_b   8.69662148
_cell_length_c   8.69024261
_cell_angle_alpha   120.02405497
_cell_angle_beta   89.34489293
_cell_angle_gamma   89.99981657
_symmetry_Int_Tables_number   1
_chemical_formula_structural   Hf17Pa(MnMo4)2
_chemical_formula_sum   'Hf17 Pa1 Mn2 Mo8'
_cell_volume   554.91737991
_cell_formula_units_Z   1
loop_
 _symmetry_equiv_pos_site_id
 _symmetry_equiv_pos_as_xyz
  1  'x, y, z'
loop_
 _atom_site_type_symbol
 _atom_site_label
 _atom_site_symmetry_multiplicity
 _atom_site_fract_x
 _atom_site_fract_y
 _atom_site_fract_z
 _atom_site_occupancy
  Hf  Hf0  1  0.555661  0.800231  0.197357  1
  Hf  Hf1  1  0.555655  0.397121  0.197354  1
  Hf  Hf2  1  0.442772  0.203171  0.406344  1
  Hf  Hf3  1  0.441332  0.204510  0.797424  1
  Hf  Hf4  1  0.441338  0.592922  0.797428  1
  Hf  Hf5  1  0.058685  0.200837  0.401674  1
  Hf  Hf6  1  0.058256  0.203453  0.799515  1
  Hf  Hf7  1  0.058250  0.596070  0.799518  1
  Hf  Hf8  1  0.948249  0.800771  0.601543  1
  Hf  Hf9  1  0.941240  0.798709  0.200573  1
  Hf  Hf10  1  0.941242  0.401857  0.200570  1
  Hf  Hf11  1  0.749869  0.459909  0.919825  1
  Hf  Hf12  1  0.754848  0.454685  0.538241  1
  Hf  Hf13  1  0.754850  0.083551  0.538243  1
  Hf  Hf14  1  0.247260  0.541221  0.082437  1
  Hf  Hf15  1  0.244901  0.535177  0.456091  1
  Hf  Hf16  1  0.244904  0.920914  0.456089  1
  Pa  Pa17  1  0.562015  0.790858  0.581721  1
  Mn  Mn18  1  0.737269  0.678153  0.356324  1
  Mn  Mn19  1  0.248795  0.335099  0.670176  1
  Mo  Mo20  1  0.750935  0.112327  0.224663  1
  Mo  Mo21  1  0.751489  0.114482  0.890543  1
  Mo  Mo22  1  0.751489  0.776055  0.890545  1
  Mo  Mo23  1  0.255459  0.886913  0.773817  1
  Mo  Mo24  1  0.249574  0.887128  0.110961  1
  Mo  Mo25  1  0.249573  0.223839  0.110960  1
  Mo  Mo26  1  0.500081  0.000062  0.000125  1
  Mo  Mo27  1  0.004013  0.999970  0.999940  1
