# generated using pymatgen
data_KOsCl6
_symmetry_space_group_name_H-M   'P 1'
_cell_length_a   6.76810878
_cell_length_b   6.76811082
_cell_length_c   12.17508714
_cell_angle_alpha   79.77949048
_cell_angle_beta   79.77953800
_cell_angle_gamma   55.93309920
_symmetry_Int_Tables_number   1
_chemical_formula_structural   KOsCl6
_chemical_formula_sum   'K2 Os2 Cl12'
_cell_volume   452.57740018
_cell_formula_units_Z   2
loop_
 _symmetry_equiv_pos_site_id
 _symmetry_equiv_pos_as_xyz
  1  'x, y, z'
loop_
 _atom_site_type_symbol
 _atom_site_label
 _atom_site_symmetry_multiplicity
 _atom_site_fract_x
 _atom_site_fract_y
 _atom_site_fract_z
 _atom_site_occupancy
  K  K0  1  0.885629  0.114371  0.750000  1
  K  K1  1  0.114371  0.885629  0.250000  1
  Os  Os2  1  0.500000  0.000000  0.500000  1
  Os  Os3  1  0.000000  0.500000  0.000000  1
  Cl  Cl4  1  0.462199  0.698113  0.604532  1
  Cl  Cl5  1  0.537801  0.301887  0.395468  1
  Cl  Cl6  1  0.301887  0.537801  0.895468  1
  Cl  Cl7  1  0.698113  0.462199  0.104532  1
  Cl  Cl8  1  0.372691  0.199327  0.660440  1
  Cl  Cl9  1  0.627309  0.800673  0.339560  1
  Cl  Cl10  1  0.800674  0.627309  0.839560  1
  Cl  Cl11  1  0.199326  0.372691  0.160440  1
  Cl  Cl12  1  0.798717  0.895444  0.039050  1
  Cl  Cl13  1  0.201283  0.104556  0.960950  1
  Cl  Cl14  1  0.104555  0.201284  0.460950  1
  Cl  Cl15  1  0.895445  0.798716  0.539050  1
