# generated using pymatgen
data_DyY18Ho(CoBi2)4
_symmetry_space_group_name_H-M   'P 1'
_cell_length_a   8.04706908
_cell_length_b   8.91522679
_cell_length_c   12.45722757
_cell_angle_alpha   89.99557951
_cell_angle_beta   89.99860313
_cell_angle_gamma   89.98709064
_symmetry_Int_Tables_number   1
_chemical_formula_structural   DyY18Ho(CoBi2)4
_chemical_formula_sum   'Dy1 Y18 Ho1 Co4 Bi8'
_cell_volume   893.69949184
_cell_formula_units_Z   1
loop_
 _symmetry_equiv_pos_site_id
 _symmetry_equiv_pos_as_xyz
  1  'x, y, z'
loop_
 _atom_site_type_symbol
 _atom_site_label
 _atom_site_symmetry_multiplicity
 _atom_site_fract_x
 _atom_site_fract_y
 _atom_site_fract_z
 _atom_site_occupancy
  Dy  Dy0  1  0.174952  0.534523  0.936722  1
  Y  Y1  1  0.846700  0.749560  0.800799  1
  Y  Y2  1  0.153128  0.250470  0.199250  1
  Y  Y3  1  0.346643  0.250112  0.699188  1
  Y  Y4  1  0.653387  0.749876  0.300788  1
  Y  Y5  1  0.379043  0.749835  0.689460  1
  Y  Y6  1  0.620999  0.250147  0.310518  1
  Y  Y7  1  0.878751  0.250396  0.810504  1
  Y  Y8  1  0.120923  0.749671  0.189502  1
  Y  Y9  1  0.952904  0.750007  0.502331  1
  Y  Y10  1  0.047023  0.250008  0.497683  1
  Y  Y11  1  0.453183  0.251100  0.997623  1
  Y  Y12  1  0.547258  0.748876  0.002377  1
  Y  Y13  1  0.675696  0.034718  0.563991  1
  Y  Y14  1  0.324297  0.965288  0.436007  1
  Y  Y15  1  0.175787  0.965066  0.936180  1
  Y  Y16  1  0.324247  0.534750  0.436045  1
  Y  Y17  1  0.824234  0.035084  0.063842  1
  Y  Y18  1  0.675772  0.465270  0.563978  1
  Ho  Ho19  1  0.825613  0.465286  0.063275  1
  Co  Co20  1  0.561051  0.749973  0.508048  1
  Co  Co21  1  0.438972  0.250026  0.491937  1
  Co  Co22  1  0.060161  0.251780  0.992047  1
  Co  Co23  1  0.939215  0.748279  0.008081  1
  Bi  Bi24  1  0.569554  0.492218  0.825953  1
  Bi  Bi25  1  0.430640  0.507722  0.173955  1
  Bi  Bi26  1  0.069661  0.507736  0.673729  1
  Bi  Bi27  1  0.430529  0.992342  0.173494  1
  Bi  Bi28  1  0.930256  0.492227  0.326175  1
  Bi  Bi29  1  0.569442  0.007660  0.826487  1
  Bi  Bi30  1  0.930533  0.007789  0.326194  1
  Bi  Bi31  1  0.069446  0.992205  0.673836  1
