# generated using pymatgen
data_Nd9Sm(PPb3)2
_symmetry_space_group_name_H-M   'P 1'
_cell_length_a   9.49834336
_cell_length_b   9.48971419
_cell_length_c   7.04083200
_cell_angle_alpha   90.00000000
_cell_angle_beta   90.00000000
_cell_angle_gamma   119.96995358
_symmetry_Int_Tables_number   1
_chemical_formula_structural   Nd9Sm(PPb3)2
_chemical_formula_sum   'Nd9 Sm1 P2 Pb6'
_cell_volume   549.77757535
_cell_formula_units_Z   1
loop_
 _symmetry_equiv_pos_site_id
 _symmetry_equiv_pos_as_xyz
  1  'x, y, z'
loop_
 _atom_site_type_symbol
 _atom_site_label
 _atom_site_symmetry_multiplicity
 _atom_site_fract_x
 _atom_site_fract_y
 _atom_site_fract_z
 _atom_site_occupancy
  Nd  Nd0  1  0.762593  0.762403  0.250000  1
  Nd  Nd1  1  0.237407  0.999810  0.250000  1
  Nd  Nd2  1  0.000000  0.237419  0.250000  1
  Nd  Nd3  1  0.237443  0.237172  0.750000  1
  Nd  Nd4  1  0.762557  0.999729  0.750000  1
  Nd  Nd5  1  0.666462  0.333491  0.500247  1
  Nd  Nd6  1  0.333538  0.667031  0.500247  1
  Nd  Nd7  1  0.333538  0.667031  0.999753  1
  Nd  Nd8  1  0.666462  0.333491  0.999753  1
  Sm  Sm9  1  0.000000  0.764720  0.750000  1
  P  P10  1  0.000000  0.998690  0.501004  1
  P  P11  1  0.000000  0.998690  0.998996  1
  Pb  Pb12  1  0.400096  0.400272  0.250000  1
  Pb  Pb13  1  0.599904  0.000175  0.250000  1
  Pb  Pb14  1  0.000000  0.599623  0.250000  1
  Pb  Pb15  1  0.600697  0.599849  0.750000  1
  Pb  Pb16  1  0.399303  0.999153  0.750000  1
  Pb  Pb17  1  0.000000  0.401254  0.750000  1
