# generated using pymatgen
data_Tb4Dy4Ti12Si15Sn
_symmetry_space_group_name_H-M   'P 1'
_cell_length_a   7.12166691
_cell_length_b   7.08677973
_cell_length_c   13.04790342
_cell_angle_alpha   89.96583588
_cell_angle_beta   89.72468106
_cell_angle_gamma   89.92302398
_symmetry_Int_Tables_number   1
_chemical_formula_structural   Tb4Dy4Ti12Si15Sn
_chemical_formula_sum   'Tb4 Dy4 Ti12 Si15 Sn1'
_cell_volume   658.51526008
_cell_formula_units_Z   1
loop_
 _symmetry_equiv_pos_site_id
 _symmetry_equiv_pos_as_xyz
  1  'x, y, z'
loop_
 _atom_site_type_symbol
 _atom_site_label
 _atom_site_symmetry_multiplicity
 _atom_site_fract_x
 _atom_site_fract_y
 _atom_site_fract_z
 _atom_site_occupancy
  Tb  Tb0  1  0.159955  0.510007  0.785826  1
  Tb  Tb1  1  0.661580  0.996320  0.968665  1
  Tb  Tb2  1  0.993546  0.347482  0.527608  1
  Tb  Tb3  1  0.998554  0.659627  0.034259  1
  Dy  Dy4  1  0.343052  0.999337  0.461545  1
  Dy  Dy5  1  0.505733  0.834907  0.718072  1
  Dy  Dy6  1  0.502113  0.160139  0.216749  1
  Dy  Dy7  1  0.840443  0.497443  0.282297  1
  Ti  Ti8  1  0.326357  0.326837  0.001204  1
  Ti  Ti9  1  0.173847  0.826148  0.249771  1
  Ti  Ti10  1  0.816312  0.175196  0.751817  1
  Ti  Ti11  1  0.672589  0.673093  0.499507  1
  Ti  Ti12  1  0.153431  0.008170  0.883707  1
  Ti  Ti13  1  0.491667  0.651205  0.127190  1
  Ti  Ti14  1  0.515508  0.352931  0.626609  1
  Ti  Ti15  1  0.654656  0.492596  0.875188  1
  Ti  Ti16  1  0.347140  0.509553  0.372480  1
  Ti  Ti17  1  0.846339  0.991575  0.376091  1
  Ti  Ti18  1  0.010022  0.152551  0.123116  1
  Ti  Ti19  1  0.979359  0.834718  0.618428  1
  Si  Si20  1  0.372178  0.702466  0.936414  1
  Si  Si21  1  0.626954  0.297571  0.433197  1
  Si  Si22  1  0.702791  0.370556  0.066094  1
  Si  Si23  1  0.297736  0.629895  0.565063  1
  Si  Si24  1  0.797902  0.871228  0.185133  1
  Si  Si25  1  0.128910  0.202172  0.314366  1
  Si  Si26  1  0.871360  0.800501  0.815303  1
  Si  Si27  1  0.292022  0.952367  0.067152  1
  Si  Si28  1  0.549250  0.789297  0.313806  1
  Si  Si29  1  0.459175  0.210864  0.819975  1
  Si  Si30  1  0.792927  0.544955  0.686588  1
  Si  Si31  1  0.209771  0.452451  0.185191  1
  Si  Si32  1  0.706880  0.047954  0.564684  1
  Si  Si33  1  0.952500  0.290946  0.935100  1
  Si  Si34  1  0.048113  0.711447  0.432532  1
  Sn  Sn35  1  0.199330  0.125492  0.679271  1
