# generated using pymatgen
data_K2Rb6Zr6BeI20
_symmetry_space_group_name_H-M   'P 1'
_cell_length_a   12.79999409
_cell_length_b   12.79999452
_cell_length_c   12.79999428
_cell_angle_alpha   60.23466117
_cell_angle_beta   60.23465850
_cell_angle_gamma   60.23466016
_symmetry_Int_Tables_number   1
_chemical_formula_structural   K2Rb6Zr6BeI20
_chemical_formula_sum   'K2 Rb6 Zr6 Be1 I20'
_cell_volume   1490.78622157
_cell_formula_units_Z   1
loop_
 _symmetry_equiv_pos_site_id
 _symmetry_equiv_pos_as_xyz
  1  'x, y, z'
loop_
 _atom_site_type_symbol
 _atom_site_label
 _atom_site_symmetry_multiplicity
 _atom_site_fract_x
 _atom_site_fract_y
 _atom_site_fract_z
 _atom_site_occupancy
  K  K0  1  0.362344  0.362344  0.362344  1
  K  K1  1  0.637656  0.637656  0.637656  1
  Rb  Rb2  1  0.361381  0.361381  0.916594  1
  Rb  Rb3  1  0.361381  0.916594  0.361381  1
  Rb  Rb4  1  0.638619  0.638619  0.083406  1
  Rb  Rb5  1  0.638619  0.083406  0.638619  1
  Rb  Rb6  1  0.916594  0.361381  0.361381  1
  Rb  Rb7  1  0.083406  0.638619  0.638619  1
  Zr  Zr8  1  0.864988  0.135118  0.135118  1
  Zr  Zr9  1  0.135012  0.864882  0.864882  1
  Zr  Zr10  1  0.135118  0.864988  0.135118  1
  Zr  Zr11  1  0.864882  0.135012  0.864882  1
  Zr  Zr12  1  0.135118  0.135118  0.864988  1
  Zr  Zr13  1  0.864882  0.864882  0.135012  1
  Be  Be14  1  0.000000  0.000000  0.000000  1
  I  I15  1  0.321212  0.000684  0.000684  1
  I  I16  1  0.678788  0.999316  0.999316  1
  I  I17  1  0.000000  0.320098  0.679902  1
  I  I18  1  0.000000  0.679902  0.320098  1
  I  I19  1  0.000684  0.321212  0.000684  1
  I  I20  1  0.679902  0.000000  0.320098  1
  I  I21  1  0.999316  0.678788  0.999316  1
  I  I22  1  0.320098  0.000000  0.679902  1
  I  I23  1  0.000684  0.000684  0.321212  1
  I  I24  1  0.999316  0.999316  0.678788  1
  I  I25  1  0.679902  0.320098  0.000000  1
  I  I26  1  0.320098  0.679902  0.000000  1
  I  I27  1  0.684109  0.311623  0.311623  1
  I  I28  1  0.315891  0.688377  0.688377  1
  I  I29  1  0.311623  0.684109  0.311623  1
  I  I30  1  0.688377  0.315891  0.688377  1
  I  I31  1  0.311623  0.311623  0.684109  1
  I  I32  1  0.688377  0.688377  0.315891  1
  I  I33  1  0.253911  0.253911  0.253911  1
  I  I34  1  0.746089  0.746089  0.746089  1
