# generated using pymatgen
data_Ba2CaPr2Al7Ga2
_symmetry_space_group_name_H-M   'P 1'
_cell_length_a   12.16985101
_cell_length_b   12.16985119
_cell_length_c   12.16985208
_cell_angle_alpha   27.62285749
_cell_angle_beta   27.62285429
_cell_angle_gamma   27.62285599
_symmetry_Int_Tables_number   1
_chemical_formula_structural   Ba2CaPr2Al7Ga2
_chemical_formula_sum   'Ba2 Ca1 Pr2 Al7 Ga2'
_cell_volume   342.04952875
_cell_formula_units_Z   1
loop_
 _symmetry_equiv_pos_site_id
 _symmetry_equiv_pos_as_xyz
  1  'x, y, z'
loop_
 _atom_site_type_symbol
 _atom_site_label
 _atom_site_symmetry_multiplicity
 _atom_site_fract_x
 _atom_site_fract_y
 _atom_site_fract_z
 _atom_site_occupancy
  Ba  Ba0  1  0.497463  0.497463  0.497463  1
  Ba  Ba1  1  0.215742  0.215742  0.215742  1
  Ca  Ca2  1  0.781091  0.781091  0.781091  1
  Pr  Pr3  1  0.685229  0.685229  0.685229  1
  Pr  Pr4  1  0.315566  0.315566  0.315566  1
  Al  Al5  1  0.237254  0.717893  0.237254  1
  Al  Al6  1  0.237254  0.237254  0.717893  1
  Al  Al7  1  0.717893  0.237254  0.237254  1
  Al  Al8  1  0.765671  0.280766  0.765671  1
  Al  Al9  1  0.765671  0.765671  0.280766  1
  Al  Al10  1  0.280766  0.765671  0.765671  1
  Al  Al11  1  0.000967  0.000967  0.000967  1
  Ga  Ga12  1  0.877022  0.877022  0.877022  1
  Ga  Ga13  1  0.122409  0.122409  0.122409  1
