# generated using pymatgen
data_Ca8EuDyIr4
_symmetry_space_group_name_H-M   'P 1'
_cell_length_a   6.53232911
_cell_length_b   7.52407545
_cell_length_c   8.60057100
_cell_angle_alpha   97.36414240
_cell_angle_beta   112.31890923
_cell_angle_gamma   89.99999077
_symmetry_Int_Tables_number   1
_chemical_formula_structural   Ca8EuDyIr4
_chemical_formula_sum   'Ca8 Eu1 Dy1 Ir4'
_cell_volume   387.27606455
_cell_formula_units_Z   1
loop_
 _symmetry_equiv_pos_site_id
 _symmetry_equiv_pos_as_xyz
  1  'x, y, z'
loop_
 _atom_site_type_symbol
 _atom_site_label
 _atom_site_symmetry_multiplicity
 _atom_site_fract_x
 _atom_site_fract_y
 _atom_site_fract_z
 _atom_site_occupancy
  Ca  Ca0  1  0.800377  0.080467  0.826146  1
  Ca  Ca1  1  0.974231  0.419533  0.173854  1
  Ca  Ca2  1  0.197905  0.918210  0.175131  1
  Ca  Ca3  1  0.022773  0.581790  0.824869  1
  Ca  Ca4  1  0.201466  0.179599  0.564064  1
  Ca  Ca5  1  0.637400  0.320401  0.435936  1
  Ca  Ca6  1  0.799118  0.819409  0.437209  1
  Ca  Ca7  1  0.361911  0.680591  0.562791  1
  Eu  Eu8  1  0.428715  0.250000  0.000000  1
  Dy  Dy9  1  0.564528  0.750000  0.000000  1
  Ir  Ir10  1  0.602508  0.429257  0.787073  1
  Ir  Ir11  1  0.815434  0.070743  0.212927  1
  Ir  Ir12  1  0.403846  0.583149  0.214059  1
  Ir  Ir13  1  0.189788  0.916851  0.785941  1
