# generated using pymatgen
data_Tm16CdNi4Ag3
_symmetry_space_group_name_H-M   'P 1'
_cell_length_a   9.31417293
_cell_length_b   9.33938072
_cell_length_c   9.33938000
_cell_angle_alpha   60.00000256
_cell_angle_beta   59.91043543
_cell_angle_gamma   59.91044111
_symmetry_Int_Tables_number   1
_chemical_formula_structural   Tm16CdNi4Ag3
_chemical_formula_sum   'Tm16 Cd1 Ni4 Ag3'
_cell_volume   573.68856064
_cell_formula_units_Z   1
loop_
 _symmetry_equiv_pos_site_id
 _symmetry_equiv_pos_as_xyz
  1  'x, y, z'
loop_
 _atom_site_type_symbol
 _atom_site_label
 _atom_site_symmetry_multiplicity
 _atom_site_fract_x
 _atom_site_fract_y
 _atom_site_fract_z
 _atom_site_occupancy
  Tm  Tm0  1  0.349517  0.349026  0.349026  1
  Tm  Tm1  1  0.349517  0.349026  0.952432  1
  Tm  Tm2  1  0.349517  0.952432  0.349026  1
  Tm  Tm3  1  0.949978  0.350007  0.350007  1
  Tm  Tm4  1  0.811068  0.188974  0.188974  1
  Tm  Tm5  1  0.188644  0.811286  0.811286  1
  Tm  Tm6  1  0.188644  0.811286  0.188784  1
  Tm  Tm7  1  0.811068  0.188974  0.810984  1
  Tm  Tm8  1  0.188644  0.188784  0.811286  1
  Tm  Tm9  1  0.811068  0.810984  0.188974  1
  Tm  Tm10  1  0.933473  0.564017  0.564017  1
  Tm  Tm11  1  0.563722  0.936250  0.936250  1
  Tm  Tm12  1  0.563722  0.936250  0.563778  1
  Tm  Tm13  1  0.933473  0.564017  0.938493  1
  Tm  Tm14  1  0.563722  0.563778  0.936250  1
  Tm  Tm15  1  0.933473  0.938493  0.564017  1
  Cd  Cd16  1  0.261469  0.579511  0.579511  1
  Ni  Ni17  1  0.142261  0.142719  0.142719  1
  Ni  Ni18  1  0.142261  0.142719  0.572303  1
  Ni  Ni19  1  0.142261  0.572303  0.142719  1
  Ni  Ni20  1  0.572467  0.142511  0.142511  1
  Ag  Ag21  1  0.583346  0.582575  0.582575  1
  Ag  Ag22  1  0.583346  0.582575  0.251506  1
  Ag  Ag23  1  0.583346  0.251506  0.582575  1
