# generated using pymatgen
data_Ho18TmLuIr12
_symmetry_space_group_name_H-M   'P 1'
_cell_length_a   10.82857106
_cell_length_b   10.82725001
_cell_length_c   6.33191312
_cell_angle_alpha   90.00441403
_cell_angle_beta   89.98477833
_cell_angle_gamma   90.00010070
_symmetry_Int_Tables_number   1
_chemical_formula_structural   Ho18TmLuIr12
_chemical_formula_sum   'Ho18 Tm1 Lu1 Ir12'
_cell_volume   742.37655199
_cell_formula_units_Z   1
loop_
 _symmetry_equiv_pos_site_id
 _symmetry_equiv_pos_as_xyz
  1  'x, y, z'
loop_
 _atom_site_type_symbol
 _atom_site_label
 _atom_site_symmetry_multiplicity
 _atom_site_fract_x
 _atom_site_fract_y
 _atom_site_fract_z
 _atom_site_occupancy
  Ho  Ho0  1  0.291033  0.087929  0.376537  1
  Ho  Ho1  1  0.291156  0.912394  0.876882  1
  Ho  Ho2  1  0.708867  0.087653  0.876890  1
  Ho  Ho3  1  0.708808  0.912244  0.376885  1
  Ho  Ho4  1  0.587629  0.790952  0.876782  1
  Ho  Ho5  1  0.587461  0.209491  0.377080  1
  Ho  Ho6  1  0.412506  0.790508  0.377037  1
  Ho  Ho7  1  0.412293  0.209071  0.876887  1
  Ho  Ho8  1  0.209350  0.412353  0.622894  1
  Ho  Ho9  1  0.208900  0.587299  0.123101  1
  Ho  Ho10  1  0.791228  0.412300  0.123193  1
  Ho  Ho11  1  0.790521  0.587480  0.622939  1
  Ho  Ho12  1  0.912401  0.708803  0.123136  1
  Ho  Ho13  1  0.912448  0.291142  0.623073  1
  Ho  Ho14  1  0.087689  0.708897  0.623185  1
  Ho  Ho15  1  0.000011  0.000035  0.499931  1
  Ho  Ho16  1  0.000149  0.000359  0.000189  1
  Ho  Ho17  1  0.499985  0.499949  0.000104  1
  Tm  Tm18  1  0.087492  0.291841  0.122537  1
  Lu  Lu19  1  0.500013  0.499997  0.500033  1
  Ir  Ir20  1  0.846722  0.153857  0.249712  1
  Ir  Ir21  1  0.846275  0.846319  0.750013  1
  Ir  Ir22  1  0.153480  0.154002  0.751058  1
  Ir  Ir23  1  0.153652  0.846302  0.249964  1
  Ir  Ir24  1  0.652708  0.347300  0.748541  1
  Ir  Ir25  1  0.652658  0.652741  0.251413  1
  Ir  Ir26  1  0.346795  0.347140  0.251235  1
  Ir  Ir27  1  0.347303  0.652697  0.748535  1
  Ir  Ir28  1  0.499977  0.000010  0.122394  1
  Ir  Ir29  1  0.500017  0.000003  0.622401  1
  Ir  Ir30  1  0.000223  0.499428  0.878230  1
  Ir  Ir31  1  0.000246  0.499505  0.377206  1
