# generated using pymatgen
data_Y20Ga3SiBi8
_symmetry_space_group_name_H-M   'P 1'
_cell_length_a   12.10251930
_cell_length_b   9.29255200
_cell_length_c   8.12034059
_cell_angle_alpha   90.00000000
_cell_angle_beta   89.89250902
_cell_angle_gamma   90.00000000
_symmetry_Int_Tables_number   1
_chemical_formula_structural   Y20Ga3SiBi8
_chemical_formula_sum   'Y20 Ga3 Si1 Bi8'
_cell_volume   913.23861083
_cell_formula_units_Z   1
loop_
 _symmetry_equiv_pos_site_id
 _symmetry_equiv_pos_as_xyz
  1  'x, y, z'
loop_
 _atom_site_type_symbol
 _atom_site_label
 _atom_site_symmetry_multiplicity
 _atom_site_fract_x
 _atom_site_fract_y
 _atom_site_fract_z
 _atom_site_occupancy
  Y  Y0  1  0.563464  0.052564  0.319553  1
  Y  Y1  1  0.062722  0.445587  0.179146  1
  Y  Y2  1  0.436702  0.552113  0.680501  1
  Y  Y3  1  0.937067  0.949841  0.819934  1
  Y  Y4  1  0.436702  0.947887  0.680501  1
  Y  Y5  1  0.937067  0.550159  0.819934  1
  Y  Y6  1  0.563464  0.447436  0.319553  1
  Y  Y7  1  0.062722  0.054413  0.179146  1
  Y  Y8  1  0.715377  0.250000  0.671397  1
  Y  Y9  1  0.212793  0.250000  0.829929  1
  Y  Y10  1  0.284354  0.750000  0.328780  1
  Y  Y11  1  0.784806  0.750000  0.170890  1
  Y  Y12  1  0.501975  0.250000  0.962669  1
  Y  Y13  1  0.001610  0.250000  0.538939  1
  Y  Y14  1  0.498211  0.750000  0.037563  1
  Y  Y15  1  0.997654  0.750000  0.462486  1
  Y  Y16  1  0.796647  0.250000  0.140639  1
  Y  Y17  1  0.294590  0.250000  0.356535  1
  Y  Y18  1  0.205145  0.750000  0.856108  1
  Y  Y19  1  0.705640  0.750000  0.643734  1
  Ga  Ga20  1  0.475986  0.250000  0.591837  1
  Ga  Ga21  1  0.023957  0.750000  0.091691  1
  Ga  Ga22  1  0.523921  0.750000  0.408001  1
  Si  Si23  1  0.978092  0.250000  0.910356  1
  Bi  Bi24  1  0.825494  0.009894  0.436519  1
  Bi  Bi25  1  0.324905  0.490220  0.063444  1
  Bi  Bi26  1  0.174296  0.509459  0.563627  1
  Bi  Bi27  1  0.674972  0.990683  0.936500  1
  Bi  Bi28  1  0.174296  0.990541  0.563627  1
  Bi  Bi29  1  0.674972  0.509317  0.936500  1
  Bi  Bi30  1  0.825494  0.490106  0.436519  1
  Bi  Bi31  1  0.324905  0.009780  0.063444  1
