# generated using pymatgen
data_ErLu2(GaNi2)3
_symmetry_space_group_name_H-M   'P 1'
_cell_length_a   5.16757800
_cell_length_b   5.16757679
_cell_length_c   15.77069600
_cell_angle_alpha   90.00000000
_cell_angle_beta   90.00000000
_cell_angle_gamma   119.99999497
_symmetry_Int_Tables_number   1
_chemical_formula_structural   ErLu2(GaNi2)3
_chemical_formula_sum   'Er2 Lu4 Ga6 Ni12'
_cell_volume   364.71656865
_cell_formula_units_Z   2
loop_
 _symmetry_equiv_pos_site_id
 _symmetry_equiv_pos_as_xyz
  1  'x, y, z'
loop_
 _atom_site_type_symbol
 _atom_site_label
 _atom_site_symmetry_multiplicity
 _atom_site_fract_x
 _atom_site_fract_y
 _atom_site_fract_z
 _atom_site_occupancy
  Er  Er0  1  0.333333  0.666664  0.750000  1
  Er  Er1  1  0.666667  0.333336  0.250000  1
  Lu  Lu2  1  0.333334  0.666663  0.541678  1
  Lu  Lu3  1  0.666666  0.333337  0.458322  1
  Lu  Lu4  1  0.666666  0.333337  0.041678  1
  Lu  Lu5  1  0.333334  0.666663  0.958322  1
  Ga  Ga6  1  0.000017  0.000021  0.250000  1
  Ga  Ga7  1  0.999983  0.999979  0.750000  1
  Ga  Ga8  1  0.333312  0.666656  0.250000  1
  Ga  Ga9  1  0.666688  0.333344  0.750000  1
  Ga  Ga10  1  0.000000  0.000000  0.000000  1
  Ga  Ga11  1  0.000000  0.000000  0.500000  1
  Ni  Ni12  1  0.168676  0.337357  0.124568  1
  Ni  Ni13  1  0.831324  0.662643  0.875432  1
  Ni  Ni14  1  0.662667  0.831343  0.124544  1
  Ni  Ni15  1  0.831324  0.662643  0.624568  1
  Ni  Ni16  1  0.337333  0.168657  0.875456  1
  Ni  Ni17  1  0.168676  0.337357  0.375432  1
  Ni  Ni18  1  0.168677  0.831329  0.124537  1
  Ni  Ni19  1  0.337333  0.168657  0.624544  1
  Ni  Ni20  1  0.831323  0.168671  0.875463  1
  Ni  Ni21  1  0.662667  0.831343  0.375456  1
  Ni  Ni22  1  0.831323  0.168671  0.624537  1
  Ni  Ni23  1  0.168677  0.831329  0.375463  1
