# generated using pymatgen
data_HfZr(Nb3As2)4
_symmetry_space_group_name_H-M   'P 1'
_cell_length_a   7.96855042
_cell_length_b   7.96855163
_cell_length_c   14.44884383
_cell_angle_alpha   75.84403939
_cell_angle_beta   75.84403677
_cell_angle_gamma   25.92707052
_symmetry_Int_Tables_number   1
_chemical_formula_structural   HfZr(Nb3As2)4
_chemical_formula_sum   'Hf1 Zr1 Nb12 As8'
_cell_volume   388.30496974
_cell_formula_units_Z   1
loop_
 _symmetry_equiv_pos_site_id
 _symmetry_equiv_pos_as_xyz
  1  'x, y, z'
loop_
 _atom_site_type_symbol
 _atom_site_label
 _atom_site_symmetry_multiplicity
 _atom_site_fract_x
 _atom_site_fract_y
 _atom_site_fract_z
 _atom_site_occupancy
  Hf  Hf0  1  0.176867  0.176867  0.453353  1
  Zr  Zr1  1  0.822829  0.822829  0.546220  1
  Nb  Nb2  1  0.999978  0.999978  0.000004  1
  Nb  Nb3  1  0.500483  0.500483  0.499855  1
  Nb  Nb4  1  0.430375  0.430375  0.171841  1
  Nb  Nb5  1  0.569599  0.569599  0.828276  1
  Nb  Nb6  1  0.193463  0.193463  0.696143  1
  Nb  Nb7  1  0.805991  0.805991  0.304370  1
  Nb  Nb8  1  0.212375  0.212375  0.197172  1
  Nb  Nb9  1  0.787694  0.787694  0.802835  1
  Nb  Nb10  1  0.333032  0.333032  0.970109  1
  Nb  Nb11  1  0.666928  0.666928  0.029916  1
  Nb  Nb12  1  0.000687  0.000687  0.334627  1
  Nb  Nb13  1  0.999340  0.999340  0.665481  1
  As  As14  1  0.172924  0.172924  0.892577  1
  As  As15  1  0.827069  0.827069  0.107448  1
  As  As16  1  0.372006  0.372006  0.398772  1
  As  As17  1  0.628144  0.628144  0.600156  1
  As  As18  1  0.371766  0.371766  0.670427  1
  As  As19  1  0.628496  0.628496  0.330316  1
  As  As20  1  0.063463  0.063463  0.150129  1
  As  As21  1  0.936490  0.936490  0.849973  1
