# generated using pymatgen
data_Nd23In4Pt7
_symmetry_space_group_name_H-M   'P 1'
_cell_length_a   10.13756900
_cell_length_b   10.13756900
_cell_length_c   22.93899600
_cell_angle_alpha   90.00000000
_cell_angle_beta   90.00000000
_cell_angle_gamma   120.00000326
_symmetry_Int_Tables_number   1
_chemical_formula_structural   Nd23In4Pt7
_chemical_formula_sum   'Nd46 In8 Pt14'
_cell_volume   2041.60946087
_cell_formula_units_Z   2
loop_
 _symmetry_equiv_pos_site_id
 _symmetry_equiv_pos_as_xyz
  1  'x, y, z'
loop_
 _atom_site_type_symbol
 _atom_site_label
 _atom_site_symmetry_multiplicity
 _atom_site_fract_x
 _atom_site_fract_y
 _atom_site_fract_z
 _atom_site_occupancy
  Nd  Nd0  1  0.128046  0.871954  0.363583  1
  Nd  Nd1  1  0.743907  0.871954  0.363583  1
  Nd  Nd2  1  0.128046  0.256093  0.363583  1
  Nd  Nd3  1  0.871954  0.128046  0.863583  1
  Nd  Nd4  1  0.256093  0.128046  0.863583  1
  Nd  Nd5  1  0.871954  0.743907  0.863583  1
  Nd  Nd6  1  0.199945  0.800055  0.215484  1
  Nd  Nd7  1  0.600109  0.800055  0.215484  1
  Nd  Nd8  1  0.199945  0.399891  0.215484  1
  Nd  Nd9  1  0.800055  0.199945  0.715484  1
  Nd  Nd10  1  0.399891  0.199945  0.715484  1
  Nd  Nd11  1  0.800055  0.600109  0.715484  1
  Nd  Nd12  1  0.204383  0.795617  0.054701  1
  Nd  Nd13  1  0.591236  0.795617  0.054701  1
  Nd  Nd14  1  0.204383  0.408764  0.054701  1
  Nd  Nd15  1  0.795617  0.204383  0.554701  1
  Nd  Nd16  1  0.408764  0.204383  0.554701  1
  Nd  Nd17  1  0.795617  0.591236  0.554701  1
  Nd  Nd18  1  0.211876  0.788124  0.509666  1
  Nd  Nd19  1  0.576248  0.788124  0.509666  1
  Nd  Nd20  1  0.211876  0.423752  0.509666  1
  Nd  Nd21  1  0.788124  0.211876  0.009666  1
  Nd  Nd22  1  0.423752  0.211876  0.009666  1
  Nd  Nd23  1  0.788124  0.576248  0.009666  1
  Nd  Nd24  1  0.539001  0.460999  0.414373  1
  Nd  Nd25  1  0.921999  0.460999  0.414373  1
  Nd  Nd26  1  0.539001  0.078001  0.414373  1
  Nd  Nd27  1  0.460999  0.539001  0.914373  1
  Nd  Nd28  1  0.078001  0.539001  0.914373  1
  Nd  Nd29  1  0.460999  0.921999  0.914373  1
  Nd  Nd30  1  0.543881  0.456119  0.142849  1
  Nd  Nd31  1  0.912237  0.456119  0.142849  1
  Nd  Nd32  1  0.543881  0.087763  0.142849  1
  Nd  Nd33  1  0.456119  0.543881  0.642849  1
  Nd  Nd34  1  0.087763  0.543881  0.642849  1
  Nd  Nd35  1  0.456119  0.912237  0.642849  1
  Nd  Nd36  1  0.333333  0.666667  0.355693  1
  Nd  Nd37  1  0.666667  0.333333  0.855693  1
  Nd  Nd38  1  0.000000  0.000000  0.503450  1
  Nd  Nd39  1  0.000000  0.000000  0.003450  1
  Nd  Nd40  1  0.795989  0.204011  0.277104  1
  Nd  Nd41  1  0.408022  0.204011  0.277104  1
  Nd  Nd42  1  0.795989  0.591978  0.277104  1
  Nd  Nd43  1  0.204011  0.795989  0.777104  1
  Nd  Nd44  1  0.591978  0.795989  0.777104  1
  Nd  Nd45  1  0.204011  0.408022  0.777104  1
  In  In46  1  0.891456  0.108544  0.134919  1
  In  In47  1  0.217088  0.108544  0.134919  1
  In  In48  1  0.891456  0.782912  0.134919  1
  In  In49  1  0.108544  0.891456  0.634919  1
  In  In50  1  0.782912  0.891456  0.634919  1
  In  In51  1  0.108544  0.217088  0.634919  1
  In  In52  1  0.000000  0.000000  0.250968  1
  In  In53  1  0.000000  0.000000  0.750968  1
  Pt  Pt54  1  0.478245  0.521755  0.289160  1
  Pt  Pt55  1  0.043511  0.521755  0.289160  1
  Pt  Pt56  1  0.478245  0.956489  0.289160  1
  Pt  Pt57  1  0.521755  0.478245  0.789160  1
  Pt  Pt58  1  0.956489  0.478245  0.789160  1
  Pt  Pt59  1  0.521755  0.043511  0.789160  1
  Pt  Pt60  1  0.857216  0.142784  0.435490  1
  Pt  Pt61  1  0.285569  0.142784  0.435490  1
  Pt  Pt62  1  0.857216  0.714431  0.435490  1
  Pt  Pt63  1  0.142784  0.857216  0.935490  1
  Pt  Pt64  1  0.714431  0.857216  0.935490  1
  Pt  Pt65  1  0.142784  0.285569  0.935490  1
  Pt  Pt66  1  0.333333  0.666667  0.137898  1
  Pt  Pt67  1  0.666667  0.333333  0.637898  1
