# generated using pymatgen
data_NdEu3MgRu
_symmetry_space_group_name_H-M   'P 1'
_cell_length_a   10.21284060
_cell_length_b   10.21283945
_cell_length_c   10.21284000
_cell_angle_alpha   59.99999175
_cell_angle_beta   59.99999546
_cell_angle_gamma   59.99999887
_symmetry_Int_Tables_number   1
_chemical_formula_structural   NdEu3MgRu
_chemical_formula_sum   'Nd4 Eu12 Mg4 Ru4'
_cell_volume   753.22468243
_cell_formula_units_Z   4
loop_
 _symmetry_equiv_pos_site_id
 _symmetry_equiv_pos_as_xyz
  1  'x, y, z'
loop_
 _atom_site_type_symbol
 _atom_site_label
 _atom_site_symmetry_multiplicity
 _atom_site_fract_x
 _atom_site_fract_y
 _atom_site_fract_z
 _atom_site_occupancy
  Nd  Nd0  1  0.340152  0.340152  0.340152  1
  Nd  Nd1  1  0.340152  0.340152  0.979543  1
  Nd  Nd2  1  0.340152  0.979543  0.340152  1
  Nd  Nd3  1  0.979543  0.340152  0.340152  1
  Eu  Eu4  1  0.947705  0.552295  0.552295  1
  Eu  Eu5  1  0.552295  0.947705  0.947705  1
  Eu  Eu6  1  0.552295  0.947705  0.552295  1
  Eu  Eu7  1  0.947705  0.552295  0.947705  1
  Eu  Eu8  1  0.552295  0.552295  0.947705  1
  Eu  Eu9  1  0.947705  0.947705  0.552295  1
  Eu  Eu10  1  0.810040  0.189960  0.189960  1
  Eu  Eu11  1  0.189960  0.810040  0.810040  1
  Eu  Eu12  1  0.189960  0.810040  0.189960  1
  Eu  Eu13  1  0.810040  0.189960  0.810040  1
  Eu  Eu14  1  0.189960  0.189960  0.810040  1
  Eu  Eu15  1  0.810040  0.810040  0.189960  1
  Mg  Mg16  1  0.577215  0.577215  0.577215  1
  Mg  Mg17  1  0.577215  0.577215  0.268355  1
  Mg  Mg18  1  0.577215  0.268355  0.577215  1
  Mg  Mg19  1  0.268355  0.577215  0.577215  1
  Ru  Ru20  1  0.138691  0.138691  0.138691  1
  Ru  Ru21  1  0.138691  0.138691  0.583927  1
  Ru  Ru22  1  0.138691  0.583927  0.138691  1
  Ru  Ru23  1  0.583927  0.138691  0.138691  1
