# generated using pymatgen
data_Nd5Sc3(Co4P3)4
_symmetry_space_group_name_H-M   'P 1'
_cell_length_a   12.35470700
_cell_length_b   12.35470628
_cell_length_c   3.76887300
_cell_angle_alpha   90.00000000
_cell_angle_beta   90.00000000
_cell_angle_gamma   120.00000460
_symmetry_Int_Tables_number   1
_chemical_formula_structural   Nd5Sc3(Co4P3)4
_chemical_formula_sum   'Nd5 Sc3 Co16 P12'
_cell_volume   498.20374764
_cell_formula_units_Z   1
loop_
 _symmetry_equiv_pos_site_id
 _symmetry_equiv_pos_as_xyz
  1  'x, y, z'
loop_
 _atom_site_type_symbol
 _atom_site_label
 _atom_site_symmetry_multiplicity
 _atom_site_fract_x
 _atom_site_fract_y
 _atom_site_fract_z
 _atom_site_occupancy
  Nd  Nd0  1  0.666667  0.333333  0.000000  1
  Nd  Nd1  1  0.333333  0.666667  0.000000  1
  Nd  Nd2  1  0.815555  0.815555  0.500000  1
  Nd  Nd3  1  0.184445  0.000000  0.500000  1
  Nd  Nd4  1  0.000000  0.184445  0.500000  1
  Sc  Sc5  1  0.438079  0.438079  0.000000  1
  Sc  Sc6  1  0.561921  0.000000  0.000000  1
  Sc  Sc7  1  0.000000  0.561921  0.000000  1
  Co  Co8  1  0.877005  0.355225  0.500000  1
  Co  Co9  1  0.644775  0.521780  0.500000  1
  Co  Co10  1  0.478220  0.122995  0.500000  1
  Co  Co11  1  0.355225  0.877005  0.500000  1
  Co  Co12  1  0.521780  0.644775  0.500000  1
  Co  Co13  1  0.122995  0.478220  0.500000  1
  Co  Co14  1  0.803782  0.179057  0.000000  1
  Co  Co15  1  0.820943  0.624725  0.000000  1
  Co  Co16  1  0.375275  0.196218  0.000000  1
  Co  Co17  1  0.179057  0.803782  0.000000  1
  Co  Co18  1  0.624725  0.820943  0.000000  1
  Co  Co19  1  0.196218  0.375275  0.000000  1
  Co  Co20  1  0.279909  0.279909  0.500000  1
  Co  Co21  1  0.720091  0.000000  0.500000  1
  Co  Co22  1  0.000000  0.720091  0.500000  1
  Co  Co23  1  0.000000  0.000000  0.000000  1
  P  P24  1  0.694242  0.169191  0.500000  1
  P  P25  1  0.830809  0.525052  0.500000  1
  P  P26  1  0.474948  0.305758  0.500000  1
  P  P27  1  0.169191  0.694242  0.500000  1
  P  P28  1  0.525052  0.830809  0.500000  1
  P  P29  1  0.305758  0.474948  0.500000  1
  P  P30  1  0.182302  0.182302  0.000000  1
  P  P31  1  0.817698  0.000000  0.000000  1
  P  P32  1  0.000000  0.817698  0.000000  1
  P  P33  1  0.641108  0.641108  0.000000  1
  P  P34  1  0.358892  0.000000  0.000000  1
  P  P35  1  0.000000  0.358892  0.000000  1
