# generated using pymatgen
data_Dy3Tc(P3Rh4)2
_symmetry_space_group_name_H-M   'P 1'
_cell_length_a   3.92252300
_cell_length_b   11.13750900
_cell_length_c   12.79811300
_cell_angle_alpha   90.00000000
_cell_angle_beta   90.00000000
_cell_angle_gamma   90.00000000
_symmetry_Int_Tables_number   1
_chemical_formula_structural   Dy3Tc(P3Rh4)2
_chemical_formula_sum   'Dy6 Tc2 P12 Rh16'
_cell_volume   559.11289313
_cell_formula_units_Z   2
loop_
 _symmetry_equiv_pos_site_id
 _symmetry_equiv_pos_as_xyz
  1  'x, y, z'
loop_
 _atom_site_type_symbol
 _atom_site_label
 _atom_site_symmetry_multiplicity
 _atom_site_fract_x
 _atom_site_fract_y
 _atom_site_fract_z
 _atom_site_occupancy
  Dy  Dy0  1  0.000000  0.500000  0.521049  1
  Dy  Dy1  1  0.500000  0.000000  0.478951  1
  Dy  Dy2  1  0.500000  0.816123  0.205369  1
  Dy  Dy3  1  0.500000  0.183877  0.205369  1
  Dy  Dy4  1  0.000000  0.683877  0.794631  1
  Dy  Dy5  1  0.000000  0.316123  0.794631  1
  Tc  Tc6  1  0.500000  0.500000  0.158912  1
  Tc  Tc7  1  0.000000  0.000000  0.841088  1
  P  P8  1  0.500000  0.500000  0.876993  1
  P  P9  1  0.000000  0.000000  0.123007  1
  P  P10  1  0.500000  0.500000  0.346183  1
  P  P11  1  0.000000  0.000000  0.653817  1
  P  P12  1  0.500000  0.315377  0.618658  1
  P  P13  1  0.500000  0.684623  0.618658  1
  P  P14  1  0.000000  0.184623  0.381342  1
  P  P15  1  0.000000  0.815377  0.381342  1
  P  P16  1  0.500000  0.848517  0.888200  1
  P  P17  1  0.500000  0.151483  0.888200  1
  P  P18  1  0.000000  0.651483  0.111800  1
  P  P19  1  0.000000  0.348517  0.111800  1
  Rh  Rh20  1  0.500000  0.500000  0.700835  1
  Rh  Rh21  1  0.000000  0.000000  0.299165  1
  Rh  Rh22  1  0.000000  0.500000  0.988506  1
  Rh  Rh23  1  0.500000  0.000000  0.011494  1
  Rh  Rh24  1  0.500000  0.331306  0.984192  1
  Rh  Rh25  1  0.500000  0.668694  0.984192  1
  Rh  Rh26  1  0.000000  0.168694  0.015808  1
  Rh  Rh27  1  0.000000  0.831306  0.015808  1
  Rh  Rh28  1  0.500000  0.295894  0.432166  1
  Rh  Rh29  1  0.500000  0.704106  0.432166  1
  Rh  Rh30  1  0.000000  0.204106  0.567834  1
  Rh  Rh31  1  0.000000  0.795894  0.567834  1
  Rh  Rh32  1  0.500000  0.875375  0.709363  1
  Rh  Rh33  1  0.500000  0.124625  0.709363  1
  Rh  Rh34  1  0.000000  0.624625  0.290637  1
  Rh  Rh35  1  0.000000  0.375375  0.290637  1
