# generated using pymatgen
data_Li2Y3MgSi2Ag
_symmetry_space_group_name_H-M   'P 1'
_cell_length_a   7.19959583
_cell_length_b   7.25823944
_cell_length_c   4.24091800
_cell_angle_alpha   90.00000000
_cell_angle_beta   90.00000000
_cell_angle_gamma   120.26983524
_symmetry_Int_Tables_number   1
_chemical_formula_structural   Li2Y3MgSi2Ag
_chemical_formula_sum   'Li2 Y3 Mg1 Si2 Ag1'
_cell_volume   191.40030165
_cell_formula_units_Z   1
loop_
 _symmetry_equiv_pos_site_id
 _symmetry_equiv_pos_as_xyz
  1  'x, y, z'
loop_
 _atom_site_type_symbol
 _atom_site_label
 _atom_site_symmetry_multiplicity
 _atom_site_fract_x
 _atom_site_fract_y
 _atom_site_fract_z
 _atom_site_occupancy
  Li  Li0  1  0.750768  0.750643  0.000000  1
  Li  Li1  1  0.249232  0.999876  0.000000  1
  Y  Y2  1  0.430288  0.429041  0.500000  1
  Y  Y3  1  0.000000  0.580081  0.500000  1
  Y  Y4  1  0.569712  0.998753  0.500000  1
  Mg  Mg5  1  0.000000  0.243200  0.000000  1
  Si  Si6  1  0.665423  0.334098  0.000000  1
  Si  Si7  1  0.334577  0.668676  0.000000  1
  Ag  Ag8  1  0.000000  0.995632  0.500000  1
