# generated using pymatgen
data_Tb17Lu3(SnPb7)2
_symmetry_space_group_name_H-M   'P 1'
_cell_length_a   8.17768803
_cell_length_b   8.26831601
_cell_length_c   15.66834700
_cell_angle_alpha   90.00000000
_cell_angle_beta   90.00000000
_cell_angle_gamma   89.92051323
_symmetry_Int_Tables_number   1
_chemical_formula_structural   Tb17Lu3(SnPb7)2
_chemical_formula_sum   'Tb17 Lu3 Sn2 Pb14'
_cell_volume   1059.42537009
_cell_formula_units_Z   1
loop_
 _symmetry_equiv_pos_site_id
 _symmetry_equiv_pos_as_xyz
  1  'x, y, z'
loop_
 _atom_site_type_symbol
 _atom_site_label
 _atom_site_symmetry_multiplicity
 _atom_site_fract_x
 _atom_site_fract_y
 _atom_site_fract_z
 _atom_site_occupancy
  Tb  Tb0  1  0.376653  0.841480  0.879129  1
  Tb  Tb1  1  0.876507  0.658390  0.620385  1
  Tb  Tb2  1  0.623906  0.160808  0.377820  1
  Tb  Tb3  1  0.122719  0.339992  0.122209  1
  Tb  Tb4  1  0.623906  0.160808  0.122180  1
  Tb  Tb5  1  0.122719  0.339992  0.377791  1
  Tb  Tb6  1  0.376653  0.841480  0.620871  1
  Tb  Tb7  1  0.876507  0.658390  0.879615  1
  Tb  Tb8  1  0.533992  0.323249  0.900717  1
  Tb  Tb9  1  0.034016  0.176762  0.599713  1
  Tb  Tb10  1  0.466600  0.674380  0.399399  1
  Tb  Tb11  1  0.965948  0.824683  0.100558  1
  Tb  Tb12  1  0.466600  0.674380  0.100601  1
  Tb  Tb13  1  0.965948  0.824683  0.399442  1
  Tb  Tb14  1  0.533992  0.323249  0.599283  1
  Tb  Tb15  1  0.034016  0.176762  0.900287  1
  Tb  Tb16  1  0.290171  0.006633  0.250000  1
  Lu  Lu17  1  0.208526  0.504273  0.750000  1
  Lu  Lu18  1  0.708593  0.995582  0.750000  1
  Lu  Lu19  1  0.789417  0.492170  0.250000  1
  Sn  Sn20  1  0.427598  0.376620  0.250000  1
  Sn  Sn21  1  0.925183  0.125943  0.250000  1
  Pb  Pb22  1  0.282469  0.033732  0.042767  1
  Pb  Pb23  1  0.782531  0.466821  0.456198  1
  Pb  Pb24  1  0.717805  0.967305  0.543609  1
  Pb  Pb25  1  0.218084  0.532998  0.956469  1
  Pb  Pb26  1  0.717805  0.967305  0.956391  1
  Pb  Pb27  1  0.218084  0.532998  0.543531  1
  Pb  Pb28  1  0.282469  0.033732  0.457233  1
  Pb  Pb29  1  0.782531  0.466821  0.043802  1
  Pb  Pb30  1  0.571288  0.625099  0.750000  1
  Pb  Pb31  1  0.070990  0.874384  0.750000  1
  Pb  Pb32  1  0.346537  0.155142  0.750000  1
  Pb  Pb33  1  0.846134  0.345744  0.750000  1
  Pb  Pb34  1  0.657278  0.846259  0.250000  1
  Pb  Pb35  1  0.155827  0.650952  0.250000  1
