# generated using pymatgen
data_Ca3LaNi2(RuO6)2
_symmetry_space_group_name_H-M   'P 1'
_cell_length_a   5.46309441
_cell_length_b   5.62514666
_cell_length_c   7.77326857
_cell_angle_alpha   90.02581491
_cell_angle_beta   90.04330327
_cell_angle_gamma   90.24629303
_symmetry_Int_Tables_number   1
_chemical_formula_structural   Ca3LaNi2(RuO6)2
_chemical_formula_sum   'Ca3 La1 Ni2 Ru2 O12'
_cell_volume   238.87574113
_cell_formula_units_Z   1
loop_
 _symmetry_equiv_pos_site_id
 _symmetry_equiv_pos_as_xyz
  1  'x, y, z'
loop_
 _atom_site_type_symbol
 _atom_site_label
 _atom_site_symmetry_multiplicity
 _atom_site_fract_x
 _atom_site_fract_y
 _atom_site_fract_z
 _atom_site_occupancy
  Ca  Ca0  1  0.515209  0.555828  0.249052  1
  Ca  Ca1  1  0.012246  0.942082  0.748046  1
  Ca  Ca2  1  0.484316  0.444650  0.751889  1
  La  La3  1  0.990368  0.051389  0.250801  1
  Ni  Ni4  1  0.499831  0.000815  0.996755  1
  Ni  Ni5  1  0.000708  0.500310  0.502525  1
  Ru  Ru6  1  0.500273  0.999377  0.505829  1
  Ru  Ru7  1  0.999420  0.501663  0.994767  1
  O  O8  1  0.693790  0.285791  0.448340  1
  O  O9  1  0.802650  0.787468  0.044264  1
  O  O10  1  0.307611  0.713734  0.552024  1
  O  O11  1  0.188317  0.209992  0.952567  1
  O  O12  1  0.205567  0.193430  0.544361  1
  O  O13  1  0.286826  0.699026  0.950330  1
  O  O14  1  0.792417  0.801661  0.459719  1
  O  O15  1  0.710810  0.303242  0.049391  1
  O  O16  1  0.092617  0.482143  0.242495  1
  O  O17  1  0.419289  0.970292  0.256754  1
  O  O18  1  0.593439  0.032884  0.743657  1
  O  O19  1  0.904299  0.524226  0.756434  1
