# generated using pymatgen
data_Dy6Ho10CdHg3Ir4
_symmetry_space_group_name_H-M   'P 1'
_cell_length_a   9.57662463
_cell_length_b   9.57971734
_cell_length_c   9.57971800
_cell_angle_alpha   59.99999773
_cell_angle_beta   59.98931426
_cell_angle_gamma   59.98931550
_symmetry_Int_Tables_number   1
_chemical_formula_structural   Dy6Ho10CdHg3Ir4
_chemical_formula_sum   'Dy6 Ho10 Cd1 Hg3 Ir4'
_cell_volume   621.34487380
_cell_formula_units_Z   1
loop_
 _symmetry_equiv_pos_site_id
 _symmetry_equiv_pos_as_xyz
  1  'x, y, z'
loop_
 _atom_site_type_symbol
 _atom_site_label
 _atom_site_symmetry_multiplicity
 _atom_site_fract_x
 _atom_site_fract_y
 _atom_site_fract_z
 _atom_site_occupancy
  Dy  Dy0  1  0.186836  0.812221  0.812221  1
  Dy  Dy1  1  0.811745  0.188015  0.188015  1
  Dy  Dy2  1  0.811745  0.188015  0.812225  1
  Dy  Dy3  1  0.186836  0.812221  0.188723  1
  Dy  Dy4  1  0.811745  0.812225  0.188015  1
  Dy  Dy5  1  0.186836  0.188723  0.812221  1
  Ho  Ho6  1  0.600279  0.599782  0.599782  1
  Ho  Ho7  1  0.600279  0.599782  0.200158  1
  Ho  Ho8  1  0.600279  0.200158  0.599782  1
  Ho  Ho9  1  0.197973  0.600675  0.600675  1
  Ho  Ho10  1  0.060118  0.439835  0.439835  1
  Ho  Ho11  1  0.438883  0.060834  0.060834  1
  Ho  Ho12  1  0.438883  0.060834  0.439448  1
  Ho  Ho13  1  0.060118  0.439835  0.060211  1
  Ho  Ho14  1  0.438883  0.439448  0.060834  1
  Ho  Ho15  1  0.060118  0.060211  0.439835  1
  Cd  Cd16  1  0.509807  0.830064  0.830064  1
  Hg  Hg17  1  0.833205  0.835017  0.835017  1
  Hg  Hg18  1  0.833205  0.835017  0.496762  1
  Hg  Hg19  1  0.833205  0.496762  0.835017  1
  Ir  Ir20  1  0.391711  0.392260  0.392260  1
  Ir  Ir21  1  0.391711  0.392260  0.823770  1
  Ir  Ir22  1  0.391711  0.823770  0.392260  1
  Ir  Ir23  1  0.823890  0.392037  0.392037  1
