# generated using pymatgen
data_Zr2Cr2Ni10P7
_symmetry_space_group_name_H-M   'P 1'
_cell_length_a   8.99646239
_cell_length_b   9.01718705
_cell_length_c   3.60058300
_cell_angle_alpha   90.00000000
_cell_angle_beta   90.00000000
_cell_angle_gamma   119.93161561
_symmetry_Int_Tables_number   1
_chemical_formula_structural   Zr2Cr2Ni10P7
_chemical_formula_sum   'Zr2 Cr2 Ni10 P7'
_cell_volume   253.13089808
_cell_formula_units_Z   1
loop_
 _symmetry_equiv_pos_site_id
 _symmetry_equiv_pos_as_xyz
  1  'x, y, z'
loop_
 _atom_site_type_symbol
 _atom_site_label
 _atom_site_symmetry_multiplicity
 _atom_site_fract_x
 _atom_site_fract_y
 _atom_site_fract_z
 _atom_site_occupancy
  Zr  Zr0  1  0.999452  0.002470  0.000000  1
  Zr  Zr1  1  0.332206  0.665895  0.500000  1
  Cr  Cr2  1  0.883418  0.455737  0.500000  1
  Cr  Cr3  1  0.544239  0.429960  0.500000  1
  Ni  Ni4  1  0.292749  0.394974  0.000000  1
  Ni  Ni5  1  0.102462  0.707561  0.000000  1
  Ni  Ni6  1  0.387343  0.173033  0.000000  1
  Ni  Ni7  1  0.792292  0.620371  0.000000  1
  Ni  Ni8  1  0.822381  0.210262  0.000000  1
  Ni  Ni9  1  0.230487  0.946655  0.500000  1
  Ni  Ni10  1  0.055202  0.283252  0.500000  1
  Ni  Ni11  1  0.718035  0.773400  0.500000  1
  Ni  Ni12  1  0.569092  0.104202  0.500000  1
  Ni  Ni13  1  0.602683  0.894630  0.000000  1
  P  P14  1  0.667469  0.336893  0.000000  1
  P  P15  1  0.076056  0.451732  0.000000  1
  P  P16  1  0.258504  0.214458  0.500000  1
  P  P17  1  0.786727  0.045247  0.500000  1
  P  P18  1  0.956983  0.743586  0.500000  1
  P  P19  1  0.548345  0.625000  0.000000  1
  P  P20  1  0.373875  0.920683  0.000000  1
