# generated using pymatgen
data_Mn(Cr11C3)2
_symmetry_space_group_name_H-M   'P 1'
_cell_length_a   7.46588519
_cell_length_b   7.46588497
_cell_length_c   7.46588400
_cell_angle_alpha   59.99999541
_cell_angle_beta   59.99999640
_cell_angle_gamma   59.99999150
_symmetry_Int_Tables_number   1
_chemical_formula_structural   Mn(Cr11C3)2
_chemical_formula_sum   'Mn1 Cr22 C6'
_cell_volume   294.25834378
_cell_formula_units_Z   1
loop_
 _symmetry_equiv_pos_site_id
 _symmetry_equiv_pos_as_xyz
  1  'x, y, z'
loop_
 _atom_site_type_symbol
 _atom_site_label
 _atom_site_symmetry_multiplicity
 _atom_site_fract_x
 _atom_site_fract_y
 _atom_site_fract_z
 _atom_site_occupancy
  Mn  Mn0  1  0.000000  0.000000  0.000000  1
  Cr  Cr1  1  0.750000  0.750000  0.750000  1
  Cr  Cr2  1  0.250000  0.250000  0.250000  1
  Cr  Cr3  1  0.618938  0.618938  0.143187  1
  Cr  Cr4  1  0.618938  0.143187  0.618938  1
  Cr  Cr5  1  0.143187  0.618938  0.618938  1
  Cr  Cr6  1  0.618938  0.618938  0.618938  1
  Cr  Cr7  1  0.381062  0.381062  0.856813  1
  Cr  Cr8  1  0.381062  0.856813  0.381062  1
  Cr  Cr9  1  0.856813  0.381062  0.381062  1
  Cr  Cr10  1  0.381062  0.381062  0.381062  1
  Cr  Cr11  1  0.000000  0.000000  0.336378  1
  Cr  Cr12  1  0.663622  0.000000  0.336378  1
  Cr  Cr13  1  0.000000  0.663622  0.336378  1
  Cr  Cr14  1  0.663622  0.336378  0.000000  1
  Cr  Cr15  1  0.000000  0.336378  0.000000  1
  Cr  Cr16  1  0.000000  0.336378  0.663622  1
  Cr  Cr17  1  0.336378  0.663622  0.000000  1
  Cr  Cr18  1  0.336378  0.000000  0.663622  1
  Cr  Cr19  1  0.336378  0.000000  0.000000  1
  Cr  Cr20  1  0.000000  0.000000  0.663622  1
  Cr  Cr21  1  0.000000  0.663622  0.000000  1
  Cr  Cr22  1  0.663622  0.000000  0.000000  1
  C  C23  1  0.722798  0.722798  0.277202  1
  C  C24  1  0.277202  0.722798  0.277202  1
  C  C25  1  0.722798  0.277202  0.277202  1
  C  C26  1  0.277202  0.277202  0.722798  1
  C  C27  1  0.722798  0.277202  0.722798  1
  C  C28  1  0.277202  0.722798  0.722798  1
