# generated using pymatgen
data_Zr2FeNiP2
_symmetry_space_group_name_H-M   'P 1'
_cell_length_a   3.71164700
_cell_length_b   6.35728625
_cell_length_c   7.20259414
_cell_angle_alpha   89.33179677
_cell_angle_beta   90.00000000
_cell_angle_gamma   90.00000000
_symmetry_Int_Tables_number   1
_chemical_formula_structural   Zr2FeNiP2
_chemical_formula_sum   'Zr4 Fe2 Ni2 P4'
_cell_volume   169.94087130
_cell_formula_units_Z   2
loop_
 _symmetry_equiv_pos_site_id
 _symmetry_equiv_pos_as_xyz
  1  'x, y, z'
loop_
 _atom_site_type_symbol
 _atom_site_label
 _atom_site_symmetry_multiplicity
 _atom_site_fract_x
 _atom_site_fract_y
 _atom_site_fract_z
 _atom_site_occupancy
  Zr  Zr0  1  0.250000  0.519057  0.686146  1
  Zr  Zr1  1  0.750000  0.480943  0.313854  1
  Zr  Zr2  1  0.250000  0.017390  0.821655  1
  Zr  Zr3  1  0.750000  0.982610  0.178345  1
  Fe  Fe4  1  0.750000  0.361925  0.938764  1
  Fe  Fe5  1  0.250000  0.638075  0.061236  1
  Ni  Ni6  1  0.750000  0.858956  0.559675  1
  Ni  Ni7  1  0.250000  0.141044  0.440325  1
  P  P8  1  0.250000  0.281487  0.102213  1
  P  P9  1  0.750000  0.718513  0.897787  1
  P  P10  1  0.250000  0.770359  0.376979  1
  P  P11  1  0.750000  0.229641  0.623021  1
