# generated using pymatgen
data_Zr3BeSiGeOs3
_symmetry_space_group_name_H-M   'P 1'
_cell_length_a   6.83331900
_cell_length_b   6.83331888
_cell_length_c   3.48968300
_cell_angle_alpha   90.00000000
_cell_angle_beta   90.00000000
_cell_angle_gamma   119.99999572
_symmetry_Int_Tables_number   1
_chemical_formula_structural   Zr3BeSiGeOs3
_chemical_formula_sum   'Zr3 Be1 Si1 Ge1 Os3'
_cell_volume   141.11721975
_cell_formula_units_Z   1
loop_
 _symmetry_equiv_pos_site_id
 _symmetry_equiv_pos_as_xyz
  1  'x, y, z'
loop_
 _atom_site_type_symbol
 _atom_site_label
 _atom_site_symmetry_multiplicity
 _atom_site_fract_x
 _atom_site_fract_y
 _atom_site_fract_z
 _atom_site_occupancy
  Zr  Zr0  1  0.394320  0.399001  0.500000  1
  Zr  Zr1  1  0.600999  0.995319  0.500000  1
  Zr  Zr2  1  0.004681  0.605680  0.500000  1
  Be  Be3  1  0.000000  0.000000  0.500000  1
  Si  Si4  1  0.333333  0.666667  0.000000  1
  Ge  Ge5  1  0.666667  0.333333  0.000000  1
  Os  Os6  1  0.756640  0.761844  0.000000  1
  Os  Os7  1  0.238156  0.994796  0.000000  1
  Os  Os8  1  0.005204  0.243360  0.000000  1
