# generated using pymatgen
data_Ti4Ge2Ir7Rh3
_symmetry_space_group_name_H-M   'P 1'
_cell_length_a   3.96896000
_cell_length_b   5.45466809
_cell_length_c   10.75841417
_cell_angle_alpha   90.02096155
_cell_angle_beta   90.00000000
_cell_angle_gamma   90.00000000
_symmetry_Int_Tables_number   1
_chemical_formula_structural   Ti4Ge2Ir7Rh3
_chemical_formula_sum   'Ti4 Ge2 Ir7 Rh3'
_cell_volume   232.91276030
_cell_formula_units_Z   1
loop_
 _symmetry_equiv_pos_site_id
 _symmetry_equiv_pos_as_xyz
  1  'x, y, z'
loop_
 _atom_site_type_symbol
 _atom_site_label
 _atom_site_symmetry_multiplicity
 _atom_site_fract_x
 _atom_site_fract_y
 _atom_site_fract_z
 _atom_site_occupancy
  Ti  Ti0  1  0.500000  0.319891  0.140465  1
  Ti  Ti1  1  0.500000  0.679425  0.859702  1
  Ti  Ti2  1  0.500000  0.820255  0.359643  1
  Ti  Ti3  1  0.500000  0.180571  0.641046  1
  Ge  Ge4  1  0.000000  0.001203  0.998962  1
  Ge  Ge5  1  0.000000  0.500252  0.499804  1
  Ir  Ir6  1  0.000000  0.062965  0.248032  1
  Ir  Ir7  1  0.000000  0.936357  0.752399  1
  Ir  Ir8  1  0.000000  0.563181  0.251545  1
  Ir  Ir9  1  0.000000  0.435925  0.747775  1
  Ir  Ir10  1  0.500000  0.307079  0.388098  1
  Ir  Ir11  1  0.500000  0.693196  0.611614  1
  Ir  Ir12  1  0.500000  0.808143  0.111796  1
  Rh  Rh13  1  0.000000  0.000820  0.500407  1
  Rh  Rh14  1  0.000000  0.499633  0.999627  1
  Rh  Rh15  1  0.500000  0.191105  0.889085  1
