# generated using pymatgen
data_La8Pr8Cd4CoPt3
_symmetry_space_group_name_H-M   'P 1'
_cell_length_a   10.08191145
_cell_length_b   10.08191208
_cell_length_c   10.10473311
_cell_angle_alpha   60.24489562
_cell_angle_beta   60.24489286
_cell_angle_gamma   60.46453476
_symmetry_Int_Tables_number   1
_chemical_formula_structural   La8Pr8Cd4CoPt3
_chemical_formula_sum   'La8 Pr8 Cd4 Co1 Pt3'
_cell_volume   731.48619594
_cell_formula_units_Z   1
loop_
 _symmetry_equiv_pos_site_id
 _symmetry_equiv_pos_as_xyz
  1  'x, y, z'
loop_
 _atom_site_type_symbol
 _atom_site_label
 _atom_site_symmetry_multiplicity
 _atom_site_fract_x
 _atom_site_fract_y
 _atom_site_fract_z
 _atom_site_occupancy
  La  La0  1  0.349245  0.349245  0.350615  1
  La  La1  1  0.342612  0.342612  0.957074  1
  La  La2  1  0.345275  0.956189  0.343076  1
  La  La3  1  0.956189  0.345275  0.343076  1
  La  La4  1  0.822113  0.189033  0.189303  1
  La  La5  1  0.191690  0.808013  0.808467  1
  La  La6  1  0.189033  0.822113  0.189303  1
  La  La7  1  0.808013  0.191690  0.808467  1
  Pr  Pr8  1  0.192099  0.192099  0.816216  1
  Pr  Pr9  1  0.805907  0.805907  0.194099  1
  Pr  Pr10  1  0.937602  0.563456  0.563552  1
  Pr  Pr11  1  0.564022  0.933858  0.933568  1
  Pr  Pr12  1  0.563456  0.937602  0.563552  1
  Pr  Pr13  1  0.933858  0.564022  0.933568  1
  Pr  Pr14  1  0.562762  0.562762  0.938326  1
  Pr  Pr15  1  0.934596  0.934596  0.563732  1
  Cd  Cd16  1  0.580383  0.580383  0.579031  1
  Cd  Cd17  1  0.581852  0.581852  0.257455  1
  Cd  Cd18  1  0.580390  0.257677  0.581993  1
  Cd  Cd19  1  0.257677  0.580390  0.581993  1
  Co  Co20  1  0.139524  0.139524  0.147396  1
  Pt  Pt21  1  0.142358  0.142358  0.571554  1
  Pt  Pt22  1  0.146550  0.572792  0.142291  1
  Pt  Pt23  1  0.572792  0.146550  0.142291  1
