# generated using pymatgen
data_La6Cd23Ge
_symmetry_space_group_name_H-M   'P 1'
_cell_length_a   10.20861481
_cell_length_b   10.20861365
_cell_length_c   10.20861500
_cell_angle_alpha   59.99999885
_cell_angle_beta   60.00000263
_cell_angle_gamma   59.99999984
_symmetry_Int_Tables_number   1
_chemical_formula_structural   La6Cd23Ge
_chemical_formula_sum   'La6 Cd23 Ge1'
_cell_volume   752.29022252
_cell_formula_units_Z   1
loop_
 _symmetry_equiv_pos_site_id
 _symmetry_equiv_pos_as_xyz
  1  'x, y, z'
loop_
 _atom_site_type_symbol
 _atom_site_label
 _atom_site_symmetry_multiplicity
 _atom_site_fract_x
 _atom_site_fract_y
 _atom_site_fract_z
 _atom_site_occupancy
  La  La0  1  0.709124  0.290876  0.290876  1
  La  La1  1  0.290876  0.709124  0.709124  1
  La  La2  1  0.290876  0.709124  0.290876  1
  La  La3  1  0.709124  0.290876  0.709124  1
  La  La4  1  0.290876  0.290876  0.709124  1
  La  La5  1  0.709124  0.709124  0.290876  1
  Cd  Cd6  1  0.122515  0.122515  0.122515  1
  Cd  Cd7  1  0.877485  0.877485  0.877485  1
  Cd  Cd8  1  0.122515  0.122515  0.632456  1
  Cd  Cd9  1  0.122515  0.632456  0.122515  1
  Cd  Cd10  1  0.877485  0.877485  0.367544  1
  Cd  Cd11  1  0.877485  0.367544  0.877485  1
  Cd  Cd12  1  0.632456  0.122515  0.122515  1
  Cd  Cd13  1  0.367544  0.877485  0.877485  1
  Cd  Cd14  1  0.500000  0.000000  0.000000  1
  Cd  Cd15  1  0.000000  0.500000  0.500000  1
  Cd  Cd16  1  0.000000  0.500000  0.000000  1
  Cd  Cd17  1  0.500000  0.000000  0.500000  1
  Cd  Cd18  1  0.000000  0.000000  0.500000  1
  Cd  Cd19  1  0.500000  0.500000  0.000000  1
  Cd  Cd20  1  0.332811  0.332811  0.332811  1
  Cd  Cd21  1  0.667189  0.667189  0.667189  1
  Cd  Cd22  1  0.332811  0.332811  0.001566  1
  Cd  Cd23  1  0.332811  0.001566  0.332811  1
  Cd  Cd24  1  0.667189  0.667189  0.998434  1
  Cd  Cd25  1  0.667189  0.998434  0.667189  1
  Cd  Cd26  1  0.001566  0.332811  0.332811  1
  Cd  Cd27  1  0.998434  0.667189  0.667189  1
  Cd  Cd28  1  0.000000  0.000000  0.000000  1
  Ge  Ge29  1  0.500000  0.500000  0.500000  1
