# generated using pymatgen
data_Tb16ErSc3Sn16
_symmetry_space_group_name_H-M   'P 1'
_cell_length_a   7.94884700
_cell_length_b   8.13326530
_cell_length_c   15.43291500
_cell_angle_alpha   90.00000000
_cell_angle_beta   90.00000000
_cell_angle_gamma   90.06540933
_symmetry_Int_Tables_number   1
_chemical_formula_structural   Tb16ErSc3Sn16
_chemical_formula_sum   'Tb16 Er1 Sc3 Sn16'
_cell_volume   997.73856205
_cell_formula_units_Z   1
loop_
 _symmetry_equiv_pos_site_id
 _symmetry_equiv_pos_as_xyz
  1  'x, y, z'
loop_
 _atom_site_type_symbol
 _atom_site_label
 _atom_site_symmetry_multiplicity
 _atom_site_fract_x
 _atom_site_fract_y
 _atom_site_fract_z
 _atom_site_occupancy
  Tb  Tb0  1  0.363473  0.838765  0.875490  1
  Tb  Tb1  1  0.863560  0.660927  0.623994  1
  Tb  Tb2  1  0.636878  0.161965  0.377451  1
  Tb  Tb3  1  0.136209  0.339043  0.122650  1
  Tb  Tb4  1  0.636878  0.161965  0.122549  1
  Tb  Tb5  1  0.136209  0.339043  0.377350  1
  Tb  Tb6  1  0.363473  0.838765  0.624510  1
  Tb  Tb7  1  0.863560  0.660927  0.876006  1
  Tb  Tb8  1  0.519685  0.319932  0.903399  1
  Tb  Tb9  1  0.019800  0.179737  0.597006  1
  Tb  Tb10  1  0.481133  0.679462  0.404235  1
  Tb  Tb11  1  0.980539  0.819948  0.095633  1
  Tb  Tb12  1  0.481133  0.679462  0.095765  1
  Tb  Tb13  1  0.980539  0.819948  0.404367  1
  Tb  Tb14  1  0.519685  0.319932  0.596601  1
  Tb  Tb15  1  0.019800  0.179737  0.902994  1
  Er  Er16  1  0.305548  0.002922  0.250000  1
  Sc  Sc17  1  0.194992  0.502417  0.750000  1
  Sc  Sc18  1  0.695055  0.997127  0.750000  1
  Sc  Sc19  1  0.804654  0.496720  0.250000  1
  Sn  Sn20  1  0.295955  0.036875  0.041644  1
  Sn  Sn21  1  0.795790  0.464595  0.456150  1
  Sn  Sn22  1  0.704442  0.964035  0.545061  1
  Sn  Sn23  1  0.204497  0.535705  0.954934  1
  Sn  Sn24  1  0.704442  0.964035  0.954939  1
  Sn  Sn25  1  0.204497  0.535705  0.545066  1
  Sn  Sn26  1  0.295955  0.036875  0.458356  1
  Sn  Sn27  1  0.795790  0.464595  0.043850  1
  Sn  Sn28  1  0.556075  0.614399  0.750000  1
  Sn  Sn29  1  0.055835  0.884928  0.750000  1
  Sn  Sn30  1  0.444362  0.387031  0.250000  1
  Sn  Sn31  1  0.938830  0.118608  0.250000  1
  Sn  Sn32  1  0.328482  0.154455  0.750000  1
  Sn  Sn33  1  0.828300  0.345723  0.750000  1
  Sn  Sn34  1  0.675601  0.844822  0.250000  1
  Sn  Sn35  1  0.168345  0.648869  0.250000  1
