# generated using pymatgen
data_TbCe4Dy3(ReB6)4
_symmetry_space_group_name_H-M   'P 1'
_cell_length_a   3.73171900
_cell_length_b   9.22071201
_cell_length_c   11.59561702
_cell_angle_alpha   89.99379626
_cell_angle_beta   90.00000000
_cell_angle_gamma   90.00000000
_symmetry_Int_Tables_number   1
_chemical_formula_structural   TbCe4Dy3(ReB6)4
_chemical_formula_sum   'Tb1 Ce4 Dy3 Re4 B24'
_cell_volume   398.99481522
_cell_formula_units_Z   1
loop_
 _symmetry_equiv_pos_site_id
 _symmetry_equiv_pos_as_xyz
  1  'x, y, z'
loop_
 _atom_site_type_symbol
 _atom_site_label
 _atom_site_symmetry_multiplicity
 _atom_site_fract_x
 _atom_site_fract_y
 _atom_site_fract_z
 _atom_site_occupancy
  Tb  Tb0  1  0.000000  0.555400  0.873109  1
  Ce  Ce1  1  0.000000  0.323164  0.413817  1
  Ce  Ce2  1  0.000000  0.676884  0.586010  1
  Ce  Ce3  1  0.000000  0.823184  0.086246  1
  Ce  Ce4  1  0.000000  0.176738  0.913921  1
  Dy  Dy5  1  0.000000  0.944582  0.373020  1
  Dy  Dy6  1  0.000000  0.055428  0.626953  1
  Dy  Dy7  1  0.000000  0.444542  0.127110  1
  Re  Re8  1  0.000000  0.638583  0.321236  1
  Re  Re9  1  0.000000  0.361192  0.678606  1
  Re  Re10  1  0.000000  0.138578  0.178788  1
  Re  Re11  1  0.000000  0.861742  0.821210  1
  B  B12  1  0.500000  0.554279  0.431741  1
  B  B13  1  0.500000  0.445689  0.568195  1
  B  B14  1  0.500000  0.054318  0.068244  1
  B  B15  1  0.500000  0.945763  0.931759  1
  B  B16  1  0.500000  0.748125  0.418942  1
  B  B17  1  0.500000  0.251874  0.581024  1
  B  B18  1  0.500000  0.248083  0.081037  1
  B  B19  1  0.500000  0.752147  0.918950  1
  B  B20  1  0.500000  0.791571  0.266631  1
  B  B21  1  0.500000  0.208368  0.733373  1
  B  B22  1  0.500000  0.291585  0.233402  1
  B  B23  1  0.500000  0.708666  0.766546  1
  B  B24  1  0.500000  0.632231  0.186401  1
  B  B25  1  0.500000  0.367548  0.813496  1
  B  B26  1  0.500000  0.132221  0.313635  1
  B  B27  1  0.500000  0.867832  0.686341  1
  B  B28  1  0.500000  0.984219  0.212974  1
  B  B29  1  0.500000  0.015799  0.787040  1
  B  B30  1  0.500000  0.484219  0.287057  1
  B  B31  1  0.500000  0.515639  0.712768  1
  B  B32  1  0.500000  0.609115  0.030488  1
  B  B33  1  0.500000  0.390673  0.969951  1
  B  B34  1  0.500000  0.108983  0.469790  1
  B  B35  1  0.500000  0.891035  0.530192  1
