# generated using pymatgen
data_La6Pr2BiPd24
_symmetry_space_group_name_H-M   'P 1'
_cell_length_a   8.59475305
_cell_length_b   8.59475310
_cell_length_c   8.59475400
_cell_angle_alpha   90.02833873
_cell_angle_beta   90.02833873
_cell_angle_gamma   90.02834471
_symmetry_Int_Tables_number   1
_chemical_formula_structural   La6Pr2BiPd24
_chemical_formula_sum   'La6 Pr2 Bi1 Pd24'
_cell_volume   634.89235806
_cell_formula_units_Z   1
loop_
 _symmetry_equiv_pos_site_id
 _symmetry_equiv_pos_as_xyz
  1  'x, y, z'
loop_
 _atom_site_type_symbol
 _atom_site_label
 _atom_site_symmetry_multiplicity
 _atom_site_fract_x
 _atom_site_fract_y
 _atom_site_fract_z
 _atom_site_occupancy
  La  La0  1  0.748784  0.748784  0.251598  1
  La  La1  1  0.748784  0.251598  0.748784  1
  La  La2  1  0.251216  0.251216  0.748402  1
  La  La3  1  0.251216  0.748402  0.251216  1
  La  La4  1  0.251598  0.748784  0.748784  1
  La  La5  1  0.748402  0.251216  0.251216  1
  Pr  Pr6  1  0.250662  0.250662  0.250662  1
  Pr  Pr7  1  0.749338  0.749338  0.749338  1
  Bi  Bi8  1  0.000000  0.000000  0.000000  1
  Pd  Pd9  1  0.270940  0.499958  0.999974  1
  Pd  Pd10  1  0.729060  0.500042  0.000026  1
  Pd  Pd11  1  0.999974  0.270940  0.499958  1
  Pd  Pd12  1  0.499958  0.270940  0.999974  1
  Pd  Pd13  1  0.000026  0.729060  0.500042  1
  Pd  Pd14  1  0.500042  0.729060  0.000026  1
  Pd  Pd15  1  0.499958  0.999974  0.270940  1
  Pd  Pd16  1  0.270940  0.999974  0.499958  1
  Pd  Pd17  1  0.500042  0.000026  0.729060  1
  Pd  Pd18  1  0.729060  0.000026  0.500042  1
  Pd  Pd19  1  0.999974  0.499958  0.270940  1
  Pd  Pd20  1  0.000026  0.500042  0.729060  1
  Pd  Pd21  1  0.256284  0.499619  0.499619  1
  Pd  Pd22  1  0.743716  0.500381  0.500381  1
  Pd  Pd23  1  0.499619  0.256284  0.499619  1
  Pd  Pd24  1  0.500381  0.743716  0.500381  1
  Pd  Pd25  1  0.499619  0.499619  0.256284  1
  Pd  Pd26  1  0.500381  0.500381  0.743716  1
  Pd  Pd27  1  0.325712  0.000233  0.000233  1
  Pd  Pd28  1  0.674288  0.999767  0.999767  1
  Pd  Pd29  1  0.000233  0.325712  0.000233  1
  Pd  Pd30  1  0.999767  0.674288  0.999767  1
  Pd  Pd31  1  0.000233  0.000233  0.325712  1
  Pd  Pd32  1  0.999767  0.999767  0.674288  1
