# generated using pymatgen
data_Tb8Er8CdIn3Ir4
_symmetry_space_group_name_H-M   'P 1'
_cell_length_a   9.63232652
_cell_length_b   9.63181083
_cell_length_c   9.64406400
_cell_angle_alpha   59.95790848
_cell_angle_beta   59.95968245
_cell_angle_gamma   60.10338678
_symmetry_Int_Tables_number   1
_chemical_formula_structural   Tb8Er8CdIn3Ir4
_chemical_formula_sum   'Tb8 Er8 Cd1 In3 Ir4'
_cell_volume   632.77778649
_cell_formula_units_Z   1
loop_
 _symmetry_equiv_pos_site_id
 _symmetry_equiv_pos_as_xyz
  1  'x, y, z'
loop_
 _atom_site_type_symbol
 _atom_site_label
 _atom_site_symmetry_multiplicity
 _atom_site_fract_x
 _atom_site_fract_y
 _atom_site_fract_z
 _atom_site_occupancy
  Tb  Tb0  1  0.439312  0.438926  0.060881  1
  Tb  Tb1  1  0.059144  0.059530  0.440663  1
  Tb  Tb2  1  0.190753  0.811023  0.810805  1
  Tb  Tb3  1  0.811708  0.189215  0.188971  1
  Tb  Tb4  1  0.811708  0.189215  0.810106  1
  Tb  Tb5  1  0.190753  0.811023  0.187420  1
  Tb  Tb6  1  0.812544  0.810345  0.188555  1
  Tb  Tb7  1  0.191546  0.189066  0.809695  1
  Er  Er8  1  0.599068  0.598476  0.596358  1
  Er  Er9  1  0.599068  0.598476  0.206100  1
  Er  Er10  1  0.598963  0.204158  0.598441  1
  Er  Er11  1  0.203770  0.598889  0.598671  1
  Er  Er12  1  0.058492  0.439776  0.441993  1
  Er  Er13  1  0.438704  0.059964  0.060652  1
  Er  Er14  1  0.438704  0.059964  0.440680  1
  Er  Er15  1  0.058492  0.439776  0.059740  1
  Cd  Cd16  1  0.504524  0.831683  0.831897  1
  In  In17  1  0.830857  0.832515  0.832934  1
  In  In18  1  0.830857  0.832515  0.503695  1
  In  In19  1  0.830899  0.503875  0.832613  1
  Ir  Ir20  1  0.390919  0.391366  0.392559  1
  Ir  Ir21  1  0.390919  0.391366  0.825155  1
  Ir  Ir22  1  0.392593  0.825884  0.390761  1
  Ir  Ir23  1  0.825707  0.392977  0.390658  1
