# generated using pymatgen
data_TbHoReC2
_symmetry_space_group_name_H-M   'P 1'
_cell_length_a   5.12281600
_cell_length_b   6.58923300
_cell_length_c   9.87380500
_cell_angle_alpha   90.00000000
_cell_angle_beta   90.00000000
_cell_angle_gamma   90.00000000
_symmetry_Int_Tables_number   1
_chemical_formula_structural   TbHoReC2
_chemical_formula_sum   'Tb4 Ho4 Re4 C8'
_cell_volume   333.29451613
_cell_formula_units_Z   4
loop_
 _symmetry_equiv_pos_site_id
 _symmetry_equiv_pos_as_xyz
  1  'x, y, z'
loop_
 _atom_site_type_symbol
 _atom_site_label
 _atom_site_symmetry_multiplicity
 _atom_site_fract_x
 _atom_site_fract_y
 _atom_site_fract_z
 _atom_site_occupancy
  Tb  Tb0  1  0.750000  0.468902  0.784088  1
  Tb  Tb1  1  0.250000  0.031098  0.284088  1
  Tb  Tb2  1  0.750000  0.968902  0.715912  1
  Tb  Tb3  1  0.250000  0.531098  0.215912  1
  Ho  Ho4  1  0.750000  0.820175  0.056467  1
  Ho  Ho5  1  0.250000  0.679825  0.556467  1
  Ho  Ho6  1  0.750000  0.320175  0.443533  1
  Ho  Ho7  1  0.250000  0.179825  0.943533  1
  Re  Re8  1  0.750000  0.277175  0.134270  1
  Re  Re9  1  0.250000  0.222825  0.634270  1
  Re  Re10  1  0.750000  0.777175  0.365730  1
  Re  Re11  1  0.250000  0.722825  0.865730  1
  C  C12  1  0.750000  0.176179  0.951195  1
  C  C13  1  0.250000  0.823821  0.048805  1
  C  C14  1  0.750000  0.676179  0.548805  1
  C  C15  1  0.250000  0.323821  0.451195  1
  C  C16  1  0.750000  0.044124  0.259061  1
  C  C17  1  0.250000  0.455876  0.759061  1
  C  C18  1  0.750000  0.544124  0.240939  1
  C  C19  1  0.250000  0.955876  0.740939  1
