# generated using pymatgen
data_Tm20RuRh11
_symmetry_space_group_name_H-M   'P 1'
_cell_length_a   10.69466400
_cell_length_b   10.69466400
_cell_length_c   6.25239000
_cell_angle_alpha   90.00000000
_cell_angle_beta   90.00000000
_cell_angle_gamma   90.00000000
_symmetry_Int_Tables_number   1
_chemical_formula_structural   Tm20RuRh11
_chemical_formula_sum   'Tm20 Ru1 Rh11'
_cell_volume   715.12234621
_cell_formula_units_Z   1
loop_
 _symmetry_equiv_pos_site_id
 _symmetry_equiv_pos_as_xyz
  1  'x, y, z'
loop_
 _atom_site_type_symbol
 _atom_site_label
 _atom_site_symmetry_multiplicity
 _atom_site_fract_x
 _atom_site_fract_y
 _atom_site_fract_z
 _atom_site_occupancy
  Tm  Tm0  1  0.087515  0.292241  0.123017  1
  Tm  Tm1  1  0.792241  0.412485  0.123017  1
  Tm  Tm2  1  0.207759  0.587515  0.123017  1
  Tm  Tm3  1  0.912485  0.707759  0.123017  1
  Tm  Tm4  1  0.411718  0.790811  0.379530  1
  Tm  Tm5  1  0.588282  0.209189  0.379530  1
  Tm  Tm6  1  0.290811  0.088282  0.379530  1
  Tm  Tm7  1  0.709189  0.911718  0.379530  1
  Tm  Tm8  1  0.410951  0.209241  0.878948  1
  Tm  Tm9  1  0.709241  0.089049  0.878948  1
  Tm  Tm10  1  0.290759  0.910951  0.878948  1
  Tm  Tm11  1  0.589049  0.790759  0.878948  1
  Tm  Tm12  1  0.087553  0.707096  0.618078  1
  Tm  Tm13  1  0.912447  0.292904  0.618078  1
  Tm  Tm14  1  0.207096  0.412447  0.618078  1
  Tm  Tm15  1  0.792904  0.587553  0.618078  1
  Tm  Tm16  1  0.000000  0.000000  0.001132  1
  Tm  Tm17  1  0.500000  0.500000  0.001132  1
  Tm  Tm18  1  0.500000  0.500000  0.501352  1
  Tm  Tm19  1  0.000000  0.000000  0.501352  1
  Ru  Ru20  1  0.000000  0.500000  0.370188  1
  Rh  Rh21  1  0.154592  0.847441  0.249941  1
  Rh  Rh22  1  0.347441  0.345408  0.249941  1
  Rh  Rh23  1  0.652559  0.654592  0.249941  1
  Rh  Rh24  1  0.845408  0.152559  0.249941  1
  Rh  Rh25  1  0.347009  0.653918  0.750146  1
  Rh  Rh26  1  0.153918  0.152991  0.750146  1
  Rh  Rh27  1  0.846082  0.847009  0.750146  1
  Rh  Rh28  1  0.652991  0.346082  0.750146  1
  Rh  Rh29  1  0.500000  0.000000  0.126624  1
  Rh  Rh30  1  0.500000  0.000000  0.627391  1
  Rh  Rh31  1  0.000000  0.500000  0.872186  1
