# generated using pymatgen
data_Tb18CdSnIr12
_symmetry_space_group_name_H-M   'P 1'
_cell_length_a   10.87265200
_cell_length_b   10.87265200
_cell_length_c   6.28110100
_cell_angle_alpha   90.00000000
_cell_angle_beta   90.00000000
_cell_angle_gamma   90.00000000
_symmetry_Int_Tables_number   1
_chemical_formula_structural   Tb18CdSnIr12
_chemical_formula_sum   'Tb18 Cd1 Sn1 Ir12'
_cell_volume   742.51760053
_cell_formula_units_Z   1
loop_
 _symmetry_equiv_pos_site_id
 _symmetry_equiv_pos_as_xyz
  1  'x, y, z'
loop_
 _atom_site_type_symbol
 _atom_site_label
 _atom_site_symmetry_multiplicity
 _atom_site_fract_x
 _atom_site_fract_y
 _atom_site_fract_z
 _atom_site_occupancy
  Tb  Tb0  1  0.282141  0.084850  0.378853  1
  Tb  Tb1  1  0.292005  0.912301  0.875457  1
  Tb  Tb2  1  0.707995  0.087699  0.875457  1
  Tb  Tb3  1  0.717859  0.915150  0.378853  1
  Tb  Tb4  1  0.585194  0.785264  0.879535  1
  Tb  Tb5  1  0.587816  0.207271  0.376492  1
  Tb  Tb6  1  0.412184  0.792729  0.376492  1
  Tb  Tb7  1  0.414806  0.214736  0.879535  1
  Tb  Tb8  1  0.207271  0.412184  0.623508  1
  Tb  Tb9  1  0.214736  0.585194  0.120465  1
  Tb  Tb10  1  0.785264  0.414806  0.120465  1
  Tb  Tb11  1  0.792729  0.587816  0.623508  1
  Tb  Tb12  1  0.912301  0.707995  0.124543  1
  Tb  Tb13  1  0.915150  0.282141  0.621147  1
  Tb  Tb14  1  0.084850  0.717859  0.621147  1
  Tb  Tb15  1  0.087699  0.292005  0.124543  1
  Tb  Tb16  1  0.000000  0.000000  0.000000  1
  Tb  Tb17  1  0.500000  0.500000  0.500000  1
  Cd  Cd18  1  0.000000  0.000000  0.500000  1
  Sn  Sn19  1  0.500000  0.500000  0.000000  1
  Ir  Ir20  1  0.845030  0.160727  0.236834  1
  Ir  Ir21  1  0.839273  0.845030  0.763166  1
  Ir  Ir22  1  0.160727  0.154970  0.763166  1
  Ir  Ir23  1  0.154970  0.839273  0.236834  1
  Ir  Ir24  1  0.656992  0.347254  0.743436  1
  Ir  Ir25  1  0.652746  0.656992  0.256564  1
  Ir  Ir26  1  0.347254  0.343008  0.256564  1
  Ir  Ir27  1  0.343008  0.652746  0.743436  1
  Ir  Ir28  1  0.500000  0.000000  0.119969  1
  Ir  Ir29  1  0.500000  0.000000  0.617476  1
  Ir  Ir30  1  0.000000  0.500000  0.880031  1
  Ir  Ir31  1  0.000000  0.500000  0.382524  1
