# generated using pymatgen
data_Dy18Y2Cd6CoNi
_symmetry_space_group_name_H-M   'P 1'
_cell_length_a   9.61248900
_cell_length_b   9.61249032
_cell_length_c   9.74922700
_cell_angle_alpha   90.00000000
_cell_angle_beta   90.00000000
_cell_angle_gamma   119.99944940
_symmetry_Int_Tables_number   1
_chemical_formula_structural   Dy18Y2Cd6CoNi
_chemical_formula_sum   'Dy18 Y2 Cd6 Co1 Ni1'
_cell_volume   780.14439967
_cell_formula_units_Z   1
loop_
 _symmetry_equiv_pos_site_id
 _symmetry_equiv_pos_as_xyz
  1  'x, y, z'
loop_
 _atom_site_type_symbol
 _atom_site_label
 _atom_site_symmetry_multiplicity
 _atom_site_fract_x
 _atom_site_fract_y
 _atom_site_fract_z
 _atom_site_occupancy
  Dy  Dy0  1  0.000003  0.999997  0.499812  1
  Dy  Dy1  1  0.000003  0.999997  0.000188  1
  Dy  Dy2  1  0.542739  0.457261  0.250000  1
  Dy  Dy3  1  0.456437  0.543563  0.750000  1
  Dy  Dy4  1  0.456422  0.912862  0.750000  1
  Dy  Dy5  1  0.087138  0.543578  0.750000  1
  Dy  Dy6  1  0.211700  0.788300  0.435799  1
  Dy  Dy7  1  0.211748  0.423403  0.435777  1
  Dy  Dy8  1  0.576597  0.788252  0.435777  1
  Dy  Dy9  1  0.789376  0.210624  0.563078  1
  Dy  Dy10  1  0.789329  0.578720  0.563041  1
  Dy  Dy11  1  0.421280  0.210671  0.563041  1
  Dy  Dy12  1  0.789376  0.210624  0.936922  1
  Dy  Dy13  1  0.789329  0.578720  0.936959  1
  Dy  Dy14  1  0.421280  0.210671  0.936959  1
  Dy  Dy15  1  0.211700  0.788300  0.064201  1
  Dy  Dy16  1  0.211748  0.423403  0.064223  1
  Dy  Dy17  1  0.576597  0.788252  0.064223  1
  Y  Y18  1  0.542765  0.085553  0.250000  1
  Y  Y19  1  0.914447  0.457235  0.250000  1
  Cd  Cd20  1  0.884544  0.115456  0.250000  1
  Cd  Cd21  1  0.884497  0.769039  0.250000  1
  Cd  Cd22  1  0.230961  0.115503  0.250000  1
  Cd  Cd23  1  0.115634  0.884366  0.750000  1
  Cd  Cd24  1  0.115624  0.231263  0.750000  1
  Cd  Cd25  1  0.768737  0.884376  0.750000  1
  Co  Co26  1  0.333332  0.666668  0.250000  1
  Ni  Ni27  1  0.666661  0.333339  0.750000  1
