# generated using pymatgen
data_Nd3Mg2ScPtPb2
_symmetry_space_group_name_H-M   'P 1'
_cell_length_a   7.87566259
_cell_length_b   7.76947016
_cell_length_c   4.52587300
_cell_angle_alpha   90.00000000
_cell_angle_beta   90.00000000
_cell_angle_gamma   119.55495992
_symmetry_Int_Tables_number   1
_chemical_formula_structural   Nd3Mg2ScPtPb2
_chemical_formula_sum   'Nd3 Mg2 Sc1 Pt1 Pb2'
_cell_volume   240.90270970
_cell_formula_units_Z   1
loop_
 _symmetry_equiv_pos_site_id
 _symmetry_equiv_pos_as_xyz
  1  'x, y, z'
loop_
 _atom_site_type_symbol
 _atom_site_label
 _atom_site_symmetry_multiplicity
 _atom_site_fract_x
 _atom_site_fract_y
 _atom_site_fract_z
 _atom_site_occupancy
  Nd  Nd0  1  0.397690  0.393077  0.000000  1
  Nd  Nd1  1  0.602310  0.995386  0.000000  1
  Nd  Nd2  1  0.000000  0.609704  0.000000  1
  Mg  Mg3  1  0.768796  0.767609  0.500000  1
  Mg  Mg4  1  0.231204  0.998813  0.500000  1
  Sc  Sc5  1  0.000000  0.221093  0.500000  1
  Pt  Pt6  1  0.000000  0.017006  0.000000  1
  Pb  Pb7  1  0.670521  0.333916  0.500000  1
  Pb  Pb8  1  0.329479  0.663396  0.500000  1
