# generated using pymatgen
data_Ho3ErLuInAu4
_symmetry_space_group_name_H-M   'P 1'
_cell_length_a   8.03544708
_cell_length_b   8.03793808
_cell_length_c   3.72115900
_cell_angle_alpha   90.00000000
_cell_angle_beta   90.00000000
_cell_angle_gamma   89.98388071
_symmetry_Int_Tables_number   1
_chemical_formula_structural   Ho3ErLuInAu4
_chemical_formula_sum   'Ho3 Er1 Lu1 In1 Au4'
_cell_volume   240.34379344
_cell_formula_units_Z   1
loop_
 _symmetry_equiv_pos_site_id
 _symmetry_equiv_pos_as_xyz
  1  'x, y, z'
loop_
 _atom_site_type_symbol
 _atom_site_label
 _atom_site_symmetry_multiplicity
 _atom_site_fract_x
 _atom_site_fract_y
 _atom_site_fract_z
 _atom_site_occupancy
  Ho  Ho0  1  0.683105  0.145122  0.500000  1
  Ho  Ho1  1  0.317010  0.854692  0.500000  1
  Ho  Ho2  1  0.145073  0.317325  0.500000  1
  Er  Er3  1  0.854873  0.682602  0.500000  1
  Lu  Lu4  1  0.500127  0.500128  0.000000  1
  In  In5  1  0.999572  0.999184  0.000000  1
  Au  Au6  1  0.145899  0.618859  0.000000  1
  Au  Au7  1  0.853243  0.382590  0.000000  1
  Au  Au8  1  0.619320  0.852990  0.000000  1
  Au  Au9  1  0.381779  0.146507  0.000000  1
