# generated using pymatgen
data_Tm7Th(Si3Pt)4
_symmetry_space_group_name_H-M   'P 1'
_cell_length_a   8.17720000
_cell_length_b   8.18561444
_cell_length_c   7.85748800
_cell_angle_alpha   90.00000000
_cell_angle_beta   90.00000000
_cell_angle_gamma   119.96599329
_symmetry_Int_Tables_number   1
_chemical_formula_structural   Tm7Th(Si3Pt)4
_chemical_formula_sum   'Tm7 Th1 Si12 Pt4'
_cell_volume   455.63699830
_cell_formula_units_Z   1
loop_
 _symmetry_equiv_pos_site_id
 _symmetry_equiv_pos_as_xyz
  1  'x, y, z'
loop_
 _atom_site_type_symbol
 _atom_site_label
 _atom_site_symmetry_multiplicity
 _atom_site_fract_x
 _atom_site_fract_y
 _atom_site_fract_z
 _atom_site_occupancy
  Tm  Tm0  1  0.488810  0.977621  0.750000  1
  Tm  Tm1  1  0.980772  0.489629  0.250000  1
  Tm  Tm2  1  0.023325  0.511514  0.750000  1
  Tm  Tm3  1  0.508858  0.489629  0.250000  1
  Tm  Tm4  1  0.488188  0.511514  0.750000  1
  Tm  Tm5  1  0.000136  0.000273  0.250000  1
  Tm  Tm6  1  0.999627  0.999254  0.750000  1
  Th  Th7  1  0.510196  0.020392  0.250000  1
  Si  Si8  1  0.164328  0.328654  0.003613  1
  Si  Si9  1  0.834612  0.669224  0.998042  1
  Si  Si10  1  0.671427  0.834921  0.000548  1
  Si  Si11  1  0.834612  0.669224  0.501958  1
  Si  Si12  1  0.329943  0.166238  0.992168  1
  Si  Si13  1  0.164328  0.328654  0.496387  1
  Si  Si14  1  0.163495  0.834921  0.000548  1
  Si  Si15  1  0.329943  0.166238  0.507832  1
  Si  Si16  1  0.836294  0.166238  0.992168  1
  Si  Si17  1  0.671427  0.834921  0.499452  1
  Si  Si18  1  0.836294  0.166238  0.507832  1
  Si  Si19  1  0.163495  0.834921  0.499452  1
  Pt  Pt20  1  0.332009  0.664019  0.024653  1
  Pt  Pt21  1  0.667937  0.335872  0.956788  1
  Pt  Pt22  1  0.667937  0.335872  0.543212  1
  Pt  Pt23  1  0.332009  0.664019  0.475347  1
