# generated using pymatgen
data_Na2Sn2Hg3Se8
_symmetry_space_group_name_H-M   'P 1'
_cell_length_a   7.09401240
_cell_length_b   9.56090803
_cell_length_c   14.11535043
_cell_angle_alpha   87.29332384
_cell_angle_beta   90.06576788
_cell_angle_gamma   90.03373124
_symmetry_Int_Tables_number   1
_chemical_formula_structural   Na2Sn2Hg3Se8
_chemical_formula_sum   'Na4 Sn4 Hg6 Se16'
_cell_volume   956.30763116
_cell_formula_units_Z   2
loop_
 _symmetry_equiv_pos_site_id
 _symmetry_equiv_pos_as_xyz
  1  'x, y, z'
loop_
 _atom_site_type_symbol
 _atom_site_label
 _atom_site_symmetry_multiplicity
 _atom_site_fract_x
 _atom_site_fract_y
 _atom_site_fract_z
 _atom_site_occupancy
  Na  Na0  1  0.882886  0.290572  0.309230  1
  Na  Na1  1  0.383418  0.709483  0.192300  1
  Na  Na2  1  0.614328  0.291194  0.805525  1
  Na  Na3  1  0.117327  0.710694  0.690389  1
  Sn  Sn4  1  0.659223  0.774777  0.913787  1
  Sn  Sn5  1  0.340977  0.225315  0.086448  1
  Sn  Sn6  1  0.159683  0.225311  0.585280  1
  Sn  Sn7  1  0.841081  0.773979  0.414952  1
  Hg  Hg8  1  0.311173  0.994503  0.364222  1
  Hg  Hg9  1  0.188571  0.994639  0.865404  1
  Hg  Hg10  1  0.690049  0.005156  0.635650  1
  Hg  Hg11  1  0.500020  0.499693  0.499853  1
  Hg  Hg12  1  0.809546  0.004650  0.135961  1
  Hg  Hg13  1  0.000236  0.499872  0.999837  1
  Se  Se14  1  0.305397  0.736012  0.888789  1
  Se  Se15  1  0.169188  0.440174  0.155067  1
  Se  Se16  1  0.252126  0.253104  0.909475  1
  Se  Se17  1  0.195125  0.735872  0.391211  1
  Se  Se18  1  0.830984  0.560150  0.844874  1
  Se  Se19  1  0.805616  0.263607  0.608445  1
  Se  Se20  1  0.669419  0.559811  0.345134  1
  Se  Se21  1  0.747989  0.746711  0.090744  1
  Se  Se22  1  0.295821  0.001879  0.662975  1
  Se  Se23  1  0.330207  0.440594  0.654614  1
  Se  Se24  1  0.249095  0.253242  0.408577  1
  Se  Se25  1  0.705340  0.998332  0.337851  1
  Se  Se26  1  0.694779  0.263673  0.111349  1
  Se  Se27  1  0.750683  0.746406  0.591607  1
  Se  Se28  1  0.204659  0.000856  0.162697  1
  Se  Se29  1  0.795051  0.999737  0.837753  1
