# generated using pymatgen
data_Li6Si6Pd11Ru
_symmetry_space_group_name_H-M   'P 1'
_cell_length_a   4.21062201
_cell_length_b   5.88453000
_cell_length_c   12.68423304
_cell_angle_alpha   90.00037020
_cell_angle_beta   89.99104672
_cell_angle_gamma   90.00001362
_symmetry_Int_Tables_number   1
_chemical_formula_structural   Li6Si6Pd11Ru
_chemical_formula_sum   'Li6 Si6 Pd11 Ru1'
_cell_volume   314.28398051
_cell_formula_units_Z   1
loop_
 _symmetry_equiv_pos_site_id
 _symmetry_equiv_pos_as_xyz
  1  'x, y, z'
loop_
 _atom_site_type_symbol
 _atom_site_label
 _atom_site_symmetry_multiplicity
 _atom_site_fract_x
 _atom_site_fract_y
 _atom_site_fract_z
 _atom_site_occupancy
  Li  Li0  1  0.000037  0.002369  0.000345  1
  Li  Li1  1  0.499533  0.499779  0.166751  1
  Li  Li2  1  0.999503  0.000717  0.333336  1
  Li  Li3  1  0.500013  0.499814  0.499898  1
  Li  Li4  1  0.000443  0.002386  0.666324  1
  Li  Li5  1  0.500349  0.494194  0.833341  1
  Si  Si6  1  0.000057  0.508865  0.993187  1
  Si  Si7  1  0.499542  0.001215  0.167909  1
  Si  Si8  1  0.999520  0.499316  0.333334  1
  Si  Si9  1  0.500015  0.001212  0.498758  1
  Si  Si10  1  0.000456  0.508872  0.673481  1
  Si  Si11  1  0.500483  0.982474  0.833334  1
  Pd  Pd12  1  0.500062  0.251225  0.999985  1
  Pd  Pd13  1  0.500088  0.748979  0.999384  1
  Pd  Pd14  1  0.999482  0.250516  0.163974  1
  Pd  Pd15  1  0.999559  0.751844  0.164519  1
  Pd  Pd16  1  0.499425  0.252038  0.333339  1
  Pd  Pd17  1  0.499500  0.747554  0.333329  1
  Pd  Pd18  1  0.000031  0.250528  0.502703  1
  Pd  Pd19  1  0.000029  0.751852  0.502153  1
  Pd  Pd20  1  0.500479  0.251241  0.666672  1
  Pd  Pd21  1  0.500457  0.748978  0.667282  1
  Pd  Pd22  1  0.000498  0.245372  0.833330  1
  Ru  Ru23  1  0.000446  0.748665  0.833331  1
