# generated using pymatgen
data_DyLu5V2(Co4P3)4
_symmetry_space_group_name_H-M   'P 1'
_cell_length_a   3.65671000
_cell_length_b   10.48820900
_cell_length_c   12.13938100
_cell_angle_alpha   90.00000000
_cell_angle_beta   90.00000000
_cell_angle_gamma   90.00000000
_symmetry_Int_Tables_number   1
_chemical_formula_structural   DyLu5V2(Co4P3)4
_chemical_formula_sum   'Dy1 Lu5 V2 Co16 P12'
_cell_volume   465.57365211
_cell_formula_units_Z   1
loop_
 _symmetry_equiv_pos_site_id
 _symmetry_equiv_pos_as_xyz
  1  'x, y, z'
loop_
 _atom_site_type_symbol
 _atom_site_label
 _atom_site_symmetry_multiplicity
 _atom_site_fract_x
 _atom_site_fract_y
 _atom_site_fract_z
 _atom_site_occupancy
  Dy  Dy0  1  0.500000  0.000000  0.475869  1
  Lu  Lu1  1  0.000000  0.500000  0.523965  1
  Lu  Lu2  1  0.500000  0.818934  0.204018  1
  Lu  Lu3  1  0.500000  0.181066  0.204018  1
  Lu  Lu4  1  0.000000  0.680732  0.795638  1
  Lu  Lu5  1  0.000000  0.319268  0.795638  1
  V  V6  1  0.500000  0.500000  0.155380  1
  V  V7  1  0.000000  0.000000  0.845582  1
  Co  Co8  1  0.500000  0.500000  0.701688  1
  Co  Co9  1  0.000000  0.000000  0.296973  1
  Co  Co10  1  0.000000  0.500000  0.986406  1
  Co  Co11  1  0.500000  0.000000  0.013397  1
  Co  Co12  1  0.500000  0.332541  0.992606  1
  Co  Co13  1  0.500000  0.667459  0.992606  1
  Co  Co14  1  0.000000  0.167819  0.007376  1
  Co  Co15  1  0.000000  0.832181  0.007376  1
  Co  Co16  1  0.500000  0.297219  0.431325  1
  Co  Co17  1  0.500000  0.702781  0.431325  1
  Co  Co18  1  0.000000  0.205434  0.568819  1
  Co  Co19  1  0.000000  0.794566  0.568819  1
  Co  Co20  1  0.500000  0.877303  0.707771  1
  Co  Co21  1  0.500000  0.122697  0.707771  1
  Co  Co22  1  0.000000  0.621933  0.292581  1
  Co  Co23  1  0.000000  0.378067  0.292581  1
  P  P24  1  0.500000  0.500000  0.880710  1
  P  P25  1  0.000000  0.000000  0.118782  1
  P  P26  1  0.500000  0.500000  0.349680  1
  P  P27  1  0.000000  0.000000  0.652370  1
  P  P28  1  0.500000  0.313077  0.616691  1
  P  P29  1  0.500000  0.686923  0.616691  1
  P  P30  1  0.000000  0.188594  0.382641  1
  P  P31  1  0.000000  0.811406  0.382641  1
  P  P32  1  0.500000  0.844765  0.890941  1
  P  P33  1  0.500000  0.155235  0.890941  1
  P  P34  1  0.000000  0.654831  0.109191  1
  P  P35  1  0.000000  0.345169  0.109191  1
