# generated using pymatgen
data_Tb7(YTl4)5
_symmetry_space_group_name_H-M   'P 1'
_cell_length_a   6.65432508
_cell_length_b   10.56551812
_cell_length_c   12.49852710
_cell_angle_alpha   89.99226497
_cell_angle_beta   90.00121166
_cell_angle_gamma   90.00306070
_symmetry_Int_Tables_number   1
_chemical_formula_structural   Tb7(YTl4)5
_chemical_formula_sum   'Tb7 Y5 Tl20'
_cell_volume   878.72633937
_cell_formula_units_Z   1
loop_
 _symmetry_equiv_pos_site_id
 _symmetry_equiv_pos_as_xyz
  1  'x, y, z'
loop_
 _atom_site_type_symbol
 _atom_site_label
 _atom_site_symmetry_multiplicity
 _atom_site_fract_x
 _atom_site_fract_y
 _atom_site_fract_z
 _atom_site_occupancy
  Tb  Tb0  1  0.616126  0.992725  0.858538  1
  Tb  Tb1  1  0.115785  0.007383  0.641453  1
  Tb  Tb2  1  0.384177  0.492749  0.141735  1
  Tb  Tb3  1  0.115820  0.492652  0.641523  1
  Tb  Tb4  1  0.384148  0.007112  0.141626  1
  Tb  Tb5  1  0.884071  0.992838  0.358404  1
  Tb  Tb6  1  0.616186  0.507335  0.858582  1
  Y  Y7  1  0.862054  0.749956  0.050483  1
  Y  Y8  1  0.637849  0.749957  0.550201  1
  Y  Y9  1  0.137888  0.250029  0.949766  1
  Y  Y10  1  0.361931  0.250009  0.449578  1
  Y  Y11  1  0.883814  0.507259  0.358257  1
  Tl  Tl12  1  0.866563  0.039670  0.102165  1
  Tl  Tl13  1  0.633271  0.460362  0.602436  1
  Tl  Tl14  1  0.133641  0.539613  0.897693  1
  Tl  Tl15  1  0.366491  0.960298  0.397822  1
  Tl  Tl16  1  0.133478  0.960353  0.897671  1
  Tl  Tl17  1  0.366207  0.539731  0.397837  1
  Tl  Tl18  1  0.866582  0.460300  0.102178  1
  Tl  Tl19  1  0.633296  0.039658  0.602287  1
  Tl  Tl20  1  0.149655  0.750126  0.242493  1
  Tl  Tl21  1  0.350918  0.750007  0.742523  1
  Tl  Tl22  1  0.850804  0.250082  0.757448  1
  Tl  Tl23  1  0.649251  0.249922  0.257385  1
  Tl  Tl24  1  0.401033  0.750010  0.008384  1
  Tl  Tl25  1  0.098868  0.749961  0.508700  1
  Tl  Tl26  1  0.599032  0.249992  0.991429  1
  Tl  Tl27  1  0.900799  0.250098  0.491329  1
  Tl  Tl28  1  0.631311  0.750004  0.279555  1
  Tl  Tl29  1  0.868895  0.750042  0.779474  1
  Tl  Tl30  1  0.368793  0.249925  0.720636  1
  Tl  Tl31  1  0.131261  0.249844  0.220408  1
