# generated using pymatgen
data_Tm4Ga20Ni11
_symmetry_space_group_name_H-M   'P 1'
_cell_length_a   4.05537305
_cell_length_b   10.54269419
_cell_length_c   12.98286961
_cell_angle_alpha   80.58008022
_cell_angle_beta   80.85369357
_cell_angle_gamma   78.75782377
_symmetry_Int_Tables_number   1
_chemical_formula_structural   Tm4Ga20Ni11
_chemical_formula_sum   'Tm4 Ga20 Ni11'
_cell_volume   532.43459205
_cell_formula_units_Z   1
loop_
 _symmetry_equiv_pos_site_id
 _symmetry_equiv_pos_as_xyz
  1  'x, y, z'
loop_
 _atom_site_type_symbol
 _atom_site_label
 _atom_site_symmetry_multiplicity
 _atom_site_fract_x
 _atom_site_fract_y
 _atom_site_fract_z
 _atom_site_occupancy
  Tm  Tm0  1  0.122198  0.095444  0.665326  1
  Tm  Tm1  1  0.231821  0.366325  0.177279  1
  Tm  Tm2  1  0.773151  0.633805  0.821874  1
  Tm  Tm3  1  0.882903  0.904517  0.334053  1
  Ga  Ga4  1  0.067542  0.666293  0.202785  1
  Ga  Ga5  1  0.299743  0.901856  0.502242  1
  Ga  Ga6  1  0.608139  0.792241  0.003414  1
  Ga  Ga7  1  0.249821  0.796587  0.704777  1
  Ga  Ga8  1  0.890215  0.671082  0.547873  1
  Ga  Ga9  1  0.755085  0.203530  0.294538  1
  Ga  Ga10  1  0.634252  0.940434  0.801226  1
  Ga  Ga11  1  0.705154  0.098154  0.497087  1
  Ga  Ga12  1  0.397562  0.208158  0.995961  1
  Ga  Ga13  1  0.937527  0.334059  0.796169  1
  Ga  Ga14  1  0.461973  0.704515  0.376774  1
  Ga  Ga15  1  0.994447  0.922718  0.091010  1
  Ga  Ga16  1  0.802674  0.400033  0.003219  1
  Ga  Ga17  1  0.542965  0.295220  0.622589  1
  Ga  Ga18  1  0.011174  0.077684  0.908319  1
  Ga  Ga19  1  0.202348  0.600228  0.995899  1
  Ga  Ga20  1  0.114130  0.328874  0.451104  1
  Ga  Ga21  1  0.371196  0.059827  0.198201  1
  Ga  Ga22  1  0.615514  0.469947  0.307023  1
  Ga  Ga23  1  0.389472  0.530230  0.691802  1
  Ni  Ni24  1  0.140795  0.837166  0.894549  1
  Ni  Ni25  1  0.506279  0.182691  0.811240  1
  Ni  Ni26  1  0.865048  0.162930  0.104526  1
  Ni  Ni27  1  0.975297  0.436940  0.612514  1
  Ni  Ni28  1  0.503191  0.499414  0.499466  1
  Ni  Ni29  1  0.653631  0.578697  0.115548  1
  Ni  Ni30  1  0.030090  0.562738  0.386092  1
  Ni  Ni31  1  0.350209  0.421512  0.883582  1
  Ni  Ni32  1  0.251381  0.118488  0.385901  1
  Ni  Ni33  1  0.498428  0.817773  0.188455  1
  Ni  Ni34  1  0.753447  0.881814  0.613221  1
