# generated using pymatgen
data_PaGaNi4
_symmetry_space_group_name_H-M   'P 1'
_cell_length_a   4.78650999
_cell_length_b   4.78650992
_cell_length_c   4.08805800
_cell_angle_alpha   90.00000000
_cell_angle_beta   90.00000000
_cell_angle_gamma   117.55668335
_symmetry_Int_Tables_number   1
_chemical_formula_structural   PaGaNi4
_chemical_formula_sum   'Pa1 Ga1 Ni4'
_cell_volume   83.03476740
_cell_formula_units_Z   1
loop_
 _symmetry_equiv_pos_site_id
 _symmetry_equiv_pos_as_xyz
  1  'x, y, z'
loop_
 _atom_site_type_symbol
 _atom_site_label
 _atom_site_symmetry_multiplicity
 _atom_site_fract_x
 _atom_site_fract_y
 _atom_site_fract_z
 _atom_site_occupancy
  Pa  Pa0  1  0.000000  0.000000  0.000000  1
  Ga  Ga1  1  0.500000  0.500000  0.500000  1
  Ni  Ni2  1  0.000000  0.500000  0.500000  1
  Ni  Ni3  1  0.327991  0.672009  0.000000  1
  Ni  Ni4  1  0.672009  0.327991  0.000000  1
  Ni  Ni5  1  0.500000  0.000000  0.500000  1
