# generated using pymatgen
data_Sc6ZnCo5Sn6
_symmetry_space_group_name_H-M   'P 1'
_cell_length_a   7.36105100
_cell_length_b   7.36104974
_cell_length_c   6.91431000
_cell_angle_alpha   90.00000000
_cell_angle_beta   90.00000000
_cell_angle_gamma   120.00000116
_symmetry_Int_Tables_number   1
_chemical_formula_structural   Sc6ZnCo5Sn6
_chemical_formula_sum   'Sc6 Zn1 Co5 Sn6'
_cell_volume   324.45842283
_cell_formula_units_Z   1
loop_
 _symmetry_equiv_pos_site_id
 _symmetry_equiv_pos_as_xyz
  1  'x, y, z'
loop_
 _atom_site_type_symbol
 _atom_site_label
 _atom_site_symmetry_multiplicity
 _atom_site_fract_x
 _atom_site_fract_y
 _atom_site_fract_z
 _atom_site_occupancy
  Sc  Sc0  1  0.384460  0.982419  0.241113  1
  Sc  Sc1  1  0.597958  0.615540  0.241113  1
  Sc  Sc2  1  0.017581  0.402042  0.241113  1
  Sc  Sc3  1  0.384136  0.981883  0.759018  1
  Sc  Sc4  1  0.597747  0.615864  0.759018  1
  Sc  Sc5  1  0.018117  0.402253  0.759018  1
  Zn  Zn6  1  0.666667  0.333333  0.501974  1
  Co  Co7  1  0.000000  0.000000  0.768942  1
  Co  Co8  1  0.000000  0.000000  0.230871  1
  Co  Co9  1  0.666667  0.333333  0.998481  1
  Co  Co10  1  0.333333  0.666667  0.499245  1
  Co  Co11  1  0.333333  0.666667  0.000660  1
  Sn  Sn12  1  0.284096  0.274550  0.999975  1
  Sn  Sn13  1  0.990454  0.715904  0.999975  1
  Sn  Sn14  1  0.004812  0.741156  0.499836  1
  Sn  Sn15  1  0.736343  0.995188  0.499836  1
  Sn  Sn16  1  0.258844  0.263657  0.499836  1
  Sn  Sn17  1  0.725450  0.009546  0.999975  1
