# generated using pymatgen
data_Pr9NdSn20Ir3Pd5
_symmetry_space_group_name_H-M   'P 1'
_cell_length_a   14.29974301
_cell_length_b   14.29765433
_cell_length_c   4.68413900
_cell_angle_alpha   90.00000000
_cell_angle_beta   90.00000000
_cell_angle_gamma   89.92906609
_symmetry_Int_Tables_number   1
_chemical_formula_structural   Pr9NdSn20Ir3Pd5
_chemical_formula_sum   'Pr9 Nd1 Sn20 Ir3 Pd5'
_cell_volume   957.68451826
_cell_formula_units_Z   1
loop_
 _symmetry_equiv_pos_site_id
 _symmetry_equiv_pos_as_xyz
  1  'x, y, z'
loop_
 _atom_site_type_symbol
 _atom_site_label
 _atom_site_symmetry_multiplicity
 _atom_site_fract_x
 _atom_site_fract_y
 _atom_site_fract_z
 _atom_site_occupancy
  Pr  Pr0  1  0.500851  0.496602  0.000000  1
  Pr  Pr1  1  0.001034  0.999551  0.000000  1
  Pr  Pr2  1  0.320088  0.820765  0.500000  1
  Pr  Pr3  1  0.175993  0.318415  0.500000  1
  Pr  Pr4  1  0.823202  0.680828  0.500000  1
  Pr  Pr5  1  0.892689  0.389465  0.500000  1
  Pr  Pr6  1  0.106887  0.610327  0.500000  1
  Pr  Pr7  1  0.393645  0.110780  0.500000  1
  Pr  Pr8  1  0.608880  0.891739  0.500000  1
  Nd  Nd9  1  0.676241  0.181592  0.500000  1
  Sn  Sn10  1  0.568720  0.071637  0.000000  1
  Sn  Sn11  1  0.431439  0.932785  0.000000  1
  Sn  Sn12  1  0.068678  0.429880  0.000000  1
  Sn  Sn13  1  0.932106  0.570400  0.000000  1
  Sn  Sn14  1  0.652731  0.700599  0.000000  1
  Sn  Sn15  1  0.347457  0.296424  0.000000  1
  Sn  Sn16  1  0.150779  0.796458  0.000000  1
  Sn  Sn17  1  0.848120  0.202357  0.000000  1
  Sn  Sn18  1  0.298951  0.652355  0.000000  1
  Sn  Sn19  1  0.699924  0.346746  0.000000  1
  Sn  Sn20  1  0.198609  0.152434  0.000000  1
  Sn  Sn21  1  0.800728  0.848274  0.000000  1
  Sn  Sn22  1  0.663485  0.500775  0.500000  1
  Sn  Sn23  1  0.337162  0.495894  0.500000  1
  Sn  Sn24  1  0.163049  0.997997  0.500000  1
  Sn  Sn25  1  0.837414  0.004213  0.500000  1
  Sn  Sn26  1  0.498745  0.662341  0.500000  1
  Sn  Sn27  1  0.503353  0.336744  0.500000  1
  Sn  Sn28  1  0.004509  0.162080  0.500000  1
  Sn  Sn29  1  0.995202  0.837498  0.500000  1
  Ir  Ir30  1  0.532228  0.256769  0.000000  1
  Ir  Ir31  1  0.031426  0.244614  0.000000  1
  Ir  Ir32  1  0.967124  0.755868  0.000000  1
  Pd  Pd33  1  0.745629  0.530701  0.000000  1
  Pd  Pd34  1  0.255283  0.468370  0.000000  1
  Pd  Pd35  1  0.244173  0.967989  0.000000  1
  Pd  Pd36  1  0.755046  0.031891  0.000000  1
  Pd  Pd37  1  0.468423  0.745843  0.000000  1
