# generated using pymatgen
data_Nd8HoThRu4
_symmetry_space_group_name_H-M   'P 1'
_cell_length_a   6.56370326
_cell_length_b   7.27241979
_cell_length_c   8.92681432
_cell_angle_alpha   96.48214684
_cell_angle_beta   111.57013129
_cell_angle_gamma   89.99999746
_symmetry_Int_Tables_number   1
_chemical_formula_structural   Nd8HoThRu4
_chemical_formula_sum   'Nd8 Ho1 Th1 Ru4'
_cell_volume   393.34048232
_cell_formula_units_Z   1
loop_
 _symmetry_equiv_pos_site_id
 _symmetry_equiv_pos_as_xyz
  1  'x, y, z'
loop_
 _atom_site_type_symbol
 _atom_site_label
 _atom_site_symmetry_multiplicity
 _atom_site_fract_x
 _atom_site_fract_y
 _atom_site_fract_z
 _atom_site_occupancy
  Nd  Nd0  1  0.978078  0.919215  0.183697  1
  Nd  Nd1  1  0.794381  0.580785  0.816303  1
  Nd  Nd2  1  0.015319  0.088420  0.814529  1
  Nd  Nd3  1  0.200790  0.411580  0.185471  1
  Nd  Nd4  1  0.647332  0.812085  0.434620  1
  Nd  Nd5  1  0.212712  0.687915  0.565380  1
  Nd  Nd6  1  0.359618  0.185348  0.569312  1
  Nd  Nd7  1  0.790306  0.314652  0.430688  1
  Ho  Ho8  1  0.569795  0.250000  0.000000  1
  Th  Th9  1  0.424805  0.750000  0.000000  1
  Ru  Ru10  1  0.805607  0.572718  0.208573  1
  Ru  Ru11  1  0.597034  0.927282  0.791427  1
  Ru  Ru12  1  0.197573  0.439152  0.790924  1
  Ru  Ru13  1  0.406649  0.060848  0.209076  1
