# generated using pymatgen
data_Pr8Nd2InSi4Ge
_symmetry_space_group_name_H-M   'P 1'
_cell_length_a   7.84427300
_cell_length_b   9.24547403
_cell_length_c   7.84427300
_cell_angle_alpha   115.10145255
_cell_angle_beta   90.00000000
_cell_angle_gamma   115.10145255
_symmetry_Int_Tables_number   1
_chemical_formula_structural   Pr8Nd2InSi4Ge
_chemical_formula_sum   'Pr8 Nd2 In1 Si4 Ge1'
_cell_volume   455.14373708
_cell_formula_units_Z   1
loop_
 _symmetry_equiv_pos_site_id
 _symmetry_equiv_pos_as_xyz
  1  'x, y, z'
loop_
 _atom_site_type_symbol
 _atom_site_label
 _atom_site_symmetry_multiplicity
 _atom_site_fract_x
 _atom_site_fract_y
 _atom_site_fract_z
 _atom_site_occupancy
  Pr  Pr0  1  0.524045  0.721476  0.672423  1
  Pr  Pr1  1  0.197434  0.721476  0.049054  1
  Pr  Pr2  1  0.672423  0.721476  0.197434  1
  Pr  Pr3  1  0.049054  0.721476  0.524045  1
  Pr  Pr4  1  0.450946  0.278524  0.302566  1
  Pr  Pr5  1  0.827577  0.278524  0.975955  1
  Pr  Pr6  1  0.302566  0.278524  0.827577  1
  Pr  Pr7  1  0.975955  0.278524  0.450946  1
  Nd  Nd8  1  0.974200  0.948400  0.974200  1
  Nd  Nd9  1  0.525800  0.051600  0.525800  1
  In  In10  1  0.750000  0.500000  0.750000  1
  Si  Si11  1  0.884562  0.000000  0.615438  1
  Si  Si12  1  0.115438  0.000000  0.384562  1
  Si  Si13  1  0.615438  0.000000  0.115438  1
  Si  Si14  1  0.384562  0.000000  0.884562  1
  Ge  Ge15  1  0.250000  0.500000  0.250000  1
