# generated using pymatgen
data_La5TcNi
_symmetry_space_group_name_H-M   'P 1'
_cell_length_a   9.17428863
_cell_length_b   9.17428995
_cell_length_c   7.36542720
_cell_angle_alpha   85.40437759
_cell_angle_beta   85.40437717
_cell_angle_gamma   42.46998057
_symmetry_Int_Tables_number   1
_chemical_formula_structural   La5TcNi
_chemical_formula_sum   'La10 Tc2 Ni2'
_cell_volume   417.02994929
_cell_formula_units_Z   2
loop_
 _symmetry_equiv_pos_site_id
 _symmetry_equiv_pos_as_xyz
  1  'x, y, z'
loop_
 _atom_site_type_symbol
 _atom_site_label
 _atom_site_symmetry_multiplicity
 _atom_site_fract_x
 _atom_site_fract_y
 _atom_site_fract_z
 _atom_site_occupancy
  La  La0  1  0.016267  0.800693  0.909380  1
  La  La1  1  0.199307  0.983733  0.590620  1
  La  La2  1  0.001696  0.189258  0.087148  1
  La  La3  1  0.810742  0.998304  0.412852  1
  La  La4  1  0.348619  0.217369  0.819150  1
  La  La5  1  0.782631  0.651381  0.680850  1
  La  La6  1  0.636841  0.780554  0.179026  1
  La  La7  1  0.219446  0.363159  0.320974  1
  La  La8  1  0.576614  0.423386  0.750000  1
  La  La9  1  0.439781  0.560219  0.250000  1
  Tc  Tc10  1  0.168313  0.612908  0.567578  1
  Tc  Tc11  1  0.387092  0.831687  0.932422  1
  Ni  Ni12  1  0.819003  0.406354  0.421928  1
  Ni  Ni13  1  0.593646  0.180997  0.078072  1
