# generated using pymatgen
data_LiTi6Nb3B20
_symmetry_space_group_name_H-M   'P 1'
_cell_length_a   6.10715336
_cell_length_b   6.92928319
_cell_length_c   7.22870484
_cell_angle_alpha   93.16735178
_cell_angle_beta   102.21355454
_cell_angle_gamma   116.15755729
_symmetry_Int_Tables_number   1
_chemical_formula_structural   LiTi6Nb3B20
_chemical_formula_sum   'Li1 Ti6 Nb3 B20'
_cell_volume   264.48808516
_cell_formula_units_Z   1
loop_
 _symmetry_equiv_pos_site_id
 _symmetry_equiv_pos_as_xyz
  1  'x, y, z'
loop_
 _atom_site_type_symbol
 _atom_site_label
 _atom_site_symmetry_multiplicity
 _atom_site_fract_x
 _atom_site_fract_y
 _atom_site_fract_z
 _atom_site_occupancy
  Li  Li0  1  0.000072  0.000164  0.001425  1
  Ti  Ti1  1  0.500356  0.800543  0.398845  1
  Ti  Ti2  1  0.999760  0.397863  0.200208  1
  Ti  Ti3  1  0.499763  0.200019  0.600305  1
  Ti  Ti4  1  0.999379  0.799562  0.400134  1
  Ti  Ti5  1  0.500973  0.601187  0.800674  1
  Ti  Ti6  1  0.499332  0.398654  0.199680  1
  Nb  Nb7  1  0.499379  0.999389  0.000013  1
  Nb  Nb8  1  0.001070  0.201690  0.600149  1
  Nb  Nb9  1  0.000230  0.601516  0.799568  1
  B  B10  1  0.333718  0.234452  0.868624  1
  B  B11  1  0.334523  0.630777  0.072157  1
  B  B12  1  0.167947  0.363929  0.940099  1
  B  B13  1  0.330767  0.032360  0.268459  1
  B  B14  1  0.164833  0.765577  0.137168  1
  B  B15  1  0.834871  0.231400  0.870940  1
  B  B16  1  0.166422  0.166328  0.329442  1
  B  B17  1  0.832892  0.633703  0.068546  1
  B  B18  1  0.334700  0.434129  0.463885  1
  B  B19  1  0.666343  0.367995  0.934078  1
  B  B20  1  0.835509  0.032683  0.264822  1
  B  B21  1  0.668306  0.765184  0.134835  1
  B  B22  1  0.334799  0.836215  0.660855  1
  B  B23  1  0.168687  0.569885  0.527890  1
  B  B24  1  0.664296  0.165657  0.333384  1
  B  B25  1  0.830985  0.434912  0.460402  1
  B  B26  1  0.165991  0.967944  0.732479  1
  B  B27  1  0.831875  0.833059  0.667181  1
  B  B28  1  0.664772  0.567682  0.529849  1
  B  B29  1  0.667453  0.965540  0.733903  1
