# generated using pymatgen
data_Dy2NiAsS
_symmetry_space_group_name_H-M   'P 1'
_cell_length_a   4.01097200
_cell_length_b   4.01097281
_cell_length_c   13.96802000
_cell_angle_alpha   90.00000000
_cell_angle_beta   90.00000000
_cell_angle_gamma   120.00000984
_symmetry_Int_Tables_number   1
_chemical_formula_structural   Dy2NiAsS
_chemical_formula_sum   'Dy4 Ni2 As2 S2'
_cell_volume   194.60983511
_cell_formula_units_Z   2
loop_
 _symmetry_equiv_pos_site_id
 _symmetry_equiv_pos_as_xyz
  1  'x, y, z'
loop_
 _atom_site_type_symbol
 _atom_site_label
 _atom_site_symmetry_multiplicity
 _atom_site_fract_x
 _atom_site_fract_y
 _atom_site_fract_z
 _atom_site_occupancy
  Dy  Dy0  1  0.333333  0.666667  0.385714  1
  Dy  Dy1  1  0.666667  0.333333  0.614286  1
  Dy  Dy2  1  0.666667  0.333333  0.885714  1
  Dy  Dy3  1  0.333333  0.666667  0.114286  1
  Ni  Ni4  1  0.000000  0.000000  0.250000  1
  Ni  Ni5  1  0.000000  0.000000  0.750000  1
  As  As6  1  0.333333  0.666667  0.750000  1
  As  As7  1  0.666667  0.333333  0.250000  1
  S  S8  1  0.000000  0.000000  0.500000  1
  S  S9  1  0.000000  0.000000  0.000000  1
