# generated using pymatgen
data_Tb8Y5Ho7(CoBi2)4
_symmetry_space_group_name_H-M   'P 1'
_cell_length_a   8.03326663
_cell_length_b   8.89208409
_cell_length_c   12.39879585
_cell_angle_alpha   90.00097194
_cell_angle_beta   90.04238310
_cell_angle_gamma   90.01604878
_symmetry_Int_Tables_number   1
_chemical_formula_structural   Tb8Y5Ho7(CoBi2)4
_chemical_formula_sum   'Tb8 Y5 Ho7 Co4 Bi8'
_cell_volume   885.67648849
_cell_formula_units_Z   1
loop_
 _symmetry_equiv_pos_site_id
 _symmetry_equiv_pos_as_xyz
  1  'x, y, z'
loop_
 _atom_site_type_symbol
 _atom_site_label
 _atom_site_symmetry_multiplicity
 _atom_site_fract_x
 _atom_site_fract_y
 _atom_site_fract_z
 _atom_site_occupancy
  Tb  Tb0  1  0.347749  0.750397  0.699318  1
  Tb  Tb1  1  0.651931  0.249873  0.300973  1
  Tb  Tb2  1  0.848152  0.249986  0.800964  1
  Tb  Tb3  1  0.151957  0.750021  0.199149  1
  Tb  Tb4  1  0.883181  0.750081  0.810565  1
  Tb  Tb5  1  0.116762  0.250094  0.189572  1
  Tb  Tb6  1  0.382983  0.249651  0.689602  1
  Tb  Tb7  1  0.616404  0.750276  0.310264  1
  Y  Y8  1  0.677064  0.536474  0.563548  1
  Y  Y9  1  0.050480  0.750632  0.497383  1
  Y  Y10  1  0.952092  0.249085  0.502201  1
  Y  Y11  1  0.549699  0.250056  0.002435  1
  Y  Y12  1  0.450493  0.750065  0.997597  1
  Ho  Ho13  1  0.324903  0.462861  0.436925  1
  Ho  Ho14  1  0.175026  0.463239  0.937233  1
  Ho  Ho15  1  0.324685  0.037123  0.436725  1
  Ho  Ho16  1  0.824996  0.536751  0.062929  1
  Ho  Ho17  1  0.674904  0.963274  0.562911  1
  Ho  Ho18  1  0.824987  0.963355  0.062892  1
  Ho  Ho19  1  0.175057  0.036899  0.937223  1
  Co  Co20  1  0.061584  0.750063  0.992099  1
  Co  Co21  1  0.938508  0.250039  0.007983  1
  Co  Co22  1  0.561658  0.248672  0.507978  1
  Co  Co23  1  0.435354  0.750895  0.491486  1
  Bi  Bi24  1  0.571870  0.508828  0.826897  1
  Bi  Bi25  1  0.427944  0.491191  0.173112  1
  Bi  Bi26  1  0.072302  0.491175  0.673151  1
  Bi  Bi27  1  0.427794  0.008943  0.172998  1
  Bi  Bi28  1  0.927644  0.508871  0.327017  1
  Bi  Bi29  1  0.572176  0.991248  0.826884  1
  Bi  Bi30  1  0.927697  0.991080  0.326589  1
  Bi  Bi31  1  0.071965  0.008804  0.673397  1
