# generated using pymatgen
data_TmLu7(ZnCo)2
_symmetry_space_group_name_H-M   'P 1'
_cell_length_a   9.15424794
_cell_length_b   9.15424843
_cell_length_c   9.14882400
_cell_angle_alpha   60.01959252
_cell_angle_beta   60.01959075
_cell_angle_gamma   59.96080867
_symmetry_Int_Tables_number   1
_chemical_formula_structural   TmLu7(ZnCo)2
_chemical_formula_sum   'Tm2 Lu14 Zn4 Co4'
_cell_volume   542.11984964
_cell_formula_units_Z   2
loop_
 _symmetry_equiv_pos_site_id
 _symmetry_equiv_pos_as_xyz
  1  'x, y, z'
loop_
 _atom_site_type_symbol
 _atom_site_label
 _atom_site_symmetry_multiplicity
 _atom_site_fract_x
 _atom_site_fract_y
 _atom_site_fract_z
 _atom_site_occupancy
  Tm  Tm0  1  0.563466  0.563466  0.936534  1
  Tm  Tm1  1  0.936534  0.936534  0.563466  1
  Lu  Lu2  1  0.350499  0.350499  0.349865  1
  Lu  Lu3  1  0.350499  0.350499  0.949136  1
  Lu  Lu4  1  0.349865  0.949136  0.350499  1
  Lu  Lu5  1  0.949136  0.349865  0.350499  1
  Lu  Lu6  1  0.810001  0.189999  0.189999  1
  Lu  Lu7  1  0.189999  0.810001  0.810001  1
  Lu  Lu8  1  0.189999  0.810001  0.189999  1
  Lu  Lu9  1  0.810001  0.189999  0.810001  1
  Lu  Lu10  1  0.190094  0.190094  0.809906  1
  Lu  Lu11  1  0.809906  0.809906  0.190094  1
  Lu  Lu12  1  0.938101  0.561899  0.561899  1
  Lu  Lu13  1  0.561899  0.938101  0.938101  1
  Lu  Lu14  1  0.561899  0.938101  0.561899  1
  Lu  Lu15  1  0.938101  0.561899  0.938101  1
  Zn  Zn16  1  0.577789  0.577789  0.577219  1
  Zn  Zn17  1  0.577789  0.577789  0.267202  1
  Zn  Zn18  1  0.577219  0.267202  0.577789  1
  Zn  Zn19  1  0.267202  0.577219  0.577789  1
  Co  Co20  1  0.142438  0.142438  0.141422  1
  Co  Co21  1  0.142438  0.142438  0.573704  1
  Co  Co22  1  0.141422  0.573704  0.142438  1
  Co  Co23  1  0.573704  0.141422  0.142438  1
