# generated using pymatgen
data_Dy3HoTm4(OsC2)4
_symmetry_space_group_name_H-M   'P 1'
_cell_length_a   5.09149400
_cell_length_b   6.43287642
_cell_length_c   9.70598764
_cell_angle_alpha   90.04158202
_cell_angle_beta   90.00000000
_cell_angle_gamma   90.00000000
_symmetry_Int_Tables_number   1
_chemical_formula_structural   Dy3HoTm4(OsC2)4
_chemical_formula_sum   'Dy3 Ho1 Tm4 Os4 C8'
_cell_volume   317.89966075
_cell_formula_units_Z   1
loop_
 _symmetry_equiv_pos_site_id
 _symmetry_equiv_pos_as_xyz
  1  'x, y, z'
loop_
 _atom_site_type_symbol
 _atom_site_label
 _atom_site_symmetry_multiplicity
 _atom_site_fract_x
 _atom_site_fract_y
 _atom_site_fract_z
 _atom_site_occupancy
  Dy  Dy0  1  0.250000  0.527376  0.217407  1
  Dy  Dy1  1  0.750000  0.472735  0.782601  1
  Dy  Dy2  1  0.750000  0.972668  0.717397  1
  Ho  Ho3  1  0.250000  0.027365  0.282345  1
  Tm  Tm4  1  0.250000  0.679711  0.553524  1
  Tm  Tm5  1  0.750000  0.320188  0.446268  1
  Tm  Tm6  1  0.750000  0.820332  0.053722  1
  Tm  Tm7  1  0.250000  0.179783  0.946452  1
  Os  Os8  1  0.250000  0.724672  0.866549  1
  Os  Os9  1  0.750000  0.275321  0.133671  1
  Os  Os10  1  0.750000  0.775579  0.366351  1
  Os  Os11  1  0.250000  0.224533  0.633544  1
  C  C12  1  0.250000  0.459535  0.758682  1
  C  C13  1  0.750000  0.540557  0.241283  1
  C  C14  1  0.750000  0.040557  0.258844  1
  C  C15  1  0.250000  0.959525  0.741310  1
  C  C16  1  0.250000  0.830053  0.054742  1
  C  C17  1  0.750000  0.170232  0.945630  1
  C  C18  1  0.750000  0.670345  0.554349  1
  C  C19  1  0.250000  0.328933  0.445330  1
