# generated using pymatgen
data_Er5Ga3P9Ir19
_symmetry_space_group_name_H-M   'P 1'
_cell_length_a   12.84546800
_cell_length_b   12.84546734
_cell_length_c   3.94759700
_cell_angle_alpha   90.00000000
_cell_angle_beta   90.00000000
_cell_angle_gamma   119.99999141
_symmetry_Int_Tables_number   1
_chemical_formula_structural   Er5Ga3P9Ir19
_chemical_formula_sum   'Er5 Ga3 P9 Ir19'
_cell_volume   564.10937876
_cell_formula_units_Z   1
loop_
 _symmetry_equiv_pos_site_id
 _symmetry_equiv_pos_as_xyz
  1  'x, y, z'
loop_
 _atom_site_type_symbol
 _atom_site_label
 _atom_site_symmetry_multiplicity
 _atom_site_fract_x
 _atom_site_fract_y
 _atom_site_fract_z
 _atom_site_occupancy
  Er  Er0  1  0.333333  0.666667  0.500000  1
  Er  Er1  1  0.666667  0.333333  0.500000  1
  Er  Er2  1  0.181487  0.181487  0.000000  1
  Er  Er3  1  0.818513  0.000000  0.000000  1
  Er  Er4  1  0.000000  0.818513  0.000000  1
  Ga  Ga5  1  0.357060  0.357060  0.500000  1
  Ga  Ga6  1  0.642940  0.000000  0.500000  1
  Ga  Ga7  1  0.000000  0.642940  0.500000  1
  P  P8  1  0.309693  0.826379  0.000000  1
  P  P9  1  0.173621  0.483313  0.000000  1
  P  P10  1  0.516687  0.690307  0.000000  1
  P  P11  1  0.826379  0.309693  0.000000  1
  P  P12  1  0.483313  0.173621  0.000000  1
  P  P13  1  0.690307  0.516687  0.000000  1
  P  P14  1  0.820985  0.820985  0.500000  1
  P  P15  1  0.179015  0.000000  0.500000  1
  P  P16  1  0.000000  0.179015  0.500000  1
  Ir  Ir17  1  0.204993  0.826006  0.500000  1
  Ir  Ir18  1  0.173994  0.378987  0.500000  1
  Ir  Ir19  1  0.621013  0.795007  0.500000  1
  Ir  Ir20  1  0.826006  0.204993  0.500000  1
  Ir  Ir21  1  0.378987  0.173994  0.500000  1
  Ir  Ir22  1  0.795007  0.621013  0.500000  1
  Ir  Ir23  1  0.133899  0.637312  0.000000  1
  Ir  Ir24  1  0.362688  0.496587  0.000000  1
  Ir  Ir25  1  0.503413  0.866101  0.000000  1
  Ir  Ir26  1  0.637312  0.133899  0.000000  1
  Ir  Ir27  1  0.496587  0.362688  0.000000  1
  Ir  Ir28  1  0.866101  0.503413  0.000000  1
  Ir  Ir29  1  0.549729  0.549729  0.500000  1
  Ir  Ir30  1  0.450271  0.000000  0.500000  1
  Ir  Ir31  1  0.000000  0.450271  0.500000  1
  Ir  Ir32  1  0.716968  0.716968  0.000000  1
  Ir  Ir33  1  0.283032  0.000000  0.000000  1
  Ir  Ir34  1  0.000000  0.283032  0.000000  1
  Ir  Ir35  1  0.000000  0.000000  0.500000  1
