# generated using pymatgen
data_La5FeAuO12
_symmetry_space_group_name_H-M   'P 1'
_cell_length_a   7.15746592
_cell_length_b   7.15746635
_cell_length_c   7.75624300
_cell_angle_alpha   74.42680658
_cell_angle_beta   74.42680563
_cell_angle_gamma   50.84783210
_symmetry_Int_Tables_number   1
_chemical_formula_structural   La5FeAuO12
_chemical_formula_sum   'La5 Fe1 Au1 O12'
_cell_volume   294.20318954
_cell_formula_units_Z   1
loop_
 _symmetry_equiv_pos_site_id
 _symmetry_equiv_pos_as_xyz
  1  'x, y, z'
loop_
 _atom_site_type_symbol
 _atom_site_label
 _atom_site_symmetry_multiplicity
 _atom_site_fract_x
 _atom_site_fract_y
 _atom_site_fract_z
 _atom_site_occupancy
  La  La0  1  0.306830  0.307251  0.357789  1
  La  La1  1  0.692749  0.693170  0.642211  1
  La  La2  1  0.690917  0.696955  0.166246  1
  La  La3  1  0.303045  0.309083  0.833754  1
  La  La4  1  0.002010  0.997990  0.500000  1
  Fe  Fe5  1  0.759848  0.240152  0.000000  1
  Au  Au6  1  0.245610  0.754390  0.000000  1
  O  O7  1  0.092694  0.594806  0.580065  1
  O  O8  1  0.999215  0.998269  0.177035  1
  O  O9  1  0.405194  0.907306  0.419935  1
  O  O10  1  0.497995  0.503355  0.174681  1
  O  O11  1  0.095794  0.575424  0.079600  1
  O  O12  1  0.904461  0.402226  0.422517  1
  O  O13  1  0.001731  0.000785  0.822965  1
  O  O14  1  0.597774  0.095538  0.577483  1
  O  O15  1  0.496645  0.502005  0.825319  1
  O  O16  1  0.590106  0.107192  0.074491  1
  O  O17  1  0.424576  0.904206  0.920400  1
  O  O18  1  0.892808  0.409894  0.925509  1
