# generated using pymatgen
data_Ac4Pd3Au
_symmetry_space_group_name_H-M   'P 1'
_cell_length_a   7.95993357
_cell_length_b   4.68845600
_cell_length_c   6.26209400
_cell_angle_alpha   90.00000000
_cell_angle_beta   89.75318202
_cell_angle_gamma   90.00000000
_symmetry_Int_Tables_number   1
_chemical_formula_structural   Ac4Pd3Au
_chemical_formula_sum   'Ac4 Pd3 Au1'
_cell_volume   233.69791681
_cell_formula_units_Z   1
loop_
 _symmetry_equiv_pos_site_id
 _symmetry_equiv_pos_as_xyz
  1  'x, y, z'
loop_
 _atom_site_type_symbol
 _atom_site_label
 _atom_site_symmetry_multiplicity
 _atom_site_fract_x
 _atom_site_fract_y
 _atom_site_fract_z
 _atom_site_occupancy
  Ac  Ac0  1  0.189850  0.250000  0.139376  1
  Ac  Ac1  1  0.318273  0.750001  0.645847  1
  Ac  Ac2  1  0.676490  0.250000  0.353141  1
  Ac  Ac3  1  0.814608  0.750001  0.855473  1
  Pd  Pd4  1  0.043643  0.250000  0.651564  1
  Pd  Pd5  1  0.456926  0.750001  0.147656  1
  Pd  Pd6  1  0.542564  0.250000  0.850884  1
  Au  Au7  1  0.957647  0.750001  0.356059  1
