# generated using pymatgen
data_Nd(CoO2)8
_symmetry_space_group_name_H-M   'P 1'
_cell_length_a   5.68760399
_cell_length_b   6.60839760
_cell_length_c   6.90795359
_cell_angle_alpha   92.30331311
_cell_angle_beta   78.17957480
_cell_angle_gamma   77.49913957
_symmetry_Int_Tables_number   1
_chemical_formula_structural   Nd(CoO2)8
_chemical_formula_sum   'Nd1 Co8 O16'
_cell_volume   247.13865445
_cell_formula_units_Z   1
loop_
 _symmetry_equiv_pos_site_id
 _symmetry_equiv_pos_as_xyz
  1  'x, y, z'
loop_
 _atom_site_type_symbol
 _atom_site_label
 _atom_site_symmetry_multiplicity
 _atom_site_fract_x
 _atom_site_fract_y
 _atom_site_fract_z
 _atom_site_occupancy
  Nd  Nd0  1  0.011460  0.996190  0.002782  1
  Co  Co1  1  0.582753  0.508817  0.179821  1
  Co  Co2  1  0.083638  0.502201  0.180558  1
  Co  Co3  1  0.168563  0.818276  0.524245  1
  Co  Co4  1  0.666624  0.816082  0.536402  1
  Co  Co5  1  0.340833  0.184479  0.466014  1
  Co  Co6  1  0.838915  0.183854  0.475497  1
  Co  Co7  1  0.424891  0.491347  0.819016  1
  Co  Co8  1  0.925927  0.496919  0.817987  1
  O  O9  1  0.828911  0.656421  0.068350  1
  O  O10  1  0.317409  0.657254  0.066520  1
  O  O11  1  0.981705  0.674166  0.407096  1
  O  O12  1  0.485342  0.678442  0.404667  1
  O  O13  1  0.851430  0.976802  0.660955  1
  O  O14  1  0.339417  0.979788  0.655067  1
  O  O15  1  0.354544  0.350128  0.257409  1
  O  O16  1  0.855074  0.334231  0.250380  1
  O  O17  1  0.152127  0.666398  0.749997  1
  O  O18  1  0.655150  0.649305  0.736022  1
  O  O19  1  0.155403  0.024531  0.338014  1
  O  O20  1  0.668976  0.018490  0.348146  1
  O  O21  1  0.026062  0.325946  0.593500  1
  O  O22  1  0.522472  0.321142  0.595375  1
  O  O23  1  0.179534  0.343741  0.932457  1
  O  O24  1  0.689935  0.345051  0.933720  1
