# generated using pymatgen
data_Ba2VCu3P4
_symmetry_space_group_name_H-M   'P 1'
_cell_length_a   5.62792100
_cell_length_b   6.92741972
_cell_length_c   5.63257868
_cell_angle_alpha   66.11330141
_cell_angle_beta   89.99993907
_cell_angle_gamma   89.99973351
_symmetry_Int_Tables_number   1
_chemical_formula_structural   Ba2VCu3P4
_chemical_formula_sum   'Ba2 V1 Cu3 P4'
_cell_volume   200.78824043
_cell_formula_units_Z   1
loop_
 _symmetry_equiv_pos_site_id
 _symmetry_equiv_pos_as_xyz
  1  'x, y, z'
loop_
 _atom_site_type_symbol
 _atom_site_label
 _atom_site_symmetry_multiplicity
 _atom_site_fract_x
 _atom_site_fract_y
 _atom_site_fract_z
 _atom_site_occupancy
  Ba  Ba0  1  0.993283  0.000001  0.000000  1
  Ba  Ba1  1  0.506808  0.000000  0.499999  1
  V  V2  1  0.249817  0.499994  0.500001  1
  Cu  Cu3  1  0.250308  0.500000  0.000001  1
  Cu  Cu4  1  0.749677  0.500007  0.999997  1
  Cu  Cu5  1  0.750188  0.500004  0.499999  1
  P  P6  1  0.489352  0.703664  0.157528  1
  P  P7  1  0.010606  0.703797  0.639966  1
  P  P8  1  0.010601  0.296200  0.360032  1
  P  P9  1  0.489359  0.296334  0.842477  1
