# generated using pymatgen
data_TbDyTh(GaNi)3
_symmetry_space_group_name_H-M   'P 1'
_cell_length_a   7.22241907
_cell_length_b   7.16053968
_cell_length_c   3.70909600
_cell_angle_alpha   90.00000000
_cell_angle_beta   90.00000000
_cell_angle_gamma   120.30178840
_symmetry_Int_Tables_number   1
_chemical_formula_structural   TbDyTh(GaNi)3
_chemical_formula_sum   'Tb1 Dy1 Th1 Ga3 Ni3'
_cell_volume   165.61451536
_cell_formula_units_Z   1
loop_
 _symmetry_equiv_pos_site_id
 _symmetry_equiv_pos_as_xyz
  1  'x, y, z'
loop_
 _atom_site_type_symbol
 _atom_site_label
 _atom_site_symmetry_multiplicity
 _atom_site_fract_x
 _atom_site_fract_y
 _atom_site_fract_z
 _atom_site_occupancy
  Tb  Tb0  1  0.998097  0.410429  0.500000  1
  Dy  Dy1  1  0.587936  0.589931  0.500000  1
  Th  Th2  1  0.417216  0.000038  0.500000  1
  Ga  Ga3  1  0.989561  0.744651  0.000000  1
  Ga  Ga4  1  0.245913  0.255668  0.000000  1
  Ga  Ga5  1  0.765862  0.999296  0.000000  1
  Ni  Ni6  1  0.333136  0.676204  0.000000  1
  Ni  Ni7  1  0.655763  0.324239  0.000000  1
  Ni  Ni8  1  0.006515  0.999544  0.500000  1
