# generated using pymatgen
data_Dy8CoAg2Ir
_symmetry_space_group_name_H-M   'P 1'
_cell_length_a   9.47149435
_cell_length_b   9.47149436
_cell_length_c   9.38530200
_cell_angle_alpha   60.30057790
_cell_angle_beta   60.30057788
_cell_angle_gamma   60.59998921
_symmetry_Int_Tables_number   1
_chemical_formula_structural   Dy8CoAg2Ir
_chemical_formula_sum   'Dy16 Co2 Ag4 Ir2'
_cell_volume   600.72684280
_cell_formula_units_Z   2
loop_
 _symmetry_equiv_pos_site_id
 _symmetry_equiv_pos_as_xyz
  1  'x, y, z'
loop_
 _atom_site_type_symbol
 _atom_site_label
 _atom_site_symmetry_multiplicity
 _atom_site_fract_x
 _atom_site_fract_y
 _atom_site_fract_z
 _atom_site_occupancy
  Dy  Dy0  1  0.598044  0.598044  0.608823  1
  Dy  Dy1  1  0.598044  0.598044  0.195089  1
  Dy  Dy2  1  0.592066  0.204231  0.601852  1
  Dy  Dy3  1  0.204231  0.592066  0.601852  1
  Dy  Dy4  1  0.067090  0.437802  0.438159  1
  Dy  Dy5  1  0.437802  0.067090  0.056950  1
  Dy  Dy6  1  0.437802  0.067090  0.438159  1
  Dy  Dy7  1  0.067090  0.437802  0.056950  1
  Dy  Dy8  1  0.436421  0.436421  0.063579  1
  Dy  Dy9  1  0.060867  0.060867  0.439133  1
  Dy  Dy10  1  0.186114  0.814479  0.811495  1
  Dy  Dy11  1  0.814479  0.186114  0.187911  1
  Dy  Dy12  1  0.814479  0.186114  0.811495  1
  Dy  Dy13  1  0.186114  0.814479  0.187911  1
  Dy  Dy14  1  0.810487  0.810487  0.189513  1
  Dy  Dy15  1  0.185092  0.185092  0.814908  1
  Co  Co16  1  0.392102  0.392102  0.389958  1
  Co  Co17  1  0.392102  0.392102  0.825841  1
  Ag  Ag18  1  0.832404  0.832404  0.830533  1
  Ag  Ag19  1  0.832404  0.832404  0.504659  1
  Ag  Ag20  1  0.833501  0.504719  0.830890  1
  Ag  Ag21  1  0.504719  0.833501  0.830890  1
  Ir  Ir22  1  0.393973  0.822575  0.391727  1
  Ir  Ir23  1  0.822575  0.393973  0.391727  1
