# generated using pymatgen
data_LaNdHo2(MoN3)4
_symmetry_space_group_name_H-M   'P 1'
_cell_length_a   7.26762804
_cell_length_b   7.26762718
_cell_length_c   6.17329048
_cell_angle_alpha   76.54144195
_cell_angle_beta   76.54143359
_cell_angle_gamma   83.64286757
_symmetry_Int_Tables_number   1
_chemical_formula_structural   LaNdHo2(MoN3)4
_chemical_formula_sum   'La1 Nd1 Ho2 Mo4 N12'
_cell_volume   307.84907090
_cell_formula_units_Z   1
loop_
 _symmetry_equiv_pos_site_id
 _symmetry_equiv_pos_as_xyz
  1  'x, y, z'
loop_
 _atom_site_type_symbol
 _atom_site_label
 _atom_site_symmetry_multiplicity
 _atom_site_fract_x
 _atom_site_fract_y
 _atom_site_fract_z
 _atom_site_occupancy
  La  La0  1  0.311487  0.688513  0.750000  1
  Nd  Nd1  1  0.687236  0.312764  0.250000  1
  Ho  Ho2  1  0.912304  0.087696  0.750000  1
  Ho  Ho3  1  0.083439  0.916561  0.250000  1
  Mo  Mo4  1  0.804189  0.618257  0.741847  1
  Mo  Mo5  1  0.197290  0.380833  0.259330  1
  Mo  Mo6  1  0.619167  0.802710  0.240670  1
  Mo  Mo7  1  0.381743  0.195811  0.758153  1
  N  N8  1  0.212541  0.004750  0.857406  1
  N  N9  1  0.342753  0.374554  0.489258  1
  N  N10  1  0.662304  0.624161  0.508173  1
  N  N11  1  0.617222  0.103964  0.661084  1
  N  N12  1  0.995250  0.787459  0.642594  1
  N  N13  1  0.782666  0.999289  0.143123  1
  N  N14  1  0.110493  0.618113  0.162503  1
  N  N15  1  0.896036  0.382778  0.838916  1
  N  N16  1  0.000711  0.217334  0.356877  1
  N  N17  1  0.375839  0.337696  0.991827  1
  N  N18  1  0.625446  0.657247  0.010742  1
  N  N19  1  0.381887  0.889507  0.337497  1
