# generated using pymatgen
data_Nd7Y(OsI4)2
_symmetry_space_group_name_H-M   'P 1'
_cell_length_a   11.71712273
_cell_length_b   11.66168545
_cell_length_c   6.39818744
_cell_angle_alpha   89.87044825
_cell_angle_beta   89.88145444
_cell_angle_gamma   88.13929494
_symmetry_Int_Tables_number   1
_chemical_formula_structural   Nd7Y(OsI4)2
_chemical_formula_sum   'Nd7 Y1 Os2 I8'
_cell_volume   873.79233216
_cell_formula_units_Z   1
loop_
 _symmetry_equiv_pos_site_id
 _symmetry_equiv_pos_as_xyz
  1  'x, y, z'
loop_
 _atom_site_type_symbol
 _atom_site_label
 _atom_site_symmetry_multiplicity
 _atom_site_fract_x
 _atom_site_fract_y
 _atom_site_fract_z
 _atom_site_occupancy
  Nd  Nd0  1  0.798280  0.084871  0.000110  1
  Nd  Nd1  1  0.085546  0.798023  0.500131  1
  Nd  Nd2  1  0.078184  0.199807  0.998532  1
  Nd  Nd3  1  0.199399  0.079560  0.498641  1
  Nd  Nd4  1  0.919923  0.801080  0.001125  1
  Nd  Nd5  1  0.914903  0.201854  0.499714  1
  Nd  Nd6  1  0.201086  0.913442  0.999868  1
  Y  Y7  1  0.811102  0.924305  0.500701  1
  Os  Os8  1  0.000767  0.000314  0.249750  1
  Os  Os9  1  0.000709  0.000310  0.750082  1
  I  I10  1  0.646510  0.141560  0.505630  1
  I  I11  1  0.851359  0.657631  0.504364  1
  I  I12  1  0.349372  0.142093  0.995491  1
  I  I13  1  0.141386  0.352237  0.495544  1
  I  I14  1  0.649852  0.857810  0.006773  1
  I  I15  1  0.355093  0.846226  0.493823  1
  I  I16  1  0.151301  0.642278  0.006210  1
  I  I17  1  0.845228  0.356600  0.993512  1
