# generated using pymatgen
data_Tb8PSBr12
_symmetry_space_group_name_H-M   'P 1'
_cell_length_a   4.00198000
_cell_length_b   13.10724109
_cell_length_c   13.81916600
_cell_angle_alpha   90.35252631
_cell_angle_beta   90.00000000
_cell_angle_gamma   90.00000000
_symmetry_Int_Tables_number   1
_chemical_formula_structural   Tb8PSBr12
_chemical_formula_sum   'Tb8 P1 S1 Br12'
_cell_volume   724.86948098
_cell_formula_units_Z   1
loop_
 _symmetry_equiv_pos_site_id
 _symmetry_equiv_pos_as_xyz
  1  'x, y, z'
loop_
 _atom_site_type_symbol
 _atom_site_label
 _atom_site_symmetry_multiplicity
 _atom_site_fract_x
 _atom_site_fract_y
 _atom_site_fract_z
 _atom_site_occupancy
  Tb  Tb0  1  0.500000  0.116142  0.344873  1
  Tb  Tb1  1  0.500000  0.883858  0.655127  1
  Tb  Tb2  1  0.500000  0.617751  0.157180  1
  Tb  Tb3  1  0.500000  0.382249  0.842820  1
  Tb  Tb4  1  0.000000  0.111872  0.575308  1
  Tb  Tb5  1  0.000000  0.888128  0.424692  1
  Tb  Tb6  1  0.000000  0.614913  0.922879  1
  Tb  Tb7  1  0.000000  0.385087  0.077121  1
  P  P8  1  0.500000  0.500000  0.000000  1
  S  S9  1  0.500000  0.000000  0.500000  1
  Br  Br10  1  0.500000  0.243197  0.166077  1
  Br  Br11  1  0.500000  0.756803  0.833923  1
  Br  Br12  1  0.500000  0.749318  0.338062  1
  Br  Br13  1  0.500000  0.250682  0.661938  1
  Br  Br14  1  0.000000  0.256471  0.415119  1
  Br  Br15  1  0.000000  0.743529  0.584881  1
  Br  Br16  1  0.000000  0.758139  0.087210  1
  Br  Br17  1  0.000000  0.241861  0.912790  1
  Br  Br18  1  0.000000  0.999055  0.242201  1
  Br  Br19  1  0.000000  0.000945  0.757799  1
  Br  Br20  1  0.000000  0.501269  0.260147  1
  Br  Br21  1  0.000000  0.498731  0.739853  1
