# generated using pymatgen
data_CeFeSiPd
_symmetry_space_group_name_H-M   'P 1'
_cell_length_a   9.05952415
_cell_length_b   9.05952455
_cell_length_c   4.05754900
_cell_angle_alpha   90.00000000
_cell_angle_beta   90.00000000
_cell_angle_gamma   154.81346320
_symmetry_Int_Tables_number   1
_chemical_formula_structural   CeFeSiPd
_chemical_formula_sum   'Ce2 Fe2 Si2 Pd2'
_cell_volume   141.72359805
_cell_formula_units_Z   2
loop_
 _symmetry_equiv_pos_site_id
 _symmetry_equiv_pos_as_xyz
  1  'x, y, z'
loop_
 _atom_site_type_symbol
 _atom_site_label
 _atom_site_symmetry_multiplicity
 _atom_site_fract_x
 _atom_site_fract_y
 _atom_site_fract_z
 _atom_site_occupancy
  Ce  Ce0  1  0.617367  0.382633  0.250000  1
  Ce  Ce1  1  0.382602  0.617398  0.750000  1
  Fe  Fe2  1  0.248613  0.751387  0.250000  1
  Fe  Fe3  1  0.751409  0.248591  0.750000  1
  Si  Si4  1  0.811443  0.188557  0.250000  1
  Si  Si5  1  0.188585  0.811415  0.750000  1
  Pd  Pd6  1  0.950184  0.049816  0.250000  1
  Pd  Pd7  1  0.049798  0.950202  0.750000  1
