# generated using pymatgen
data_Dy3TmZn2Ir3
_symmetry_space_group_name_H-M   'P 1'
_cell_length_a   7.29983578
_cell_length_b   7.30931956
_cell_length_c   4.01482400
_cell_angle_alpha   90.00000000
_cell_angle_beta   90.00000000
_cell_angle_gamma   120.04298222
_symmetry_Int_Tables_number   1
_chemical_formula_structural   Dy3TmZn2Ir3
_chemical_formula_sum   'Dy3 Tm1 Zn2 Ir3'
_cell_volume   185.43807884
_cell_formula_units_Z   1
loop_
 _symmetry_equiv_pos_site_id
 _symmetry_equiv_pos_as_xyz
  1  'x, y, z'
loop_
 _atom_site_type_symbol
 _atom_site_label
 _atom_site_symmetry_multiplicity
 _atom_site_fract_x
 _atom_site_fract_y
 _atom_site_fract_z
 _atom_site_occupancy
  Dy  Dy0  1  0.562764  0.579768  0.000000  1
  Dy  Dy1  1  0.437236  0.017005  0.000000  1
  Dy  Dy2  1  0.000000  0.385134  0.000000  1
  Tm  Tm3  1  0.000000  0.758923  0.500000  1
  Zn  Zn4  1  0.252015  0.248590  0.500000  1
  Zn  Zn5  1  0.747985  0.996574  0.500000  1
  Ir  Ir6  1  0.000000  0.008620  0.000000  1
  Ir  Ir7  1  0.668842  0.337113  0.500000  1
  Ir  Ir8  1  0.331158  0.668272  0.500000  1
