# generated using pymatgen
data_Tb2Er4Al24Ru7Pt
_symmetry_space_group_name_H-M   'P 1'
_cell_length_a   8.81743776
_cell_length_b   8.80261800
_cell_length_c   9.54193925
_cell_angle_alpha   89.79963185
_cell_angle_beta   90.17715831
_cell_angle_gamma   119.89005700
_symmetry_Int_Tables_number   1
_chemical_formula_structural   Tb2Er4Al24Ru7Pt
_chemical_formula_sum   'Tb2 Er4 Al24 Ru7 Pt1'
_cell_volume   642.09372740
_cell_formula_units_Z   1
loop_
 _symmetry_equiv_pos_site_id
 _symmetry_equiv_pos_as_xyz
  1  'x, y, z'
loop_
 _atom_site_type_symbol
 _atom_site_label
 _atom_site_symmetry_multiplicity
 _atom_site_fract_x
 _atom_site_fract_y
 _atom_site_fract_z
 _atom_site_occupancy
  Tb  Tb0  1  0.191210  0.385024  0.250097  1
  Tb  Tb1  1  0.808790  0.614976  0.749903  1
  Er  Er2  1  0.612616  0.807855  0.250113  1
  Er  Er3  1  0.387384  0.192145  0.749887  1
  Er  Er4  1  0.194463  0.805255  0.250181  1
  Er  Er5  1  0.805537  0.194745  0.749819  1
  Al  Al6  1  0.330947  0.669217  0.021166  1
  Al  Al7  1  0.669053  0.330783  0.978834  1
  Al  Al8  1  0.666747  0.333140  0.518384  1
  Al  Al9  1  0.333253  0.666860  0.481616  1
  Al  Al10  1  0.162883  0.324039  0.578624  1
  Al  Al11  1  0.837117  0.675961  0.421376  1
  Al  Al12  1  0.675908  0.837711  0.577959  1
  Al  Al13  1  0.842197  0.676407  0.078284  1
  Al  Al14  1  0.324092  0.162289  0.422041  1
  Al  Al15  1  0.157803  0.323593  0.921716  1
  Al  Al16  1  0.163239  0.837743  0.577638  1
  Al  Al17  1  0.323623  0.157467  0.077653  1
  Al  Al18  1  0.836761  0.162257  0.422362  1
  Al  Al19  1  0.676377  0.842533  0.922347  1
  Al  Al20  1  0.836893  0.162104  0.077437  1
  Al  Al21  1  0.163107  0.837896  0.922563  1
  Al  Al22  1  0.560217  0.121451  0.248730  1
  Al  Al23  1  0.439783  0.878549  0.751270  1
  Al  Al24  1  0.877718  0.439606  0.248754  1
  Al  Al25  1  0.122282  0.560394  0.751246  1
  Al  Al26  1  0.562237  0.438281  0.252119  1
  Al  Al27  1  0.437763  0.561719  0.747881  1
  Al  Al28  1  0.998444  0.998285  0.250013  1
  Al  Al29  1  0.001556  0.001715  0.749987  1
  Ru  Ru30  1  0.500000  0.000000  0.000000  1
  Ru  Ru31  1  0.000000  0.500000  0.000000  1
  Ru  Ru32  1  0.500000  0.000000  0.500000  1
  Ru  Ru33  1  0.000000  0.500000  0.500000  1
  Ru  Ru34  1  0.500000  0.500000  0.500000  1
  Ru  Ru35  1  0.000000  0.000000  0.000000  1
  Ru  Ru36  1  0.000000  0.000000  0.500000  1
  Pt  Pt37  1  0.500000  0.500000  0.000000  1
