# generated using pymatgen
data_Cs2VO3F
_symmetry_space_group_name_H-M   'P 1'
_cell_length_a   6.70769800
_cell_length_b   8.81911200
_cell_length_c   11.42592000
_cell_angle_alpha   90.00000000
_cell_angle_beta   90.00000000
_cell_angle_gamma   90.00000000
_symmetry_Int_Tables_number   1
_chemical_formula_structural   Cs2VO3F
_chemical_formula_sum   'Cs8 V4 O12 F4'
_cell_volume   675.91103710
_cell_formula_units_Z   4
loop_
 _symmetry_equiv_pos_site_id
 _symmetry_equiv_pos_as_xyz
  1  'x, y, z'
loop_
 _atom_site_type_symbol
 _atom_site_label
 _atom_site_symmetry_multiplicity
 _atom_site_fract_x
 _atom_site_fract_y
 _atom_site_fract_z
 _atom_site_occupancy
  Cs  Cs0  1  0.250000  0.010352  0.279132  1
  Cs  Cs1  1  0.750000  0.989648  0.720868  1
  Cs  Cs2  1  0.250000  0.510352  0.220868  1
  Cs  Cs3  1  0.750000  0.489648  0.779132  1
  Cs  Cs4  1  0.250000  0.180038  0.929062  1
  Cs  Cs5  1  0.750000  0.819962  0.070938  1
  Cs  Cs6  1  0.250000  0.680038  0.570938  1
  Cs  Cs7  1  0.750000  0.319962  0.429062  1
  V  V8  1  0.250000  0.227485  0.591007  1
  V  V9  1  0.750000  0.772515  0.408993  1
  V  V10  1  0.250000  0.727485  0.908993  1
  V  V11  1  0.750000  0.272515  0.091007  1
  O  O12  1  0.750000  0.664998  0.533475  1
  O  O13  1  0.250000  0.335002  0.466525  1
  O  O14  1  0.250000  0.835002  0.033475  1
  O  O15  1  0.750000  0.164998  0.966525  1
  O  O16  1  0.541090  0.738641  0.327893  1
  O  O17  1  0.041090  0.261359  0.672107  1
  O  O18  1  0.958910  0.238641  0.172107  1
  O  O19  1  0.458910  0.761359  0.827893  1
  O  O20  1  0.458910  0.261359  0.672107  1
  O  O21  1  0.958910  0.738641  0.327893  1
  O  O22  1  0.041090  0.761359  0.827893  1
  O  O23  1  0.541090  0.238641  0.172107  1
  F  F24  1  0.750000  0.477408  0.047929  1
  F  F25  1  0.250000  0.522592  0.952071  1
  F  F26  1  0.250000  0.022592  0.547929  1
  F  F27  1  0.750000  0.977408  0.452071  1
