# generated using pymatgen
data_Y2Lu5Sn23Os6
_symmetry_space_group_name_H-M   'P 1'
_cell_length_a   9.80874675
_cell_length_b   9.80874805
_cell_length_c   10.08797819
_cell_angle_alpha   89.81438078
_cell_angle_beta   90.18561039
_cell_angle_gamma   119.76107510
_symmetry_Int_Tables_number   1
_chemical_formula_structural   Y2Lu5Sn23Os6
_chemical_formula_sum   'Y2 Lu5 Sn23 Os6'
_cell_volume   842.55718710
_cell_formula_units_Z   1
loop_
 _symmetry_equiv_pos_site_id
 _symmetry_equiv_pos_as_xyz
  1  'x, y, z'
loop_
 _atom_site_type_symbol
 _atom_site_label
 _atom_site_symmetry_multiplicity
 _atom_site_fract_x
 _atom_site_fract_y
 _atom_site_fract_z
 _atom_site_occupancy
  Y  Y0  1  0.998893  0.001107  0.000423  1
  Y  Y1  1  0.515159  0.484841  0.697014  1
  Lu  Lu2  1  0.023814  0.512075  0.299856  1
  Lu  Lu3  1  0.487925  0.976186  0.299856  1
  Lu  Lu4  1  0.488237  0.511763  0.300473  1
  Lu  Lu5  1  0.976294  0.488599  0.699874  1
  Lu  Lu6  1  0.511401  0.023706  0.699874  1
  Sn  Sn7  1  0.999655  0.000345  0.499794  1
  Sn  Sn8  1  0.118138  0.881862  0.277615  1
  Sn  Sn9  1  0.762255  0.880247  0.278207  1
  Sn  Sn10  1  0.119753  0.237745  0.278207  1
  Sn  Sn11  1  0.880625  0.119375  0.721965  1
  Sn  Sn12  1  0.235028  0.117912  0.722430  1
  Sn  Sn13  1  0.882088  0.764972  0.722430  1
  Sn  Sn14  1  0.349400  0.999456  0.999770  1
  Sn  Sn15  1  0.650058  0.650208  0.999820  1
  Sn  Sn16  1  0.999305  0.350315  0.000731  1
  Sn  Sn17  1  0.349792  0.349942  0.999820  1
  Sn  Sn18  1  0.000544  0.650600  0.999770  1
  Sn  Sn19  1  0.649685  0.000695  0.000731  1
  Sn  Sn20  1  0.779989  0.558163  0.464566  1
  Sn  Sn21  1  0.778302  0.221698  0.465083  1
  Sn  Sn22  1  0.441837  0.220011  0.464566  1
  Sn  Sn23  1  0.220889  0.442499  0.534863  1
  Sn  Sn24  1  0.221183  0.778817  0.534326  1
  Sn  Sn25  1  0.557501  0.779111  0.534863  1
  Sn  Sn26  1  0.666632  0.333368  0.172210  1
  Sn  Sn27  1  0.333784  0.666216  0.827692  1
  Sn  Sn28  1  0.669159  0.330841  0.865702  1
  Sn  Sn29  1  0.333427  0.666573  0.136642  1
  Os  Os30  1  0.171081  0.828919  0.795879  1
  Os  Os31  1  0.657955  0.831487  0.797381  1
  Os  Os32  1  0.168513  0.342045  0.797381  1
  Os  Os33  1  0.829285  0.170715  0.204259  1
  Os  Os34  1  0.343112  0.170702  0.202966  1
  Os  Os35  1  0.829298  0.656888  0.202966  1
