# generated using pymatgen
data_Ta11Nb9Al10
_symmetry_space_group_name_H-M   'P 1'
_cell_length_a   9.99778936
_cell_length_b   9.99030836
_cell_length_c   5.18618300
_cell_angle_alpha   90.00000000
_cell_angle_beta   90.00000000
_cell_angle_gamma   89.96925970
_symmetry_Int_Tables_number   1
_chemical_formula_structural   Ta11Nb9Al10
_chemical_formula_sum   'Ta11 Nb9 Al10'
_cell_volume   518.00106250
_cell_formula_units_Z   1
loop_
 _symmetry_equiv_pos_site_id
 _symmetry_equiv_pos_as_xyz
  1  'x, y, z'
loop_
 _atom_site_type_symbol
 _atom_site_label
 _atom_site_symmetry_multiplicity
 _atom_site_fract_x
 _atom_site_fract_y
 _atom_site_fract_z
 _atom_site_occupancy
  Ta  Ta0  1  0.397492  0.397552  0.000000  1
  Ta  Ta1  1  0.897300  0.102481  0.500000  1
  Ta  Ta2  1  0.102577  0.897433  0.500000  1
  Ta  Ta3  1  0.602365  0.603339  0.000000  1
  Ta  Ta4  1  0.128072  0.464712  0.000000  1
  Ta  Ta5  1  0.964882  0.371876  0.500000  1
  Ta  Ta6  1  0.035186  0.628000  0.500000  1
  Ta  Ta7  1  0.871852  0.535156  0.000000  1
  Ta  Ta8  1  0.371726  0.965263  0.500000  1
  Ta  Ta9  1  0.628104  0.035650  0.500000  1
  Ta  Ta10  1  0.465117  0.127122  0.000000  1
  Nb  Nb11  1  0.535043  0.871961  0.000000  1
  Nb  Nb12  1  0.181712  0.181691  0.252040  1
  Nb  Nb13  1  0.681441  0.318397  0.752146  1
  Nb  Nb14  1  0.318001  0.681300  0.751969  1
  Nb  Nb15  1  0.818968  0.818397  0.252422  1
  Nb  Nb16  1  0.318001  0.681300  0.248031  1
  Nb  Nb17  1  0.681441  0.318397  0.247854  1
  Nb  Nb18  1  0.181712  0.181691  0.747960  1
  Nb  Nb19  1  0.818968  0.818397  0.747578  1
  Al  Al20  1  0.000050  0.000061  0.000000  1
  Al  Al21  1  0.500061  0.500003  0.500000  1
  Al  Al22  1  0.261671  0.933448  0.000000  1
  Al  Al23  1  0.433386  0.238175  0.500000  1
  Al  Al24  1  0.566608  0.761822  0.500000  1
  Al  Al25  1  0.738368  0.066511  0.000000  1
  Al  Al26  1  0.238160  0.433323  0.500000  1
  Al  Al27  1  0.761844  0.566515  0.500000  1
  Al  Al28  1  0.933422  0.261852  0.000000  1
  Al  Al29  1  0.066470  0.738178  0.000000  1
