# generated using pymatgen
data_Tb5GeP11Ru9Rh10
_symmetry_space_group_name_H-M   'P 1'
_cell_length_a   3.94492800
_cell_length_b   12.66511356
_cell_length_c   12.68926183
_cell_angle_alpha   120.00977525
_cell_angle_beta   90.00000000
_cell_angle_gamma   90.00000000
_symmetry_Int_Tables_number   1
_chemical_formula_structural   Tb5GeP11Ru9Rh10
_chemical_formula_sum   'Tb5 Ge1 P11 Ru9 Rh10'
_cell_volume   549.00003549
_cell_formula_units_Z   1
loop_
 _symmetry_equiv_pos_site_id
 _symmetry_equiv_pos_as_xyz
  1  'x, y, z'
loop_
 _atom_site_type_symbol
 _atom_site_label
 _atom_site_symmetry_multiplicity
 _atom_site_fract_x
 _atom_site_fract_y
 _atom_site_fract_z
 _atom_site_occupancy
  Tb  Tb0  1  0.500000  0.000043  0.186164  1
  Tb  Tb1  1  0.500000  0.185641  0.998807  1
  Tb  Tb2  1  0.500000  0.815320  0.815597  1
  Tb  Tb3  1  0.000000  0.335270  0.670447  1
  Tb  Tb4  1  0.000000  0.666328  0.333487  1
  Ge  Ge5  1  0.500000  0.315981  0.483629  1
  P  P6  1  0.000000  0.999540  0.816906  1
  P  P7  1  0.000000  0.818987  0.002863  1
  P  P8  1  0.000000  0.181905  0.180513  1
  P  P9  1  0.500000  0.171216  0.688647  1
  P  P10  1  0.500000  0.519956  0.830743  1
  P  P11  1  0.500000  0.827981  0.517202  1
  P  P12  1  0.500000  0.482251  0.309222  1
  P  P13  1  0.500000  0.688286  0.172152  1
  P  P14  1  0.000000  0.999511  0.371328  1
  P  P15  1  0.000000  0.370387  0.999575  1
  P  P16  1  0.000000  0.629421  0.630463  1
  Ru  Ru17  1  0.500000  0.999434  0.714317  1
  Ru  Ru18  1  0.500000  0.716226  0.003070  1
  Ru  Ru19  1  0.500000  0.283123  0.276166  1
  Ru  Ru20  1  0.500000  0.119900  0.487480  1
  Ru  Ru21  1  0.500000  0.361796  0.873280  1
  Ru  Ru22  1  0.500000  0.526662  0.647239  1
  Ru  Ru23  1  0.500000  0.638102  0.509390  1
  Ru  Ru24  1  0.500000  0.487727  0.124860  1
  Ru  Ru25  1  0.500000  0.871734  0.361507  1
  Rh  Rh26  1  0.000000  0.995049  0.550058  1
  Rh  Rh27  1  0.000000  0.551134  0.000417  1
  Rh  Rh28  1  0.000000  0.448136  0.448294  1
  Rh  Rh29  1  0.000000  0.184615  0.368146  1
  Rh  Rh30  1  0.000000  0.182107  0.806238  1
  Rh  Rh31  1  0.000000  0.627863  0.822445  1
  Rh  Rh32  1  0.000000  0.816068  0.625856  1
  Rh  Rh33  1  0.000000  0.375898  0.190635  1
  Rh  Rh34  1  0.000000  0.807336  0.184244  1
  Rh  Rh35  1  0.000000  0.998964  0.998611  1
