# generated using pymatgen
data_Ca2(SnPd3)3
_symmetry_space_group_name_H-M   'P 1'
_cell_length_a   8.04323458
_cell_length_b   8.04323447
_cell_length_c   9.44891400
_cell_angle_alpha   90.00000000
_cell_angle_beta   90.00000000
_cell_angle_gamma   119.75233961
_symmetry_Int_Tables_number   1
_chemical_formula_structural   Ca2(SnPd3)3
_chemical_formula_sum   'Ca4 Sn6 Pd18'
_cell_volume   530.70406336
_cell_formula_units_Z   2
loop_
 _symmetry_equiv_pos_site_id
 _symmetry_equiv_pos_as_xyz
  1  'x, y, z'
loop_
 _atom_site_type_symbol
 _atom_site_label
 _atom_site_symmetry_multiplicity
 _atom_site_fract_x
 _atom_site_fract_y
 _atom_site_fract_z
 _atom_site_occupancy
  Ca  Ca0  1  0.327977  0.017267  0.750000  1
  Ca  Ca1  1  0.672023  0.982733  0.250000  1
  Ca  Ca2  1  0.017267  0.327977  0.750000  1
  Ca  Ca3  1  0.982733  0.672023  0.250000  1
  Sn  Sn4  1  0.000000  0.000000  0.500000  1
  Sn  Sn5  1  0.677516  0.322484  0.000000  1
  Sn  Sn6  1  0.322484  0.677516  0.500000  1
  Sn  Sn7  1  0.322484  0.677516  0.000000  1
  Sn  Sn8  1  0.000000  0.000000  0.000000  1
  Sn  Sn9  1  0.677516  0.322484  0.500000  1
  Pd  Pd10  1  0.333495  0.333495  0.965099  1
  Pd  Pd11  1  0.451377  0.647200  0.750000  1
  Pd  Pd12  1  0.548623  0.352800  0.250000  1
  Pd  Pd13  1  0.647200  0.451377  0.750000  1
  Pd  Pd14  1  0.003027  0.338588  0.083050  1
  Pd  Pd15  1  0.996973  0.661412  0.583050  1
  Pd  Pd16  1  0.338588  0.003027  0.416950  1
  Pd  Pd17  1  0.661412  0.996973  0.916950  1
  Pd  Pd18  1  0.996973  0.661412  0.916950  1
  Pd  Pd19  1  0.003027  0.338588  0.416950  1
  Pd  Pd20  1  0.661412  0.996973  0.583050  1
  Pd  Pd21  1  0.857798  0.857798  0.750000  1
  Pd  Pd22  1  0.333495  0.333495  0.534901  1
  Pd  Pd23  1  0.666505  0.666505  0.034901  1
  Pd  Pd24  1  0.338588  0.003027  0.083050  1
  Pd  Pd25  1  0.666505  0.666505  0.465099  1
  Pd  Pd26  1  0.142202  0.142202  0.250000  1
  Pd  Pd27  1  0.352800  0.548623  0.250000  1
