# generated using pymatgen
data_Ho16CdAg3Rh4
_symmetry_space_group_name_H-M   'P 1'
_cell_length_a   9.52776069
_cell_length_b   9.51038616
_cell_length_c   9.52776000
_cell_angle_alpha   59.93955058
_cell_angle_beta   60.00000240
_cell_angle_gamma   59.93954777
_symmetry_Int_Tables_number   1
_chemical_formula_structural   Ho16CdAg3Rh4
_chemical_formula_sum   'Ho16 Cd1 Ag3 Rh4'
_cell_volume   609.91229040
_cell_formula_units_Z   1
loop_
 _symmetry_equiv_pos_site_id
 _symmetry_equiv_pos_as_xyz
  1  'x, y, z'
loop_
 _atom_site_type_symbol
 _atom_site_label
 _atom_site_symmetry_multiplicity
 _atom_site_fract_x
 _atom_site_fract_y
 _atom_site_fract_z
 _atom_site_occupancy
  Ho  Ho0  1  0.935352  0.935586  0.564531  1
  Ho  Ho1  1  0.562689  0.566637  0.935337  1
  Ho  Ho2  1  0.689432  0.689147  0.310710  1
  Ho  Ho3  1  0.148750  0.553749  0.148750  1
  Ho  Ho4  1  0.688933  0.310934  0.688933  1
  Ho  Ho5  1  0.149249  0.148915  0.149249  1
  Ho  Ho6  1  0.552587  0.148915  0.149249  1
  Ho  Ho7  1  0.688933  0.310934  0.311199  1
  Ho  Ho8  1  0.149249  0.148915  0.552587  1
  Ho  Ho9  1  0.310710  0.689147  0.310710  1
  Ho  Ho10  1  0.310710  0.689147  0.689432  1
  Ho  Ho11  1  0.935337  0.566637  0.562689  1
  Ho  Ho12  1  0.935337  0.566637  0.935337  1
  Ho  Ho13  1  0.564531  0.935586  0.564531  1
  Ho  Ho14  1  0.564531  0.935586  0.935352  1
  Ho  Ho15  1  0.311199  0.310934  0.688933  1
  Cd  Cd16  1  0.920171  0.239487  0.920171  1
  Ag  Ag17  1  0.918399  0.917849  0.245353  1
  Ag  Ag18  1  0.245353  0.917849  0.918399  1
  Ag  Ag19  1  0.918399  0.917849  0.918399  1
  Rh  Rh20  1  0.357571  0.357499  0.927359  1
  Rh  Rh21  1  0.357645  0.927063  0.357645  1
  Rh  Rh22  1  0.927359  0.357499  0.357571  1
  Rh  Rh23  1  0.357571  0.357499  0.357571  1
