# generated using pymatgen
data_TiCo4Si4Mo2W
_symmetry_space_group_name_H-M   'P 1'
_cell_length_a   3.60065800
_cell_length_b   6.08771489
_cell_length_c   6.94451630
_cell_angle_alpha   90.35009842
_cell_angle_beta   90.00000000
_cell_angle_gamma   90.00000000
_symmetry_Int_Tables_number   1
_chemical_formula_structural   TiCo4Si4Mo2W
_chemical_formula_sum   'Ti1 Co4 Si4 Mo2 W1'
_cell_volume   152.21942319
_cell_formula_units_Z   1
loop_
 _symmetry_equiv_pos_site_id
 _symmetry_equiv_pos_as_xyz
  1  'x, y, z'
loop_
 _atom_site_type_symbol
 _atom_site_label
 _atom_site_symmetry_multiplicity
 _atom_site_fract_x
 _atom_site_fract_y
 _atom_site_fract_z
 _atom_site_occupancy
  Ti  Ti0  1  0.750000  0.976522  0.178139  1
  Co  Co1  1  0.250000  0.645698  0.063337  1
  Co  Co2  1  0.750000  0.358656  0.941252  1
  Co  Co3  1  0.250000  0.142776  0.435842  1
  Co  Co4  1  0.750000  0.854265  0.557700  1
  Si  Si5  1  0.750000  0.727171  0.875921  1
  Si  Si6  1  0.250000  0.771627  0.378075  1
  Si  Si7  1  0.750000  0.224900  0.624820  1
  Si  Si8  1  0.250000  0.273481  0.119868  1
  Mo  Mo9  1  0.250000  0.025235  0.825144  1
  Mo  Mo10  1  0.250000  0.525537  0.672474  1
  W  W11  1  0.750000  0.474132  0.327425  1
