# generated using pymatgen
data_Ca(NdSn4)3
_symmetry_space_group_name_H-M   'P 1'
_cell_length_a   12.07478380
_cell_length_b   12.07478388
_cell_length_c   12.07478392
_cell_angle_alpha   31.98012248
_cell_angle_beta   31.98012384
_cell_angle_gamma   31.98012483
_symmetry_Int_Tables_number   1
_chemical_formula_structural   Ca(NdSn4)3
_chemical_formula_sum   'Ca1 Nd3 Sn12'
_cell_volume   438.74881049
_cell_formula_units_Z   1
loop_
 _symmetry_equiv_pos_site_id
 _symmetry_equiv_pos_as_xyz
  1  'x, y, z'
loop_
 _atom_site_type_symbol
 _atom_site_label
 _atom_site_symmetry_multiplicity
 _atom_site_fract_x
 _atom_site_fract_y
 _atom_site_fract_z
 _atom_site_occupancy
  Ca  Ca0  1  0.291931  0.291931  0.291931  1
  Nd  Nd1  1  0.878545  0.878545  0.878545  1
  Nd  Nd2  1  0.121650  0.121650  0.121650  1
  Nd  Nd3  1  0.706982  0.706982  0.706982  1
  Sn  Sn4  1  0.292838  0.792727  0.792727  1
  Sn  Sn5  1  0.792727  0.792727  0.292838  1
  Sn  Sn6  1  0.857333  0.384164  0.384164  1
  Sn  Sn7  1  0.384164  0.384164  0.857333  1
  Sn  Sn8  1  0.384164  0.857333  0.384164  1
  Sn  Sn9  1  0.618152  0.138652  0.618152  1
  Sn  Sn10  1  0.138652  0.618152  0.618152  1
  Sn  Sn11  1  0.618152  0.618152  0.138652  1
  Sn  Sn12  1  0.792727  0.292838  0.792727  1
  Sn  Sn13  1  0.209346  0.703291  0.209346  1
  Sn  Sn14  1  0.209346  0.209346  0.703291  1
  Sn  Sn15  1  0.703291  0.209346  0.209346  1
