# generated using pymatgen
data_Sc4Tc3Ru5W4
_symmetry_space_group_name_H-M   'P 1'
_cell_length_a   6.30998128
_cell_length_b   4.46776300
_cell_length_c   8.94926739
_cell_angle_alpha   90.00000000
_cell_angle_beta   90.03396044
_cell_angle_gamma   90.00000000
_symmetry_Int_Tables_number   1
_chemical_formula_structural   Sc4Tc3Ru5W4
_chemical_formula_sum   'Sc4 Tc3 Ru5 W4'
_cell_volume   252.29323527
_cell_formula_units_Z   1
loop_
 _symmetry_equiv_pos_site_id
 _symmetry_equiv_pos_as_xyz
  1  'x, y, z'
loop_
 _atom_site_type_symbol
 _atom_site_label
 _atom_site_symmetry_multiplicity
 _atom_site_fract_x
 _atom_site_fract_y
 _atom_site_fract_z
 _atom_site_occupancy
  Sc  Sc0  1  0.250958  0.250001  0.124878  1
  Sc  Sc1  1  0.748529  0.749999  0.375071  1
  Sc  Sc2  1  0.252198  0.250001  0.625164  1
  Sc  Sc3  1  0.748218  0.749999  0.874900  1
  Tc  Tc4  1  0.000747  0.749999  0.623070  1
  Tc  Tc5  1  0.500819  0.250001  0.875687  1
  Tc  Tc6  1  0.998760  0.250001  0.876353  1
  Ru  Ru7  1  0.999174  0.749999  0.127254  1
  Ru  Ru8  1  0.500895  0.749999  0.127160  1
  Ru  Ru9  1  0.001556  0.250001  0.373529  1
  Ru  Ru10  1  0.498516  0.250001  0.374391  1
  Ru  Ru11  1  0.499621  0.749999  0.622813  1
  W  W12  1  0.750148  0.250001  0.119492  1
  W  W13  1  0.247603  0.749999  0.377507  1
  W  W14  1  0.754776  0.250001  0.629897  1
  W  W15  1  0.247484  0.749999  0.872835  1
