# generated using pymatgen
data_Pr15Nd5Si15Rh
_symmetry_space_group_name_H-M   'P 1'
_cell_length_a   7.92627380
_cell_length_b   7.92597134
_cell_length_c   15.27441594
_cell_angle_alpha   90.07224617
_cell_angle_beta   89.86006671
_cell_angle_gamma   90.20418757
_symmetry_Int_Tables_number   1
_chemical_formula_structural   Pr15Nd5Si15Rh
_chemical_formula_sum   'Pr15 Nd5 Si15 Rh1'
_cell_volume   959.58132411
_cell_formula_units_Z   1
loop_
 _symmetry_equiv_pos_site_id
 _symmetry_equiv_pos_as_xyz
  1  'x, y, z'
loop_
 _atom_site_type_symbol
 _atom_site_label
 _atom_site_symmetry_multiplicity
 _atom_site_fract_x
 _atom_site_fract_y
 _atom_site_fract_z
 _atom_site_occupancy
  Pr  Pr0  1  0.490311  0.875266  0.697835  1
  Pr  Pr1  1  0.509980  0.123887  0.197868  1
  Pr  Pr2  1  0.875265  0.488377  0.300174  1
  Pr  Pr3  1  0.124393  0.509021  0.800050  1
  Pr  Pr4  1  0.626507  0.988459  0.948774  1
  Pr  Pr5  1  0.004658  0.376523  0.551898  1
  Pr  Pr6  1  0.988322  0.625350  0.051324  1
  Pr  Pr7  1  0.134098  0.986382  0.873729  1
  Pr  Pr8  1  0.516559  0.630511  0.125893  1
  Pr  Pr9  1  0.474013  0.361524  0.628468  1
  Pr  Pr10  1  0.627670  0.516120  0.873791  1
  Pr  Pr11  1  0.373017  0.483230  0.373721  1
  Pr  Pr12  1  0.873036  0.019986  0.376939  1
  Pr  Pr13  1  0.982662  0.126642  0.124234  1
  Pr  Pr14  1  0.025582  0.880672  0.625328  1
  Nd  Nd15  1  0.305496  0.306474  0.998208  1
  Nd  Nd16  1  0.190319  0.808679  0.250011  1
  Nd  Nd17  1  0.817670  0.187880  0.750340  1
  Nd  Nd18  1  0.692292  0.688298  0.500500  1
  Nd  Nd19  1  0.374702  0.009712  0.448525  1
  Si  Si20  1  0.332511  0.694849  0.950781  1
  Si  Si21  1  0.664637  0.303996  0.452026  1
  Si  Si22  1  0.696851  0.334782  0.049808  1
  Si  Si23  1  0.305424  0.668952  0.548070  1
  Si  Si24  1  0.805351  0.832511  0.202704  1
  Si  Si25  1  0.168380  0.196358  0.298552  1
  Si  Si26  1  0.833910  0.803459  0.798947  1
  Si  Si27  1  0.288262  0.922627  0.059057  1
  Si  Si28  1  0.578295  0.787702  0.310550  1
  Si  Si29  1  0.427653  0.207777  0.812248  1
  Si  Si30  1  0.783774  0.580506  0.689832  1
  Si  Si31  1  0.212780  0.422521  0.190005  1
  Si  Si32  1  0.705162  0.073782  0.558980  1
  Si  Si33  1  0.920311  0.288259  0.941226  1
  Si  Si34  1  0.079181  0.715561  0.441129  1
  Rh  Rh35  1  0.190961  0.173364  0.698474  1
