# generated using pymatgen
data_Zr6Sc8Al8Ir6Rh
_symmetry_space_group_name_H-M   'P 1'
_cell_length_a   9.08251785
_cell_length_b   9.08251804
_cell_length_c   9.09653800
_cell_angle_alpha   59.94892429
_cell_angle_beta   59.94892362
_cell_angle_gamma   59.87451612
_symmetry_Int_Tables_number   1
_chemical_formula_structural   Zr6Sc8Al8Ir6Rh
_chemical_formula_sum   'Zr6 Sc8 Al8 Ir6 Rh1'
_cell_volume   529.69398118
_cell_formula_units_Z   1
loop_
 _symmetry_equiv_pos_site_id
 _symmetry_equiv_pos_as_xyz
  1  'x, y, z'
loop_
 _atom_site_type_symbol
 _atom_site_label
 _atom_site_symmetry_multiplicity
 _atom_site_fract_x
 _atom_site_fract_y
 _atom_site_fract_z
 _atom_site_occupancy
  Zr  Zr0  1  0.678817  0.678817  0.321183  1
  Zr  Zr1  1  0.321148  0.678852  0.322107  1
  Zr  Zr2  1  0.678852  0.321148  0.322107  1
  Zr  Zr3  1  0.321183  0.321183  0.678817  1
  Zr  Zr4  1  0.678852  0.321148  0.677893  1
  Zr  Zr5  1  0.321148  0.678852  0.677893  1
  Sc  Sc6  1  0.877483  0.877483  0.367629  1
  Sc  Sc7  1  0.878212  0.367220  0.877284  1
  Sc  Sc8  1  0.367220  0.878212  0.877284  1
  Sc  Sc9  1  0.877483  0.877483  0.877407  1
  Sc  Sc10  1  0.122517  0.122517  0.632371  1
  Sc  Sc11  1  0.121788  0.632780  0.122716  1
  Sc  Sc12  1  0.632780  0.121788  0.122716  1
  Sc  Sc13  1  0.122517  0.122517  0.122593  1
  Al  Al14  1  0.661560  0.661560  0.015607  1
  Al  Al15  1  0.661741  0.015286  0.661486  1
  Al  Al16  1  0.015286  0.661741  0.661486  1
  Al  Al17  1  0.661560  0.661560  0.661272  1
  Al  Al18  1  0.338440  0.338440  0.984393  1
  Al  Al19  1  0.338259  0.984714  0.338514  1
  Al  Al20  1  0.984714  0.338259  0.338514  1
  Al  Al21  1  0.338440  0.338440  0.338728  1
  Ir  Ir22  1  0.000000  0.000000  0.000000  1
  Ir  Ir23  1  0.000000  0.000000  0.500000  1
  Ir  Ir24  1  0.500000  0.000000  0.500000  1
  Ir  Ir25  1  0.000000  0.500000  0.500000  1
  Ir  Ir26  1  0.000000  0.500000  0.000000  1
  Ir  Ir27  1  0.500000  0.000000  0.000000  1
  Rh  Rh28  1  0.500000  0.500000  0.000000  1
