# generated using pymatgen
data_V12Re5Mo6Rh
_symmetry_space_group_name_H-M   'P 1'
_cell_length_a   4.29562400
_cell_length_b   6.10323900
_cell_length_c   13.05340100
_cell_angle_alpha   89.99997744
_cell_angle_beta   90.00002668
_cell_angle_gamma   89.99822784
_symmetry_Int_Tables_number   1
_chemical_formula_structural   V12Re5Mo6Rh
_chemical_formula_sum   'V12 Re5 Mo6 Rh1'
_cell_volume   342.22388472
_cell_formula_units_Z   1
loop_
 _symmetry_equiv_pos_site_id
 _symmetry_equiv_pos_as_xyz
  1  'x, y, z'
loop_
 _atom_site_type_symbol
 _atom_site_label
 _atom_site_symmetry_multiplicity
 _atom_site_fract_x
 _atom_site_fract_y
 _atom_site_fract_z
 _atom_site_occupancy
  V  V0  1  0.499895  0.244444  0.000003  1
  V  V1  1  0.500108  0.755626  0.000002  1
  V  V2  1  0.000000  0.248071  0.168100  1
  V  V3  1  0.000035  0.751883  0.168063  1
  V  V4  1  0.500032  0.250655  0.332992  1
  V  V5  1  0.500006  0.749363  0.332973  1
  V  V6  1  0.000037  0.250425  0.499998  1
  V  V7  1  0.999962  0.749603  0.499998  1
  V  V8  1  0.499994  0.250651  0.667007  1
  V  V9  1  0.499967  0.749366  0.667025  1
  V  V10  1  0.999967  0.248076  0.831902  1
  V  V11  1  0.000001  0.751881  0.831939  1
  Re  Re12  1  0.500016  0.000013  0.166492  1
  Re  Re13  1  0.000017  0.500002  0.332847  1
  Re  Re14  1  0.499999  0.000013  0.500005  1
  Re  Re15  1  0.999983  0.500002  0.667150  1
  Re  Re16  1  0.499986  0.000014  0.833509  1
  Mo  Mo17  1  0.000001  0.999886  0.000003  1
  Mo  Mo18  1  0.500015  0.500017  0.164632  1
  Mo  Mo19  1  0.000015  0.000029  0.333839  1
  Mo  Mo20  1  0.500000  0.500006  0.500003  1
  Mo  Mo21  1  0.999983  0.000028  0.666159  1
  Mo  Mo22  1  0.499985  0.500020  0.835361  1
  Rh  Rh23  1  0.000000  0.499922  0.999999  1
