# generated using pymatgen
data_AcLa5NdIr3
_symmetry_space_group_name_H-M   'P 1'
_cell_length_a   6.59255850
_cell_length_b   10.26709675
_cell_length_c   10.32115819
_cell_angle_alpha   119.82759570
_cell_angle_beta   89.83058639
_cell_angle_gamma   90.00268470
_symmetry_Int_Tables_number   1
_chemical_formula_structural   AcLa5NdIr3
_chemical_formula_sum   'Ac2 La10 Nd2 Ir6'
_cell_volume   606.05228535
_cell_formula_units_Z   2
loop_
 _symmetry_equiv_pos_site_id
 _symmetry_equiv_pos_as_xyz
  1  'x, y, z'
loop_
 _atom_site_type_symbol
 _atom_site_label
 _atom_site_symmetry_multiplicity
 _atom_site_fract_x
 _atom_site_fract_y
 _atom_site_fract_z
 _atom_site_occupancy
  Ac  Ac0  1  0.246316  0.128889  0.871982  1
  Ac  Ac1  1  0.246338  0.743078  0.871975  1
  La  La2  1  0.250682  0.127131  0.254297  1
  La  La3  1  0.749799  0.874276  0.127858  1
  La  La4  1  0.749806  0.253618  0.127876  1
  La  La5  1  0.750022  0.873059  0.746107  1
  La  La6  1  0.432737  0.538870  0.459568  1
  La  La7  1  0.432663  0.920699  0.459580  1
  La  La8  1  0.429888  0.541138  0.082302  1
  La  La9  1  0.931874  0.459734  0.536787  1
  La  La10  1  0.931771  0.077043  0.536762  1
  La  La11  1  0.927923  0.461093  0.922170  1
  Nd  Nd12  1  0.475857  0.333478  0.666963  1
  Nd  Nd13  1  0.971269  0.666327  0.332655  1
  Ir  Ir14  1  0.193397  0.815622  0.193134  1
  Ir  Ir15  1  0.193404  0.377509  0.193143  1
  Ir  Ir16  1  0.191582  0.809387  0.618801  1
  Ir  Ir17  1  0.701678  0.186461  0.811774  1
  Ir  Ir18  1  0.701692  0.625310  0.811754  1
  Ir  Ir19  1  0.693298  0.187276  0.374513  1
