# generated using pymatgen
data_Li2SnSbRh4
_symmetry_space_group_name_H-M   'P 1'
_cell_length_a   7.58741925
_cell_length_b   7.58741997
_cell_length_c   7.58742083
_cell_angle_alpha   33.55433100
_cell_angle_beta   33.55432130
_cell_angle_gamma   33.55433868
_symmetry_Int_Tables_number   1
_chemical_formula_structural   Li2SnSbRh4
_chemical_formula_sum   'Li2 Sn1 Sb1 Rh4'
_cell_volume   118.86261202
_cell_formula_units_Z   1
loop_
 _symmetry_equiv_pos_site_id
 _symmetry_equiv_pos_as_xyz
  1  'x, y, z'
loop_
 _atom_site_type_symbol
 _atom_site_label
 _atom_site_symmetry_multiplicity
 _atom_site_fract_x
 _atom_site_fract_y
 _atom_site_fract_z
 _atom_site_occupancy
  Li  Li0  1  0.249220  0.249220  0.249220  1
  Li  Li1  1  0.750780  0.750780  0.750780  1
  Sn  Sn2  1  0.500000  0.500000  0.500000  1
  Sb  Sb3  1  0.000000  0.000000  0.000000  1
  Rh  Rh4  1  0.626275  0.626275  0.626275  1
  Rh  Rh5  1  0.123636  0.123636  0.123636  1
  Rh  Rh6  1  0.876364  0.876364  0.876364  1
  Rh  Rh7  1  0.373725  0.373725  0.373725  1
