# generated using pymatgen
data_Tm16In4NiIr3
_symmetry_space_group_name_H-M   'P 1'
_cell_length_a   9.49524235
_cell_length_b   9.52082528
_cell_length_c   9.52079383
_cell_angle_alpha   60.25630532
_cell_angle_beta   59.98777267
_cell_angle_gamma   59.98775385
_symmetry_Int_Tables_number   1
_chemical_formula_structural   Tm16In4NiIr3
_chemical_formula_sum   'Tm16 In4 Ni1 Ir3'
_cell_volume   609.66650038
_cell_formula_units_Z   1
loop_
 _symmetry_equiv_pos_site_id
 _symmetry_equiv_pos_as_xyz
  1  'x, y, z'
loop_
 _atom_site_type_symbol
 _atom_site_label
 _atom_site_symmetry_multiplicity
 _atom_site_fract_x
 _atom_site_fract_y
 _atom_site_fract_z
 _atom_site_occupancy
  Tm  Tm0  1  0.349750  0.346800  0.346806  1
  Tm  Tm1  1  0.351469  0.349716  0.952388  1
  Tm  Tm2  1  0.351468  0.952390  0.349720  1
  Tm  Tm3  1  0.951613  0.350204  0.350206  1
  Tm  Tm4  1  0.808252  0.189537  0.189541  1
  Tm  Tm5  1  0.189495  0.809518  0.809516  1
  Tm  Tm6  1  0.188960  0.808939  0.191421  1
  Tm  Tm7  1  0.808788  0.189874  0.811526  1
  Tm  Tm8  1  0.188965  0.191419  0.808937  1
  Tm  Tm9  1  0.808786  0.811528  0.189876  1
  Tm  Tm10  1  0.939970  0.560576  0.560574  1
  Tm  Tm11  1  0.559117  0.938937  0.938941  1
  Tm  Tm12  1  0.560353  0.937984  0.563702  1
  Tm  Tm13  1  0.941169  0.559178  0.940797  1
  Tm  Tm14  1  0.560350  0.563695  0.937991  1
  Tm  Tm15  1  0.941171  0.940797  0.559176  1
  In  In16  1  0.583056  0.583759  0.583761  1
  In  In17  1  0.582968  0.583483  0.250047  1
  In  In18  1  0.582967  0.250043  0.583478  1
  In  In19  1  0.250859  0.583193  0.583164  1
  Ni  Ni20  1  0.576046  0.140751  0.140758  1
  Ir  Ir21  1  0.142332  0.141420  0.141421  1
  Ir  Ir22  1  0.141046  0.140794  0.575463  1
  Ir  Ir23  1  0.141050  0.575464  0.140790  1
