# generated using pymatgen
data_TbEr9In7HgPd4
_symmetry_space_group_name_H-M   'P 1'
_cell_length_a   3.62594000
_cell_length_b   8.07918760
_cell_length_c   18.13983593
_cell_angle_alpha   90.11544239
_cell_angle_beta   90.00000000
_cell_angle_gamma   90.00000000
_symmetry_Int_Tables_number   1
_chemical_formula_structural   TbEr9In7HgPd4
_chemical_formula_sum   'Tb1 Er9 In7 Hg1 Pd4'
_cell_volume   531.39905679
_cell_formula_units_Z   1
loop_
 _symmetry_equiv_pos_site_id
 _symmetry_equiv_pos_as_xyz
  1  'x, y, z'
loop_
 _atom_site_type_symbol
 _atom_site_label
 _atom_site_symmetry_multiplicity
 _atom_site_fract_x
 _atom_site_fract_y
 _atom_site_fract_z
 _atom_site_occupancy
  Tb  Tb0  1  0.000000  0.499765  0.500266  1
  Er  Er1  1  0.000000  0.995871  0.997439  1
  Er  Er2  1  0.000000  0.741432  0.279362  1
  Er  Er3  1  0.000000  0.258393  0.719601  1
  Er  Er4  1  0.000000  0.758128  0.784002  1
  Er  Er5  1  0.000000  0.241530  0.219927  1
  Er  Er6  1  0.000000  0.616156  0.083523  1
  Er  Er7  1  0.000000  0.390567  0.915835  1
  Er  Er8  1  0.000000  0.881204  0.585308  1
  Er  Er9  1  0.000000  0.117160  0.415641  1
  In  In10  1  0.500000  0.289932  0.066931  1
  In  In11  1  0.500000  0.792746  0.432281  1
  In  In12  1  0.500000  0.205574  0.567551  1
  In  In13  1  0.500000  0.579064  0.650302  1
  In  In14  1  0.500000  0.422137  0.350384  1
  In  In15  1  0.500000  0.922211  0.147991  1
  In  In16  1  0.500000  0.082126  0.851147  1
  Hg  Hg17  1  0.500000  0.710179  0.933677  1
  Pd  Pd18  1  0.500000  0.523523  0.195730  1
  Pd  Pd19  1  0.500000  0.473381  0.802650  1
  Pd  Pd20  1  0.500000  0.975324  0.696621  1
  Pd  Pd21  1  0.500000  0.023596  0.303831  1
