# generated using pymatgen
data_Rb2ScMn11O24
_symmetry_space_group_name_H-M   'P 1'
_cell_length_a   8.25508477
_cell_length_b   8.25508627
_cell_length_c   9.89817700
_cell_angle_alpha   54.24941326
_cell_angle_beta   54.24940578
_cell_angle_gamma   64.73632979
_symmetry_Int_Tables_number   1
_chemical_formula_structural   Rb2ScMn11O24
_chemical_formula_sum   'Rb2 Sc1 Mn11 O24'
_cell_volume   440.51846120
_cell_formula_units_Z   1
loop_
 _symmetry_equiv_pos_site_id
 _symmetry_equiv_pos_as_xyz
  1  'x, y, z'
loop_
 _atom_site_type_symbol
 _atom_site_label
 _atom_site_symmetry_multiplicity
 _atom_site_fract_x
 _atom_site_fract_y
 _atom_site_fract_z
 _atom_site_occupancy
  Rb  Rb0  1  0.706615  0.295347  0.997156  1
  Rb  Rb1  1  0.295347  0.706615  0.997156  1
  Sc  Sc2  1  0.340875  0.340875  0.808807  1
  Mn  Mn3  1  0.001081  0.672705  0.818576  1
  Mn  Mn4  1  0.672705  0.001081  0.818576  1
  Mn  Mn5  1  0.996477  0.330749  0.182637  1
  Mn  Mn6  1  0.663100  0.663100  0.184897  1
  Mn  Mn7  1  0.330749  0.996477  0.182637  1
  Mn  Mn8  1  0.149342  0.149342  0.515234  1
  Mn  Mn9  1  0.481247  0.819186  0.516656  1
  Mn  Mn10  1  0.819186  0.481247  0.516656  1
  Mn  Mn11  1  0.851996  0.851996  0.479000  1
  Mn  Mn12  1  0.186485  0.517589  0.475316  1
  Mn  Mn13  1  0.517589  0.186485  0.475316  1
  O  O14  1  0.345725  0.345725  0.600425  1
  O  O15  1  0.012431  0.673740  0.614279  1
  O  O16  1  0.673740  0.012431  0.614279  1
  O  O17  1  0.987619  0.321344  0.387553  1
  O  O18  1  0.646809  0.646809  0.396496  1
  O  O19  1  0.321344  0.987619  0.387553  1
  O  O20  1  0.341879  0.341879  0.349444  1
  O  O21  1  0.009409  0.672689  0.358000  1
  O  O22  1  0.672689  0.009409  0.358000  1
  O  O23  1  0.997757  0.326030  0.634015  1
  O  O24  1  0.659429  0.659429  0.638313  1
  O  O25  1  0.326030  0.997757  0.634015  1
  O  O26  1  0.644104  0.285437  0.718795  1
  O  O27  1  0.285437  0.644104  0.718795  1
  O  O28  1  0.959687  0.959687  0.716937  1
  O  O29  1  0.707461  0.375678  0.281269  1
  O  O30  1  0.375678  0.707461  0.281269  1
  O  O31  1  0.042065  0.042065  0.279281  1
  O  O32  1  0.953014  0.624730  0.066088  1
  O  O33  1  0.624730  0.953014  0.066088  1
  O  O34  1  0.286715  0.286715  0.072114  1
  O  O35  1  0.382777  0.025904  0.954093  1
  O  O36  1  0.025904  0.382777  0.954093  1
  O  O37  1  0.704775  0.704775  0.950191  1
