# generated using pymatgen
data_Li6In5AgPd12
_symmetry_space_group_name_H-M   'P 1'
_cell_length_a   4.22932601
_cell_length_b   7.03581051
_cell_length_c   12.74704900
_cell_angle_alpha   90.01557028
_cell_angle_beta   90.00357648
_cell_angle_gamma   89.95419211
_symmetry_Int_Tables_number   1
_chemical_formula_structural   Li6In5AgPd12
_chemical_formula_sum   'Li6 In5 Ag1 Pd12'
_cell_volume   379.31044065
_cell_formula_units_Z   1
loop_
 _symmetry_equiv_pos_site_id
 _symmetry_equiv_pos_as_xyz
  1  'x, y, z'
loop_
 _atom_site_type_symbol
 _atom_site_label
 _atom_site_symmetry_multiplicity
 _atom_site_fract_x
 _atom_site_fract_y
 _atom_site_fract_z
 _atom_site_occupancy
  Li  Li0  1  0.000247  0.500039  0.987954  1
  Li  Li1  1  0.500097  0.999992  0.166192  1
  Li  Li2  1  0.999852  0.500026  0.333314  1
  Li  Li3  1  0.499937  0.999986  0.500499  1
  Li  Li4  1  0.999866  0.500039  0.678733  1
  Li  Li5  1  0.500168  0.999944  0.833369  1
  In  In6  1  0.000271  0.000036  0.001346  1
  In  In7  1  0.500105  0.499959  0.163681  1
  In  In8  1  0.999681  0.999783  0.333198  1
  In  In9  1  0.499858  0.499927  0.503027  1
  In  In10  1  0.999695  0.999901  0.665345  1
  Ag  Ag11  1  0.500216  0.500043  0.833351  1
  Pd  Pd12  1  0.500344  0.247666  0.000068  1
  Pd  Pd13  1  0.500553  0.752429  0.000140  1
  Pd  Pd14  1  0.000099  0.252504  0.166720  1
  Pd  Pd15  1  0.999848  0.747616  0.166712  1
  Pd  Pd16  1  0.499776  0.254377  0.333305  1
  Pd  Pd17  1  0.499978  0.745776  0.333347  1
  Pd  Pd18  1  0.999966  0.252342  0.499978  1
  Pd  Pd19  1  0.999693  0.747640  0.499890  1
  Pd  Pd20  1  0.499645  0.247676  0.666592  1
  Pd  Pd21  1  0.499826  0.752270  0.666541  1
  Pd  Pd22  1  0.000186  0.239066  0.833364  1
  Pd  Pd23  1  0.000093  0.760967  0.833332  1
