# generated using pymatgen
data_Be8VMo2W
_symmetry_space_group_name_H-M   'P 1'
_cell_length_a   4.43183200
_cell_length_b   4.43183192
_cell_length_c   7.24800500
_cell_angle_alpha   90.00000000
_cell_angle_beta   90.00000000
_cell_angle_gamma   120.00000063
_symmetry_Int_Tables_number   1
_chemical_formula_structural   Be8VMo2W
_chemical_formula_sum   'Be8 V1 Mo2 W1'
_cell_volume   123.28654525
_cell_formula_units_Z   1
loop_
 _symmetry_equiv_pos_site_id
 _symmetry_equiv_pos_as_xyz
  1  'x, y, z'
loop_
 _atom_site_type_symbol
 _atom_site_label
 _atom_site_symmetry_multiplicity
 _atom_site_fract_x
 _atom_site_fract_y
 _atom_site_fract_z
 _atom_site_occupancy
  Be  Be0  1  0.000000  0.000000  0.001560  1
  Be  Be1  1  0.000000  0.000000  0.498600  1
  Be  Be2  1  0.829718  0.659435  0.252023  1
  Be  Be3  1  0.170014  0.829986  0.748427  1
  Be  Be4  1  0.659971  0.829986  0.748427  1
  Be  Be5  1  0.340565  0.170282  0.252023  1
  Be  Be6  1  0.829718  0.170282  0.252023  1
  Be  Be7  1  0.170014  0.340029  0.748427  1
  V  V8  1  0.333333  0.666667  0.434288  1
  Mo  Mo9  1  0.333333  0.666667  0.064541  1
  Mo  Mo10  1  0.666667  0.333333  0.562376  1
  W  W11  1  0.666667  0.333333  0.937284  1
