# generated using pymatgen
data_SmHo2Co4P6Ru5
_symmetry_space_group_name_H-M   'P 1'
_cell_length_a   3.88311400
_cell_length_b   10.72571400
_cell_length_c   12.61133200
_cell_angle_alpha   90.00000000
_cell_angle_beta   90.00000000
_cell_angle_gamma   90.00000000
_symmetry_Int_Tables_number   1
_chemical_formula_structural   SmHo2Co4P6Ru5
_chemical_formula_sum   'Sm2 Ho4 Co8 P12 Ru10'
_cell_volume   525.25151283
_cell_formula_units_Z   2
loop_
 _symmetry_equiv_pos_site_id
 _symmetry_equiv_pos_as_xyz
  1  'x, y, z'
loop_
 _atom_site_type_symbol
 _atom_site_label
 _atom_site_symmetry_multiplicity
 _atom_site_fract_x
 _atom_site_fract_y
 _atom_site_fract_z
 _atom_site_occupancy
  Sm  Sm0  1  0.000000  0.500000  0.526720  1
  Sm  Sm1  1  0.500000  0.000000  0.473280  1
  Ho  Ho2  1  0.500000  0.821182  0.200037  1
  Ho  Ho3  1  0.500000  0.178818  0.200037  1
  Ho  Ho4  1  0.000000  0.678818  0.799963  1
  Ho  Ho5  1  0.000000  0.321182  0.799963  1
  Co  Co6  1  0.000000  0.500000  0.984051  1
  Co  Co7  1  0.500000  0.000000  0.015949  1
  Co  Co8  1  0.500000  0.332244  0.988927  1
  Co  Co9  1  0.500000  0.667756  0.988927  1
  Co  Co10  1  0.000000  0.167756  0.011073  1
  Co  Co11  1  0.000000  0.832244  0.011073  1
  Co  Co12  1  0.500000  0.500000  0.704219  1
  Co  Co13  1  0.000000  0.000000  0.295781  1
  P  P14  1  0.500000  0.312786  0.618899  1
  P  P15  1  0.500000  0.687214  0.618899  1
  P  P16  1  0.000000  0.187214  0.381101  1
  P  P17  1  0.000000  0.812786  0.381101  1
  P  P18  1  0.500000  0.500000  0.881807  1
  P  P19  1  0.000000  0.000000  0.118193  1
  P  P20  1  0.500000  0.845767  0.901541  1
  P  P21  1  0.500000  0.154233  0.901541  1
  P  P22  1  0.000000  0.654233  0.098459  1
  P  P23  1  0.000000  0.345767  0.098459  1
  P  P24  1  0.500000  0.500000  0.334415  1
  P  P25  1  0.000000  0.000000  0.665585  1
  Ru  Ru26  1  0.500000  0.297040  0.426375  1
  Ru  Ru27  1  0.500000  0.702960  0.426375  1
  Ru  Ru28  1  0.000000  0.202960  0.573625  1
  Ru  Ru29  1  0.000000  0.797040  0.573625  1
  Ru  Ru30  1  0.500000  0.874896  0.720389  1
  Ru  Ru31  1  0.500000  0.125104  0.720389  1
  Ru  Ru32  1  0.000000  0.625104  0.279611  1
  Ru  Ru33  1  0.000000  0.374896  0.279611  1
  Ru  Ru34  1  0.500000  0.500000  0.145740  1
  Ru  Ru35  1  0.000000  0.000000  0.854260  1
