# generated using pymatgen
data_CoPt7Rh
_symmetry_space_group_name_H-M   'P 1'
_cell_length_a   6.19185668
_cell_length_b   6.19185851
_cell_length_c   6.22953208
_cell_angle_alpha   95.74759312
_cell_angle_beta   95.82710990
_cell_angle_gamma   142.85398949
_symmetry_Int_Tables_number   1
_chemical_formula_structural   CoPt7Rh
_chemical_formula_sum   'Co1 Pt7 Rh1'
_cell_volume   136.80173919
_cell_formula_units_Z   1
loop_
 _symmetry_equiv_pos_site_id
 _symmetry_equiv_pos_as_xyz
  1  'x, y, z'
loop_
 _atom_site_type_symbol
 _atom_site_label
 _atom_site_symmetry_multiplicity
 _atom_site_fract_x
 _atom_site_fract_y
 _atom_site_fract_z
 _atom_site_occupancy
  Co  Co0  1  0.003337  0.996700  0.000038  1
  Pt  Pt1  1  0.335524  0.664238  0.999763  1
  Pt  Pt2  1  0.661715  0.660667  0.322383  1
  Pt  Pt3  1  0.326688  0.998669  0.325358  1
  Pt  Pt4  1  0.998566  0.328772  0.327339  1
  Pt  Pt5  1  0.671336  0.001572  0.672908  1
  Pt  Pt6  1  0.001428  0.673284  0.674712  1
  Pt  Pt7  1  0.339332  0.338341  0.677673  1
  Rh  Rh8  1  0.662073  0.337754  0.999825  1
