# generated using pymatgen
data_Ho3UAs6Ru7
_symmetry_space_group_name_H-M   'P 1'
_cell_length_a   7.28057717
_cell_length_b   7.20111481
_cell_length_c   7.20111488
_cell_angle_alpha   109.24661771
_cell_angle_beta   109.69490225
_cell_angle_gamma   109.69490449
_symmetry_Int_Tables_number   1
_chemical_formula_structural   Ho3UAs6Ru7
_chemical_formula_sum   'Ho3 U1 As6 Ru7'
_cell_volume   289.82579320
_cell_formula_units_Z   1
loop_
 _symmetry_equiv_pos_site_id
 _symmetry_equiv_pos_as_xyz
  1  'x, y, z'
loop_
 _atom_site_type_symbol
 _atom_site_label
 _atom_site_symmetry_multiplicity
 _atom_site_fract_x
 _atom_site_fract_y
 _atom_site_fract_z
 _atom_site_occupancy
  Ho  Ho0  1  0.000000  0.000000  0.500000  1
  Ho  Ho1  1  0.000000  0.500000  0.000000  1
  Ho  Ho2  1  0.500000  0.500000  0.500000  1
  U  U3  1  0.500000  0.000000  0.000000  1
  As  As4  1  0.314288  0.000000  0.316478  1
  As  As5  1  0.002190  0.316478  0.316478  1
  As  As6  1  0.997810  0.683522  0.683522  1
  As  As7  1  0.314288  0.316478  0.000000  1
  As  As8  1  0.685712  0.683522  0.000000  1
  As  As9  1  0.685712  0.000000  0.683522  1
  Ru  Ru10  1  0.745614  0.491229  0.245614  1
  Ru  Ru11  1  0.500000  0.754386  0.245614  1
  Ru  Ru12  1  0.500000  0.245614  0.754386  1
  Ru  Ru13  1  0.745614  0.245614  0.491229  1
  Ru  Ru14  1  0.254386  0.754386  0.508771  1
  Ru  Ru15  1  0.254386  0.508771  0.754386  1
  Ru  Ru16  1  0.000000  0.000000  0.000000  1
