# generated using pymatgen
data_Rb2MgSi2SnAs4
_symmetry_space_group_name_H-M   'P 1'
_cell_length_a   8.42763438
_cell_length_b   8.91214030
_cell_length_c   8.53746124
_cell_angle_alpha   85.32518232
_cell_angle_beta   77.63102738
_cell_angle_gamma   72.87849991
_symmetry_Int_Tables_number   1
_chemical_formula_structural   Rb2MgSi2SnAs4
_chemical_formula_sum   'Rb4 Mg2 Si4 Sn2 As8'
_cell_volume   598.47484177
_cell_formula_units_Z   2
loop_
 _symmetry_equiv_pos_site_id
 _symmetry_equiv_pos_as_xyz
  1  'x, y, z'
loop_
 _atom_site_type_symbol
 _atom_site_label
 _atom_site_symmetry_multiplicity
 _atom_site_fract_x
 _atom_site_fract_y
 _atom_site_fract_z
 _atom_site_occupancy
  Rb  Rb0  1  0.443673  0.758992  0.384226  1
  Rb  Rb1  1  0.556327  0.241008  0.615774  1
  Rb  Rb2  1  0.433231  0.786571  0.870872  1
  Rb  Rb3  1  0.566769  0.213429  0.129128  1
  Mg  Mg4  1  0.956440  0.814806  0.250175  1
  Mg  Mg5  1  0.043560  0.185194  0.749825  1
  Si  Si6  1  0.940196  0.574460  0.618220  1
  Si  Si7  1  0.059804  0.425540  0.381780  1
  Si  Si8  1  0.146900  0.466470  0.968666  1
  Si  Si9  1  0.853100  0.533530  0.031334  1
  Sn  Sn10  1  0.942410  0.887634  0.785991  1
  Sn  Sn11  1  0.057590  0.112366  0.214009  1
  As  As12  1  0.783865  0.833178  0.555359  1
  As  As13  1  0.216135  0.166822  0.444641  1
  As  As14  1  0.815194  0.398390  0.287014  1
  As  As15  1  0.184806  0.601610  0.712986  1
  As  As16  1  0.745041  0.809690  0.058148  1
  As  As17  1  0.254959  0.190310  0.941852  1
  As  As18  1  0.773807  0.439442  0.811889  1
  As  As19  1  0.226193  0.560558  0.188111  1
