# generated using pymatgen
data_Ac11Nd(Si7Br3)2
_symmetry_space_group_name_H-M   'P 1'
_cell_length_a   4.26911800
_cell_length_b   12.27808800
_cell_length_c   17.50552000
_cell_angle_alpha   90.00000000
_cell_angle_beta   90.00000000
_cell_angle_gamma   90.00000000
_symmetry_Int_Tables_number   1
_chemical_formula_structural   Ac11Nd(Si7Br3)2
_chemical_formula_sum   'Ac11 Nd1 Si14 Br6'
_cell_volume   917.57995318
_cell_formula_units_Z   1
loop_
 _symmetry_equiv_pos_site_id
 _symmetry_equiv_pos_as_xyz
  1  'x, y, z'
loop_
 _atom_site_type_symbol
 _atom_site_label
 _atom_site_symmetry_multiplicity
 _atom_site_fract_x
 _atom_site_fract_y
 _atom_site_fract_z
 _atom_site_occupancy
  Ac  Ac0  1  0.500000  0.345213  0.500000  1
  Ac  Ac1  1  0.000000  0.655230  0.000000  1
  Ac  Ac2  1  0.500000  0.359985  0.754100  1
  Ac  Ac3  1  0.000000  0.640927  0.742517  1
  Ac  Ac4  1  0.500000  0.359985  0.245900  1
  Ac  Ac5  1  0.000000  0.640927  0.257483  1
  Ac  Ac6  1  0.500000  0.066121  0.880278  1
  Ac  Ac7  1  0.000000  0.932131  0.619026  1
  Ac  Ac8  1  0.500000  0.066121  0.119722  1
  Ac  Ac9  1  0.000000  0.932131  0.380974  1
  Ac  Ac10  1  0.500000  0.359211  0.000000  1
  Nd  Nd11  1  0.000000  0.642340  0.500000  1
  Si  Si12  1  0.000000  0.155724  0.000000  1
  Si  Si13  1  0.500000  0.840293  0.500000  1
  Si  Si14  1  0.500000  0.561761  0.876945  1
  Si  Si15  1  0.000000  0.442287  0.619533  1
  Si  Si16  1  0.500000  0.561761  0.123055  1
  Si  Si17  1  0.000000  0.442287  0.380467  1
  Si  Si18  1  0.000000  0.257732  0.877199  1
  Si  Si19  1  0.500000  0.739974  0.619238  1
  Si  Si20  1  0.000000  0.257732  0.122801  1
  Si  Si21  1  0.500000  0.739974  0.380762  1
  Si  Si22  1  0.000000  0.457646  0.875049  1
  Si  Si23  1  0.500000  0.543936  0.620530  1
  Si  Si24  1  0.500000  0.543936  0.379470  1
  Si  Si25  1  0.000000  0.457646  0.124951  1
  Br  Br26  1  0.500000  0.106597  0.692248  1
  Br  Br27  1  0.000000  0.892394  0.806749  1
  Br  Br28  1  0.000000  0.136518  0.500000  1
  Br  Br29  1  0.500000  0.862487  0.000000  1
  Br  Br30  1  0.500000  0.106597  0.307752  1
  Br  Br31  1  0.000000  0.892394  0.193251  1
