# generated using pymatgen
data_PrTaTiIr2
_symmetry_space_group_name_H-M   'P 1'
_cell_length_a   6.14441808
_cell_length_b   6.14441833
_cell_length_c   6.14441900
_cell_angle_alpha   137.91563649
_cell_angle_beta   137.91562512
_cell_angle_gamma   61.03224156
_symmetry_Int_Tables_number   1
_chemical_formula_structural   PrTaTiIr2
_chemical_formula_sum   'Pr1 Ta1 Ti1 Ir2'
_cell_volume   103.05598149
_cell_formula_units_Z   1
loop_
 _symmetry_equiv_pos_site_id
 _symmetry_equiv_pos_as_xyz
  1  'x, y, z'
loop_
 _atom_site_type_symbol
 _atom_site_label
 _atom_site_symmetry_multiplicity
 _atom_site_fract_x
 _atom_site_fract_y
 _atom_site_fract_z
 _atom_site_occupancy
  Pr  Pr0  1  0.000000  0.000000  0.000000  1
  Ta  Ta1  1  0.250000  0.750000  0.500000  1
  Ti  Ti2  1  0.750000  0.250000  0.500000  1
  Ir  Ir3  1  0.624606  0.624606  0.000000  1
  Ir  Ir4  1  0.375394  0.375394  0.000000  1
