# generated using pymatgen
data_LuPa2Sn3Ir2Rh
_symmetry_space_group_name_H-M   'P 1'
_cell_length_a   7.46533622
_cell_length_b   7.40984881
_cell_length_c   3.99504600
_cell_angle_alpha   90.00000000
_cell_angle_beta   90.00000000
_cell_angle_gamma   119.75442592
_symmetry_Int_Tables_number   1
_chemical_formula_structural   LuPa2Sn3Ir2Rh
_chemical_formula_sum   'Lu1 Pa2 Sn3 Ir2 Rh1'
_cell_volume   191.85826602
_cell_formula_units_Z   1
loop_
 _symmetry_equiv_pos_site_id
 _symmetry_equiv_pos_as_xyz
  1  'x, y, z'
loop_
 _atom_site_type_symbol
 _atom_site_label
 _atom_site_symmetry_multiplicity
 _atom_site_fract_x
 _atom_site_fract_y
 _atom_site_fract_z
 _atom_site_occupancy
  Lu  Lu0  1  0.000000  0.592663  0.500000  1
  Pa  Pa1  1  0.413386  0.411996  0.500000  1
  Pa  Pa2  1  0.586614  0.998610  0.500000  1
  Sn  Sn3  1  0.755450  0.743933  0.000000  1
  Sn  Sn4  1  0.244550  0.988483  0.000000  1
  Sn  Sn5  1  0.000000  0.266388  0.000000  1
  Ir  Ir6  1  0.647098  0.318079  0.000000  1
  Ir  Ir7  1  0.352902  0.670983  0.000000  1
  Rh  Rh8  1  0.000000  0.008865  0.500000  1
