# generated using pymatgen
data_NbCu2Pd5
_symmetry_space_group_name_H-M   'P 1'
_cell_length_a   7.95360401
_cell_length_b   7.95360368
_cell_length_c   7.95360560
_cell_angle_alpha   150.91072241
_cell_angle_beta   150.91071258
_cell_angle_gamma   41.60619003
_symmetry_Int_Tables_number   1
_chemical_formula_structural   NbCu2Pd5
_chemical_formula_sum   'Nb1 Cu2 Pd5'
_cell_volume   118.65486747
_cell_formula_units_Z   1
loop_
 _symmetry_equiv_pos_site_id
 _symmetry_equiv_pos_as_xyz
  1  'x, y, z'
loop_
 _atom_site_type_symbol
 _atom_site_label
 _atom_site_symmetry_multiplicity
 _atom_site_fract_x
 _atom_site_fract_y
 _atom_site_fract_z
 _atom_site_occupancy
  Nb  Nb0  1  0.000000  0.000000  0.000000  1
  Cu  Cu1  1  0.746849  0.746849  0.000000  1
  Cu  Cu2  1  0.253151  0.253151  0.000000  1
  Pd  Pd3  1  0.500000  0.500000  0.000000  1
  Pd  Pd4  1  0.870383  0.370383  0.500000  1
  Pd  Pd5  1  0.370383  0.870383  0.500000  1
  Pd  Pd6  1  0.129617  0.629617  0.500000  1
  Pd  Pd7  1  0.629617  0.129617  0.500000  1
