# generated using pymatgen
data_Nd4Ho2Si3Ge
_symmetry_space_group_name_H-M   'P 1'
_cell_length_a   7.61549637
_cell_length_b   7.61549703
_cell_length_c   4.41067700
_cell_angle_alpha   90.00000000
_cell_angle_beta   90.00000000
_cell_angle_gamma   90.48339182
_symmetry_Int_Tables_number   1
_chemical_formula_structural   Nd4Ho2Si3Ge
_chemical_formula_sum   'Nd4 Ho2 Si3 Ge1'
_cell_volume   255.79159318
_cell_formula_units_Z   1
loop_
 _symmetry_equiv_pos_site_id
 _symmetry_equiv_pos_as_xyz
  1  'x, y, z'
loop_
 _atom_site_type_symbol
 _atom_site_label
 _atom_site_symmetry_multiplicity
 _atom_site_fract_x
 _atom_site_fract_y
 _atom_site_fract_z
 _atom_site_occupancy
  Nd  Nd0  1  0.679442  0.176842  0.500000  1
  Nd  Nd1  1  0.323158  0.820558  0.500000  1
  Nd  Nd2  1  0.175317  0.324683  0.500000  1
  Nd  Nd3  1  0.823449  0.676551  0.500000  1
  Ho  Ho4  1  0.500910  0.502596  0.000000  1
  Ho  Ho5  1  0.997404  0.999090  0.000000  1
  Si  Si6  1  0.113907  0.613448  0.000000  1
  Si  Si7  1  0.886552  0.386093  0.000000  1
  Si  Si8  1  0.616869  0.883131  0.000000  1
  Ge  Ge9  1  0.382993  0.117007  0.000000  1
