# generated using pymatgen
data_Y2Er10Co2Ni3Bi
_symmetry_space_group_name_H-M   'P 1'
_cell_length_a   8.29690219
_cell_length_b   8.29690208
_cell_length_c   8.27348615
_cell_angle_alpha   109.33123073
_cell_angle_beta   111.13350816
_cell_angle_gamma   108.08216817
_symmetry_Int_Tables_number   1
_chemical_formula_structural   Y2Er10Co2Ni3Bi
_chemical_formula_sum   'Y2 Er10 Co2 Ni3 Bi1'
_cell_volume   437.47014076
_cell_formula_units_Z   1
loop_
 _symmetry_equiv_pos_site_id
 _symmetry_equiv_pos_as_xyz
  1  'x, y, z'
loop_
 _atom_site_type_symbol
 _atom_site_label
 _atom_site_symmetry_multiplicity
 _atom_site_fract_x
 _atom_site_fract_y
 _atom_site_fract_z
 _atom_site_occupancy
  Y  Y0  1  0.288857  0.181066  0.469922  1
  Y  Y1  1  0.711143  0.818934  0.530078  1
  Er  Er2  1  0.288989  0.819508  0.108497  1
  Er  Er3  1  0.711011  0.180492  0.891503  1
  Er  Er4  1  0.625943  0.314945  0.309892  1
  Er  Er5  1  0.374057  0.685055  0.690108  1
  Er  Er6  1  0.005053  0.316050  0.690108  1
  Er  Er7  1  0.994947  0.683950  0.309892  1
  Er  Er8  1  0.209011  0.404240  0.193948  1
  Er  Er9  1  0.790989  0.595760  0.806052  1
  Er  Er10  1  0.210292  0.015064  0.806052  1
  Er  Er11  1  0.789708  0.984936  0.193948  1
  Co  Co12  1  0.385669  0.885669  0.500000  1
  Co  Co13  1  0.614331  0.114331  0.500000  1
  Ni  Ni14  1  0.999654  0.367350  0.367003  1
  Ni  Ni15  1  0.000346  0.632650  0.632997  1
  Ni  Ni16  1  0.000000  0.000000  0.000000  1
  Bi  Bi17  1  0.500000  0.500000  0.000000  1
