# generated using pymatgen
data_CaYTh2(Al3Ir)6
_symmetry_space_group_name_H-M   'P 1'
_cell_length_a   7.61199376
_cell_length_b   7.61424824
_cell_length_c   9.53918600
_cell_angle_alpha   90.00000000
_cell_angle_beta   90.00000000
_cell_angle_gamma   119.45222488
_symmetry_Int_Tables_number   1
_chemical_formula_structural   CaYTh2(Al3Ir)6
_chemical_formula_sum   'Ca1 Y1 Th2 Al18 Ir6'
_cell_volume   481.43563329
_cell_formula_units_Z   1
loop_
 _symmetry_equiv_pos_site_id
 _symmetry_equiv_pos_as_xyz
  1  'x, y, z'
loop_
 _atom_site_type_symbol
 _atom_site_label
 _atom_site_symmetry_multiplicity
 _atom_site_fract_x
 _atom_site_fract_y
 _atom_site_fract_z
 _atom_site_occupancy
  Ca  Ca0  1  0.004043  0.327642  0.750000  1
  Y  Y1  1  0.327425  0.004343  0.750000  1
  Th  Th2  1  0.994956  0.670714  0.250000  1
  Th  Th3  1  0.672287  0.995814  0.250000  1
  Al  Al4  1  0.135217  0.134694  0.250000  1
  Al  Al5  1  0.873466  0.872824  0.750000  1
  Al  Al6  1  0.005780  0.335688  0.069023  1
  Al  Al7  1  0.999599  0.663657  0.919636  1
  Al  Al8  1  0.999599  0.663657  0.580364  1
  Al  Al9  1  0.335628  0.005331  0.429852  1
  Al  Al10  1  0.005780  0.335688  0.430977  1
  Al  Al11  1  0.664964  0.000373  0.580303  1
  Al  Al12  1  0.664964  0.000373  0.919697  1
  Al  Al13  1  0.335628  0.005331  0.070148  1
  Al  Al14  1  0.331911  0.332822  0.553689  1
  Al  Al15  1  0.663103  0.663197  0.456638  1
  Al  Al16  1  0.663103  0.663197  0.043362  1
  Al  Al17  1  0.331911  0.332822  0.946311  1
  Al  Al18  1  0.340621  0.543162  0.250000  1
  Al  Al19  1  0.657716  0.448662  0.750000  1
  Al  Al20  1  0.543282  0.339387  0.250000  1
  Al  Al21  1  0.449017  0.660909  0.750000  1
  Ir  Ir22  1  0.671717  0.328513  0.002298  1
  Ir  Ir23  1  0.329621  0.674000  0.002219  1
  Ir  Ir24  1  0.329621  0.674000  0.497781  1
  Ir  Ir25  1  0.671717  0.328513  0.497702  1
  Ir  Ir26  1  0.998662  0.997344  0.002679  1
  Ir  Ir27  1  0.998662  0.997344  0.497321  1
