# generated using pymatgen
data_Dy19Er(Bi2Pt)4
_symmetry_space_group_name_H-M   'P 1'
_cell_length_a   8.07951429
_cell_length_b   9.04905108
_cell_length_c   12.43468940
_cell_angle_alpha   89.99191458
_cell_angle_beta   90.02777241
_cell_angle_gamma   89.98749134
_symmetry_Int_Tables_number   1
_chemical_formula_structural   Dy19Er(Bi2Pt)4
_chemical_formula_sum   'Dy19 Er1 Bi8 Pt4'
_cell_volume   909.12409571
_cell_formula_units_Z   1
loop_
 _symmetry_equiv_pos_site_id
 _symmetry_equiv_pos_as_xyz
  1  'x, y, z'
loop_
 _atom_site_type_symbol
 _atom_site_label
 _atom_site_symmetry_multiplicity
 _atom_site_fract_x
 _atom_site_fract_y
 _atom_site_fract_z
 _atom_site_occupancy
  Dy  Dy0  1  0.838440  0.750040  0.790334  1
  Dy  Dy1  1  0.161511  0.249960  0.209588  1
  Dy  Dy2  1  0.338712  0.249862  0.709537  1
  Dy  Dy3  1  0.661451  0.750001  0.290494  1
  Dy  Dy4  1  0.371483  0.750042  0.697280  1
  Dy  Dy5  1  0.628758  0.249848  0.302759  1
  Dy  Dy6  1  0.871249  0.249946  0.802545  1
  Dy  Dy7  1  0.128730  0.750011  0.197342  1
  Dy  Dy8  1  0.949600  0.750151  0.500017  1
  Dy  Dy9  1  0.049940  0.249874  0.500045  1
  Dy  Dy10  1  0.449935  0.249994  0.000005  1
  Dy  Dy11  1  0.550076  0.749989  0.999985  1
  Dy  Dy12  1  0.320943  0.954205  0.433344  1
  Dy  Dy13  1  0.179370  0.954112  0.933196  1
  Dy  Dy14  1  0.320632  0.545810  0.433232  1
  Dy  Dy15  1  0.820611  0.045849  0.066802  1
  Dy  Dy16  1  0.679293  0.454036  0.566799  1
  Dy  Dy17  1  0.820627  0.454133  0.066791  1
  Dy  Dy18  1  0.179369  0.545875  0.933209  1
  Er  Er19  1  0.678340  0.045950  0.566604  1
  Bi  Bi20  1  0.568870  0.491165  0.827329  1
  Bi  Bi21  1  0.431149  0.508821  0.172708  1
  Bi  Bi22  1  0.068867  0.508798  0.672668  1
  Bi  Bi23  1  0.431149  0.991175  0.172673  1
  Bi  Bi24  1  0.931158  0.491155  0.327320  1
  Bi  Bi25  1  0.568947  0.008864  0.827186  1
  Bi  Bi26  1  0.931230  0.008845  0.327330  1
  Bi  Bi27  1  0.068565  0.991206  0.672574  1
  Pt  Pt28  1  0.575258  0.750681  0.511572  1
  Pt  Pt29  1  0.425732  0.249593  0.488725  1
  Pt  Pt30  1  0.074849  0.250004  0.988526  1
  Pt  Pt31  1  0.925155  0.750003  0.011479  1
