# generated using pymatgen
data_Ba4Ga3GeI2
_symmetry_space_group_name_H-M   'P 1'
_cell_length_a   4.57562900
_cell_length_b   4.57562929
_cell_length_c   19.74513700
_cell_angle_alpha   90.00000000
_cell_angle_beta   90.00000000
_cell_angle_gamma   120.00000512
_symmetry_Int_Tables_number   1
_chemical_formula_structural   Ba4Ga3GeI2
_chemical_formula_sum   'Ba4 Ga3 Ge1 I2'
_cell_volume   358.00772351
_cell_formula_units_Z   1
loop_
 _symmetry_equiv_pos_site_id
 _symmetry_equiv_pos_as_xyz
  1  'x, y, z'
loop_
 _atom_site_type_symbol
 _atom_site_label
 _atom_site_symmetry_multiplicity
 _atom_site_fract_x
 _atom_site_fract_y
 _atom_site_fract_z
 _atom_site_occupancy
  Ba  Ba0  1  0.000000  0.000000  0.118943  1
  Ba  Ba1  1  0.000000  0.000000  0.381935  1
  Ba  Ba2  1  0.000000  0.000000  0.618736  1
  Ba  Ba3  1  0.000000  0.000000  0.882173  1
  Ga  Ga4  1  0.333333  0.666667  0.491295  1
  Ga  Ga5  1  0.666668  0.333335  0.508354  1
  Ga  Ga6  1  0.666668  0.333335  0.979253  1
  Ge  Ge7  1  0.333333  0.666667  0.019231  1
  I  I8  1  0.666668  0.333335  0.250005  1
  I  I9  1  0.333333  0.666667  0.750076  1
