# generated using pymatgen
data_AcSm(CdSn)2
_symmetry_space_group_name_H-M   'P 1'
_cell_length_a   4.83941800
_cell_length_b   4.83941633
_cell_length_c   17.22539800
_cell_angle_alpha   90.00000000
_cell_angle_beta   90.00000000
_cell_angle_gamma   120.00001141
_symmetry_Int_Tables_number   1
_chemical_formula_structural   AcSm(CdSn)2
_chemical_formula_sum   'Ac2 Sm2 Cd4 Sn4'
_cell_volume   349.37028824
_cell_formula_units_Z   2
loop_
 _symmetry_equiv_pos_site_id
 _symmetry_equiv_pos_as_xyz
  1  'x, y, z'
loop_
 _atom_site_type_symbol
 _atom_site_label
 _atom_site_symmetry_multiplicity
 _atom_site_fract_x
 _atom_site_fract_y
 _atom_site_fract_z
 _atom_site_occupancy
  Ac  Ac0  1  0.000000  0.000000  0.500000  1
  Ac  Ac1  1  0.000000  0.000000  0.000000  1
  Sm  Sm2  1  0.000000  0.000000  0.250000  1
  Sm  Sm3  1  0.000000  0.000000  0.750000  1
  Cd  Cd4  1  0.333333  0.666667  0.339408  1
  Cd  Cd5  1  0.666667  0.333333  0.660592  1
  Cd  Cd6  1  0.666667  0.333333  0.839408  1
  Cd  Cd7  1  0.333333  0.666667  0.160592  1
  Sn  Sn8  1  0.333333  0.666667  0.882683  1
  Sn  Sn9  1  0.666667  0.333333  0.117317  1
  Sn  Sn10  1  0.666667  0.333333  0.382683  1
  Sn  Sn11  1  0.333333  0.666667  0.617317  1
