# generated using pymatgen
data_La4Ge2Pd27Au
_symmetry_space_group_name_H-M   'P 1'
_cell_length_a   9.07554265
_cell_length_b   9.07554265
_cell_length_c   7.20697347
_cell_angle_alpha   90.02903162
_cell_angle_beta   90.02903162
_cell_angle_gamma   89.81864316
_symmetry_Int_Tables_number   1
_chemical_formula_structural   La4Ge2Pd27Au
_chemical_formula_sum   'La4 Ge2 Pd27 Au1'
_cell_volume   593.60266337
_cell_formula_units_Z   1
loop_
 _symmetry_equiv_pos_site_id
 _symmetry_equiv_pos_as_xyz
  1  'x, y, z'
loop_
 _atom_site_type_symbol
 _atom_site_label
 _atom_site_symmetry_multiplicity
 _atom_site_fract_x
 _atom_site_fract_y
 _atom_site_fract_z
 _atom_site_occupancy
  La  La0  1  0.502875  0.002875  0.936650  1
  La  La1  1  0.997125  0.497125  0.063350  1
  La  La2  1  0.999697  0.000303  0.500000  1
  La  La3  1  0.500303  0.499697  0.500000  1
  Ge  Ge4  1  0.500824  0.000824  0.449923  1
  Ge  Ge5  1  0.999176  0.499176  0.550077  1
  Pd  Pd6  1  0.332198  0.832198  0.618998  1
  Pd  Pd7  1  0.331438  0.169295  0.620879  1
  Pd  Pd8  1  0.669295  0.831438  0.620879  1
  Pd  Pd9  1  0.669070  0.169070  0.620962  1
  Pd  Pd10  1  0.167802  0.667802  0.381002  1
  Pd  Pd11  1  0.168562  0.330705  0.379121  1
  Pd  Pd12  1  0.830705  0.668562  0.379121  1
  Pd  Pd13  1  0.830930  0.330930  0.379038  1
  Pd  Pd14  1  0.501792  0.766911  0.254974  1
  Pd  Pd15  1  0.499699  0.233063  0.253692  1
  Pd  Pd16  1  0.266911  0.001792  0.254974  1
  Pd  Pd17  1  0.733063  0.999699  0.253692  1
  Pd  Pd18  1  0.998208  0.733089  0.745026  1
  Pd  Pd19  1  0.000301  0.266937  0.746308  1
  Pd  Pd20  1  0.233089  0.498208  0.745026  1
  Pd  Pd21  1  0.766937  0.500301  0.746308  1
  Pd  Pd22  1  0.499582  0.348878  0.856938  1
  Pd  Pd23  1  0.501576  0.649637  0.854825  1
  Pd  Pd24  1  0.848878  0.999582  0.856938  1
  Pd  Pd25  1  0.149637  0.001576  0.854825  1
  Pd  Pd26  1  0.000418  0.151122  0.143062  1
  Pd  Pd27  1  0.998424  0.850363  0.145175  1
  Pd  Pd28  1  0.651122  0.500418  0.143062  1
  Pd  Pd29  1  0.350363  0.498424  0.145175  1
  Pd  Pd30  1  0.250000  0.250000  0.000000  1
  Pd  Pd31  1  0.750000  0.750000  0.000000  1
  Pd  Pd32  1  0.750000  0.250000  0.000000  1
  Au  Au33  1  0.250000  0.750000  0.000000  1
