# generated using pymatgen
data_Eu2Co6P7Ru6
_symmetry_space_group_name_H-M   'P 1'
_cell_length_a   9.27021100
_cell_length_b   9.27021156
_cell_length_c   3.76409900
_cell_angle_alpha   90.00000000
_cell_angle_beta   90.00000000
_cell_angle_gamma   120.00000872
_symmetry_Int_Tables_number   1
_chemical_formula_structural   Eu2Co6P7Ru6
_chemical_formula_sum   'Eu2 Co6 P7 Ru6'
_cell_volume   280.13727218
_cell_formula_units_Z   1
loop_
 _symmetry_equiv_pos_site_id
 _symmetry_equiv_pos_as_xyz
  1  'x, y, z'
loop_
 _atom_site_type_symbol
 _atom_site_label
 _atom_site_symmetry_multiplicity
 _atom_site_fract_x
 _atom_site_fract_y
 _atom_site_fract_z
 _atom_site_occupancy
  Eu  Eu0  1  0.666667  0.333333  0.500000  1
  Eu  Eu1  1  0.333333  0.666667  0.000000  1
  Co  Co2  1  0.728631  0.884985  0.000000  1
  Co  Co3  1  0.939306  0.364445  0.000000  1
  Co  Co4  1  0.156355  0.271369  0.000000  1
  Co  Co5  1  0.115015  0.843645  0.000000  1
  Co  Co6  1  0.425139  0.060694  0.000000  1
  Co  Co7  1  0.635555  0.574861  0.000000  1
  P  P8  1  0.409710  0.296568  0.000000  1
  P  P9  1  0.284294  0.884820  0.500000  1
  P  P10  1  0.703432  0.113143  0.000000  1
  P  P11  1  0.600527  0.715706  0.500000  1
  P  P12  1  0.886857  0.590290  0.000000  1
  P  P13  1  0.115180  0.399473  0.500000  1
  P  P14  1  0.000000  0.000000  0.000000  1
  Ru  Ru15  1  0.213737  0.089654  0.500000  1
  Ru  Ru16  1  0.910346  0.124083  0.500000  1
  Ru  Ru17  1  0.390396  0.435492  0.500000  1
  Ru  Ru18  1  0.045096  0.609604  0.500000  1
  Ru  Ru19  1  0.564508  0.954904  0.500000  1
  Ru  Ru20  1  0.875917  0.786263  0.500000  1
