# generated using pymatgen
data_Y3Al12Ir3Ru
_symmetry_space_group_name_H-M   'P 1'
_cell_length_a   8.83281000
_cell_length_b   8.83281100
_cell_length_c   9.50866700
_cell_angle_alpha   90.00000000
_cell_angle_beta   90.00000000
_cell_angle_gamma   119.99999626
_symmetry_Int_Tables_number   1
_chemical_formula_structural   Y3Al12Ir3Ru
_chemical_formula_sum   'Y6 Al24 Ir6 Ru2'
_cell_volume   642.46298717
_cell_formula_units_Z   2
loop_
 _symmetry_equiv_pos_site_id
 _symmetry_equiv_pos_as_xyz
  1  'x, y, z'
loop_
 _atom_site_type_symbol
 _atom_site_label
 _atom_site_symmetry_multiplicity
 _atom_site_fract_x
 _atom_site_fract_y
 _atom_site_fract_z
 _atom_site_occupancy
  Y  Y0  1  0.191644  0.383288  0.250000  1
  Y  Y1  1  0.808356  0.616712  0.750000  1
  Y  Y2  1  0.616712  0.808356  0.250000  1
  Y  Y3  1  0.383288  0.191644  0.750000  1
  Y  Y4  1  0.191644  0.808356  0.250000  1
  Y  Y5  1  0.808356  0.191644  0.750000  1
  Al  Al6  1  0.333333  0.666667  0.031998  1
  Al  Al7  1  0.666667  0.333333  0.968002  1
  Al  Al8  1  0.666667  0.333333  0.531998  1
  Al  Al9  1  0.333333  0.666667  0.468002  1
  Al  Al10  1  0.163501  0.327001  0.574920  1
  Al  Al11  1  0.836499  0.672999  0.425080  1
  Al  Al12  1  0.672999  0.836499  0.574920  1
  Al  Al13  1  0.836499  0.672999  0.074920  1
  Al  Al14  1  0.327001  0.163501  0.425080  1
  Al  Al15  1  0.163501  0.327001  0.925080  1
  Al  Al16  1  0.163501  0.836499  0.574920  1
  Al  Al17  1  0.327001  0.163501  0.074920  1
  Al  Al18  1  0.836499  0.163501  0.425080  1
  Al  Al19  1  0.672999  0.836499  0.925080  1
  Al  Al20  1  0.836499  0.163501  0.074920  1
  Al  Al21  1  0.163501  0.836499  0.925080  1
  Al  Al22  1  0.562305  0.124610  0.250000  1
  Al  Al23  1  0.437695  0.875390  0.750000  1
  Al  Al24  1  0.875390  0.437695  0.250000  1
  Al  Al25  1  0.124610  0.562305  0.750000  1
  Al  Al26  1  0.562305  0.437695  0.250000  1
  Al  Al27  1  0.437695  0.562305  0.750000  1
  Al  Al28  1  0.000000  0.000000  0.250000  1
  Al  Al29  1  0.000000  0.000000  0.750000  1
  Ir  Ir30  1  0.500000  0.000000  0.000000  1
  Ir  Ir31  1  0.000000  0.500000  0.000000  1
  Ir  Ir32  1  0.500000  0.000000  0.500000  1
  Ir  Ir33  1  0.500000  0.500000  0.000000  1
  Ir  Ir34  1  0.000000  0.500000  0.500000  1
  Ir  Ir35  1  0.500000  0.500000  0.500000  1
  Ru  Ru36  1  0.000000  0.000000  0.000000  1
  Ru  Ru37  1  0.000000  0.000000  0.500000  1
