# generated using pymatgen
data_Th7Sc5Ni12
_symmetry_space_group_name_H-M   'P 1'
_cell_length_a   4.28756000
_cell_length_b   5.40244566
_cell_length_c   20.20679301
_cell_angle_alpha   83.18913859
_cell_angle_beta   90.00000000
_cell_angle_gamma   90.00000000
_symmetry_Int_Tables_number   1
_chemical_formula_structural   Th7Sc5Ni12
_chemical_formula_sum   'Th7 Sc5 Ni12'
_cell_volume   464.75315704
_cell_formula_units_Z   1
loop_
 _symmetry_equiv_pos_site_id
 _symmetry_equiv_pos_as_xyz
  1  'x, y, z'
loop_
 _atom_site_type_symbol
 _atom_site_label
 _atom_site_symmetry_multiplicity
 _atom_site_fract_x
 _atom_site_fract_y
 _atom_site_fract_z
 _atom_site_occupancy
  Th  Th0  1  0.750000  0.322942  0.061516  1
  Th  Th1  1  0.250000  0.677599  0.939836  1
  Th  Th2  1  0.750000  0.498199  0.225558  1
  Th  Th3  1  0.250000  0.508024  0.776705  1
  Th  Th4  1  0.750000  0.194327  0.390710  1
  Th  Th5  1  0.250000  0.804458  0.608057  1
  Th  Th6  1  0.750000  0.331152  0.558159  1
  Sc  Sc7  1  0.250000  0.673778  0.435592  1
  Sc  Sc8  1  0.750000  0.030253  0.730642  1
  Sc  Sc9  1  0.250000  0.972176  0.270850  1
  Sc  Sc10  1  0.750000  0.171772  0.894268  1
  Sc  Sc11  1  0.250000  0.829308  0.107194  1
  Ni  Ni12  1  0.750000  0.850237  0.020376  1
  Ni  Ni13  1  0.250000  0.149407  0.981352  1
  Ni  Ni14  1  0.750000  0.006366  0.181967  1
  Ni  Ni15  1  0.250000  0.998354  0.819005  1
  Ni  Ni16  1  0.750000  0.729655  0.343816  1
  Ni  Ni17  1  0.250000  0.259707  0.663756  1
  Ni  Ni18  1  0.750000  0.843298  0.503685  1
  Ni  Ni19  1  0.250000  0.145773  0.482662  1
  Ni  Ni20  1  0.750000  0.541234  0.684010  1
  Ni  Ni21  1  0.250000  0.463259  0.318487  1
  Ni  Ni22  1  0.750000  0.701033  0.847683  1
  Ni  Ni23  1  0.250000  0.297687  0.154115  1
