# generated using pymatgen
data_CeThP2
_symmetry_space_group_name_H-M   'P 1'
_cell_length_a   7.12663308
_cell_length_b   7.12663352
_cell_length_c   7.12663275
_cell_angle_alpha   33.61492466
_cell_angle_beta   33.61491651
_cell_angle_gamma   33.61493021
_symmetry_Int_Tables_number   1
_chemical_formula_structural   CeThP2
_chemical_formula_sum   'Ce1 Th1 P2'
_cell_volume   98.81953034
_cell_formula_units_Z   1
loop_
 _symmetry_equiv_pos_site_id
 _symmetry_equiv_pos_as_xyz
  1  'x, y, z'
loop_
 _atom_site_type_symbol
 _atom_site_label
 _atom_site_symmetry_multiplicity
 _atom_site_fract_x
 _atom_site_fract_y
 _atom_site_fract_z
 _atom_site_occupancy
  Ce  Ce0  1  0.000000  0.000000  0.000000  1
  Th  Th1  1  0.500000  0.500000  0.500000  1
  P  P2  1  0.250915  0.250915  0.250915  1
  P  P3  1  0.749085  0.749085  0.749085  1
