# generated using pymatgen
data_HoZnCdNi3
_symmetry_space_group_name_H-M   'P 1'
_cell_length_a   5.08755846
_cell_length_b   5.08755838
_cell_length_c   4.98131367
_cell_angle_alpha   59.29191242
_cell_angle_beta   59.29191315
_cell_angle_gamma   59.99999774
_symmetry_Int_Tables_number   1
_chemical_formula_structural   HoZnCdNi3
_chemical_formula_sum   'Ho1 Zn1 Cd1 Ni3'
_cell_volume   90.18113303
_cell_formula_units_Z   1
loop_
 _symmetry_equiv_pos_site_id
 _symmetry_equiv_pos_as_xyz
  1  'x, y, z'
loop_
 _atom_site_type_symbol
 _atom_site_label
 _atom_site_symmetry_multiplicity
 _atom_site_fract_x
 _atom_site_fract_y
 _atom_site_fract_z
 _atom_site_occupancy
  Ho  Ho0  1  0.247359  0.247359  0.257923  1
  Zn  Zn1  1  0.626568  0.626568  0.120296  1
  Cd  Cd2  1  0.998764  0.998764  0.003709  1
  Ni  Ni3  1  0.626604  0.124103  0.622691  1
  Ni  Ni4  1  0.124103  0.626604  0.622691  1
  Ni  Ni5  1  0.626604  0.626604  0.622691  1
