# generated using pymatgen
data_Mg6ReAsN8
_symmetry_space_group_name_H-M   'P 1'
_cell_length_a   6.71788500
_cell_length_b   5.79564122
_cell_length_c   5.32077845
_cell_angle_alpha   89.83401672
_cell_angle_beta   90.00000000
_cell_angle_gamma   90.00000000
_symmetry_Int_Tables_number   1
_chemical_formula_structural   Mg6ReAsN8
_chemical_formula_sum   'Mg6 Re1 As1 N8'
_cell_volume   207.16071989
_cell_formula_units_Z   1
loop_
 _symmetry_equiv_pos_site_id
 _symmetry_equiv_pos_as_xyz
  1  'x, y, z'
loop_
 _atom_site_type_symbol
 _atom_site_label
 _atom_site_symmetry_multiplicity
 _atom_site_fract_x
 _atom_site_fract_y
 _atom_site_fract_z
 _atom_site_occupancy
  Mg  Mg0  1  0.242440  0.174936  0.851185  1
  Mg  Mg1  1  0.757560  0.174936  0.851185  1
  Mg  Mg2  1  0.237450  0.833840  0.359396  1
  Mg  Mg3  1  0.762550  0.833840  0.359396  1
  Mg  Mg4  1  0.000000  0.646972  0.851228  1
  Mg  Mg5  1  0.500000  0.331799  0.360393  1
  Re  Re6  1  0.500000  0.673124  0.846323  1
  As  As7  1  0.000000  0.328604  0.348308  1
  N  N8  1  0.000000  0.628204  0.458414  1
  N  N9  1  0.500000  0.371761  0.952774  1
  N  N10  1  0.000000  0.324952  0.007934  1
  N  N11  1  0.500000  0.678836  0.503007  1
  N  N12  1  0.773166  0.178332  0.458428  1
  N  N13  1  0.226834  0.178332  0.458428  1
  N  N14  1  0.725631  0.820765  0.956421  1
  N  N15  1  0.274369  0.820765  0.956421  1
