# generated using pymatgen
data_LiAc(ReH9)2
_symmetry_space_group_name_H-M   'P 1'
_cell_length_a   5.01208813
_cell_length_b   5.01207131
_cell_length_c   8.68508800
_cell_angle_alpha   90.68494949
_cell_angle_beta   89.31315504
_cell_angle_gamma   120.82828989
_symmetry_Int_Tables_number   1
_chemical_formula_structural   LiAc(ReH9)2
_chemical_formula_sum   'Li1 Ac1 Re2 H18'
_cell_volume   187.33287525
_cell_formula_units_Z   1
loop_
 _symmetry_equiv_pos_site_id
 _symmetry_equiv_pos_as_xyz
  1  'x, y, z'
loop_
 _atom_site_type_symbol
 _atom_site_label
 _atom_site_symmetry_multiplicity
 _atom_site_fract_x
 _atom_site_fract_y
 _atom_site_fract_z
 _atom_site_occupancy
  Li  Li0  1  0.000000  0.000000  0.000000  1
  Ac  Ac1  1  0.000000  0.000000  0.500000  1
  Re  Re2  1  0.326041  0.673908  0.748825  1
  Re  Re3  1  0.673959  0.326092  0.251175  1
  H  H4  1  0.422801  0.577174  0.576549  1
  H  H5  1  0.577199  0.422826  0.423451  1
  H  H6  1  0.410742  0.589193  0.919654  1
  H  H7  1  0.589258  0.410807  0.080346  1
  H  H8  1  0.508497  0.977761  0.870075  1
  H  H9  1  0.977826  0.508573  0.129928  1
  H  H10  1  0.499177  0.006230  0.637855  1
  H  H11  1  0.006266  0.499220  0.362145  1
  H  H12  1  0.491503  0.022239  0.129925  1
  H  H13  1  0.022174  0.491427  0.870072  1
  H  H14  1  0.500823  0.993770  0.362145  1
  H  H15  1  0.993734  0.500780  0.637855  1
  H  H16  1  0.703388  0.767226  0.761432  1
  H  H17  1  0.767265  0.703436  0.238568  1
  H  H18  1  0.296612  0.232774  0.238568  1
  H  H19  1  0.232735  0.296564  0.761432  1
  H  H20  1  0.136102  0.863824  0.782022  1
  H  H21  1  0.863898  0.136176  0.217978  1
