# generated using pymatgen
data_Ca7Pr5(SiRh)8
_symmetry_space_group_name_H-M   'P 1'
_cell_length_a   5.79185854
_cell_length_b   7.86427775
_cell_length_c   13.37070084
_cell_angle_alpha   89.89995785
_cell_angle_beta   90.08247829
_cell_angle_gamma   89.94902604
_symmetry_Int_Tables_number   1
_chemical_formula_structural   Ca7Pr5(SiRh)8
_chemical_formula_sum   'Ca7 Pr5 Si8 Rh8'
_cell_volume   609.01736565
_cell_formula_units_Z   1
loop_
 _symmetry_equiv_pos_site_id
 _symmetry_equiv_pos_as_xyz
  1  'x, y, z'
loop_
 _atom_site_type_symbol
 _atom_site_label
 _atom_site_symmetry_multiplicity
 _atom_site_fract_x
 _atom_site_fract_y
 _atom_site_fract_z
 _atom_site_occupancy
  Ca  Ca0  1  0.129955  0.392054  0.099713  1
  Ca  Ca1  1  0.864815  0.603684  0.896443  1
  Ca  Ca2  1  0.868576  0.609920  0.600482  1
  Ca  Ca3  1  0.865018  0.892255  0.399901  1
  Ca  Ca4  1  0.130507  0.390994  0.401567  1
  Ca  Ca5  1  0.133098  0.107425  0.600401  1
  Ca  Ca6  1  0.139380  0.111409  0.896079  1
  Pr  Pr7  1  0.636248  0.248234  0.251102  1
  Pr  Pr8  1  0.358844  0.756737  0.750702  1
  Pr  Pr9  1  0.359861  0.743484  0.253764  1
  Pr  Pr10  1  0.642615  0.256199  0.748228  1
  Pr  Pr11  1  0.870364  0.889244  0.098072  1
  Si  Si12  1  0.149442  0.099660  0.251154  1
  Si  Si13  1  0.849016  0.900734  0.750153  1
  Si  Si14  1  0.848720  0.601944  0.250456  1
  Si  Si15  1  0.154443  0.402245  0.748882  1
  Si  Si16  1  0.598173  0.250987  0.999518  1
  Si  Si17  1  0.397768  0.747043  0.000218  1
  Si  Si18  1  0.406100  0.750107  0.500888  1
  Si  Si19  1  0.594520  0.248966  0.500188  1
  Rh  Rh20  1  0.370915  0.025403  0.089879  1
  Rh  Rh21  1  0.632496  0.973717  0.911774  1
  Rh  Rh22  1  0.630184  0.975353  0.589019  1
  Rh  Rh23  1  0.631259  0.524376  0.411200  1
  Rh  Rh24  1  0.366803  0.025075  0.411765  1
  Rh  Rh25  1  0.371048  0.474043  0.588304  1
  Rh  Rh26  1  0.369522  0.473459  0.911315  1
  Rh  Rh27  1  0.630306  0.525249  0.088832  1
