# generated using pymatgen
data_Sr2CeTiSb5
_symmetry_space_group_name_H-M   'P 1'
_cell_length_a   9.69877086
_cell_length_b   9.69877148
_cell_length_c   6.34204500
_cell_angle_alpha   90.00000000
_cell_angle_beta   90.00000000
_cell_angle_gamma   121.54266080
_symmetry_Int_Tables_number   1
_chemical_formula_structural   Sr2CeTiSb5
_chemical_formula_sum   'Sr4 Ce2 Ti2 Sb10'
_cell_volume   508.42887667
_cell_formula_units_Z   2
loop_
 _symmetry_equiv_pos_site_id
 _symmetry_equiv_pos_as_xyz
  1  'x, y, z'
loop_
 _atom_site_type_symbol
 _atom_site_label
 _atom_site_symmetry_multiplicity
 _atom_site_fract_x
 _atom_site_fract_y
 _atom_site_fract_z
 _atom_site_occupancy
  Sr  Sr0  1  0.619391  0.012610  0.250000  1
  Sr  Sr1  1  0.380609  0.987390  0.750000  1
  Sr  Sr2  1  0.012610  0.619391  0.250000  1
  Sr  Sr3  1  0.987390  0.380609  0.750000  1
  Ce  Ce4  1  0.380683  0.380683  0.250000  1
  Ce  Ce5  1  0.619317  0.619317  0.750000  1
  Ti  Ti6  1  0.000000  0.000000  0.000000  1
  Ti  Ti7  1  0.000000  0.000000  0.500000  1
  Sb  Sb8  1  0.246269  0.010482  0.250000  1
  Sb  Sb9  1  0.753731  0.989518  0.750000  1
  Sb  Sb10  1  0.010482  0.246269  0.250000  1
  Sb  Sb11  1  0.989518  0.753731  0.750000  1
  Sb  Sb12  1  0.745366  0.745366  0.250000  1
  Sb  Sb13  1  0.254634  0.254634  0.750000  1
  Sb  Sb14  1  0.346619  0.653381  0.000000  1
  Sb  Sb15  1  0.653381  0.346619  0.000000  1
  Sb  Sb16  1  0.653381  0.346619  0.500000  1
  Sb  Sb17  1  0.346619  0.653381  0.500000  1
