# generated using pymatgen
data_Tb6CoNi11(B2Ir)2
_symmetry_space_group_name_H-M   'P 1'
_cell_length_a   5.08880510
_cell_length_b   5.10032120
_cell_length_c   14.57018000
_cell_angle_alpha   90.00181186
_cell_angle_beta   90.00014151
_cell_angle_gamma   119.92506769
_symmetry_Int_Tables_number   1
_chemical_formula_structural   Tb6CoNi11(B2Ir)2
_chemical_formula_sum   'Tb6 Co1 Ni11 B4 Ir2'
_cell_volume   327.74518489
_cell_formula_units_Z   1
loop_
 _symmetry_equiv_pos_site_id
 _symmetry_equiv_pos_as_xyz
  1  'x, y, z'
loop_
 _atom_site_type_symbol
 _atom_site_label
 _atom_site_symmetry_multiplicity
 _atom_site_fract_x
 _atom_site_fract_y
 _atom_site_fract_z
 _atom_site_occupancy
  Tb  Tb0  1  0.666217  0.332438  0.031410  1
  Tb  Tb1  1  0.333186  0.666379  0.968359  1
  Tb  Tb2  1  0.332370  0.664734  0.532851  1
  Tb  Tb3  1  0.666240  0.332477  0.469664  1
  Tb  Tb4  1  0.666629  0.333277  0.250336  1
  Tb  Tb5  1  0.333256  0.666495  0.749662  1
  Co  Co6  1  0.836892  0.673765  0.653839  1
  Ni  Ni7  1  0.835427  0.166359  0.652410  1
  Ni  Ni8  1  0.330948  0.166362  0.652409  1
  Ni  Ni9  1  0.165396  0.330806  0.347470  1
  Ni  Ni10  1  0.165089  0.835020  0.347422  1
  Ni  Ni11  1  0.669915  0.835021  0.347422  1
  Ni  Ni12  1  0.165177  0.330368  0.152562  1
  Ni  Ni13  1  0.165084  0.834468  0.152606  1
  Ni  Ni14  1  0.669374  0.834473  0.152610  1
  Ni  Ni15  1  0.834904  0.669792  0.847364  1
  Ni  Ni16  1  0.834432  0.165281  0.847079  1
  Ni  Ni17  1  0.330863  0.165281  0.847080  1
  B  B18  1  0.669469  0.338918  0.748527  1
  B  B19  1  0.333308  0.666644  0.250029  1
  B  B20  1  0.997432  0.994843  0.749002  1
  B  B21  1  0.000318  0.000643  0.249904  1
  Ir  Ir22  1  0.998235  0.996467  0.500178  1
  Ir  Ir23  1  0.999840  0.999687  0.999804  1
