# generated using pymatgen
data_SmEr7BePd24
_symmetry_space_group_name_H-M   'P 1'
_cell_length_a   8.26828638
_cell_length_b   8.26828576
_cell_length_c   8.26828600
_cell_angle_alpha   89.96686966
_cell_angle_beta   90.03312341
_cell_angle_gamma   90.03312177
_symmetry_Int_Tables_number   1
_chemical_formula_structural   SmEr7BePd24
_chemical_formula_sum   'Sm1 Er7 Be1 Pd24'
_cell_volume   565.25740613
_cell_formula_units_Z   1
loop_
 _symmetry_equiv_pos_site_id
 _symmetry_equiv_pos_as_xyz
  1  'x, y, z'
loop_
 _atom_site_type_symbol
 _atom_site_label
 _atom_site_symmetry_multiplicity
 _atom_site_fract_x
 _atom_site_fract_y
 _atom_site_fract_z
 _atom_site_occupancy
  Sm  Sm0  1  0.748349  0.251651  0.251651  1
  Er  Er1  1  0.250620  0.250780  0.250780  1
  Er  Er2  1  0.749107  0.749483  0.749483  1
  Er  Er3  1  0.749220  0.749380  0.250780  1
  Er  Er4  1  0.749220  0.250780  0.749380  1
  Er  Er5  1  0.250517  0.250893  0.749483  1
  Er  Er6  1  0.250517  0.749483  0.250893  1
  Er  Er7  1  0.251067  0.748933  0.748933  1
  Be  Be8  1  0.001359  0.998641  0.998641  1
  Pd  Pd9  1  0.253385  0.499923  0.999917  1
  Pd  Pd10  1  0.746765  0.501786  0.998286  1
  Pd  Pd11  1  0.001714  0.253235  0.501786  1
  Pd  Pd12  1  0.498214  0.253235  0.998286  1
  Pd  Pd13  1  0.000083  0.746615  0.499923  1
  Pd  Pd14  1  0.500077  0.746615  0.999917  1
  Pd  Pd15  1  0.498214  0.998286  0.253235  1
  Pd  Pd16  1  0.253385  0.999917  0.499923  1
  Pd  Pd17  1  0.500077  0.999917  0.746615  1
  Pd  Pd18  1  0.746765  0.998286  0.501786  1
  Pd  Pd19  1  0.001714  0.501786  0.253235  1
  Pd  Pd20  1  0.000083  0.499923  0.746615  1
  Pd  Pd21  1  0.250281  0.500010  0.500010  1
  Pd  Pd22  1  0.749423  0.502473  0.502473  1
  Pd  Pd23  1  0.497527  0.250577  0.502473  1
  Pd  Pd24  1  0.499990  0.749719  0.500010  1
  Pd  Pd25  1  0.497527  0.502473  0.250577  1
  Pd  Pd26  1  0.499990  0.500010  0.749719  1
  Pd  Pd27  1  0.268197  0.999764  0.999764  1
  Pd  Pd28  1  0.733059  0.998458  0.998458  1
  Pd  Pd29  1  0.001542  0.266941  0.998458  1
  Pd  Pd30  1  0.000236  0.731803  0.999764  1
  Pd  Pd31  1  0.001542  0.998458  0.266941  1
  Pd  Pd32  1  0.000236  0.999764  0.731803  1
