# generated using pymatgen
data_SmHoCo4(B2Ru)4
_symmetry_space_group_name_H-M   'P 1'
_cell_length_a   7.20724403
_cell_length_b   7.22779703
_cell_length_c   3.92210100
_cell_angle_alpha   90.00000000
_cell_angle_beta   90.00000000
_cell_angle_gamma   90.01109007
_symmetry_Int_Tables_number   1
_chemical_formula_structural   SmHoCo4(B2Ru)4
_chemical_formula_sum   'Sm1 Ho1 Co4 B8 Ru4'
_cell_volume   204.31203094
_cell_formula_units_Z   1
loop_
 _symmetry_equiv_pos_site_id
 _symmetry_equiv_pos_as_xyz
  1  'x, y, z'
loop_
 _atom_site_type_symbol
 _atom_site_label
 _atom_site_symmetry_multiplicity
 _atom_site_fract_x
 _atom_site_fract_y
 _atom_site_fract_z
 _atom_site_occupancy
  Sm  Sm0  1  0.500000  0.500000  0.414808  1
  Ho  Ho1  1  0.000000  0.000000  0.908236  1
  Co  Co2  1  0.117695  0.378115  0.624022  1
  Co  Co3  1  0.882305  0.621885  0.624022  1
  Co  Co4  1  0.120920  0.618706  0.123472  1
  Co  Co5  1  0.879080  0.381294  0.123472  1
  B  B6  1  0.820948  0.659263  0.119457  1
  B  B7  1  0.179052  0.340737  0.119457  1
  B  B8  1  0.843095  0.317438  0.620864  1
  B  B9  1  0.156905  0.682562  0.620864  1
  B  B10  1  0.731677  0.827273  0.402037  1
  B  B11  1  0.268323  0.172727  0.402037  1
  B  B12  1  0.675009  0.225957  0.902306  1
  B  B13  1  0.324991  0.774043  0.902306  1
  Ru  Ru14  1  0.388428  0.157608  0.898057  1
  Ru  Ru15  1  0.611572  0.842392  0.898057  1
  Ru  Ru16  1  0.338517  0.890047  0.398265  1
  Ru  Ru17  1  0.661483  0.109953  0.398265  1
