# generated using pymatgen
data_GdYHo2(WN3)4
_symmetry_space_group_name_H-M   'P 1'
_cell_length_a   7.31482014
_cell_length_b   7.31481828
_cell_length_c   6.26886700
_cell_angle_alpha   73.68343253
_cell_angle_beta   73.68342864
_cell_angle_gamma   81.61329727
_symmetry_Int_Tables_number   1
_chemical_formula_structural   GdYHo2(WN3)4
_chemical_formula_sum   'Gd1 Y1 Ho2 W4 N12'
_cell_volume   308.13399820
_cell_formula_units_Z   1
loop_
 _symmetry_equiv_pos_site_id
 _symmetry_equiv_pos_as_xyz
  1  'x, y, z'
loop_
 _atom_site_type_symbol
 _atom_site_label
 _atom_site_symmetry_multiplicity
 _atom_site_fract_x
 _atom_site_fract_y
 _atom_site_fract_z
 _atom_site_occupancy
  Gd  Gd0  1  0.707567  0.292433  0.250000  1
  Y  Y1  1  0.291992  0.708008  0.750000  1
  Ho  Ho2  1  0.912137  0.087863  0.750000  1
  Ho  Ho3  1  0.089360  0.910640  0.250000  1
  W  W4  1  0.800277  0.619935  0.766251  1
  W  W5  1  0.199591  0.380676  0.232726  1
  W  W6  1  0.619324  0.800409  0.267274  1
  W  W7  1  0.380065  0.199723  0.733749  1
  N  N8  1  0.218650  0.999485  0.848688  1
  N  N9  1  0.360726  0.350606  0.440720  1
  N  N10  1  0.636539  0.649352  0.561196  1
  N  N11  1  0.625887  0.109183  0.662686  1
  N  N12  1  0.000515  0.781350  0.651312  1
  N  N13  1  0.783274  0.998451  0.150956  1
  N  N14  1  0.107786  0.626095  0.161401  1
  N  N15  1  0.890817  0.374113  0.837314  1
  N  N16  1  0.001549  0.216726  0.349044  1
  N  N17  1  0.350648  0.363461  0.938804  1
  N  N18  1  0.649394  0.639274  0.059280  1
  N  N19  1  0.373905  0.892214  0.338599  1
