# generated using pymatgen
data_Ho8TmMg(Ni2Sb)2
_symmetry_space_group_name_H-M   'P 1'
_cell_length_a   8.58404577
_cell_length_b   8.58324359
_cell_length_c   8.58331193
_cell_angle_alpha   128.32098618
_cell_angle_beta   128.33714789
_cell_angle_gamma   76.09249912
_symmetry_Int_Tables_number   1
_chemical_formula_structural   Ho8TmMg(Ni2Sb)2
_chemical_formula_sum   'Ho8 Tm1 Mg1 Ni4 Sb2'
_cell_volume   378.32717166
_cell_formula_units_Z   1
loop_
 _symmetry_equiv_pos_site_id
 _symmetry_equiv_pos_as_xyz
  1  'x, y, z'
loop_
 _atom_site_type_symbol
 _atom_site_label
 _atom_site_symmetry_multiplicity
 _atom_site_fract_x
 _atom_site_fract_y
 _atom_site_fract_z
 _atom_site_occupancy
  Ho  Ho0  1  0.537891  0.712833  0.515997  1
  Ho  Ho1  1  0.021859  0.537898  0.825075  1
  Ho  Ho2  1  0.712793  0.196787  0.174890  1
  Ho  Ho3  1  0.978141  0.462102  0.174925  1
  Ho  Ho4  1  0.196838  0.021883  0.483999  1
  Ho  Ho5  1  0.462109  0.287167  0.484003  1
  Ho  Ho6  1  0.803162  0.978117  0.516001  1
  Ho  Ho7  1  0.287207  0.803213  0.825110  1
  Tm  Tm8  1  0.500000  0.500000  0.000000  1
  Mg  Mg9  1  0.000000  0.000000  0.000000  1
  Ni  Ni10  1  0.378148  0.869500  0.247651  1
  Ni  Ni11  1  0.869530  0.621825  0.491352  1
  Ni  Ni12  1  0.621852  0.130500  0.752349  1
  Ni  Ni13  1  0.130470  0.378175  0.508648  1
  Sb  Sb14  1  0.741946  0.741967  0.000029  1
  Sb  Sb15  1  0.258054  0.258033  0.999971  1
