# generated using pymatgen
data_DySe23
_symmetry_space_group_name_H-M   'P 1'
_cell_length_a   5.62529708
_cell_length_b   10.34107068
_cell_length_c   16.05076500
_cell_angle_alpha   98.94882178
_cell_angle_beta   86.30808777
_cell_angle_gamma   94.29197785
_symmetry_Int_Tables_number   1
_chemical_formula_structural   DySe23
_chemical_formula_sum   'Dy1 Se23'
_cell_volume   918.42705268
_cell_formula_units_Z   1
loop_
 _symmetry_equiv_pos_site_id
 _symmetry_equiv_pos_as_xyz
  1  'x, y, z'
loop_
 _atom_site_type_symbol
 _atom_site_label
 _atom_site_symmetry_multiplicity
 _atom_site_fract_x
 _atom_site_fract_y
 _atom_site_fract_z
 _atom_site_occupancy
  Dy  Dy0  1  0.463398  0.222704  0.339514  1
  Se  Se1  1  0.486506  0.804742  0.389422  1
  Se  Se2  1  0.926337  0.331527  0.149690  1
  Se  Se3  1  0.820332  0.216569  0.451150  1
  Se  Se4  1  0.282562  0.772373  0.519606  1
  Se  Se5  1  0.169319  0.274133  0.025880  1
  Se  Se6  1  0.806494  0.740048  0.029508  1
  Se  Se7  1  0.120557  0.409756  0.370753  1
  Se  Se8  1  0.705340  0.616238  0.351482  1
  Se  Se9  1  0.766777  0.131760  0.191448  1
  Se  Se10  1  0.319146  0.906581  0.160524  1
  Se  Se11  1  0.760613  0.618717  0.618743  1
  Se  Se12  1  0.268516  0.359828  0.591348  1
  Se  Se13  1  0.218459  0.874534  0.864002  1
  Se  Se14  1  0.747322  0.117576  0.855936  1
  Se  Se15  1  0.091364  0.704820  0.124046  1
  Se  Se16  1  0.562434  0.814622  0.625693  1
  Se  Se17  1  0.444384  0.161449  0.519897  1
  Se  Se18  1  0.989640  0.684156  0.893042  1
  Se  Se19  1  0.969175  0.313032  0.908030  1
  Se  Se20  1  0.425448  0.468180  0.268928  1
  Se  Se21  1  0.118184  0.007558  0.286331  1
  Se  Se22  1  0.522492  0.469391  0.693091  1
  Se  Se23  1  0.015202  0.979709  0.771941  1
