# generated using pymatgen
data_LiNdYSi3Ag
_symmetry_space_group_name_H-M   'P 1'
_cell_length_a   9.36628312
_cell_length_b   9.36628380
_cell_length_c   6.96509500
_cell_angle_alpha   90.00000000
_cell_angle_beta   90.00000000
_cell_angle_gamma   153.38286977
_symmetry_Int_Tables_number   1
_chemical_formula_structural   LiNdYSi3Ag
_chemical_formula_sum   'Li2 Nd2 Y2 Si6 Ag2'
_cell_volume   273.75700770
_cell_formula_units_Z   2
loop_
 _symmetry_equiv_pos_site_id
 _symmetry_equiv_pos_as_xyz
  1  'x, y, z'
loop_
 _atom_site_type_symbol
 _atom_site_label
 _atom_site_symmetry_multiplicity
 _atom_site_fract_x
 _atom_site_fract_y
 _atom_site_fract_z
 _atom_site_occupancy
  Li  Li0  1  0.808462  0.191538  0.939489  1
  Li  Li1  1  0.808462  0.191538  0.560511  1
  Nd  Nd2  1  0.554711  0.445289  0.250000  1
  Nd  Nd3  1  0.446765  0.553235  0.750000  1
  Y  Y4  1  0.347414  0.652586  0.250000  1
  Y  Y5  1  0.652235  0.347765  0.750000  1
  Si  Si6  1  0.725685  0.274315  0.250000  1
  Si  Si7  1  0.277930  0.722070  0.750000  1
  Si  Si8  1  0.057512  0.942488  0.922982  1
  Si  Si9  1  0.940241  0.059759  0.076615  1
  Si  Si10  1  0.940241  0.059759  0.423385  1
  Si  Si11  1  0.057512  0.942488  0.577018  1
  Ag  Ag12  1  0.191414  0.808586  0.048996  1
  Ag  Ag13  1  0.191414  0.808586  0.451004  1
