# generated using pymatgen
data_TmLuNb3Si4
_symmetry_space_group_name_H-M   'P 1'
_cell_length_a   7.03332349
_cell_length_b   7.03477436
_cell_length_c   12.95025116
_cell_angle_alpha   90.01716724
_cell_angle_beta   90.00177202
_cell_angle_gamma   90.02371048
_symmetry_Int_Tables_number   1
_chemical_formula_structural   TmLuNb3Si4
_chemical_formula_sum   'Tm4 Lu4 Nb12 Si16'
_cell_volume   640.75041934
_cell_formula_units_Z   4
loop_
 _symmetry_equiv_pos_site_id
 _symmetry_equiv_pos_as_xyz
  1  'x, y, z'
loop_
 _atom_site_type_symbol
 _atom_site_label
 _atom_site_symmetry_multiplicity
 _atom_site_fract_x
 _atom_site_fract_y
 _atom_site_fract_z
 _atom_site_occupancy
  Tm  Tm0  1  0.998380  0.341142  0.218222  1
  Tm  Tm1  1  0.001120  0.659108  0.718258  1
  Tm  Tm2  1  0.158863  0.498781  0.468227  1
  Tm  Tm3  1  0.501249  0.841060  0.031849  1
  Lu  Lu4  1  0.841319  0.500285  0.968125  1
  Lu  Lu5  1  0.499577  0.158373  0.531886  1
  Lu  Lu6  1  0.341428  0.999807  0.781378  1
  Lu  Lu7  1  0.657866  0.000512  0.282187  1
  Nb  Nb8  1  0.170844  0.170840  0.999691  1
  Nb  Nb9  1  0.829045  0.829364  0.499990  1
  Nb  Nb10  1  0.328892  0.670814  0.250099  1
  Nb  Nb11  1  0.670955  0.329392  0.750003  1
  Nb  Nb12  1  0.153116  0.993464  0.376192  1
  Nb  Nb13  1  0.847718  0.006516  0.876075  1
  Nb  Nb14  1  0.506505  0.653613  0.626561  1
  Nb  Nb15  1  0.347515  0.493262  0.873774  1
  Nb  Nb16  1  0.493784  0.346815  0.126190  1
  Nb  Nb17  1  0.652484  0.505938  0.373924  1
  Nb  Nb18  1  0.993970  0.153281  0.623858  1
  Nb  Nb19  1  0.006059  0.846705  0.123743  1
  Si  Si20  1  0.295617  0.044836  0.186384  1
  Si  Si21  1  0.704115  0.955470  0.686327  1
  Si  Si22  1  0.455305  0.796247  0.436399  1
  Si  Si23  1  0.203898  0.544746  0.063418  1
  Si  Si24  1  0.545153  0.204247  0.935993  1
  Si  Si25  1  0.795114  0.454751  0.563679  1
  Si  Si26  1  0.045506  0.295589  0.813783  1
  Si  Si27  1  0.954251  0.705136  0.313794  1
  Si  Si28  1  0.366094  0.294153  0.319296  1
  Si  Si29  1  0.634293  0.705776  0.819642  1
  Si  Si30  1  0.205844  0.866639  0.569327  1
  Si  Si31  1  0.134501  0.794797  0.930332  1
  Si  Si32  1  0.794531  0.134203  0.069138  1
  Si  Si33  1  0.864840  0.204530  0.430648  1
  Si  Si34  1  0.295397  0.365343  0.680574  1
  Si  Si35  1  0.704857  0.634465  0.181035  1
