# generated using pymatgen
data_RbHf2F10
_symmetry_space_group_name_H-M   'P 1'
_cell_length_a   8.96192841
_cell_length_b   8.96192813
_cell_length_c   9.27008639
_cell_angle_alpha   85.33804450
_cell_angle_beta   85.33804421
_cell_angle_gamma   141.90680018
_symmetry_Int_Tables_number   1
_chemical_formula_structural   RbHf2F10
_chemical_formula_sum   'Rb2 Hf4 F20'
_cell_volume   444.86263032
_cell_formula_units_Z   2
loop_
 _symmetry_equiv_pos_site_id
 _symmetry_equiv_pos_as_xyz
  1  'x, y, z'
loop_
 _atom_site_type_symbol
 _atom_site_label
 _atom_site_symmetry_multiplicity
 _atom_site_fract_x
 _atom_site_fract_y
 _atom_site_fract_z
 _atom_site_occupancy
  Rb  Rb0  1  0.430728  0.569272  0.750000  1
  Rb  Rb1  1  0.569272  0.430728  0.250000  1
  Hf  Hf2  1  0.345209  0.019404  0.911387  1
  Hf  Hf3  1  0.980596  0.654791  0.588613  1
  Hf  Hf4  1  0.654791  0.980596  0.088613  1
  Hf  Hf5  1  0.019404  0.345209  0.411387  1
  F  F6  1  0.124035  0.547222  0.578683  1
  F  F7  1  0.452778  0.875965  0.921317  1
  F  F8  1  0.875965  0.452778  0.421317  1
  F  F9  1  0.547222  0.124035  0.078683  1
  F  F10  1  0.686836  0.313164  0.750000  1
  F  F11  1  0.313164  0.686836  0.250000  1
  F  F12  1  0.194834  0.805166  0.750000  1
  F  F13  1  0.805166  0.194834  0.250000  1
  F  F14  1  0.959098  0.259813  0.938827  1
  F  F15  1  0.740187  0.040902  0.561173  1
  F  F16  1  0.040902  0.740187  0.061173  1
  F  F17  1  0.259813  0.959098  0.438827  1
  F  F18  1  0.286885  0.435689  0.471414  1
  F  F19  1  0.564311  0.713115  0.028586  1
  F  F20  1  0.713115  0.564311  0.528586  1
  F  F21  1  0.435689  0.286885  0.971414  1
  F  F22  1  0.190585  0.075140  0.805349  1
  F  F23  1  0.924860  0.809415  0.694651  1
  F  F24  1  0.809415  0.924860  0.194651  1
  F  F25  1  0.075140  0.190585  0.305349  1
