# generated using pymatgen
data_Ho6TcIr
_symmetry_space_group_name_H-M   'P 1'
_cell_length_a   6.29140400
_cell_length_b   7.34543500
_cell_length_c   9.12136700
_cell_angle_alpha   90.00000000
_cell_angle_beta   90.00000000
_cell_angle_gamma   90.00000000
_symmetry_Int_Tables_number   1
_chemical_formula_structural   Ho6TcIr
_chemical_formula_sum   'Ho12 Tc2 Ir2'
_cell_volume   421.52663747
_cell_formula_units_Z   2
loop_
 _symmetry_equiv_pos_site_id
 _symmetry_equiv_pos_as_xyz
  1  'x, y, z'
loop_
 _atom_site_type_symbol
 _atom_site_label
 _atom_site_symmetry_multiplicity
 _atom_site_fract_x
 _atom_site_fract_y
 _atom_site_fract_z
 _atom_site_occupancy
  Ho  Ho0  1  0.328209  0.676457  0.066280  1
  Ho  Ho1  1  0.171791  0.176457  0.433720  1
  Ho  Ho2  1  0.667740  0.323688  0.559798  1
  Ho  Ho3  1  0.832260  0.823688  0.940202  1
  Ho  Ho4  1  0.667740  0.323688  0.940202  1
  Ho  Ho5  1  0.832260  0.823688  0.559798  1
  Ho  Ho6  1  0.328209  0.676457  0.433720  1
  Ho  Ho7  1  0.171791  0.176457  0.066280  1
  Ho  Ho8  1  0.873568  0.538095  0.250000  1
  Ho  Ho9  1  0.626432  0.038095  0.250000  1
  Ho  Ho10  1  0.133665  0.460183  0.750000  1
  Ho  Ho11  1  0.366335  0.960183  0.750000  1
  Tc  Tc12  1  0.035620  0.886149  0.250000  1
  Tc  Tc13  1  0.464380  0.386149  0.250000  1
  Ir  Ir14  1  0.955490  0.115282  0.750000  1
  Ir  Ir15  1  0.544510  0.615282  0.750000  1
