# generated using pymatgen
data_Ti3Co2GeN
_symmetry_space_group_name_H-M   'P 1'
_cell_length_a   7.86788227
_cell_length_b   7.86788305
_cell_length_c   7.86788300
_cell_angle_alpha   60.00000441
_cell_angle_beta   60.00000114
_cell_angle_gamma   60.00000403
_symmetry_Int_Tables_number   1
_chemical_formula_structural   Ti3Co2GeN
_chemical_formula_sum   'Ti12 Co8 Ge4 N4'
_cell_volume   344.39645734
_cell_formula_units_Z   4
loop_
 _symmetry_equiv_pos_site_id
 _symmetry_equiv_pos_as_xyz
  1  'x, y, z'
loop_
 _atom_site_type_symbol
 _atom_site_label
 _atom_site_symmetry_multiplicity
 _atom_site_fract_x
 _atom_site_fract_y
 _atom_site_fract_z
 _atom_site_occupancy
  Ti  Ti0  1  0.810711  0.810711  0.189289  1
  Ti  Ti1  1  0.189289  0.189289  0.810711  1
  Ti  Ti2  1  0.810711  0.189289  0.810711  1
  Ti  Ti3  1  0.189289  0.810711  0.189289  1
  Ti  Ti4  1  0.189289  0.810711  0.810711  1
  Ti  Ti5  1  0.810711  0.189289  0.189289  1
  Ti  Ti6  1  0.439289  0.439289  0.060711  1
  Ti  Ti7  1  0.060711  0.060711  0.439289  1
  Ti  Ti8  1  0.439289  0.060711  0.439289  1
  Ti  Ti9  1  0.060711  0.439289  0.060711  1
  Ti  Ti10  1  0.060711  0.439289  0.439289  1
  Ti  Ti11  1  0.439289  0.060711  0.060711  1
  Co  Co12  1  0.756853  0.414382  0.414382  1
  Co  Co13  1  0.414382  0.756853  0.414382  1
  Co  Co14  1  0.414382  0.414382  0.756853  1
  Co  Co15  1  0.414382  0.414382  0.414382  1
  Co  Co16  1  0.493147  0.835618  0.835618  1
  Co  Co17  1  0.835618  0.493147  0.835618  1
  Co  Co18  1  0.835618  0.835618  0.493147  1
  Co  Co19  1  0.835618  0.835618  0.835618  1
  Ge  Ge20  1  0.125000  0.625000  0.625000  1
  Ge  Ge21  1  0.625000  0.125000  0.625000  1
  Ge  Ge22  1  0.625000  0.625000  0.125000  1
  Ge  Ge23  1  0.625000  0.625000  0.625000  1
  N  N24  1  0.625000  0.125000  0.125000  1
  N  N25  1  0.125000  0.625000  0.125000  1
  N  N26  1  0.125000  0.125000  0.625000  1
  N  N27  1  0.125000  0.125000  0.125000  1
