# generated using pymatgen
data_Na10VInAs6
_symmetry_space_group_name_H-M   'P 1'
_cell_length_a   7.65459800
_cell_length_b   8.46901173
_cell_length_c   16.09977800
_cell_angle_alpha   59.11096571
_cell_angle_beta   90.00000000
_cell_angle_gamma   90.00000000
_symmetry_Int_Tables_number   1
_chemical_formula_structural   Na10VInAs6
_chemical_formula_sum   'Na20 V2 In2 As12'
_cell_volume   895.66351650
_cell_formula_units_Z   2
loop_
 _symmetry_equiv_pos_site_id
 _symmetry_equiv_pos_as_xyz
  1  'x, y, z'
loop_
 _atom_site_type_symbol
 _atom_site_label
 _atom_site_symmetry_multiplicity
 _atom_site_fract_x
 _atom_site_fract_y
 _atom_site_fract_z
 _atom_site_occupancy
  Na  Na0  1  0.737120  0.936984  0.243539  1
  Na  Na1  1  0.262880  0.936984  0.743539  1
  Na  Na2  1  0.771041  0.055114  0.756839  1
  Na  Na3  1  0.228959  0.055114  0.256839  1
  Na  Na4  1  0.263062  0.245743  0.420603  1
  Na  Na5  1  0.736938  0.245743  0.920603  1
  Na  Na6  1  0.215925  0.755849  0.580455  1
  Na  Na7  1  0.784075  0.755849  0.080455  1
  Na  Na8  1  0.092238  0.341391  0.584213  1
  Na  Na9  1  0.907762  0.341391  0.084213  1
  Na  Na10  1  0.407651  0.653061  0.419275  1
  Na  Na11  1  0.592349  0.653061  0.919275  1
  Na  Na12  1  0.594642  0.335395  0.243175  1
  Na  Na13  1  0.405358  0.335395  0.743175  1
  Na  Na14  1  0.902237  0.667676  0.758192  1
  Na  Na15  1  0.097763  0.667676  0.258192  1
  Na  Na16  1  0.772750  0.414056  0.411847  1
  Na  Na17  1  0.227250  0.414056  0.911847  1
  Na  Na18  1  0.740899  0.585295  0.588013  1
  Na  Na19  1  0.259101  0.585295  0.088013  1
  V  V20  1  0.612494  0.990132  0.578979  1
  V  V21  1  0.387506  0.990132  0.078979  1
  In  In22  1  0.889613  0.013316  0.415189  1
  In  In23  1  0.110387  0.013316  0.915189  1
  As  As24  1  0.986174  0.336925  0.262407  1
  As  As25  1  0.013826  0.336925  0.762407  1
  As  As26  1  0.522464  0.707049  0.718353  1
  As  As27  1  0.477536  0.707049  0.218353  1
  As  As28  1  0.929539  0.022431  0.581007  1
  As  As29  1  0.070461  0.022431  0.081007  1
  As  As30  1  0.530424  0.977986  0.436277  1
  As  As31  1  0.469576  0.977986  0.936277  1
  As  As32  1  0.008484  0.708274  0.422124  1
  As  As33  1  0.991516  0.708274  0.922124  1
  As  As34  1  0.491086  0.253322  0.579512  1
  As  As35  1  0.508914  0.253322  0.079512  1
