# generated using pymatgen
data_NdIrF7
_symmetry_space_group_name_H-M   'P 1'
_cell_length_a   5.75503100
_cell_length_b   6.14973021
_cell_length_c   8.37748493
_cell_angle_alpha   101.66115570
_cell_angle_beta   90.00000000
_cell_angle_gamma   90.00000000
_symmetry_Int_Tables_number   1
_chemical_formula_structural   NdIrF7
_chemical_formula_sum   'Nd2 Ir2 F14'
_cell_volume   290.37537154
_cell_formula_units_Z   2
loop_
 _symmetry_equiv_pos_site_id
 _symmetry_equiv_pos_as_xyz
  1  'x, y, z'
loop_
 _atom_site_type_symbol
 _atom_site_label
 _atom_site_symmetry_multiplicity
 _atom_site_fract_x
 _atom_site_fract_y
 _atom_site_fract_z
 _atom_site_occupancy
  Nd  Nd0  1  0.701723  0.657535  0.689110  1
  Nd  Nd1  1  0.201723  0.342465  0.310890  1
  Ir  Ir2  1  0.710959  0.812153  0.223997  1
  Ir  Ir3  1  0.210959  0.187847  0.776003  1
  F  F4  1  0.885465  0.445523  0.474850  1
  F  F5  1  0.385465  0.554477  0.525150  1
  F  F6  1  0.418656  0.935820  0.771478  1
  F  F7  1  0.918656  0.064180  0.228522  1
  F  F8  1  0.944125  0.977905  0.762062  1
  F  F9  1  0.444125  0.022095  0.237938  1
  F  F10  1  0.004806  0.445232  0.788794  1
  F  F11  1  0.504806  0.554768  0.211206  1
  F  F12  1  0.705541  0.761866  0.987259  1
  F  F13  1  0.205541  0.238134  0.012741  1
  F  F14  1  0.715332  0.867201  0.461453  1
  F  F15  1  0.215332  0.132799  0.538547  1
  F  F16  1  0.489753  0.382506  0.790852  1
  F  F17  1  0.989753  0.617494  0.209148  1
