# generated using pymatgen
data_Y8Er2IrRh3
_symmetry_space_group_name_H-M   'P 1'
_cell_length_a   6.47340770
_cell_length_b   7.18189371
_cell_length_c   8.65443600
_cell_angle_alpha   96.41626448
_cell_angle_beta   111.99222776
_cell_angle_gamma   90.12115792
_symmetry_Int_Tables_number   1
_chemical_formula_structural   Y8Er2IrRh3
_chemical_formula_sum   'Y8 Er2 Ir1 Rh3'
_cell_volume   370.31951672
_cell_formula_units_Z   1
loop_
 _symmetry_equiv_pos_site_id
 _symmetry_equiv_pos_as_xyz
  1  'x, y, z'
loop_
 _atom_site_type_symbol
 _atom_site_label
 _atom_site_symmetry_multiplicity
 _atom_site_fract_x
 _atom_site_fract_y
 _atom_site_fract_z
 _atom_site_occupancy
  Y  Y0  1  0.976741  0.916648  0.186151  1
  Y  Y1  1  0.789185  0.583672  0.813262  1
  Y  Y2  1  0.025842  0.083308  0.815714  1
  Y  Y3  1  0.210784  0.416896  0.186507  1
  Y  Y4  1  0.650531  0.815847  0.437586  1
  Y  Y5  1  0.211957  0.683804  0.561322  1
  Y  Y6  1  0.350778  0.184207  0.560036  1
  Y  Y7  1  0.786836  0.314980  0.438636  1
  Er  Er8  1  0.427503  0.750822  0.000451  1
  Er  Er9  1  0.571629  0.249453  0.000618  1
  Ir  Ir10  1  0.399599  0.072543  0.217620  1
  Rh  Rh11  1  0.817996  0.571144  0.217716  1
  Rh  Rh12  1  0.600168  0.928081  0.783294  1
  Rh  Rh13  1  0.180452  0.428596  0.781086  1
