# generated using pymatgen
data_Hf2MgMnCo8
_symmetry_space_group_name_H-M   'P 1'
_cell_length_a   4.81601974
_cell_length_b   4.81601878
_cell_length_c   8.32990708
_cell_angle_alpha   106.80289428
_cell_angle_beta   73.19710762
_cell_angle_gamma   119.99999214
_symmetry_Int_Tables_number   1
_chemical_formula_structural   Hf2MgMnCo8
_chemical_formula_sum   'Hf2 Mg1 Mn1 Co8'
_cell_volume   157.72290204
_cell_formula_units_Z   1
loop_
 _symmetry_equiv_pos_site_id
 _symmetry_equiv_pos_as_xyz
  1  'x, y, z'
loop_
 _atom_site_type_symbol
 _atom_site_label
 _atom_site_symmetry_multiplicity
 _atom_site_fract_x
 _atom_site_fract_y
 _atom_site_fract_z
 _atom_site_occupancy
  Hf  Hf0  1  0.997946  0.002054  0.006161  1
  Hf  Hf1  1  0.501749  0.498251  0.494751  1
  Mg  Mg2  1  0.375189  0.624811  0.874434  1
  Mn  Mn3  1  0.873859  0.126141  0.378425  1
  Co  Co4  1  0.436676  0.563324  0.189284  1
  Co  Co5  1  0.937467  0.062533  0.685276  1
  Co  Co6  1  0.436676  0.062637  0.189284  1
  Co  Co7  1  0.937467  0.560211  0.685276  1
  Co  Co8  1  0.187989  0.812011  0.436032  1
  Co  Co9  1  0.687829  0.312171  0.936514  1
  Co  Co10  1  0.937363  0.563324  0.189284  1
  Co  Co11  1  0.439789  0.062533  0.685276  1
