# generated using pymatgen
data_Er10PtRhPb6
_symmetry_space_group_name_H-M   'P 1'
_cell_length_a   9.14365600
_cell_length_b   9.14365654
_cell_length_c   6.75693700
_cell_angle_alpha   90.00000000
_cell_angle_beta   90.00000000
_cell_angle_gamma   119.99999806
_symmetry_Int_Tables_number   1
_chemical_formula_structural   Er10PtRhPb6
_chemical_formula_sum   'Er10 Pt1 Rh1 Pb6'
_cell_volume   489.23812492
_cell_formula_units_Z   1
loop_
 _symmetry_equiv_pos_site_id
 _symmetry_equiv_pos_as_xyz
  1  'x, y, z'
loop_
 _atom_site_type_symbol
 _atom_site_label
 _atom_site_symmetry_multiplicity
 _atom_site_fract_x
 _atom_site_fract_y
 _atom_site_fract_z
 _atom_site_occupancy
  Er  Er0  1  0.000000  0.758528  0.743420  1
  Er  Er1  1  0.241472  0.000000  0.256580  1
  Er  Er2  1  0.758528  0.000000  0.743420  1
  Er  Er3  1  0.333333  0.666667  0.500000  1
  Er  Er4  1  0.000000  0.241472  0.256580  1
  Er  Er5  1  0.666667  0.333333  0.500000  1
  Er  Er6  1  0.758528  0.758528  0.256580  1
  Er  Er7  1  0.241472  0.241472  0.743420  1
  Er  Er8  1  0.333333  0.666667  0.000000  1
  Er  Er9  1  0.666667  0.333333  0.000000  1
  Pt  Pt10  1  0.000000  0.000000  0.000000  1
  Rh  Rh11  1  0.000000  0.000000  0.500000  1
  Pb  Pb12  1  0.401497  0.401497  0.250335  1
  Pb  Pb13  1  0.000000  0.401497  0.749665  1
  Pb  Pb14  1  0.000000  0.598503  0.250335  1
  Pb  Pb15  1  0.598503  0.000000  0.250335  1
  Pb  Pb16  1  0.401497  0.000000  0.749665  1
  Pb  Pb17  1  0.598503  0.598503  0.749665  1
