# generated using pymatgen
data_La8Hg3Os
_symmetry_space_group_name_H-M   'P 1'
_cell_length_a   10.75313000
_cell_length_b   10.75312935
_cell_length_c   7.55660800
_cell_angle_alpha   90.00000000
_cell_angle_beta   90.00000000
_cell_angle_gamma   120.00000200
_symmetry_Int_Tables_number   1
_chemical_formula_structural   La8Hg3Os
_chemical_formula_sum   'La16 Hg6 Os2'
_cell_volume   756.70618358
_cell_formula_units_Z   2
loop_
 _symmetry_equiv_pos_site_id
 _symmetry_equiv_pos_as_xyz
  1  'x, y, z'
loop_
 _atom_site_type_symbol
 _atom_site_label
 _atom_site_symmetry_multiplicity
 _atom_site_fract_x
 _atom_site_fract_y
 _atom_site_fract_z
 _atom_site_occupancy
  La  La0  1  0.000000  0.000000  0.287267  1
  La  La1  1  0.000000  0.000000  0.787267  1
  La  La2  1  0.171150  0.828850  0.979071  1
  La  La3  1  0.828850  0.171150  0.479071  1
  La  La4  1  0.171150  0.342298  0.979071  1
  La  La5  1  0.657702  0.828850  0.979071  1
  La  La6  1  0.342298  0.171150  0.479071  1
  La  La7  1  0.828850  0.657702  0.479071  1
  La  La8  1  0.333333  0.666667  0.684312  1
  La  La9  1  0.666667  0.333333  0.184312  1
  La  La10  1  0.458451  0.541549  0.293067  1
  La  La11  1  0.541549  0.458451  0.793067  1
  La  La12  1  0.458451  0.916904  0.293067  1
  La  La13  1  0.083096  0.541549  0.293067  1
  La  La14  1  0.916904  0.458451  0.793067  1
  La  La15  1  0.541549  0.083096  0.793067  1
  Hg  Hg16  1  0.166498  0.833502  0.543802  1
  Hg  Hg17  1  0.833502  0.166498  0.043802  1
  Hg  Hg18  1  0.166498  0.332996  0.543802  1
  Hg  Hg19  1  0.667004  0.833502  0.543802  1
  Hg  Hg20  1  0.332996  0.166498  0.043802  1
  Hg  Hg21  1  0.833502  0.667004  0.043802  1
  Os  Os22  1  0.333333  0.666667  0.053662  1
  Os  Os23  1  0.666667  0.333333  0.553662  1
