# generated using pymatgen
data_Mg4As6Ru2Rh5
_symmetry_space_group_name_H-M   'P 1'
_cell_length_a   7.04992737
_cell_length_b   7.04992836
_cell_length_c   7.04992779
_cell_angle_alpha   109.35399128
_cell_angle_beta   109.70593253
_cell_angle_gamma   109.35399700
_symmetry_Int_Tables_number   1
_chemical_formula_structural   Mg4As6Ru2Rh5
_chemical_formula_sum   'Mg4 As6 Ru2 Rh5'
_cell_volume   269.72837523
_cell_formula_units_Z   1
loop_
 _symmetry_equiv_pos_site_id
 _symmetry_equiv_pos_as_xyz
  1  'x, y, z'
loop_
 _atom_site_type_symbol
 _atom_site_label
 _atom_site_symmetry_multiplicity
 _atom_site_fract_x
 _atom_site_fract_y
 _atom_site_fract_z
 _atom_site_occupancy
  Mg  Mg0  1  0.000051  0.000102  0.500051  1
  Mg  Mg1  1  0.499949  0.999898  0.999949  1
  Mg  Mg2  1  0.000051  0.500000  0.999949  1
  Mg  Mg3  1  0.499949  0.500000  0.500051  1
  As  As4  1  0.684714  0.688267  0.996446  1
  As  As5  1  0.308179  0.311733  0.996446  1
  As  As6  1  0.003554  0.688267  0.691821  1
  As  As7  1  0.003554  0.311733  0.315286  1
  As  As8  1  0.689133  0.000000  0.689133  1
  As  As9  1  0.310867  0.000000  0.310867  1
  Ru  Ru10  1  0.000000  0.000000  0.000000  1
  Ru  Ru11  1  0.250000  0.500000  0.750000  1
  Rh  Rh12  1  0.748061  0.249314  0.498747  1
  Rh  Rh13  1  0.501253  0.249314  0.750567  1
  Rh  Rh14  1  0.501253  0.750686  0.251939  1
  Rh  Rh15  1  0.750000  0.500000  0.250000  1
  Rh  Rh16  1  0.249433  0.750686  0.498747  1
