# generated using pymatgen
data_Tm(Th2Fe)3
_symmetry_space_group_name_H-M   'P 1'
_cell_length_a   9.67611803
_cell_length_b   9.68600840
_cell_length_c   6.16399156
_cell_angle_alpha   89.87510477
_cell_angle_beta   89.99462568
_cell_angle_gamma   119.98010327
_symmetry_Int_Tables_number   1
_chemical_formula_structural   Tm(Th2Fe)3
_chemical_formula_sum   'Tm2 Th12 Fe6'
_cell_volume   500.40802563
_cell_formula_units_Z   2
loop_
 _symmetry_equiv_pos_site_id
 _symmetry_equiv_pos_as_xyz
  1  'x, y, z'
loop_
 _atom_site_type_symbol
 _atom_site_label
 _atom_site_symmetry_multiplicity
 _atom_site_fract_x
 _atom_site_fract_y
 _atom_site_fract_z
 _atom_site_occupancy
  Tm  Tm0  1  0.666674  0.333324  0.542736  1
  Tm  Tm1  1  0.333340  0.666684  0.042723  1
  Th  Th2  1  0.873600  0.747305  0.754388  1
  Th  Th3  1  0.252740  0.126357  0.754239  1
  Th  Th4  1  0.747151  0.873718  0.254110  1
  Th  Th5  1  0.126379  0.252816  0.254080  1
  Th  Th6  1  0.873605  0.126297  0.754140  1
  Th  Th7  1  0.126500  0.873732  0.254158  1
  Th  Th8  1  0.458816  0.917506  0.575245  1
  Th  Th9  1  0.082467  0.541250  0.575237  1
  Th  Th10  1  0.917494  0.458612  0.075173  1
  Th  Th11  1  0.541327  0.082510  0.075222  1
  Th  Th12  1  0.458813  0.541314  0.575233  1
  Th  Th13  1  0.541198  0.458681  0.075151  1
  Fe  Fe14  1  0.180792  0.361701  0.786572  1
  Fe  Fe15  1  0.638227  0.819103  0.786268  1
  Fe  Fe16  1  0.361773  0.180848  0.286183  1
  Fe  Fe17  1  0.819089  0.638161  0.286843  1
  Fe  Fe18  1  0.180904  0.819254  0.786180  1
  Fe  Fe19  1  0.819114  0.180828  0.286113  1
