# generated using pymatgen
data_SmH4Pd
_symmetry_space_group_name_H-M   'P 1'
_cell_length_a   3.78863041
_cell_length_b   5.13492000
_cell_length_c   6.40781167
_cell_angle_alpha   90.00000000
_cell_angle_beta   107.15304507
_cell_angle_gamma   90.00000000
_symmetry_Int_Tables_number   1
_chemical_formula_structural   SmH4Pd
_chemical_formula_sum   'Sm2 H8 Pd2'
_cell_volume   119.11476998
_cell_formula_units_Z   2
loop_
 _symmetry_equiv_pos_site_id
 _symmetry_equiv_pos_as_xyz
  1  'x, y, z'
loop_
 _atom_site_type_symbol
 _atom_site_label
 _atom_site_symmetry_multiplicity
 _atom_site_fract_x
 _atom_site_fract_y
 _atom_site_fract_z
 _atom_site_occupancy
  Sm  Sm0  1  0.361605  0.750000  0.222518  1
  Sm  Sm1  1  0.638395  0.249999  0.777481  1
  H  H2  1  0.802748  0.986110  0.105407  1
  H  H3  1  0.802748  0.513890  0.105407  1
  H  H4  1  0.414379  0.249999  0.329454  1
  H  H5  1  0.000000  0.000000  0.500000  1
  H  H6  1  0.000000  0.500000  0.500000  1
  H  H7  1  0.585621  0.750000  0.670545  1
  H  H8  1  0.197250  0.486111  0.894593  1
  H  H9  1  0.197250  0.013889  0.894593  1
  Pd  Pd10  1  0.903855  0.249999  0.309914  1
  Pd  Pd11  1  0.096146  0.750000  0.690086  1
