# generated using pymatgen
data_Dy8Ho2NiRh5
_symmetry_space_group_name_H-M   'P 1'
_cell_length_a   10.89844602
_cell_length_b   10.89954800
_cell_length_c   6.36177500
_cell_angle_alpha   89.99985807
_cell_angle_beta   90.00301240
_cell_angle_gamma   90.00052568
_symmetry_Int_Tables_number   1
_chemical_formula_structural   Dy8Ho2NiRh5
_chemical_formula_sum   'Dy16 Ho4 Ni2 Rh10'
_cell_volume   755.70338946
_cell_formula_units_Z   2
loop_
 _symmetry_equiv_pos_site_id
 _symmetry_equiv_pos_as_xyz
  1  'x, y, z'
loop_
 _atom_site_type_symbol
 _atom_site_label
 _atom_site_symmetry_multiplicity
 _atom_site_fract_x
 _atom_site_fract_y
 _atom_site_fract_z
 _atom_site_occupancy
  Dy  Dy0  1  0.291770  0.090237  0.380344  1
  Dy  Dy1  1  0.291822  0.909706  0.880344  1
  Dy  Dy2  1  0.708362  0.089591  0.882527  1
  Dy  Dy3  1  0.708406  0.910440  0.382570  1
  Dy  Dy4  1  0.590574  0.791049  0.881314  1
  Dy  Dy5  1  0.590527  0.208929  0.381244  1
  Dy  Dy6  1  0.410586  0.790066  0.383326  1
  Dy  Dy7  1  0.410520  0.209942  0.883266  1
  Dy  Dy8  1  0.208484  0.409219  0.615252  1
  Dy  Dy9  1  0.208503  0.590790  0.115314  1
  Dy  Dy10  1  0.789769  0.410642  0.119863  1
  Dy  Dy11  1  0.789758  0.589405  0.619974  1
  Dy  Dy12  1  0.909890  0.709019  0.119143  1
  Dy  Dy13  1  0.909801  0.291020  0.619138  1
  Dy  Dy14  1  0.089744  0.707625  0.617754  1
  Dy  Dy15  1  0.089687  0.292436  0.117792  1
  Ho  Ho16  1  0.000589  0.000131  0.499656  1
  Ho  Ho17  1  0.000614  0.000088  0.999636  1
  Ho  Ho18  1  0.497533  0.501275  0.000490  1
  Ho  Ho19  1  0.497489  0.498727  0.500318  1
  Ni  Ni20  1  0.347580  0.348334  0.250086  1
  Ni  Ni21  1  0.347603  0.650707  0.749646  1
  Rh  Rh22  1  0.847347  0.154574  0.248780  1
  Rh  Rh23  1  0.847415  0.845804  0.749112  1
  Rh  Rh24  1  0.155646  0.154413  0.750355  1
  Rh  Rh25  1  0.155563  0.845634  0.250540  1
  Rh  Rh26  1  0.651815  0.346476  0.750568  1
  Rh  Rh27  1  0.652034  0.653528  0.250937  1
  Rh  Rh28  1  0.499107  0.999849  0.129994  1
  Rh  Rh29  1  0.499151  0.000247  0.630251  1
  Rh  Rh30  1  0.001143  0.499521  0.870120  1
  Rh  Rh31  1  0.001167  0.500575  0.370349  1
