# generated using pymatgen
data_LiZnGaRu
_symmetry_space_group_name_H-M   'P 1'
_cell_length_a   4.28636080
_cell_length_b   4.28636040
_cell_length_c   4.28636000
_cell_angle_alpha   59.99998763
_cell_angle_beta   59.99999076
_cell_angle_gamma   59.99998626
_symmetry_Int_Tables_number   1
_chemical_formula_structural   LiZnGaRu
_chemical_formula_sum   'Li1 Zn1 Ga1 Ru1'
_cell_volume   55.68663024
_cell_formula_units_Z   1
loop_
 _symmetry_equiv_pos_site_id
 _symmetry_equiv_pos_as_xyz
  1  'x, y, z'
loop_
 _atom_site_type_symbol
 _atom_site_label
 _atom_site_symmetry_multiplicity
 _atom_site_fract_x
 _atom_site_fract_y
 _atom_site_fract_z
 _atom_site_occupancy
  Li  Li0  1  0.500000  0.500000  0.500000  1
  Zn  Zn1  1  0.250000  0.250000  0.250000  1
  Ga  Ga2  1  0.750000  0.750000  0.750000  1
  Ru  Ru3  1  0.000000  0.000000  0.000000  1
