# generated using pymatgen
data_Ti4Si3TcO
_symmetry_space_group_name_H-M   'P 1'
_cell_length_a   7.38683600
_cell_length_b   7.38683632
_cell_length_c   5.08819000
_cell_angle_alpha   90.00000000
_cell_angle_beta   90.00000000
_cell_angle_gamma   119.99999856
_symmetry_Int_Tables_number   1
_chemical_formula_structural   Ti4Si3TcO
_chemical_formula_sum   'Ti8 Si6 Tc2 O2'
_cell_volume   240.44230965
_cell_formula_units_Z   2
loop_
 _symmetry_equiv_pos_site_id
 _symmetry_equiv_pos_as_xyz
  1  'x, y, z'
loop_
 _atom_site_type_symbol
 _atom_site_label
 _atom_site_symmetry_multiplicity
 _atom_site_fract_x
 _atom_site_fract_y
 _atom_site_fract_z
 _atom_site_occupancy
  Ti  Ti0  1  0.666667  0.333333  0.500000  1
  Ti  Ti1  1  0.333333  0.666667  0.500000  1
  Ti  Ti2  1  0.234877  0.000000  0.253245  1
  Ti  Ti3  1  0.765123  0.000000  0.746755  1
  Ti  Ti4  1  0.000000  0.234877  0.253245  1
  Ti  Ti5  1  0.000000  0.765123  0.746755  1
  Ti  Ti6  1  0.765123  0.765123  0.253245  1
  Ti  Ti7  1  0.234877  0.234877  0.746755  1
  Si  Si8  1  0.592642  0.000000  0.240247  1
  Si  Si9  1  0.407358  0.000000  0.759753  1
  Si  Si10  1  0.000000  0.592642  0.240247  1
  Si  Si11  1  0.000000  0.407358  0.759753  1
  Si  Si12  1  0.407358  0.407358  0.240247  1
  Si  Si13  1  0.592642  0.592642  0.759753  1
  Tc  Tc14  1  0.333333  0.666667  0.000000  1
  Tc  Tc15  1  0.666667  0.333333  0.000000  1
  O  O16  1  0.000000  0.000000  0.000000  1
  O  O17  1  0.000000  0.000000  0.500000  1
