# generated using pymatgen
data_Dy3Pa(GaPd2)4
_symmetry_space_group_name_H-M   'P 1'
_cell_length_a   5.64884383
_cell_length_b   7.17820800
_cell_length_c   7.36052892
_cell_angle_alpha   90.00000000
_cell_angle_beta   89.46983202
_cell_angle_gamma   90.00000000
_symmetry_Int_Tables_number   1
_chemical_formula_structural   Dy3Pa(GaPd2)4
_chemical_formula_sum   'Dy3 Pa1 Ga4 Pd8'
_cell_volume   298.44618924
_cell_formula_units_Z   1
loop_
 _symmetry_equiv_pos_site_id
 _symmetry_equiv_pos_as_xyz
  1  'x, y, z'
loop_
 _atom_site_type_symbol
 _atom_site_label
 _atom_site_symmetry_multiplicity
 _atom_site_fract_x
 _atom_site_fract_y
 _atom_site_fract_z
 _atom_site_occupancy
  Dy  Dy0  1  0.146044  0.750000  0.529838  1
  Dy  Dy1  1  0.649966  0.250000  0.968623  1
  Dy  Dy2  1  0.850749  0.250000  0.466413  1
  Pa  Pa3  1  0.348396  0.750000  0.031583  1
  Ga  Ga4  1  0.646522  0.750000  0.388397  1
  Ga  Ga5  1  0.850492  0.750000  0.882932  1
  Ga  Ga6  1  0.352184  0.250000  0.612838  1
  Ga  Ga7  1  0.144619  0.250000  0.116558  1
  Pd  Pd8  1  0.918780  0.554311  0.184683  1
  Pd  Pd9  1  0.579074  0.947993  0.687365  1
  Pd  Pd10  1  0.092459  0.049040  0.819396  1
  Pd  Pd11  1  0.415201  0.451540  0.309965  1
  Pd  Pd12  1  0.092459  0.450960  0.819396  1
  Pd  Pd13  1  0.415201  0.048460  0.309965  1
  Pd  Pd14  1  0.918780  0.945689  0.184683  1
  Pd  Pd15  1  0.579074  0.552007  0.687365  1
