# generated using pymatgen
data_Ba7W4O19
_symmetry_space_group_name_H-M   'P 1'
_cell_length_a   7.85532144
_cell_length_b   7.85532789
_cell_length_c   11.07398512
_cell_angle_alpha   81.73365187
_cell_angle_beta   81.73364460
_cell_angle_gamma   43.78840139
_symmetry_Int_Tables_number   1
_chemical_formula_structural   Ba7W4O19
_chemical_formula_sum   'Ba7 W4 O19'
_cell_volume   467.15304067
_cell_formula_units_Z   1
loop_
 _symmetry_equiv_pos_site_id
 _symmetry_equiv_pos_as_xyz
  1  'x, y, z'
loop_
 _atom_site_type_symbol
 _atom_site_label
 _atom_site_symmetry_multiplicity
 _atom_site_fract_x
 _atom_site_fract_y
 _atom_site_fract_z
 _atom_site_occupancy
  Ba  Ba0  1  0.207173  0.207173  0.411922  1
  Ba  Ba1  1  0.792827  0.792827  0.588078  1
  Ba  Ba2  1  0.417147  0.417147  0.165079  1
  Ba  Ba3  1  0.582853  0.582853  0.834921  1
  Ba  Ba4  1  0.500000  0.500000  0.500000  1
  Ba  Ba5  1  0.858654  0.858654  0.956084  1
  Ba  Ba6  1  0.141346  0.141346  0.043916  1
  W  W7  1  0.968321  0.968322  0.322009  1
  W  W8  1  0.031679  0.031678  0.677991  1
  W  W9  1  0.669795  0.669795  0.220553  1
  W  W10  1  0.330205  0.330205  0.779447  1
  O  O11  1  0.000000  0.000000  0.500000  1
  O  O12  1  0.690219  0.690219  0.384481  1
  O  O13  1  0.309781  0.309781  0.615519  1
  O  O14  1  0.045300  0.045300  0.845584  1
  O  O15  1  0.954700  0.954700  0.154416  1
  O  O16  1  0.395237  0.395237  0.923344  1
  O  O17  1  0.604763  0.604763  0.076656  1
  O  O18  1  0.829525  0.310243  0.284315  1
  O  O19  1  0.689757  0.170475  0.715686  1
  O  O20  1  0.170475  0.689757  0.715685  1
  O  O21  1  0.310243  0.829525  0.284314  1
  O  O22  1  0.647402  0.118967  0.371851  1
  O  O23  1  0.881033  0.352597  0.628149  1
  O  O24  1  0.352598  0.881033  0.628149  1
  O  O25  1  0.118967  0.647403  0.371851  1
  O  O26  1  0.987129  0.515933  0.161406  1
  O  O27  1  0.484067  0.012872  0.838594  1
  O  O28  1  0.012871  0.484067  0.838594  1
  O  O29  1  0.515933  0.987128  0.161406  1
