# generated using pymatgen
data_Be8FeNi3(W6C)2
_symmetry_space_group_name_H-M   'P 1'
_cell_length_a   7.56820060
_cell_length_b   7.56819967
_cell_length_c   7.56820101
_cell_angle_alpha   59.99454245
_cell_angle_beta   59.99454966
_cell_angle_gamma   59.99453723
_symmetry_Int_Tables_number   1
_chemical_formula_structural   Be8FeNi3(W6C)2
_chemical_formula_sum   'Be8 Fe1 Ni3 W12 C2'
_cell_volume   306.48494047
_cell_formula_units_Z   1
loop_
 _symmetry_equiv_pos_site_id
 _symmetry_equiv_pos_as_xyz
  1  'x, y, z'
loop_
 _atom_site_type_symbol
 _atom_site_label
 _atom_site_symmetry_multiplicity
 _atom_site_fract_x
 _atom_site_fract_y
 _atom_site_fract_z
 _atom_site_occupancy
  Be  Be0  1  0.422242  0.422242  0.734303  1
  Be  Be1  1  0.422242  0.734303  0.422242  1
  Be  Be2  1  0.734303  0.422242  0.422242  1
  Be  Be3  1  0.420851  0.420851  0.420851  1
  Be  Be4  1  0.827758  0.827758  0.515697  1
  Be  Be5  1  0.827758  0.515697  0.827758  1
  Be  Be6  1  0.515697  0.827758  0.827758  1
  Be  Be7  1  0.829149  0.829149  0.829149  1
  Fe  Fe8  1  0.625000  0.625000  0.625000  1
  Ni  Ni9  1  0.625000  0.625000  0.125000  1
  Ni  Ni10  1  0.625000  0.125000  0.625000  1
  Ni  Ni11  1  0.125000  0.625000  0.625000  1
  W  W12  1  0.049945  0.049945  0.449929  1
  W  W13  1  0.451022  0.047971  0.451022  1
  W  W14  1  0.047971  0.451022  0.451022  1
  W  W15  1  0.451022  0.451022  0.047971  1
  W  W16  1  0.049945  0.449929  0.049945  1
  W  W17  1  0.449929  0.049945  0.049945  1
  W  W18  1  0.200055  0.200055  0.800071  1
  W  W19  1  0.798978  0.202029  0.798978  1
  W  W20  1  0.202029  0.798978  0.798978  1
  W  W21  1  0.798978  0.798978  0.202029  1
  W  W22  1  0.200055  0.800071  0.200055  1
  W  W23  1  0.800071  0.200055  0.200055  1
  C  C24  1  0.250084  0.250084  0.250084  1
  C  C25  1  0.999916  0.999916  0.999916  1
