# generated using pymatgen
data_Lu12IrOs3
_symmetry_space_group_name_H-M   'P 1'
_cell_length_a   7.27837002
_cell_length_b   8.82109300
_cell_length_c   6.18416801
_cell_angle_alpha   90.00000000
_cell_angle_beta   89.99259974
_cell_angle_gamma   90.00000000
_symmetry_Int_Tables_number   1
_chemical_formula_structural   Lu12IrOs3
_chemical_formula_sum   'Lu12 Ir1 Os3'
_cell_volume   397.04324130
_cell_formula_units_Z   1
loop_
 _symmetry_equiv_pos_site_id
 _symmetry_equiv_pos_as_xyz
  1  'x, y, z'
loop_
 _atom_site_type_symbol
 _atom_site_label
 _atom_site_symmetry_multiplicity
 _atom_site_fract_x
 _atom_site_fract_y
 _atom_site_fract_z
 _atom_site_occupancy
  Lu  Lu0  1  0.674531  0.061280  0.334132  1
  Lu  Lu1  1  0.176835  0.438794  0.167335  1
  Lu  Lu2  1  0.324876  0.562034  0.667076  1
  Lu  Lu3  1  0.824048  0.936492  0.831412  1
  Lu  Lu4  1  0.324876  0.937966  0.667076  1
  Lu  Lu5  1  0.824048  0.563508  0.831412  1
  Lu  Lu6  1  0.674531  0.438720  0.334132  1
  Lu  Lu7  1  0.176835  0.061206  0.167335  1
  Lu  Lu8  1  0.537950  0.250000  0.872523  1
  Lu  Lu9  1  0.039214  0.250000  0.627403  1
  Lu  Lu10  1  0.461130  0.750000  0.127409  1
  Lu  Lu11  1  0.961036  0.750000  0.372526  1
  Ir  Ir12  1  0.883630  0.250000  0.038927  1
  Os  Os13  1  0.383286  0.250000  0.460917  1
  Os  Os14  1  0.116084  0.750000  0.962086  1
  Os  Os15  1  0.617090  0.750000  0.538298  1
