# generated using pymatgen
data_TbYb2Er(Ga2Ag)4
_symmetry_space_group_name_H-M   'P 1'
_cell_length_a   4.34733200
_cell_length_b   6.99152487
_cell_length_c   10.34358080
_cell_angle_alpha   90.14283699
_cell_angle_beta   90.00000000
_cell_angle_gamma   90.00000000
_symmetry_Int_Tables_number   1
_chemical_formula_structural   TbYb2Er(Ga2Ag)4
_chemical_formula_sum   'Tb1 Yb2 Er1 Ga8 Ag4'
_cell_volume   314.38678090
_cell_formula_units_Z   1
loop_
 _symmetry_equiv_pos_site_id
 _symmetry_equiv_pos_as_xyz
  1  'x, y, z'
loop_
 _atom_site_type_symbol
 _atom_site_label
 _atom_site_symmetry_multiplicity
 _atom_site_fract_x
 _atom_site_fract_y
 _atom_site_fract_z
 _atom_site_occupancy
  Tb  Tb0  1  0.250000  0.283239  0.671358  1
  Yb  Yb1  1  0.750000  0.221146  0.172066  1
  Yb  Yb2  1  0.750000  0.720179  0.327525  1
  Er  Er3  1  0.250000  0.783568  0.829554  1
  Ga  Ga4  1  0.250000  0.924881  0.149361  1
  Ga  Ga5  1  0.750000  0.076741  0.844446  1
  Ga  Ga6  1  0.750000  0.578251  0.656111  1
  Ga  Ga7  1  0.250000  0.423073  0.350422  1
  Ga  Ga8  1  0.250000  0.702169  0.536437  1
  Ga  Ga9  1  0.750000  0.296208  0.465235  1
  Ga  Ga10  1  0.750000  0.798267  0.033593  1
  Ga  Ga11  1  0.250000  0.201470  0.964697  1
  Ag  Ag12  1  0.250000  0.538380  0.098504  1
  Ag  Ag13  1  0.750000  0.459262  0.901208  1
  Ag  Ag14  1  0.750000  0.957149  0.598863  1
  Ag  Ag15  1  0.250000  0.036017  0.400622  1
