# generated using pymatgen
data_Tm2Sc2Al17GaRh6
_symmetry_space_group_name_H-M   'P 1'
_cell_length_a   7.48725907
_cell_length_b   7.48725896
_cell_length_c   9.39418100
_cell_angle_alpha   90.00000000
_cell_angle_beta   90.00000000
_cell_angle_gamma   119.37072084
_symmetry_Int_Tables_number   1
_chemical_formula_structural   Tm2Sc2Al17GaRh6
_chemical_formula_sum   'Tm2 Sc2 Al17 Ga1 Rh6'
_cell_volume   458.93836814
_cell_formula_units_Z   1
loop_
 _symmetry_equiv_pos_site_id
 _symmetry_equiv_pos_as_xyz
  1  'x, y, z'
loop_
 _atom_site_type_symbol
 _atom_site_label
 _atom_site_symmetry_multiplicity
 _atom_site_fract_x
 _atom_site_fract_y
 _atom_site_fract_z
 _atom_site_occupancy
  Tm  Tm0  1  0.993192  0.675880  0.250000  1
  Tm  Tm1  1  0.675880  0.993192  0.250000  1
  Sc  Sc2  1  0.004420  0.326603  0.750000  1
  Sc  Sc3  1  0.326603  0.004420  0.750000  1
  Al  Al4  1  0.875743  0.875743  0.750000  1
  Al  Al5  1  0.001401  0.336047  0.070921  1
  Al  Al6  1  0.002432  0.664248  0.919723  1
  Al  Al7  1  0.002432  0.664248  0.580277  1
  Al  Al8  1  0.336047  0.001401  0.429079  1
  Al  Al9  1  0.001401  0.336047  0.429079  1
  Al  Al10  1  0.664248  0.002432  0.580277  1
  Al  Al11  1  0.664248  0.002432  0.919723  1
  Al  Al12  1  0.336047  0.001401  0.070921  1
  Al  Al13  1  0.329777  0.329777  0.560909  1
  Al  Al14  1  0.665457  0.665457  0.453173  1
  Al  Al15  1  0.665457  0.665457  0.046827  1
  Al  Al16  1  0.329777  0.329777  0.939091  1
  Al  Al17  1  0.339179  0.551172  0.250000  1
  Al  Al18  1  0.659962  0.443467  0.750000  1
  Al  Al19  1  0.551172  0.339179  0.250000  1
  Al  Al20  1  0.443467  0.659962  0.750000  1
  Ga  Ga21  1  0.134574  0.134574  0.250000  1
  Rh  Rh22  1  0.671856  0.327063  0.999305  1
  Rh  Rh23  1  0.327063  0.671856  0.999305  1
  Rh  Rh24  1  0.327063  0.671856  0.500695  1
  Rh  Rh25  1  0.671856  0.327063  0.500695  1
  Rh  Rh26  1  0.999624  0.999624  0.997002  1
  Rh  Rh27  1  0.999624  0.999624  0.502998  1
