# generated using pymatgen
data_KCdH6Ir
_symmetry_space_group_name_H-M   'P 1'
_cell_length_a   7.43608600
_cell_length_b   7.43608600
_cell_length_c   7.43608600
_cell_angle_alpha   90.00000000
_cell_angle_beta   90.00000000
_cell_angle_gamma   90.00000000
_symmetry_Int_Tables_number   1
_chemical_formula_structural   KCdH6Ir
_chemical_formula_sum   'K4 Cd4 H24 Ir4'
_cell_volume   411.18116390
_cell_formula_units_Z   4
loop_
 _symmetry_equiv_pos_site_id
 _symmetry_equiv_pos_as_xyz
  1  'x, y, z'
loop_
 _atom_site_type_symbol
 _atom_site_label
 _atom_site_symmetry_multiplicity
 _atom_site_fract_x
 _atom_site_fract_y
 _atom_site_fract_z
 _atom_site_occupancy
  K  K0  1  0.000000  0.000000  0.500000  1
  K  K1  1  0.000000  0.500000  0.000000  1
  K  K2  1  0.500000  0.000000  0.000000  1
  K  K3  1  0.000000  0.000000  0.000000  1
  Cd  Cd4  1  0.500000  0.500000  0.500000  1
  Cd  Cd5  1  0.000000  0.500000  0.500000  1
  Cd  Cd6  1  0.500000  0.000000  0.500000  1
  Cd  Cd7  1  0.500000  0.500000  0.000000  1
  H  H8  1  0.735755  0.735755  0.500379  1
  H  H9  1  0.264245  0.264245  0.500379  1
  H  H10  1  0.050334  0.728907  0.728907  1
  H  H11  1  0.271093  0.949666  0.728907  1
  H  H12  1  0.728907  0.050334  0.728907  1
  H  H13  1  0.949666  0.271093  0.728907  1
  H  H14  1  0.735755  0.500379  0.735755  1
  H  H15  1  0.500379  0.735755  0.735755  1
  H  H16  1  0.499621  0.264245  0.735755  1
  H  H17  1  0.264245  0.499621  0.735755  1
  H  H18  1  0.271093  0.728907  0.949666  1
  H  H19  1  0.728907  0.271093  0.949666  1
  H  H20  1  0.728907  0.728907  0.050334  1
  H  H21  1  0.271093  0.271093  0.050334  1
  H  H22  1  0.264245  0.500379  0.264245  1
  H  H23  1  0.499621  0.735755  0.264245  1
  H  H24  1  0.500379  0.264245  0.264245  1
  H  H25  1  0.735755  0.499621  0.264245  1
  H  H26  1  0.949666  0.728907  0.271093  1
  H  H27  1  0.728907  0.949666  0.271093  1
  H  H28  1  0.271093  0.050334  0.271093  1
  H  H29  1  0.050334  0.271093  0.271093  1
  H  H30  1  0.264245  0.735755  0.499621  1
  H  H31  1  0.735755  0.264245  0.499621  1
  Ir  Ir32  1  0.277747  0.722253  0.722253  1
  Ir  Ir33  1  0.722253  0.277747  0.722253  1
  Ir  Ir34  1  0.722253  0.722253  0.277747  1
  Ir  Ir35  1  0.277747  0.277747  0.277747  1
