# generated using pymatgen
data_Np2Si5RuPt2
_symmetry_space_group_name_H-M   'P 1'
_cell_length_a   8.18500086
_cell_length_b   8.18500047
_cell_length_c   5.93893842
_cell_angle_alpha   68.74099588
_cell_angle_beta   68.74099708
_cell_angle_gamma   89.50522272
_symmetry_Int_Tables_number   1
_chemical_formula_structural   Np2Si5RuPt2
_chemical_formula_sum   'Np4 Si10 Ru2 Pt4'
_cell_volume   342.09375293
_cell_formula_units_Z   2
loop_
 _symmetry_equiv_pos_site_id
 _symmetry_equiv_pos_as_xyz
  1  'x, y, z'
loop_
 _atom_site_type_symbol
 _atom_site_label
 _atom_site_symmetry_multiplicity
 _atom_site_fract_x
 _atom_site_fract_y
 _atom_site_fract_z
 _atom_site_occupancy
  Np  Np0  1  0.862041  0.601623  0.767863  1
  Np  Np1  1  0.398377  0.137959  0.732137  1
  Np  Np2  1  0.137959  0.398377  0.232137  1
  Np  Np3  1  0.601623  0.862041  0.267863  1
  Si  Si4  1  0.047533  0.254443  0.848799  1
  Si  Si5  1  0.745557  0.952467  0.651201  1
  Si  Si6  1  0.952467  0.745557  0.151201  1
  Si  Si7  1  0.254443  0.047533  0.348799  1
  Si  Si8  1  0.221564  0.778436  0.750000  1
  Si  Si9  1  0.778436  0.221564  0.250000  1
  Si  Si10  1  0.500103  0.499897  0.750000  1
  Si  Si11  1  0.499897  0.500103  0.250000  1
  Si  Si12  1  0.778397  0.221603  0.750000  1
  Si  Si13  1  0.221603  0.778397  0.250000  1
  Ru  Ru14  1  0.000108  0.999892  0.750000  1
  Ru  Ru15  1  0.999892  0.000108  0.250000  1
  Pt  Pt16  1  0.248924  0.528261  0.611681  1
  Pt  Pt17  1  0.471739  0.751076  0.888319  1
  Pt  Pt18  1  0.751076  0.471739  0.388319  1
  Pt  Pt19  1  0.528261  0.248924  0.111681  1
