# generated using pymatgen
data_Nd2ErHf(NiP)4
_symmetry_space_group_name_H-M   'P 1'
_cell_length_a   3.89825600
_cell_length_b   3.89825587
_cell_length_c   15.38293000
_cell_angle_alpha   90.00000000
_cell_angle_beta   90.00000000
_cell_angle_gamma   120.00001807
_symmetry_Int_Tables_number   1
_chemical_formula_structural   Nd2ErHf(NiP)4
_chemical_formula_sum   'Nd2 Er1 Hf1 Ni4 P4'
_cell_volume   202.44651920
_cell_formula_units_Z   1
loop_
 _symmetry_equiv_pos_site_id
 _symmetry_equiv_pos_as_xyz
  1  'x, y, z'
loop_
 _atom_site_type_symbol
 _atom_site_label
 _atom_site_symmetry_multiplicity
 _atom_site_fract_x
 _atom_site_fract_y
 _atom_site_fract_z
 _atom_site_occupancy
  Nd  Nd0  1  0.000000  0.000000  0.492696  1
  Nd  Nd1  1  0.000000  0.000000  0.007304  1
  Er  Er2  1  0.000000  0.000000  0.750000  1
  Hf  Hf3  1  0.000000  0.000000  0.250000  1
  Ni  Ni4  1  0.333333  0.666667  0.342313  1
  Ni  Ni5  1  0.666667  0.333333  0.629969  1
  Ni  Ni6  1  0.666667  0.333333  0.870031  1
  Ni  Ni7  1  0.333333  0.666667  0.157687  1
  P  P8  1  0.333333  0.666667  0.875089  1
  P  P9  1  0.666667  0.333333  0.132311  1
  P  P10  1  0.666667  0.333333  0.367689  1
  P  P11  1  0.333333  0.666667  0.624911  1
