# generated using pymatgen
data_Li4Tb3HoPt4
_symmetry_space_group_name_H-M   'P 1'
_cell_length_a   4.03191400
_cell_length_b   7.01704263
_cell_length_c   8.36892000
_cell_angle_alpha   89.67107816
_cell_angle_beta   90.00000000
_cell_angle_gamma   90.00000000
_symmetry_Int_Tables_number   1
_chemical_formula_structural   Li4Tb3HoPt4
_chemical_formula_sum   'Li4 Tb3 Ho1 Pt4'
_cell_volume   236.77052379
_cell_formula_units_Z   1
loop_
 _symmetry_equiv_pos_site_id
 _symmetry_equiv_pos_as_xyz
  1  'x, y, z'
loop_
 _atom_site_type_symbol
 _atom_site_label
 _atom_site_symmetry_multiplicity
 _atom_site_fract_x
 _atom_site_fract_y
 _atom_site_fract_z
 _atom_site_occupancy
  Li  Li0  1  0.250000  0.628746  0.557691  1
  Li  Li1  1  0.750000  0.372467  0.441813  1
  Li  Li2  1  0.750000  0.873176  0.058501  1
  Li  Li3  1  0.250000  0.125804  0.942495  1
  Tb  Tb4  1  0.250000  0.545726  0.182216  1
  Tb  Tb5  1  0.750000  0.453486  0.818105  1
  Tb  Tb6  1  0.750000  0.954291  0.680620  1
  Ho  Ho7  1  0.250000  0.046201  0.319013  1
  Pt  Pt8  1  0.250000  0.745205  0.876159  1
  Pt  Pt9  1  0.750000  0.253178  0.124834  1
  Pt  Pt10  1  0.750000  0.756330  0.375878  1
  Pt  Pt11  1  0.250000  0.245390  0.622678  1
