# generated using pymatgen
data_Er8MgSc10Si16Tc
_symmetry_space_group_name_H-M   'P 1'
_cell_length_a   6.96893477
_cell_length_b   7.32638339
_cell_length_c   13.86804100
_cell_angle_alpha   90.00000000
_cell_angle_beta   90.00000000
_cell_angle_gamma   90.08265680
_symmetry_Int_Tables_number   1
_chemical_formula_structural   Er8MgSc10Si16Tc
_chemical_formula_sum   'Er8 Mg1 Sc10 Si16 Tc1'
_cell_volume   708.06105184
_cell_formula_units_Z   1
loop_
 _symmetry_equiv_pos_site_id
 _symmetry_equiv_pos_as_xyz
  1  'x, y, z'
loop_
 _atom_site_type_symbol
 _atom_site_label
 _atom_site_symmetry_multiplicity
 _atom_site_fract_x
 _atom_site_fract_y
 _atom_site_fract_z
 _atom_site_occupancy
  Er  Er0  1  0.012282  0.182626  0.093799  1
  Er  Er1  1  0.991900  0.817791  0.900679  1
  Er  Er2  1  0.487583  0.672968  0.902662  1
  Er  Er3  1  0.991900  0.817791  0.599321  1
  Er  Er4  1  0.514668  0.324893  0.095027  1
  Er  Er5  1  0.012282  0.182626  0.406201  1
  Er  Er6  1  0.514668  0.324893  0.404973  1
  Er  Er7  1  0.487583  0.672968  0.597338  1
  Mg  Mg8  1  0.843484  0.491831  0.250000  1
  Sc  Sc9  1  0.345134  0.003500  0.250000  1
  Sc  Sc10  1  0.655823  0.994271  0.750000  1
  Sc  Sc11  1  0.325127  0.177772  0.627245  1
  Sc  Sc12  1  0.676184  0.821740  0.374765  1
  Sc  Sc13  1  0.169234  0.673130  0.376933  1
  Sc  Sc14  1  0.676184  0.821740  0.125235  1
  Sc  Sc15  1  0.824610  0.328845  0.628454  1
  Sc  Sc16  1  0.325127  0.177772  0.872755  1
  Sc  Sc17  1  0.824610  0.328845  0.871546  1
  Sc  Sc18  1  0.169234  0.673130  0.123067  1
  Si  Si19  1  0.027631  0.117117  0.750000  1
  Si  Si20  1  0.976486  0.898876  0.250000  1
  Si  Si21  1  0.465236  0.616340  0.250000  1
  Si  Si22  1  0.516526  0.396019  0.750000  1
  Si  Si23  1  0.283819  0.859000  0.750000  1
  Si  Si24  1  0.716457  0.122902  0.250000  1
  Si  Si25  1  0.224855  0.370497  0.250000  1
  Si  Si26  1  0.793065  0.628776  0.750000  1
  Si  Si27  1  0.155392  0.465668  0.547750  1
  Si  Si28  1  0.839895  0.538405  0.467664  1
  Si  Si29  1  0.344729  0.966279  0.462199  1
  Si  Si30  1  0.839895  0.538405  0.032336  1
  Si  Si31  1  0.658161  0.032927  0.539304  1
  Si  Si32  1  0.155392  0.465668  0.952250  1
  Si  Si33  1  0.658161  0.032927  0.960696  1
  Si  Si34  1  0.344729  0.966279  0.037801  1
  Tc  Tc35  1  0.151954  0.494787  0.750000  1
