# generated using pymatgen
data_Be3Fe2Si3Mo4
_symmetry_space_group_name_H-M   'P 1'
_cell_length_a   4.56486339
_cell_length_b   4.67124276
_cell_length_c   7.67189800
_cell_angle_alpha   90.00000000
_cell_angle_beta   90.00000000
_cell_angle_gamma   120.61637771
_symmetry_Int_Tables_number   1
_chemical_formula_structural   Be3Fe2Si3Mo4
_chemical_formula_sum   'Be3 Fe2 Si3 Mo4'
_cell_volume   140.78701827
_cell_formula_units_Z   1
loop_
 _symmetry_equiv_pos_site_id
 _symmetry_equiv_pos_as_xyz
  1  'x, y, z'
loop_
 _atom_site_type_symbol
 _atom_site_label
 _atom_site_symmetry_multiplicity
 _atom_site_fract_x
 _atom_site_fract_y
 _atom_site_fract_z
 _atom_site_occupancy
  Be  Be0  1  0.817388  0.156497  0.750000  1
  Be  Be1  1  0.179137  0.355350  0.250000  1
  Be  Be2  1  0.176717  0.828792  0.250000  1
  Fe  Fe3  1  0.318194  0.151627  0.750000  1
  Fe  Fe4  1  0.668660  0.835981  0.250000  1
  Si  Si5  1  0.813849  0.638339  0.750000  1
  Si  Si6  1  0.011035  0.015086  0.491506  1
  Si  Si7  1  0.011035  0.015086  0.008494  1
  Mo  Mo8  1  0.684041  0.342048  0.064265  1
  Mo  Mo9  1  0.317951  0.659572  0.942947  1
  Mo  Mo10  1  0.317951  0.659572  0.557053  1
  Mo  Mo11  1  0.684041  0.342048  0.435735  1
