# generated using pymatgen
data_SrSm4Y2CoI12
_symmetry_space_group_name_H-M   'P 1'
_cell_length_a   9.89153118
_cell_length_b   9.89782040
_cell_length_c   9.81006421
_cell_angle_alpha   106.45382732
_cell_angle_beta   106.12705153
_cell_angle_gamma   106.28476950
_symmetry_Int_Tables_number   1
_chemical_formula_structural   SrSm4Y2CoI12
_chemical_formula_sum   'Sr1 Sm4 Y2 Co1 I12'
_cell_volume   814.89255921
_cell_formula_units_Z   1
loop_
 _symmetry_equiv_pos_site_id
 _symmetry_equiv_pos_as_xyz
  1  'x, y, z'
loop_
 _atom_site_type_symbol
 _atom_site_label
 _atom_site_symmetry_multiplicity
 _atom_site_fract_x
 _atom_site_fract_y
 _atom_site_fract_z
 _atom_site_occupancy
  Sr  Sr0  1  0.499786  0.499935  0.500198  1
  Sm  Sm1  1  0.019107  0.089587  0.282866  1
  Sm  Sm2  1  0.093860  0.297338  0.019588  1
  Sm  Sm3  1  0.297257  0.020176  0.094669  1
  Sm  Sm4  1  0.979917  0.908746  0.716636  1
  Y  Y5  1  0.905554  0.707262  0.979743  1
  Y  Y6  1  0.707195  0.979018  0.906654  1
  Co  Co7  1  0.999989  0.999794  0.999648  1
  I  I8  1  0.138176  0.450210  0.371355  1
  I  I9  1  0.451107  0.369925  0.137093  1
  I  I10  1  0.369550  0.139068  0.452352  1
  I  I11  1  0.861777  0.549907  0.633072  1
  I  I12  1  0.553529  0.634088  0.865303  1
  I  I13  1  0.630513  0.862775  0.552369  1
  I  I14  1  0.677898  0.072964  0.222054  1
  I  I15  1  0.072475  0.222377  0.676046  1
  I  I16  1  0.219688  0.676517  0.072406  1
  I  I17  1  0.323764  0.925712  0.773593  1
  I  I18  1  0.925895  0.774190  0.318643  1
  I  I19  1  0.772963  0.320412  0.925709  1
