# generated using pymatgen
data_TbYb4Ce(Si3Ru)8
_symmetry_space_group_name_H-M   'P 1'
_cell_length_a   10.16729933
_cell_length_b   10.16729804
_cell_length_c   8.16030228
_cell_angle_alpha   90.14579503
_cell_angle_beta   89.85420306
_cell_angle_gamma   132.67546174
_symmetry_Int_Tables_number   1
_chemical_formula_structural   TbYb4Ce(Si3Ru)8
_chemical_formula_sum   'Tb1 Yb4 Ce1 Si24 Ru8'
_cell_volume   620.18915196
_cell_formula_units_Z   1
loop_
 _symmetry_equiv_pos_site_id
 _symmetry_equiv_pos_as_xyz
  1  'x, y, z'
loop_
 _atom_site_type_symbol
 _atom_site_label
 _atom_site_symmetry_multiplicity
 _atom_site_fract_x
 _atom_site_fract_y
 _atom_site_fract_z
 _atom_site_occupancy
  Tb  Tb0  1  0.001005  0.501005  0.750000  1
  Yb  Yb1  1  0.499510  0.499427  0.499084  1
  Yb  Yb2  1  0.999427  0.999510  0.000916  1
  Yb  Yb3  1  0.998224  0.498224  0.250000  1
  Yb  Yb4  1  0.498942  0.998942  0.250000  1
  Ce  Ce5  1  0.502212  0.002212  0.750000  1
  Si  Si6  1  0.796432  0.205156  0.496337  1
  Si  Si7  1  0.294905  0.702993  0.003453  1
  Si  Si8  1  0.202993  0.794905  0.496547  1
  Si  Si9  1  0.705156  0.296432  0.003663  1
  Si  Si10  1  0.332174  0.331886  0.832335  1
  Si  Si11  1  0.666956  0.664881  0.167660  1
  Si  Si12  1  0.164881  0.166956  0.332340  1
  Si  Si13  1  0.831886  0.832174  0.667665  1
  Si  Si14  1  0.123410  0.891626  0.729972  1
  Si  Si15  1  0.109098  0.876853  0.269248  1
  Si  Si16  1  0.610378  0.377508  0.230634  1
  Si  Si17  1  0.624231  0.392197  0.770462  1
  Si  Si18  1  0.877508  0.110378  0.269366  1
  Si  Si19  1  0.892197  0.124231  0.729538  1
  Si  Si20  1  0.391626  0.623410  0.770028  1
  Si  Si21  1  0.376853  0.609098  0.230752  1
  Si  Si22  1  0.346512  0.114032  0.506054  1
  Si  Si23  1  0.885414  0.653591  0.492572  1
  Si  Si24  1  0.386630  0.153589  0.007546  1
  Si  Si25  1  0.846716  0.614392  0.994178  1
  Si  Si26  1  0.653589  0.886630  0.492454  1
  Si  Si27  1  0.114392  0.346716  0.505822  1
  Si  Si28  1  0.614032  0.846512  0.993946  1
  Si  Si29  1  0.153591  0.385414  0.007428  1
  Ru  Ru30  1  0.671076  0.330355  0.501646  1
  Ru  Ru31  1  0.171302  0.829865  0.998197  1
  Ru  Ru32  1  0.329865  0.671302  0.501803  1
  Ru  Ru33  1  0.830355  0.171076  0.998354  1
  Ru  Ru34  1  0.125236  0.125070  0.625439  1
  Ru  Ru35  1  0.872888  0.873330  0.374806  1
  Ru  Ru36  1  0.373330  0.372888  0.125194  1
  Ru  Ru37  1  0.625070  0.625236  0.874561  1
