# generated using pymatgen
data_TbDy9Sn5Sb
_symmetry_space_group_name_H-M   'P 1'
_cell_length_a   8.98627509
_cell_length_b   8.97785140
_cell_length_c   6.50616800
_cell_angle_alpha   90.00000000
_cell_angle_beta   90.00000000
_cell_angle_gamma   120.01440245
_symmetry_Int_Tables_number   1
_chemical_formula_structural   TbDy9Sn5Sb
_chemical_formula_sum   'Tb1 Dy9 Sn5 Sb1'
_cell_volume   454.51160885
_cell_formula_units_Z   1
loop_
 _symmetry_equiv_pos_site_id
 _symmetry_equiv_pos_as_xyz
  1  'x, y, z'
loop_
 _atom_site_type_symbol
 _atom_site_label
 _atom_site_symmetry_multiplicity
 _atom_site_fract_x
 _atom_site_fract_y
 _atom_site_fract_z
 _atom_site_occupancy
  Tb  Tb0  1  0.998178  0.760018  0.750000  1
  Dy  Dy1  1  0.000660  0.239202  0.250000  1
  Dy  Dy2  1  0.761406  0.760771  0.250000  1
  Dy  Dy3  1  0.761593  0.000029  0.750000  1
  Dy  Dy4  1  0.238191  0.240049  0.750000  1
  Dy  Dy5  1  0.239195  0.000025  0.250000  1
  Dy  Dy6  1  0.333194  0.665754  0.499983  1
  Dy  Dy7  1  0.667412  0.334225  0.000015  1
  Dy  Dy8  1  0.667412  0.334225  0.499985  1
  Dy  Dy9  1  0.333194  0.665754  0.000017  1
  Sn  Sn10  1  0.395444  0.394844  0.250000  1
  Sn  Sn11  1  0.000599  0.605156  0.250000  1
  Sn  Sn12  1  0.999940  0.395342  0.750000  1
  Sn  Sn13  1  0.604402  0.604532  0.750000  1
  Sn  Sn14  1  0.605278  0.000002  0.250000  1
  Sb  Sb15  1  0.393901  0.000074  0.750000  1
