# generated using pymatgen
data_Pr2FeRuCl
_symmetry_space_group_name_H-M   'P 1'
_cell_length_a   4.13333800
_cell_length_b   4.13333825
_cell_length_c   16.76934300
_cell_angle_alpha   90.00000000
_cell_angle_beta   90.00000000
_cell_angle_gamma   119.99999799
_symmetry_Int_Tables_number   1
_chemical_formula_structural   Pr2FeRuCl
_chemical_formula_sum   'Pr4 Fe2 Ru2 Cl2'
_cell_volume   248.11244945
_cell_formula_units_Z   2
loop_
 _symmetry_equiv_pos_site_id
 _symmetry_equiv_pos_as_xyz
  1  'x, y, z'
loop_
 _atom_site_type_symbol
 _atom_site_label
 _atom_site_symmetry_multiplicity
 _atom_site_fract_x
 _atom_site_fract_y
 _atom_site_fract_z
 _atom_site_occupancy
  Pr  Pr0  1  0.000000  0.000000  0.114645  1
  Pr  Pr1  1  0.000000  0.000000  0.385355  1
  Pr  Pr2  1  0.000000  0.000000  0.615120  1
  Pr  Pr3  1  0.000000  0.000000  0.884880  1
  Fe  Fe4  1  0.666667  0.333332  0.506845  1
  Fe  Fe5  1  0.666667  0.333332  0.993155  1
  Ru  Ru6  1  0.333334  0.666668  0.006113  1
  Ru  Ru7  1  0.333334  0.666668  0.493887  1
  Cl  Cl8  1  0.666667  0.333332  0.250000  1
  Cl  Cl9  1  0.333334  0.666668  0.750000  1
