# generated using pymatgen
data_Sm2Er3TmTa2O14
_symmetry_space_group_name_H-M   'P 1'
_cell_length_a   6.45288740
_cell_length_b   6.45738200
_cell_length_c   7.53266100
_cell_angle_alpha   90.00000000
_cell_angle_beta   90.00000000
_cell_angle_gamma   109.25901549
_symmetry_Int_Tables_number   1
_chemical_formula_structural   Sm2Er3TmTa2O14
_chemical_formula_sum   'Sm2 Er3 Tm1 Ta2 O14'
_cell_volume   296.31119849
_cell_formula_units_Z   1
loop_
 _symmetry_equiv_pos_site_id
 _symmetry_equiv_pos_as_xyz
  1  'x, y, z'
loop_
 _atom_site_type_symbol
 _atom_site_label
 _atom_site_symmetry_multiplicity
 _atom_site_fract_x
 _atom_site_fract_y
 _atom_site_fract_z
 _atom_site_occupancy
  Sm  Sm0  1  0.500210  0.500363  0.500237  1
  Sm  Sm1  1  0.500210  0.500363  0.999763  1
  Er  Er2  1  0.001307  0.533576  0.250000  1
  Er  Er3  1  0.466731  0.998610  0.250000  1
  Er  Er4  1  0.998671  0.466336  0.750000  1
  Tm  Tm5  1  0.532895  0.001624  0.750000  1
  Ta  Ta6  1  0.000047  0.000008  0.500265  1
  Ta  Ta7  1  0.000047  0.000008  0.999735  1
  O  O8  1  0.677585  0.929932  0.467976  1
  O  O9  1  0.929391  0.677626  0.532775  1
  O  O10  1  0.677585  0.929932  0.032024  1
  O  O11  1  0.929391  0.677626  0.967225  1
  O  O12  1  0.322058  0.069499  0.533995  1
  O  O13  1  0.070717  0.322145  0.467258  1
  O  O14  1  0.322058  0.069499  0.966005  1
  O  O15  1  0.070717  0.322145  0.032742  1
  O  O16  1  0.932815  0.066440  0.750000  1
  O  O17  1  0.066655  0.933896  0.250000  1
  O  O18  1  0.365664  0.637159  0.750000  1
  O  O19  1  0.635094  0.364757  0.250000  1
  O  O20  1  0.641886  0.356460  0.750000  1
  O  O21  1  0.358267  0.641993  0.250000  1
