# generated using pymatgen
data_Sc12Al3Ga5(CuC)4
_symmetry_space_group_name_H-M   'P 1'
_cell_length_a   8.59937423
_cell_length_b   8.59196316
_cell_length_c   8.59937412
_cell_angle_alpha   59.96728952
_cell_angle_beta   60.02783409
_cell_angle_gamma   59.96729036
_symmetry_Int_Tables_number   1
_chemical_formula_structural   Sc12Al3Ga5(CuC)4
_chemical_formula_sum   'Sc12 Al3 Ga5 Cu4 C4'
_cell_volume   449.14584476
_cell_formula_units_Z   1
loop_
 _symmetry_equiv_pos_site_id
 _symmetry_equiv_pos_as_xyz
  1  'x, y, z'
loop_
 _atom_site_type_symbol
 _atom_site_label
 _atom_site_symmetry_multiplicity
 _atom_site_fract_x
 _atom_site_fract_y
 _atom_site_fract_z
 _atom_site_occupancy
  Sc  Sc0  1  0.556925  0.943456  0.556925  1
  Sc  Sc1  1  0.307995  0.692170  0.693007  1
  Sc  Sc2  1  0.693251  0.307489  0.308377  1
  Sc  Sc3  1  0.308278  0.692468  0.308278  1
  Sc  Sc4  1  0.693007  0.692170  0.307995  1
  Sc  Sc5  1  0.308377  0.307489  0.693251  1
  Sc  Sc6  1  0.557585  0.555468  0.943963  1
  Sc  Sc7  1  0.943963  0.555468  0.557585  1
  Sc  Sc8  1  0.557246  0.944125  0.944413  1
  Sc  Sc9  1  0.944413  0.944125  0.557246  1
  Sc  Sc10  1  0.693590  0.306586  0.693590  1
  Sc  Sc11  1  0.944868  0.555523  0.944868  1
  Al  Al12  1  0.920102  0.922419  0.234794  1
  Al  Al13  1  0.234794  0.922419  0.920102  1
  Al  Al14  1  0.327557  0.327959  0.327557  1
  Ga  Ga15  1  0.918615  0.918678  0.918615  1
  Ga  Ga16  1  0.005481  0.331393  0.331059  1
  Ga  Ga17  1  0.331208  0.005467  0.331208  1
  Ga  Ga18  1  0.331059  0.331393  0.005481  1
  Ga  Ga19  1  0.918530  0.244050  0.918530  1
  Cu  Cu20  1  0.125462  0.121749  0.125462  1
  Cu  Cu21  1  0.623808  0.125776  0.127333  1
  Cu  Cu22  1  0.126400  0.626578  0.126400  1
  Cu  Cu23  1  0.127333  0.125776  0.623808  1
  C  C24  1  0.625917  0.625509  0.625917  1
  C  C25  1  0.121524  0.626138  0.626449  1
  C  C26  1  0.626263  0.122013  0.626263  1
  C  C27  1  0.626449  0.626138  0.121524  1
