# generated using pymatgen
data_MgNb2(SnRu2)3
_symmetry_space_group_name_H-M   'P 1'
_cell_length_a   4.52609300
_cell_length_b   6.37738600
_cell_length_c   13.54420800
_cell_angle_alpha   90.00279753
_cell_angle_beta   89.99966621
_cell_angle_gamma   90.00094455
_symmetry_Int_Tables_number   1
_chemical_formula_structural   MgNb2(SnRu2)3
_chemical_formula_sum   'Mg2 Nb4 Sn6 Ru12'
_cell_volume   390.94871663
_cell_formula_units_Z   2
loop_
 _symmetry_equiv_pos_site_id
 _symmetry_equiv_pos_as_xyz
  1  'x, y, z'
loop_
 _atom_site_type_symbol
 _atom_site_label
 _atom_site_symmetry_multiplicity
 _atom_site_fract_x
 _atom_site_fract_y
 _atom_site_fract_z
 _atom_site_occupancy
  Mg  Mg0  1  0.000125  0.999993  0.667538  1
  Mg  Mg1  1  0.500125  0.500013  0.832463  1
  Nb  Nb2  1  0.000002  0.000007  0.993141  1
  Nb  Nb3  1  0.499887  0.499998  0.164500  1
  Nb  Nb4  1  0.999885  0.999999  0.335495  1
  Nb  Nb5  1  0.500006  0.499998  0.506871  1
  Sn  Sn6  1  0.999997  0.500001  0.996037  1
  Sn  Sn7  1  0.499861  0.999996  0.166084  1
  Sn  Sn8  1  0.999859  0.499999  0.333903  1
  Sn  Sn9  1  0.500002  0.000007  0.503975  1
  Sn  Sn10  1  0.000112  0.500007  0.670042  1
  Sn  Sn11  1  0.500112  0.999991  0.829955  1
  Ru  Ru12  1  0.500008  0.247648  0.003996  1
  Ru  Ru13  1  0.500011  0.752351  0.003992  1
  Ru  Ru14  1  0.999879  0.250136  0.167810  1
  Ru  Ru15  1  0.999881  0.749872  0.167805  1
  Ru  Ru16  1  0.499877  0.249869  0.332194  1
  Ru  Ru17  1  0.499876  0.750132  0.332200  1
  Ru  Ru18  1  0.999995  0.252344  0.496005  1
  Ru  Ru19  1  0.000003  0.747649  0.496003  1
  Ru  Ru20  1  0.500125  0.254461  0.663814  1
  Ru  Ru21  1  0.500122  0.745542  0.663817  1
  Ru  Ru22  1  0.000123  0.245527  0.836184  1
  Ru  Ru23  1  0.000120  0.754467  0.836180  1
