# generated using pymatgen
data_Lu2TcB6
_symmetry_space_group_name_H-M   'P 1'
_cell_length_a   3.61582500
_cell_length_b   9.05054900
_cell_length_c   11.40729200
_cell_angle_alpha   90.00000000
_cell_angle_beta   90.00000000
_cell_angle_gamma   90.00000000
_symmetry_Int_Tables_number   1
_chemical_formula_structural   Lu2TcB6
_chemical_formula_sum   'Lu8 Tc4 B24'
_cell_volume   373.30592742
_cell_formula_units_Z   4
loop_
 _symmetry_equiv_pos_site_id
 _symmetry_equiv_pos_as_xyz
  1  'x, y, z'
loop_
 _atom_site_type_symbol
 _atom_site_label
 _atom_site_symmetry_multiplicity
 _atom_site_fract_x
 _atom_site_fract_y
 _atom_site_fract_z
 _atom_site_occupancy
  Lu  Lu0  1  0.000000  0.823679  0.085827  1
  Lu  Lu1  1  0.000000  0.176321  0.914173  1
  Lu  Lu2  1  0.000000  0.323679  0.414173  1
  Lu  Lu3  1  0.000000  0.676321  0.585827  1
  Lu  Lu4  1  0.000000  0.443214  0.129926  1
  Lu  Lu5  1  0.000000  0.556786  0.870074  1
  Lu  Lu6  1  0.000000  0.943214  0.370074  1
  Lu  Lu7  1  0.000000  0.056786  0.629926  1
  Tc  Tc8  1  0.000000  0.139287  0.179829  1
  Tc  Tc9  1  0.000000  0.860713  0.820171  1
  Tc  Tc10  1  0.000000  0.639287  0.320171  1
  Tc  Tc11  1  0.000000  0.360713  0.679829  1
  B  B12  1  0.500000  0.053293  0.066405  1
  B  B13  1  0.500000  0.946707  0.933595  1
  B  B14  1  0.500000  0.553293  0.433595  1
  B  B15  1  0.500000  0.446707  0.566405  1
  B  B16  1  0.500000  0.250397  0.080522  1
  B  B17  1  0.500000  0.749603  0.919478  1
  B  B18  1  0.500000  0.750397  0.419478  1
  B  B19  1  0.500000  0.249603  0.580522  1
  B  B20  1  0.500000  0.293536  0.235259  1
  B  B21  1  0.500000  0.706464  0.764741  1
  B  B22  1  0.500000  0.793536  0.264741  1
  B  B23  1  0.500000  0.206464  0.735259  1
  B  B24  1  0.500000  0.130780  0.315681  1
  B  B25  1  0.500000  0.869220  0.684319  1
  B  B26  1  0.500000  0.630780  0.184319  1
  B  B27  1  0.500000  0.369220  0.815681  1
  B  B28  1  0.500000  0.481035  0.288044  1
  B  B29  1  0.500000  0.518965  0.711956  1
  B  B30  1  0.500000  0.981035  0.211956  1
  B  B31  1  0.500000  0.018965  0.788044  1
  B  B32  1  0.500000  0.099282  0.472437  1
  B  B33  1  0.500000  0.900718  0.527563  1
  B  B34  1  0.500000  0.599282  0.027563  1
  B  B35  1  0.500000  0.400718  0.972437  1
