# generated using pymatgen
data_Zr10In3CuGeSb3
_symmetry_space_group_name_H-M   'P 1'
_cell_length_a   8.71653900
_cell_length_b   8.71653944
_cell_length_c   5.87284000
_cell_angle_alpha   90.00000000
_cell_angle_beta   90.00000000
_cell_angle_gamma   119.99999455
_symmetry_Int_Tables_number   1
_chemical_formula_structural   Zr10In3CuGeSb3
_chemical_formula_sum   'Zr10 In3 Cu1 Ge1 Sb3'
_cell_volume   386.42658920
_cell_formula_units_Z   1
loop_
 _symmetry_equiv_pos_site_id
 _symmetry_equiv_pos_as_xyz
  1  'x, y, z'
loop_
 _atom_site_type_symbol
 _atom_site_label
 _atom_site_symmetry_multiplicity
 _atom_site_fract_x
 _atom_site_fract_y
 _atom_site_fract_z
 _atom_site_occupancy
  Zr  Zr0  1  0.666667  0.333333  0.998332  1
  Zr  Zr1  1  0.333333  0.666667  0.998332  1
  Zr  Zr2  1  0.333333  0.666667  0.502578  1
  Zr  Zr3  1  0.666667  0.333333  0.502578  1
  Zr  Zr4  1  0.728176  0.728176  0.749578  1
  Zr  Zr5  1  0.271824  0.000000  0.749578  1
  Zr  Zr6  1  0.000000  0.271824  0.749578  1
  Zr  Zr7  1  0.257488  0.257488  0.251805  1
  Zr  Zr8  1  0.742512  0.000000  0.251805  1
  Zr  Zr9  1  0.000000  0.742512  0.251805  1
  In  In10  1  0.382096  0.382096  0.751763  1
  In  In11  1  0.617904  0.000000  0.751763  1
  In  In12  1  0.000000  0.617904  0.751763  1
  Cu  Cu13  1  0.000000  0.000000  0.971310  1
  Ge  Ge14  1  0.000000  0.000000  0.517276  1
  Sb  Sb15  1  0.606841  0.606841  0.250053  1
  Sb  Sb16  1  0.393159  0.000000  0.250053  1
  Sb  Sb17  1  0.000000  0.393159  0.250053  1
