# generated using pymatgen
data_Yb20(AgAu3)3
_symmetry_space_group_name_H-M   'P 1'
_cell_length_a   7.87811500
_cell_length_b   7.87811500
_cell_length_c   14.21022400
_cell_angle_alpha   90.00000000
_cell_angle_beta   90.00000000
_cell_angle_gamma   90.00000000
_symmetry_Int_Tables_number   1
_chemical_formula_structural   Yb20(AgAu3)3
_chemical_formula_sum   'Yb20 Ag3 Au9'
_cell_volume   881.95323199
_cell_formula_units_Z   1
loop_
 _symmetry_equiv_pos_site_id
 _symmetry_equiv_pos_as_xyz
  1  'x, y, z'
loop_
 _atom_site_type_symbol
 _atom_site_label
 _atom_site_symmetry_multiplicity
 _atom_site_fract_x
 _atom_site_fract_y
 _atom_site_fract_z
 _atom_site_occupancy
  Yb  Yb0  1  0.000000  0.000000  0.754721  1
  Yb  Yb1  1  0.500000  0.500000  0.249459  1
  Yb  Yb2  1  0.000000  0.000000  0.245279  1
  Yb  Yb3  1  0.500000  0.500000  0.750541  1
  Yb  Yb4  1  0.170639  0.661454  0.107987  1
  Yb  Yb5  1  0.665740  0.166001  0.610657  1
  Yb  Yb6  1  0.829361  0.338546  0.107987  1
  Yb  Yb7  1  0.334260  0.833999  0.610657  1
  Yb  Yb8  1  0.338546  0.170639  0.107987  1
  Yb  Yb9  1  0.833999  0.665740  0.610657  1
  Yb  Yb10  1  0.661454  0.829361  0.107987  1
  Yb  Yb11  1  0.166001  0.334260  0.610657  1
  Yb  Yb12  1  0.338546  0.829361  0.892013  1
  Yb  Yb13  1  0.833999  0.334260  0.389343  1
  Yb  Yb14  1  0.661454  0.170639  0.892013  1
  Yb  Yb15  1  0.166001  0.665740  0.389343  1
  Yb  Yb16  1  0.170639  0.338546  0.892013  1
  Yb  Yb17  1  0.665740  0.833999  0.389343  1
  Yb  Yb18  1  0.829361  0.661454  0.892013  1
  Yb  Yb19  1  0.334260  0.166001  0.389343  1
  Ag  Ag20  1  0.000000  0.000000  0.500000  1
  Ag  Ag21  1  0.000000  0.000000  0.000000  1
  Ag  Ag22  1  0.500000  0.500000  0.500000  1
  Au  Au23  1  0.634582  0.133682  0.248662  1
  Au  Au24  1  0.133682  0.634582  0.751338  1
  Au  Au25  1  0.866318  0.365418  0.751338  1
  Au  Au26  1  0.365418  0.866318  0.248662  1
  Au  Au27  1  0.365418  0.133682  0.751338  1
  Au  Au28  1  0.866318  0.634582  0.248662  1
  Au  Au29  1  0.133682  0.365418  0.248662  1
  Au  Au30  1  0.634582  0.866318  0.751338  1
  Au  Au31  1  0.500000  0.500000  0.000000  1
