# generated using pymatgen
data_Y2Pa(Co3P2)3
_symmetry_space_group_name_H-M   'P 1'
_cell_length_a   3.72892900
_cell_length_b   10.56196400
_cell_length_c   12.18669900
_cell_angle_alpha   90.00000000
_cell_angle_beta   90.00000000
_cell_angle_gamma   90.00000000
_symmetry_Int_Tables_number   1
_chemical_formula_structural   Y2Pa(Co3P2)3
_chemical_formula_sum   'Y4 Pa2 Co18 P12'
_cell_volume   479.97087164
_cell_formula_units_Z   2
loop_
 _symmetry_equiv_pos_site_id
 _symmetry_equiv_pos_as_xyz
  1  'x, y, z'
loop_
 _atom_site_type_symbol
 _atom_site_label
 _atom_site_symmetry_multiplicity
 _atom_site_fract_x
 _atom_site_fract_y
 _atom_site_fract_z
 _atom_site_occupancy
  Y  Y0  1  0.500000  0.815190  0.205239  1
  Y  Y1  1  0.500000  0.184810  0.205239  1
  Y  Y2  1  0.000000  0.684810  0.794761  1
  Y  Y3  1  0.000000  0.315190  0.794761  1
  Pa  Pa4  1  0.000000  0.500000  0.528827  1
  Pa  Pa5  1  0.500000  0.000000  0.471173  1
  Co  Co6  1  0.500000  0.500000  0.158592  1
  Co  Co7  1  0.000000  0.000000  0.841408  1
  Co  Co8  1  0.500000  0.500000  0.696211  1
  Co  Co9  1  0.000000  0.000000  0.303789  1
  Co  Co10  1  0.000000  0.500000  0.985127  1
  Co  Co11  1  0.500000  0.000000  0.014873  1
  Co  Co12  1  0.500000  0.334072  0.993848  1
  Co  Co13  1  0.500000  0.665928  0.993848  1
  Co  Co14  1  0.000000  0.165928  0.006152  1
  Co  Co15  1  0.000000  0.834072  0.006152  1
  Co  Co16  1  0.500000  0.301525  0.431730  1
  Co  Co17  1  0.500000  0.698475  0.431730  1
  Co  Co18  1  0.000000  0.198475  0.568270  1
  Co  Co19  1  0.000000  0.801525  0.568270  1
  Co  Co20  1  0.500000  0.880426  0.710383  1
  Co  Co21  1  0.500000  0.119574  0.710383  1
  Co  Co22  1  0.000000  0.619574  0.289617  1
  Co  Co23  1  0.000000  0.380426  0.289617  1
  P  P24  1  0.500000  0.500000  0.879434  1
  P  P25  1  0.000000  0.000000  0.120566  1
  P  P26  1  0.500000  0.500000  0.343424  1
  P  P27  1  0.000000  0.000000  0.656576  1
  P  P28  1  0.500000  0.306723  0.616668  1
  P  P29  1  0.500000  0.693277  0.616668  1
  P  P30  1  0.000000  0.193277  0.383332  1
  P  P31  1  0.000000  0.806723  0.383332  1
  P  P32  1  0.500000  0.847717  0.894769  1
  P  P33  1  0.500000  0.152283  0.894769  1
  P  P34  1  0.000000  0.652283  0.105231  1
  P  P35  1  0.000000  0.347717  0.105231  1
