# generated using pymatgen
data_In4Sn11Ir3O14
_symmetry_space_group_name_H-M   'P 1'
_cell_length_a   7.18154320
_cell_length_b   7.29307246
_cell_length_c   13.21371268
_cell_angle_alpha   73.25037987
_cell_angle_beta   74.23182350
_cell_angle_gamma   60.50460330
_symmetry_Int_Tables_number   1
_chemical_formula_structural   In4Sn11Ir3O14
_chemical_formula_sum   'In4 Sn11 Ir3 O14'
_cell_volume   569.77802631
_cell_formula_units_Z   1
loop_
 _symmetry_equiv_pos_site_id
 _symmetry_equiv_pos_as_xyz
  1  'x, y, z'
loop_
 _atom_site_type_symbol
 _atom_site_label
 _atom_site_symmetry_multiplicity
 _atom_site_fract_x
 _atom_site_fract_y
 _atom_site_fract_z
 _atom_site_occupancy
  In  In0  1  0.904251  0.010535  0.180962  1
  In  In1  1  0.490484  0.598349  0.420683  1
  In  In2  1  0.495135  0.086382  0.426721  1
  In  In3  1  0.991765  0.086382  0.426721  1
  Sn  Sn4  1  0.097462  0.150674  0.654403  1
  Sn  Sn5  1  0.400614  0.024211  0.174562  1
  Sn  Sn6  1  0.149500  0.782569  0.918429  1
  Sn  Sn7  1  0.440786  0.515116  0.153447  1
  Sn  Sn8  1  0.890651  0.515116  0.153447  1
  Sn  Sn9  1  0.684130  0.748711  0.883028  1
  Sn  Sn10  1  0.677615  0.257936  0.915165  1
  Sn  Sn11  1  0.149284  0.257936  0.915165  1
  Sn  Sn12  1  0.577470  0.676990  0.648973  1
  Sn  Sn13  1  0.096567  0.676990  0.648973  1
  Sn  Sn14  1  0.008810  0.593877  0.388503  1
  Ir  Ir15  1  0.696741  0.308591  0.297927  1
  Ir  Ir16  1  0.887314  0.458292  0.767080  1
  Ir  Ir17  1  0.285883  0.391265  0.036969  1
  O  O18  1  0.118434  0.716271  0.474319  1
  O  O19  1  0.690976  0.716271  0.474319  1
  O  O20  1  0.963209  0.074090  0.999493  1
  O  O21  1  0.119027  0.282263  0.479683  1
  O  O22  1  0.671858  0.614676  0.041607  1
  O  O23  1  0.424242  0.553077  0.598440  1
  O  O24  1  0.345514  0.966945  0.342027  1
  O  O25  1  0.426828  0.005649  0.600725  1
  O  O26  1  0.966796  0.005649  0.600725  1
  O  O27  1  0.360215  0.941466  0.885618  1
  O  O28  1  0.812701  0.941466  0.885618  1
  O  O29  1  0.733095  0.840622  0.166918  1
  O  O30  1  0.259363  0.840622  0.166918  1
  O  O31  1  0.223649  0.799499  0.753202  1
