# generated using pymatgen
data_CaSm2(TaN3)2
_symmetry_space_group_name_H-M   'P 1'
_cell_length_a   4.01795565
_cell_length_b   4.01795541
_cell_length_c   10.27275300
_cell_angle_alpha   101.27765195
_cell_angle_beta   101.27765128
_cell_angle_gamma   90.00000234
_symmetry_Int_Tables_number   1
_chemical_formula_structural   CaSm2(TaN3)2
_chemical_formula_sum   'Ca1 Sm2 Ta2 N6'
_cell_volume   159.37413257
_cell_formula_units_Z   1
loop_
 _symmetry_equiv_pos_site_id
 _symmetry_equiv_pos_as_xyz
  1  'x, y, z'
loop_
 _atom_site_type_symbol
 _atom_site_label
 _atom_site_symmetry_multiplicity
 _atom_site_fract_x
 _atom_site_fract_y
 _atom_site_fract_z
 _atom_site_occupancy
  Ca  Ca0  1  0.183962  0.183962  0.367922  1
  Sm  Sm1  1  0.004770  0.004770  0.009539  1
  Sm  Sm2  1  0.817806  0.817806  0.635611  1
  Ta  Ta3  1  0.603020  0.603020  0.206040  1
  Ta  Ta4  1  0.398446  0.398446  0.796893  1
  N  N5  1  0.578192  0.078192  0.156383  1
  N  N6  1  0.078192  0.578192  0.156383  1
  N  N7  1  0.699476  0.699476  0.398952  1
  N  N8  1  0.301824  0.301824  0.603649  1
  N  N9  1  0.917157  0.417157  0.834313  1
  N  N10  1  0.417157  0.917157  0.834313  1
