# generated using pymatgen
data_Tb6Tm(LuPb2)3
_symmetry_space_group_name_H-M   'P 1'
_cell_length_a   6.55064700
_cell_length_b   9.03480311
_cell_length_c   9.03553905
_cell_angle_alpha   119.99705584
_cell_angle_beta   90.00098447
_cell_angle_gamma   89.99870681
_symmetry_Int_Tables_number   1
_chemical_formula_structural   Tb6Tm(LuPb2)3
_chemical_formula_sum   'Tb6 Tm1 Lu3 Pb6'
_cell_volume   463.12739589
_cell_formula_units_Z   1
loop_
 _symmetry_equiv_pos_site_id
 _symmetry_equiv_pos_as_xyz
  1  'x, y, z'
loop_
 _atom_site_type_symbol
 _atom_site_label
 _atom_site_symmetry_multiplicity
 _atom_site_fract_x
 _atom_site_fract_y
 _atom_site_fract_z
 _atom_site_occupancy
  Tb  Tb0  1  0.749924  0.238878  0.000057  1
  Tb  Tb1  1  0.749934  0.761085  0.761073  1
  Tb  Tb2  1  0.749926  0.999898  0.238872  1
  Tb  Tb3  1  0.250060  0.761168  0.000050  1
  Tb  Tb4  1  0.250079  0.238975  0.238870  1
  Tb  Tb5  1  0.250074  0.000000  0.761075  1
  Tm  Tm6  1  0.999999  0.333366  0.666693  1
  Lu  Lu7  1  0.500005  0.333343  0.666697  1
  Lu  Lu8  1  0.499995  0.666637  0.333309  1
  Lu  Lu9  1  0.000007  0.666663  0.333307  1
  Pb  Pb10  1  0.749627  0.604198  0.000415  1
  Pb  Pb11  1  0.749638  0.396198  0.395769  1
  Pb  Pb12  1  0.749635  0.999581  0.603824  1
  Pb  Pb13  1  0.250354  0.396224  0.000440  1
  Pb  Pb14  1  0.250365  0.604231  0.603804  1
  Pb  Pb15  1  0.250378  0.999555  0.395744  1
