# generated using pymatgen
data_DyLu7(BCl6)2
_symmetry_space_group_name_H-M   'P 1'
_cell_length_a   3.77311500
_cell_length_b   12.39918630
_cell_length_c   12.83725209
_cell_angle_alpha   90.44744350
_cell_angle_beta   90.00000000
_cell_angle_gamma   90.00000000
_symmetry_Int_Tables_number   1
_chemical_formula_structural   DyLu7(BCl6)2
_chemical_formula_sum   'Dy1 Lu7 B2 Cl12'
_cell_volume   600.55398657
_cell_formula_units_Z   1
loop_
 _symmetry_equiv_pos_site_id
 _symmetry_equiv_pos_as_xyz
  1  'x, y, z'
loop_
 _atom_site_type_symbol
 _atom_site_label
 _atom_site_symmetry_multiplicity
 _atom_site_fract_x
 _atom_site_fract_y
 _atom_site_fract_z
 _atom_site_occupancy
  Dy  Dy0  1  0.500000  0.126832  0.850741  1
  Lu  Lu1  1  0.000000  0.104331  0.083357  1
  Lu  Lu2  1  0.000000  0.895222  0.917172  1
  Lu  Lu3  1  0.000000  0.605004  0.416793  1
  Lu  Lu4  1  0.000000  0.396548  0.581816  1
  Lu  Lu5  1  0.500000  0.874392  0.147862  1
  Lu  Lu6  1  0.500000  0.625975  0.647685  1
  Lu  Lu7  1  0.500000  0.374481  0.351890  1
  B  B8  1  0.500000  0.998680  0.001563  1
  B  B9  1  0.500000  0.500827  0.499332  1
  Cl  Cl10  1  0.500000  0.271476  0.678983  1
  Cl  Cl11  1  0.500000  0.731176  0.317229  1
  Cl  Cl12  1  0.500000  0.767184  0.817155  1
  Cl  Cl13  1  0.500000  0.231406  0.184419  1
  Cl  Cl14  1  0.000000  0.261370  0.935929  1
  Cl  Cl15  1  0.000000  0.742510  0.071118  1
  Cl  Cl16  1  0.000000  0.477328  0.242939  1
  Cl  Cl17  1  0.000000  0.522868  0.756601  1
  Cl  Cl18  1  0.000000  0.977692  0.257987  1
  Cl  Cl19  1  0.000000  0.014438  0.739831  1
  Cl  Cl20  1  0.000000  0.243527  0.428283  1
  Cl  Cl21  1  0.000000  0.756732  0.571316  1
