# generated using pymatgen
data_Tb2Th(GaRu)3
_symmetry_space_group_name_H-M   'P 1'
_cell_length_a   7.13985853
_cell_length_b   7.13985870
_cell_length_c   3.92249900
_cell_angle_alpha   90.00000000
_cell_angle_beta   90.00000000
_cell_angle_gamma   117.57052566
_symmetry_Int_Tables_number   1
_chemical_formula_structural   Tb2Th(GaRu)3
_chemical_formula_sum   'Tb2 Th1 Ga3 Ru3'
_cell_volume   177.25246731
_cell_formula_units_Z   1
loop_
 _symmetry_equiv_pos_site_id
 _symmetry_equiv_pos_as_xyz
  1  'x, y, z'
loop_
 _atom_site_type_symbol
 _atom_site_label
 _atom_site_symmetry_multiplicity
 _atom_site_fract_x
 _atom_site_fract_y
 _atom_site_fract_z
 _atom_site_occupancy
  Tb  Tb0  1  0.589770  0.999748  0.000000  1
  Tb  Tb1  1  0.999748  0.589770  0.000000  1
  Th  Th2  1  0.413628  0.413628  0.000000  1
  Ga  Ga3  1  0.988860  0.251380  0.500000  1
  Ga  Ga4  1  0.763225  0.763225  0.500000  1
  Ga  Ga5  1  0.251380  0.988860  0.500000  1
  Ru  Ru6  1  0.006715  0.006715  0.000000  1
  Ru  Ru7  1  0.337041  0.649632  0.500000  1
  Ru  Ru8  1  0.649632  0.337041  0.500000  1
