# generated using pymatgen
data_Pr2Ga5Ir3
_symmetry_space_group_name_H-M   'P 1'
_cell_length_a   8.67915881
_cell_length_b   8.67915938
_cell_length_c   8.67915953
_cell_angle_alpha   140.70469596
_cell_angle_beta   108.19839617
_cell_angle_gamma   85.05494367
_symmetry_Int_Tables_number   1
_chemical_formula_structural   Pr2Ga5Ir3
_chemical_formula_sum   'Pr4 Ga10 Ir6'
_cell_volume   379.97732494
_cell_formula_units_Z   2
loop_
 _symmetry_equiv_pos_site_id
 _symmetry_equiv_pos_as_xyz
  1  'x, y, z'
loop_
 _atom_site_type_symbol
 _atom_site_label
 _atom_site_symmetry_multiplicity
 _atom_site_fract_x
 _atom_site_fract_y
 _atom_site_fract_z
 _atom_site_occupancy
  Pr  Pr0  1  0.865373  0.634489  0.230884  1
  Pr  Pr1  1  0.134627  0.365511  0.769116  1
  Pr  Pr2  1  0.403605  0.134489  0.269116  1
  Pr  Pr3  1  0.596395  0.865511  0.730884  1
  Ga  Ga4  1  0.500000  0.750000  0.250000  1
  Ga  Ga5  1  0.500000  0.250000  0.750000  1
  Ga  Ga6  1  0.209492  0.959492  0.750000  1
  Ga  Ga7  1  0.790508  0.540508  0.750000  1
  Ga  Ga8  1  0.790508  0.040508  0.250000  1
  Ga  Ga9  1  0.209492  0.459492  0.250000  1
  Ga  Ga10  1  0.074551  0.906272  0.168279  1
  Ga  Ga11  1  0.925449  0.093728  0.831721  1
  Ga  Ga12  1  0.737993  0.406272  0.331721  1
  Ga  Ga13  1  0.262007  0.593728  0.668279  1
  Ir  Ir14  1  0.000000  0.750000  0.750000  1
  Ir  Ir15  1  0.000000  0.250000  0.250000  1
  Ir  Ir16  1  0.256478  0.853479  0.402999  1
  Ir  Ir17  1  0.743522  0.146521  0.597001  1
  Ir  Ir18  1  0.450481  0.353479  0.097001  1
  Ir  Ir19  1  0.549519  0.646521  0.902999  1
