# generated using pymatgen
data_Li2HgGeSe4
_symmetry_space_group_name_H-M   'P 1'
_cell_length_a   6.83686900
_cell_length_b   7.26671300
_cell_length_c   8.27047000
_cell_angle_alpha   90.00000000
_cell_angle_beta   90.00000000
_cell_angle_gamma   90.00000000
_symmetry_Int_Tables_number   1
_chemical_formula_structural   Li2HgGeSe4
_chemical_formula_sum   'Li4 Hg2 Ge2 Se8'
_cell_volume   410.88989158
_cell_formula_units_Z   2
loop_
 _symmetry_equiv_pos_site_id
 _symmetry_equiv_pos_as_xyz
  1  'x, y, z'
loop_
 _atom_site_type_symbol
 _atom_site_label
 _atom_site_symmetry_multiplicity
 _atom_site_fract_x
 _atom_site_fract_y
 _atom_site_fract_z
 _atom_site_occupancy
  Li  Li0  1  0.624555  0.672114  0.254294  1
  Li  Li1  1  0.624555  0.672114  0.745706  1
  Li  Li2  1  0.124555  0.327886  0.245706  1
  Li  Li3  1  0.124555  0.327886  0.754294  1
  Hg  Hg4  1  0.126044  0.853725  0.500000  1
  Hg  Hg5  1  0.626044  0.146275  0.000000  1
  Ge  Ge6  1  0.124503  0.827715  0.000000  1
  Ge  Ge7  1  0.624503  0.172285  0.500000  1
  Se  Se8  1  0.728733  0.858955  0.500000  1
  Se  Se9  1  0.228733  0.141045  0.000000  1
  Se  Se10  1  0.248033  0.664251  0.230971  1
  Se  Se11  1  0.248033  0.664251  0.769029  1
  Se  Se12  1  0.748033  0.335749  0.269029  1
  Se  Se13  1  0.748033  0.335749  0.730971  1
  Se  Se14  1  0.774413  0.804255  0.000000  1
  Se  Se15  1  0.274413  0.195745  0.500000  1
