# generated using pymatgen
data_Pa4Hg2Pt3Rh
_symmetry_space_group_name_H-M   'P 1'
_cell_length_a   7.83106874
_cell_length_b   7.83106874
_cell_length_c   3.61448800
_cell_angle_alpha   90.00000000
_cell_angle_beta   90.00000000
_cell_angle_gamma   90.09587503
_symmetry_Int_Tables_number   1
_chemical_formula_structural   Pa4Hg2Pt3Rh
_chemical_formula_sum   'Pa4 Hg2 Pt3 Rh1'
_cell_volume   221.66047096
_cell_formula_units_Z   1
loop_
 _symmetry_equiv_pos_site_id
 _symmetry_equiv_pos_as_xyz
  1  'x, y, z'
loop_
 _atom_site_type_symbol
 _atom_site_label
 _atom_site_symmetry_multiplicity
 _atom_site_fract_x
 _atom_site_fract_y
 _atom_site_fract_z
 _atom_site_occupancy
  Pa  Pa0  1  0.332319  0.172464  0.500000  1
  Pa  Pa1  1  0.823170  0.323170  0.500000  1
  Pa  Pa2  1  0.171384  0.671384  0.500000  1
  Pa  Pa3  1  0.672464  0.832319  0.500000  1
  Hg  Hg4  1  0.998268  0.000749  0.000000  1
  Hg  Hg5  1  0.500749  0.498268  0.000000  1
  Pt  Pt6  1  0.129421  0.369561  0.000000  1
  Pt  Pt7  1  0.869561  0.629421  0.000000  1
  Pt  Pt8  1  0.370394  0.870394  0.000000  1
  Rh  Rh9  1  0.632270  0.132270  0.000000  1
