# generated using pymatgen
data_Er6TcNiHg
_symmetry_space_group_name_H-M   'P 1'
_cell_length_a   8.35138048
_cell_length_b   8.35138101
_cell_length_c   8.35138088
_cell_angle_alpha   113.16399232
_cell_angle_beta   111.32019283
_cell_angle_gamma   104.06699361
_symmetry_Int_Tables_number   1
_chemical_formula_structural   Er6TcNiHg
_chemical_formula_sum   'Er12 Tc2 Ni2 Hg2'
_cell_volume   445.30516697
_cell_formula_units_Z   2
loop_
 _symmetry_equiv_pos_site_id
 _symmetry_equiv_pos_as_xyz
  1  'x, y, z'
loop_
 _atom_site_type_symbol
 _atom_site_label
 _atom_site_symmetry_multiplicity
 _atom_site_fract_x
 _atom_site_fract_y
 _atom_site_fract_z
 _atom_site_occupancy
  Er  Er0  1  0.049149  0.744578  0.304571  1
  Er  Er1  1  0.950851  0.255422  0.695429  1
  Er  Er2  1  0.559995  0.255422  0.304571  1
  Er  Er3  1  0.440005  0.744578  0.695429  1
  Er  Er4  1  0.667204  0.849348  0.182142  1
  Er  Er5  1  0.332796  0.514938  0.182142  1
  Er  Er6  1  0.332796  0.150652  0.817858  1
  Er  Er7  1  0.667204  0.485062  0.817858  1
  Er  Er8  1  0.183406  0.216372  0.399779  1
  Er  Er9  1  0.816594  0.216372  0.032966  1
  Er  Er10  1  0.183406  0.783628  0.967034  1
  Er  Er11  1  0.816594  0.783628  0.600221  1
  Tc  Tc12  1  0.676187  0.500000  0.176187  1
  Tc  Tc13  1  0.323813  0.500000  0.823813  1
  Ni  Ni14  1  0.882993  0.882993  0.000000  1
  Ni  Ni15  1  0.117007  0.117007  0.000000  1
  Hg  Hg16  1  0.000000  0.500000  0.500000  1
  Hg  Hg17  1  0.500000  0.000000  0.500000  1
