# generated using pymatgen
data_SrGa2(SeO3)4
_symmetry_space_group_name_H-M   'P 1'
_cell_length_a   10.00849300
_cell_length_b   5.19426800
_cell_length_c   10.57488594
_cell_angle_alpha   90.00000000
_cell_angle_beta   95.08981617
_cell_angle_gamma   90.00000000
_symmetry_Int_Tables_number   1
_chemical_formula_structural   SrGa2(SeO3)4
_chemical_formula_sum   'Sr2 Ga4 Se8 O24'
_cell_volume   547.58666222
_cell_formula_units_Z   2
loop_
 _symmetry_equiv_pos_site_id
 _symmetry_equiv_pos_as_xyz
  1  'x, y, z'
loop_
 _atom_site_type_symbol
 _atom_site_label
 _atom_site_symmetry_multiplicity
 _atom_site_fract_x
 _atom_site_fract_y
 _atom_site_fract_z
 _atom_site_occupancy
  Sr  Sr0  1  0.250001  0.955169  0.250000  1
  Sr  Sr1  1  0.750000  0.044831  0.750000  1
  Ga  Ga2  1  0.500000  0.000000  0.000000  1
  Ga  Ga3  1  0.000000  0.500000  0.000000  1
  Ga  Ga4  1  0.500000  0.500000  0.500000  1
  Ga  Ga5  1  0.000000  0.000000  0.500000  1
  Se  Se6  1  0.841997  0.992804  0.099330  1
  Se  Se7  1  0.516331  0.503301  0.185652  1
  Se  Se8  1  0.983669  0.503301  0.314348  1
  Se  Se9  1  0.658003  0.992804  0.400670  1
  Se  Se10  1  0.341997  0.007196  0.599330  1
  Se  Se11  1  0.016331  0.496699  0.685652  1
  Se  Se12  1  0.483669  0.496699  0.814348  1
  Se  Se13  1  0.158003  0.007196  0.900670  1
  O  O14  1  0.120963  0.171185  0.038024  1
  O  O15  1  0.843413  0.313647  0.051738  1
  O  O16  1  0.421180  0.705044  0.081615  1
  O  O17  1  0.672161  0.947117  0.105698  1
  O  O18  1  0.435303  0.213943  0.150080  1
  O  O19  1  0.062261  0.600610  0.180705  1
  O  O20  1  0.437739  0.600610  0.319295  1
  O  O21  1  0.064697  0.213943  0.349920  1
  O  O22  1  0.827839  0.947117  0.394301  1
  O  O23  1  0.078821  0.705044  0.418384  1
  O  O24  1  0.656588  0.313647  0.448263  1
  O  O25  1  0.379037  0.171185  0.461976  1
  O  O26  1  0.620963  0.828814  0.538025  1
  O  O27  1  0.343413  0.686352  0.551737  1
  O  O28  1  0.921180  0.294955  0.581615  1
  O  O29  1  0.172161  0.052884  0.605698  1
  O  O30  1  0.935302  0.786057  0.650080  1
  O  O31  1  0.562261  0.399389  0.680704  1
  O  O32  1  0.937739  0.399389  0.819296  1
  O  O33  1  0.564697  0.786057  0.849919  1
  O  O34  1  0.327839  0.052884  0.894301  1
  O  O35  1  0.578821  0.294955  0.918384  1
  O  O36  1  0.156588  0.686352  0.948263  1
  O  O37  1  0.879037  0.828814  0.961976  1
