# generated using pymatgen
data_Zr3Ti2(Re3Tc)6
_symmetry_space_group_name_H-M   'P 1'
_cell_length_a   8.43397051
_cell_length_b   8.43397103
_cell_length_c   8.42235006
_cell_angle_alpha   109.46140138
_cell_angle_beta   109.46139005
_cell_angle_gamma   109.54668560
_symmetry_Int_Tables_number   1
_chemical_formula_structural   Zr3Ti2(Re3Tc)6
_chemical_formula_sum   'Zr3 Ti2 Re18 Tc6'
_cell_volume   460.86722298
_cell_formula_units_Z   1
loop_
 _symmetry_equiv_pos_site_id
 _symmetry_equiv_pos_as_xyz
  1  'x, y, z'
loop_
 _atom_site_type_symbol
 _atom_site_label
 _atom_site_symmetry_multiplicity
 _atom_site_fract_x
 _atom_site_fract_y
 _atom_site_fract_z
 _atom_site_occupancy
  Zr  Zr0  1  0.002609  0.002609  0.000000  1
  Zr  Zr1  1  0.626873  0.999770  0.000000  1
  Zr  Zr2  1  0.999770  0.626873  0.000000  1
  Ti  Ti3  1  0.999246  0.999246  0.627484  1
  Ti  Ti4  1  0.371762  0.371762  0.372516  1
  Re  Re5  1  0.318595  0.318595  0.720730  1
  Re  Re6  1  0.000892  0.681752  0.400331  1
  Re  Re7  1  0.681752  0.000892  0.400331  1
  Re  Re8  1  0.597866  0.597866  0.279270  1
  Re  Re9  1  0.281421  0.600561  0.599669  1
  Re  Re10  1  0.600561  0.281421  0.599669  1
  Re  Re11  1  0.374640  0.194634  0.000000  1
  Re  Re12  1  0.180777  0.806547  0.803233  1
  Re  Re13  1  0.377545  0.003314  0.196767  1
  Re  Re14  1  0.194634  0.374640  0.000000  1
  Re  Re15  1  0.003314  0.377545  0.196767  1
  Re  Re16  1  0.806547  0.180777  0.803233  1
  Re  Re17  1  0.805720  0.805720  0.184361  1
  Re  Re18  1  0.003132  0.195000  0.378899  1
  Re  Re19  1  0.195000  0.003132  0.378899  1
  Re  Re20  1  0.621359  0.621359  0.815639  1
  Re  Re21  1  0.816101  0.624233  0.621101  1
  Re  Re22  1  0.624233  0.816101  0.621101  1
  Tc  Tc23  1  0.395612  0.676870  0.000000  1
  Tc  Tc24  1  0.720484  0.323603  0.322502  1
  Tc  Tc25  1  0.397982  0.001101  0.677498  1
  Tc  Tc26  1  0.676870  0.395612  0.000000  1
  Tc  Tc27  1  0.001101  0.397982  0.677498  1
  Tc  Tc28  1  0.323603  0.720484  0.322502  1
