# generated using pymatgen
data_Mn2AlNiPt4
_symmetry_space_group_name_H-M   'P 1'
_cell_length_a   5.37913488
_cell_length_b   5.37913453
_cell_length_c   4.01865500
_cell_angle_alpha   90.00000000
_cell_angle_beta   90.00000000
_cell_angle_gamma   96.53516204
_symmetry_Int_Tables_number   1
_chemical_formula_structural   Mn2AlNiPt4
_chemical_formula_sum   'Mn2 Al1 Ni1 Pt4'
_cell_volume   115.52457941
_cell_formula_units_Z   1
loop_
 _symmetry_equiv_pos_site_id
 _symmetry_equiv_pos_as_xyz
  1  'x, y, z'
loop_
 _atom_site_type_symbol
 _atom_site_label
 _atom_site_symmetry_multiplicity
 _atom_site_fract_x
 _atom_site_fract_y
 _atom_site_fract_z
 _atom_site_occupancy
  Mn  Mn0  1  0.720582  0.279418  0.500000  1
  Mn  Mn1  1  0.279418  0.720582  0.500000  1
  Al  Al2  1  0.000000  0.000000  0.000000  1
  Ni  Ni3  1  0.500000  0.500000  0.000000  1
  Pt  Pt4  1  0.777030  0.777030  0.500000  1
  Pt  Pt5  1  0.222970  0.222970  0.500000  1
  Pt  Pt6  1  0.500000  0.000000  0.000000  1
  Pt  Pt7  1  0.000000  0.500000  0.000000  1
