# generated using pymatgen
data_SmNpU2(NiAs)4
_symmetry_space_group_name_H-M   'P 1'
_cell_length_a   4.10513700
_cell_length_b   4.10513781
_cell_length_c   15.31743500
_cell_angle_alpha   90.00000000
_cell_angle_beta   90.00000000
_cell_angle_gamma   120.00001763
_symmetry_Int_Tables_number   1
_chemical_formula_structural   SmNpU2(NiAs)4
_chemical_formula_sum   'Sm1 Np1 U2 Ni4 As4'
_cell_volume   223.54862204
_cell_formula_units_Z   1
loop_
 _symmetry_equiv_pos_site_id
 _symmetry_equiv_pos_as_xyz
  1  'x, y, z'
loop_
 _atom_site_type_symbol
 _atom_site_label
 _atom_site_symmetry_multiplicity
 _atom_site_fract_x
 _atom_site_fract_y
 _atom_site_fract_z
 _atom_site_occupancy
  Sm  Sm0  1  0.000000  0.000000  0.500000  1
  Np  Np1  1  0.000000  0.000000  0.000000  1
  U  U2  1  0.000000  0.000000  0.248643  1
  U  U3  1  0.000000  0.000000  0.751357  1
  Ni  Ni4  1  0.333333  0.666667  0.155387  1
  Ni  Ni5  1  0.666667  0.333333  0.844613  1
  Ni  Ni6  1  0.666667  0.333333  0.656306  1
  Ni  Ni7  1  0.333333  0.666667  0.343694  1
  As  As8  1  0.333333  0.666667  0.622572  1
  As  As9  1  0.666667  0.333333  0.377428  1
  As  As10  1  0.666667  0.333333  0.118825  1
  As  As11  1  0.333333  0.666667  0.881175  1
