# generated using pymatgen
data_HoEr3TcB12Rh
_symmetry_space_group_name_H-M   'P 1'
_cell_length_a   3.65696600
_cell_length_b   9.10602693
_cell_length_c   11.49279309
_cell_angle_alpha   90.38224535
_cell_angle_beta   90.00000000
_cell_angle_gamma   90.00000000
_symmetry_Int_Tables_number   1
_chemical_formula_structural   HoEr3TcB12Rh
_chemical_formula_sum   'Ho2 Er6 Tc2 B24 Rh2'
_cell_volume   382.70644506
_cell_formula_units_Z   2
loop_
 _symmetry_equiv_pos_site_id
 _symmetry_equiv_pos_as_xyz
  1  'x, y, z'
loop_
 _atom_site_type_symbol
 _atom_site_label
 _atom_site_symmetry_multiplicity
 _atom_site_fract_x
 _atom_site_fract_y
 _atom_site_fract_z
 _atom_site_occupancy
  Ho  Ho0  1  0.500000  0.318748  0.410937  1
  Ho  Ho1  1  0.500000  0.681252  0.589063  1
  Er  Er2  1  0.500000  0.173406  0.917177  1
  Er  Er3  1  0.500000  0.826594  0.082823  1
  Er  Er4  1  0.500000  0.441966  0.126631  1
  Er  Er5  1  0.500000  0.558034  0.873369  1
  Er  Er6  1  0.500000  0.053938  0.628444  1
  Er  Er7  1  0.500000  0.946062  0.371556  1
  Tc  Tc8  1  0.500000  0.139101  0.179635  1
  Tc  Tc9  1  0.500000  0.860899  0.820365  1
  B  B10  1  0.000000  0.107670  0.471081  1
  B  B11  1  0.000000  0.892330  0.528919  1
  B  B12  1  0.000000  0.393075  0.970272  1
  B  B13  1  0.000000  0.606925  0.029728  1
  B  B14  1  0.000000  0.132346  0.314859  1
  B  B15  1  0.000000  0.867654  0.685141  1
  B  B16  1  0.000000  0.367207  0.816584  1
  B  B17  1  0.000000  0.632793  0.183416  1
  B  B18  1  0.000000  0.053077  0.067193  1
  B  B19  1  0.000000  0.946923  0.932807  1
  B  B20  1  0.000000  0.445585  0.565922  1
  B  B21  1  0.000000  0.554415  0.434078  1
  B  B22  1  0.000000  0.483572  0.287517  1
  B  B23  1  0.000000  0.516428  0.712483  1
  B  B24  1  0.000000  0.016872  0.787022  1
  B  B25  1  0.000000  0.983128  0.212978  1
  B  B26  1  0.000000  0.248378  0.080812  1
  B  B27  1  0.000000  0.751622  0.919188  1
  B  B28  1  0.000000  0.250522  0.578743  1
  B  B29  1  0.000000  0.749478  0.421257  1
  B  B30  1  0.000000  0.293178  0.234515  1
  B  B31  1  0.000000  0.706822  0.765485  1
  B  B32  1  0.000000  0.207956  0.734926  1
  B  B33  1  0.000000  0.792044  0.265074  1
  Rh  Rh34  1  0.500000  0.361718  0.678897  1
  Rh  Rh35  1  0.500000  0.638282  0.321103  1
