# generated using pymatgen
data_Tm4Al5GaOs2
_symmetry_space_group_name_H-M   'P 1'
_cell_length_a   5.41881200
_cell_length_b   5.43156154
_cell_length_c   8.75115800
_cell_angle_alpha   90.00000000
_cell_angle_beta   90.00000000
_cell_angle_gamma   119.92238203
_symmetry_Int_Tables_number   1
_chemical_formula_structural   Tm4Al5GaOs2
_chemical_formula_sum   'Tm4 Al5 Ga1 Os2'
_cell_volume   223.23592647
_cell_formula_units_Z   1
loop_
 _symmetry_equiv_pos_site_id
 _symmetry_equiv_pos_as_xyz
  1  'x, y, z'
loop_
 _atom_site_type_symbol
 _atom_site_label
 _atom_site_symmetry_multiplicity
 _atom_site_fract_x
 _atom_site_fract_y
 _atom_site_fract_z
 _atom_site_occupancy
  Tm  Tm0  1  0.667259  0.334516  0.052984  1
  Tm  Tm1  1  0.667259  0.334516  0.447017  1
  Tm  Tm2  1  0.333498  0.666995  0.554825  1
  Tm  Tm3  1  0.333498  0.666995  0.945176  1
  Al  Al4  1  0.163840  0.327680  0.250000  1
  Al  Al5  1  0.162958  0.837226  0.250000  1
  Al  Al6  1  0.674268  0.837226  0.250000  1
  Al  Al7  1  0.323375  0.156912  0.750000  1
  Al  Al8  1  0.833537  0.156912  0.750000  1
  Ga  Ga9  1  0.831651  0.663301  0.750000  1
  Os  Os10  1  0.004430  0.008860  0.000654  1
  Os  Os11  1  0.004430  0.008860  0.499346  1
