# generated using pymatgen
data_Sc11FeOs2Rh
_symmetry_space_group_name_H-M   'P 1'
_cell_length_a   9.42545418
_cell_length_b   9.42545451
_cell_length_c   9.44590100
_cell_angle_alpha   59.92822521
_cell_angle_beta   59.92822406
_cell_angle_gamma   60.14357073
_symmetry_Int_Tables_number   1
_chemical_formula_structural   Sc11FeOs2Rh
_chemical_formula_sum   'Sc22 Fe2 Os4 Rh2'
_cell_volume   593.37459720
_cell_formula_units_Z   2
loop_
 _symmetry_equiv_pos_site_id
 _symmetry_equiv_pos_as_xyz
  1  'x, y, z'
loop_
 _atom_site_type_symbol
 _atom_site_label
 _atom_site_symmetry_multiplicity
 _atom_site_fract_x
 _atom_site_fract_y
 _atom_site_fract_z
 _atom_site_occupancy
  Sc  Sc0  1  0.842448  0.842448  0.843778  1
  Sc  Sc1  1  0.528673  0.156222  0.157552  1
  Sc  Sc2  1  0.157552  0.157552  0.528673  1
  Sc  Sc3  1  0.156222  0.528673  0.157552  1
  Sc  Sc4  1  0.842448  0.842448  0.471327  1
  Sc  Sc5  1  0.843778  0.471327  0.842448  1
  Sc  Sc6  1  0.471327  0.843778  0.842448  1
  Sc  Sc7  1  0.157552  0.157552  0.156222  1
  Sc  Sc8  1  0.192926  0.807074  0.192926  1
  Sc  Sc9  1  0.192926  0.807074  0.807074  1
  Sc  Sc10  1  0.807074  0.192926  0.192926  1
  Sc  Sc11  1  0.806590  0.806590  0.193410  1
  Sc  Sc12  1  0.193410  0.193410  0.806590  1
  Sc  Sc13  1  0.807074  0.192926  0.807074  1
  Sc  Sc14  1  0.383595  0.383595  0.388964  1
  Sc  Sc15  1  0.156154  0.611036  0.616405  1
  Sc  Sc16  1  0.611036  0.156154  0.616405  1
  Sc  Sc17  1  0.616405  0.616405  0.156154  1
  Sc  Sc18  1  0.388964  0.843846  0.383595  1
  Sc  Sc19  1  0.383595  0.383595  0.843846  1
  Sc  Sc20  1  0.843846  0.388964  0.383595  1
  Sc  Sc21  1  0.616405  0.616405  0.611036  1
  Fe  Fe22  1  0.500000  0.500000  0.500000  1
  Fe  Fe23  1  0.000000  0.000000  0.000000  1
  Os  Os24  1  0.500000  0.000000  0.500000  1
  Os  Os25  1  0.000000  0.500000  0.500000  1
  Os  Os26  1  0.500000  0.000000  0.000000  1
  Os  Os27  1  0.000000  0.500000  0.000000  1
  Rh  Rh28  1  0.500000  0.500000  0.000000  1
  Rh  Rh29  1  0.000000  0.000000  0.500000  1
