# generated using pymatgen
data_Yb7PaP6
_symmetry_space_group_name_H-M   'P 1'
_cell_length_a   7.48695699
_cell_length_b   7.48695612
_cell_length_c   7.40729300
_cell_angle_alpha   109.25582510
_cell_angle_beta   109.25582277
_cell_angle_gamma   109.68575520
_symmetry_Int_Tables_number   1
_chemical_formula_structural   Yb7PaP6
_chemical_formula_sum   'Yb7 Pa1 P6'
_cell_volume   320.47624343
_cell_formula_units_Z   1
loop_
 _symmetry_equiv_pos_site_id
 _symmetry_equiv_pos_as_xyz
  1  'x, y, z'
loop_
 _atom_site_type_symbol
 _atom_site_label
 _atom_site_symmetry_multiplicity
 _atom_site_fract_x
 _atom_site_fract_y
 _atom_site_fract_z
 _atom_site_occupancy
  Yb  Yb0  1  0.639964  0.639252  0.639496  1
  Yb  Yb1  1  0.011758  0.375604  0.509064  1
  Yb  Yb2  1  0.363846  0.488242  0.997305  1
  Yb  Yb3  1  0.999288  0.860036  0.499532  1
  Yb  Yb4  1  0.860748  0.500712  0.000244  1
  Yb  Yb5  1  0.500000  0.000000  0.858867  1
  Yb  Yb6  1  0.124396  0.136154  0.133460  1
  Pa  Pa7  1  0.500000  0.000000  0.354090  1
  P  P8  1  0.863296  0.121327  0.736719  1
  P  P9  1  0.378673  0.241969  0.615392  1
  P  P10  1  0.136852  0.760116  0.893124  1
  P  P11  1  0.739884  0.876736  0.133009  1
  P  P12  1  0.258031  0.636704  0.373424  1
  P  P13  1  0.623264  0.363148  0.256273  1
