# generated using pymatgen
data_Ba6HoLu(BO3)6
_symmetry_space_group_name_H-M   'P 1'
_cell_length_a   8.18511614
_cell_length_b   8.18511531
_cell_length_c   8.18511593
_cell_angle_alpha   105.68457868
_cell_angle_beta   105.68458582
_cell_angle_gamma   105.68457683
_symmetry_Int_Tables_number   1
_chemical_formula_structural   Ba6HoLu(BO3)6
_chemical_formula_sum   'Ba6 Ho1 Lu1 B6 O18'
_cell_volume   472.11882377
_cell_formula_units_Z   1
loop_
 _symmetry_equiv_pos_site_id
 _symmetry_equiv_pos_as_xyz
  1  'x, y, z'
loop_
 _atom_site_type_symbol
 _atom_site_label
 _atom_site_symmetry_multiplicity
 _atom_site_fract_x
 _atom_site_fract_y
 _atom_site_fract_z
 _atom_site_occupancy
  Ba  Ba0  1  0.651869  0.264047  0.161547  1
  Ba  Ba1  1  0.161547  0.651869  0.264047  1
  Ba  Ba2  1  0.735952  0.838454  0.348131  1
  Ba  Ba3  1  0.264048  0.161546  0.651869  1
  Ba  Ba4  1  0.838454  0.348131  0.735953  1
  Ba  Ba5  1  0.348131  0.735953  0.838453  1
  Ho  Ho6  1  0.000000  0.000000  0.000000  1
  Lu  Lu7  1  0.500000  0.500000  0.500000  1
  B  B8  1  0.292342  0.373288  0.045933  1
  B  B9  1  0.373287  0.045933  0.292342  1
  B  B10  1  0.045933  0.292342  0.373287  1
  B  B11  1  0.954067  0.707659  0.626713  1
  B  B12  1  0.626713  0.954068  0.707658  1
  B  B13  1  0.707659  0.626713  0.954068  1
  O  O14  1  0.741008  0.814134  0.012425  1
  O  O15  1  0.800667  0.555763  0.066110  1
  O  O16  1  0.987575  0.258992  0.185864  1
  O  O17  1  0.444236  0.933890  0.199332  1
  O  O18  1  0.427552  0.488699  0.217335  1
  O  O19  1  0.185865  0.987575  0.258991  1
  O  O20  1  0.488698  0.217335  0.427552  1
  O  O21  1  0.933890  0.199332  0.444237  1
  O  O22  1  0.217335  0.427552  0.488699  1
  O  O23  1  0.782665  0.572448  0.511302  1
  O  O24  1  0.066110  0.800667  0.555763  1
  O  O25  1  0.511302  0.782665  0.572448  1
  O  O26  1  0.814134  0.012424  0.741008  1
  O  O27  1  0.572448  0.511302  0.782666  1
  O  O28  1  0.555763  0.066110  0.800668  1
  O  O29  1  0.012424  0.741007  0.814135  1
  O  O30  1  0.199332  0.444236  0.933890  1
  O  O31  1  0.258992  0.185865  0.987575  1
