# generated using pymatgen
data_SmGdIr2F14
_symmetry_space_group_name_H-M   'P 1'
_cell_length_a   5.68618400
_cell_length_b   9.23995010
_cell_length_c   12.34501200
_cell_angle_alpha   62.00141731
_cell_angle_beta   90.00000000
_cell_angle_gamma   90.00000000
_symmetry_Int_Tables_number   1
_chemical_formula_structural   SmGdIr2F14
_chemical_formula_sum   'Sm2 Gd2 Ir4 F28'
_cell_volume   572.69407506
_cell_formula_units_Z   2
loop_
 _symmetry_equiv_pos_site_id
 _symmetry_equiv_pos_as_xyz
  1  'x, y, z'
loop_
 _atom_site_type_symbol
 _atom_site_label
 _atom_site_symmetry_multiplicity
 _atom_site_fract_x
 _atom_site_fract_y
 _atom_site_fract_z
 _atom_site_occupancy
  Sm  Sm0  1  0.241391  0.188845  0.233947  1
  Sm  Sm1  1  0.741391  0.811155  0.266053  1
  Gd  Gd2  1  0.758725  0.812489  0.765779  1
  Gd  Gd3  1  0.258725  0.187511  0.734221  1
  Ir  Ir4  1  0.757025  0.273831  0.955470  1
  Ir  Ir5  1  0.257025  0.726169  0.544530  1
  Ir  Ir6  1  0.243319  0.726548  0.042735  1
  Ir  Ir7  1  0.743319  0.273452  0.457265  1
  F  F8  1  0.447418  0.707856  0.920609  1
  F  F9  1  0.947418  0.292144  0.579391  1
  F  F10  1  0.552056  0.292149  0.078101  1
  F  F11  1  0.052056  0.707851  0.421899  1
  F  F12  1  0.460122  0.284056  0.548062  1
  F  F13  1  0.960122  0.715944  0.951938  1
  F  F14  1  0.538556  0.715327  0.453589  1
  F  F15  1  0.038556  0.284673  0.046411  1
  F  F16  1  0.762019  0.512558  0.860046  1
  F  F17  1  0.262019  0.487442  0.639954  1
  F  F18  1  0.237832  0.487667  0.138587  1
  F  F19  1  0.737832  0.512333  0.361413  1
  F  F20  1  0.759778  0.035704  0.049904  1
  F  F21  1  0.259778  0.964296  0.450096  1
  F  F22  1  0.241428  0.964721  0.949160  1
  F  F23  1  0.741428  0.035279  0.550840  1
  F  F24  1  0.981292  0.735270  0.639246  1
  F  F25  1  0.481292  0.264730  0.860754  1
  F  F26  1  0.019749  0.265374  0.362273  1
  F  F27  1  0.519749  0.734626  0.137727  1
  F  F28  1  0.041550  0.745509  0.166359  1
  F  F29  1  0.541550  0.254491  0.333641  1
  F  F30  1  0.960185  0.254224  0.832017  1
  F  F31  1  0.460185  0.745776  0.667983  1
  F  F32  1  0.425462  0.974884  0.233470  1
  F  F33  1  0.925462  0.025116  0.266530  1
  F  F34  1  0.572093  0.023406  0.766442  1
  F  F35  1  0.072093  0.976594  0.733558  1
