# generated using pymatgen
data_Ho4Ga18Co5Ni
_symmetry_space_group_name_H-M   'P 1'
_cell_length_a   7.36672951
_cell_length_b   7.36672912
_cell_length_c   9.38375703
_cell_angle_alpha   89.97321874
_cell_angle_beta   89.97321686
_cell_angle_gamma   119.76736544
_symmetry_Int_Tables_number   1
_chemical_formula_structural   Ho4Ga18Co5Ni
_chemical_formula_sum   'Ho4 Ga18 Co5 Ni1'
_cell_volume   442.04849937
_cell_formula_units_Z   1
loop_
 _symmetry_equiv_pos_site_id
 _symmetry_equiv_pos_as_xyz
  1  'x, y, z'
loop_
 _atom_site_type_symbol
 _atom_site_label
 _atom_site_symmetry_multiplicity
 _atom_site_fract_x
 _atom_site_fract_y
 _atom_site_fract_z
 _atom_site_occupancy
  Ho  Ho0  1  0.331508  0.002996  0.749653  1
  Ho  Ho1  1  0.002514  0.331043  0.749652  1
  Ho  Ho2  1  0.668957  0.997486  0.250348  1
  Ho  Ho3  1  0.997004  0.668492  0.250347  1
  Ga  Ga4  1  0.667853  0.002484  0.927248  1
  Ga  Ga5  1  0.334144  0.999306  0.427981  1
  Ga  Ga6  1  0.999421  0.334347  0.428101  1
  Ga  Ga7  1  0.334082  0.001215  0.072858  1
  Ga  Ga8  1  0.998785  0.665918  0.927142  1
  Ga  Ga9  1  0.997516  0.332147  0.072752  1
  Ga  Ga10  1  0.332857  0.333034  0.558002  1
  Ga  Ga11  1  0.333257  0.331276  0.941024  1
  Ga  Ga12  1  0.668724  0.666743  0.058976  1
  Ga  Ga13  1  0.666966  0.667143  0.441998  1
  Ga  Ga14  1  0.879054  0.879383  0.750024  1
  Ga  Ga15  1  0.120617  0.120946  0.249976  1
  Ga  Ga16  1  0.336669  0.550144  0.251685  1
  Ga  Ga17  1  0.550964  0.336860  0.250080  1
  Ga  Ga18  1  0.663140  0.449036  0.749920  1
  Ga  Ga19  1  0.449856  0.663331  0.748315  1
  Ga  Ga20  1  0.665653  0.000579  0.571899  1
  Ga  Ga21  1  0.000694  0.665856  0.572019  1
  Co  Co22  1  0.671026  0.328974  0.500000  1
  Co  Co23  1  0.670753  0.329247  0.000000  1
  Co  Co24  1  0.328912  0.671088  0.500000  1
  Co  Co25  1  0.999830  0.000170  0.000000  1
  Co  Co26  1  0.999979  0.000021  0.500000  1
  Ni  Ni27  1  0.329263  0.670737  0.000000  1
