# generated using pymatgen
data_Ti13MnGa9Rh7
_symmetry_space_group_name_H-M   'P 1'
_cell_length_a   8.69896432
_cell_length_b   8.69896461
_cell_length_c   8.69896552
_cell_angle_alpha   59.96068797
_cell_angle_beta   59.96068248
_cell_angle_gamma   59.96069811
_symmetry_Int_Tables_number   1
_chemical_formula_structural   Ti13MnGa9Rh7
_chemical_formula_sum   'Ti13 Mn1 Ga9 Rh7'
_cell_volume   465.05078752
_cell_formula_units_Z   1
loop_
 _symmetry_equiv_pos_site_id
 _symmetry_equiv_pos_as_xyz
  1  'x, y, z'
loop_
 _atom_site_type_symbol
 _atom_site_label
 _atom_site_symmetry_multiplicity
 _atom_site_fract_x
 _atom_site_fract_y
 _atom_site_fract_z
 _atom_site_occupancy
  Ti  Ti0  1  0.205912  0.205912  0.793546  1
  Ti  Ti1  1  0.793546  0.205912  0.205912  1
  Ti  Ti2  1  0.205912  0.793546  0.205912  1
  Ti  Ti3  1  0.805920  0.805920  0.176508  1
  Ti  Ti4  1  0.176508  0.805920  0.805920  1
  Ti  Ti5  1  0.805920  0.176508  0.805920  1
  Ti  Ti6  1  0.376726  0.376726  0.376726  1
  Ti  Ti7  1  0.378405  0.869109  0.378405  1
  Ti  Ti8  1  0.869109  0.378405  0.378405  1
  Ti  Ti9  1  0.378405  0.378405  0.869109  1
  Ti  Ti10  1  0.844826  0.470673  0.844826  1
  Ti  Ti11  1  0.470673  0.844826  0.844826  1
  Ti  Ti12  1  0.844826  0.844826  0.470673  1
  Mn  Mn13  1  0.003766  0.003766  0.003766  1
  Ga  Ga14  1  0.149745  0.149745  0.149745  1
  Ga  Ga15  1  0.155023  0.539409  0.155023  1
  Ga  Ga16  1  0.539409  0.155023  0.155023  1
  Ga  Ga17  1  0.155023  0.155023  0.539409  1
  Ga  Ga18  1  0.620534  0.620534  0.620534  1
  Ga  Ga19  1  0.617703  0.144990  0.617703  1
  Ga  Ga20  1  0.144990  0.617703  0.617703  1
  Ga  Ga21  1  0.617703  0.617703  0.144990  1
  Ga  Ga22  1  0.830764  0.830764  0.830764  1
  Rh  Rh23  1  0.004511  0.004511  0.496672  1
  Rh  Rh24  1  0.496672  0.004511  0.004511  1
  Rh  Rh25  1  0.004511  0.496672  0.004511  1
  Rh  Rh26  1  0.499821  0.499821  0.001770  1
  Rh  Rh27  1  0.001770  0.499821  0.499821  1
  Rh  Rh28  1  0.499821  0.001770  0.499821  1
  Rh  Rh29  1  0.501546  0.501546  0.501546  1
