# generated using pymatgen
data_Zr5GaSi2O
_symmetry_space_group_name_H-M   'P 1'
_cell_length_a   8.02528900
_cell_length_b   7.99374191
_cell_length_c   5.64206300
_cell_angle_alpha   90.00000000
_cell_angle_beta   90.00000000
_cell_angle_gamma   120.13063025
_symmetry_Int_Tables_number   1
_chemical_formula_structural   Zr5GaSi2O
_chemical_formula_sum   'Zr10 Ga2 Si4 O2'
_cell_volume   313.04458103
_cell_formula_units_Z   2
loop_
 _symmetry_equiv_pos_site_id
 _symmetry_equiv_pos_as_xyz
  1  'x, y, z'
loop_
 _atom_site_type_symbol
 _atom_site_label
 _atom_site_symmetry_multiplicity
 _atom_site_fract_x
 _atom_site_fract_y
 _atom_site_fract_z
 _atom_site_occupancy
  Zr  Zr0  1  0.238471  0.000000  0.250000  1
  Zr  Zr1  1  0.761529  0.000000  0.750000  1
  Zr  Zr2  1  0.002350  0.243118  0.250000  1
  Zr  Zr3  1  0.997650  0.756882  0.750000  1
  Zr  Zr4  1  0.759232  0.756882  0.250000  1
  Zr  Zr5  1  0.240768  0.243118  0.750000  1
  Zr  Zr6  1  0.330121  0.660242  0.000000  1
  Zr  Zr7  1  0.669879  0.339758  0.000000  1
  Zr  Zr8  1  0.669879  0.339758  0.500000  1
  Zr  Zr9  1  0.330121  0.660242  0.500000  1
  Ga  Ga10  1  0.596775  0.000000  0.250000  1
  Ga  Ga11  1  0.403225  0.000000  0.750000  1
  Si  Si12  1  0.001702  0.599688  0.250000  1
  Si  Si13  1  0.998298  0.400312  0.750000  1
  Si  Si14  1  0.402015  0.400312  0.250000  1
  Si  Si15  1  0.597985  0.599688  0.750000  1
  O  O16  1  0.000000  0.000000  0.000000  1
  O  O17  1  0.000000  0.000000  0.500000  1
