# generated using pymatgen
data_Ho2Ga9CoRu2
_symmetry_space_group_name_H-M   'P 1'
_cell_length_a   7.48868402
_cell_length_b   7.48867652
_cell_length_c   9.63296200
_cell_angle_alpha   90.00000000
_cell_angle_beta   90.00000000
_cell_angle_gamma   120.49782527
_symmetry_Int_Tables_number   1
_chemical_formula_structural   Ho2Ga9CoRu2
_chemical_formula_sum   'Ho4 Ga18 Co2 Ru4'
_cell_volume   465.47946053
_cell_formula_units_Z   2
loop_
 _symmetry_equiv_pos_site_id
 _symmetry_equiv_pos_as_xyz
  1  'x, y, z'
loop_
 _atom_site_type_symbol
 _atom_site_label
 _atom_site_symmetry_multiplicity
 _atom_site_fract_x
 _atom_site_fract_y
 _atom_site_fract_z
 _atom_site_occupancy
  Ho  Ho0  1  0.996711  0.656414  0.250000  1
  Ho  Ho1  1  0.003289  0.343586  0.750000  1
  Ho  Ho2  1  0.656414  0.996710  0.250000  1
  Ho  Ho3  1  0.343586  0.003290  0.750000  1
  Ga  Ga4  1  0.109617  0.109616  0.250000  1
  Ga  Ga5  1  0.890383  0.890384  0.750000  1
  Ga  Ga6  1  0.002433  0.324464  0.074252  1
  Ga  Ga7  1  0.997567  0.675536  0.925748  1
  Ga  Ga8  1  0.997567  0.675536  0.574252  1
  Ga  Ga9  1  0.324465  0.002433  0.425748  1
  Ga  Ga10  1  0.002433  0.324464  0.425748  1
  Ga  Ga11  1  0.675535  0.997567  0.574252  1
  Ga  Ga12  1  0.675535  0.997567  0.925748  1
  Ga  Ga13  1  0.324465  0.002433  0.074252  1
  Ga  Ga14  1  0.329332  0.329332  0.560956  1
  Ga  Ga15  1  0.670668  0.670668  0.439044  1
  Ga  Ga16  1  0.670668  0.670668  0.060956  1
  Ga  Ga17  1  0.329332  0.329332  0.939044  1
  Ga  Ga18  1  0.335532  0.541148  0.250000  1
  Ga  Ga19  1  0.664468  0.458852  0.750000  1
  Ga  Ga20  1  0.541147  0.335532  0.250000  1
  Ga  Ga21  1  0.458853  0.664468  0.750000  1
  Co  Co22  1  0.000000  0.000000  0.000000  1
  Co  Co23  1  0.000000  0.000000  0.500000  1
  Ru  Ru24  1  0.673620  0.326381  0.000000  1
  Ru  Ru25  1  0.326380  0.673619  0.000000  1
  Ru  Ru26  1  0.326380  0.673619  0.500000  1
  Ru  Ru27  1  0.673620  0.326381  0.500000  1
