# generated using pymatgen
data_La(GaAu)3
_symmetry_space_group_name_H-M   'P 1'
_cell_length_a   4.64276800
_cell_length_b   6.99123800
_cell_length_c   8.76929400
_cell_angle_alpha   90.00000000
_cell_angle_beta   90.00000000
_cell_angle_gamma   90.00000000
_symmetry_Int_Tables_number   1
_chemical_formula_structural   La(GaAu)3
_chemical_formula_sum   'La2 Ga6 Au6'
_cell_volume   284.63984867
_cell_formula_units_Z   2
loop_
 _symmetry_equiv_pos_site_id
 _symmetry_equiv_pos_as_xyz
  1  'x, y, z'
loop_
 _atom_site_type_symbol
 _atom_site_label
 _atom_site_symmetry_multiplicity
 _atom_site_fract_x
 _atom_site_fract_y
 _atom_site_fract_z
 _atom_site_occupancy
  La  La0  1  0.500000  0.000000  0.753571  1
  La  La1  1  0.000000  0.500000  0.246429  1
  Ga  Ga2  1  0.000000  0.301674  0.890349  1
  Ga  Ga3  1  0.500000  0.198326  0.109651  1
  Ga  Ga4  1  0.000000  0.698326  0.890349  1
  Ga  Ga5  1  0.000000  0.000000  0.375430  1
  Ga  Ga6  1  0.500000  0.801674  0.109651  1
  Ga  Ga7  1  0.500000  0.500000  0.624570  1
  Au  Au8  1  0.000000  0.735130  0.597452  1
  Au  Au9  1  0.500000  0.764870  0.402548  1
  Au  Au10  1  0.500000  0.500000  0.928458  1
  Au  Au11  1  0.000000  0.000000  0.071542  1
  Au  Au12  1  0.500000  0.235130  0.402548  1
  Au  Au13  1  0.000000  0.264870  0.597452  1
