# generated using pymatgen
data_Dy2ErGa5
_symmetry_space_group_name_H-M   'P 1'
_cell_length_a   6.09096800
_cell_length_b   9.62001600
_cell_length_c   11.54038300
_cell_angle_alpha   90.00000000
_cell_angle_beta   90.00000000
_cell_angle_gamma   90.00000000
_symmetry_Int_Tables_number   1
_chemical_formula_structural   Dy2ErGa5
_chemical_formula_sum   'Dy8 Er4 Ga20'
_cell_volume   676.21116093
_cell_formula_units_Z   4
loop_
 _symmetry_equiv_pos_site_id
 _symmetry_equiv_pos_as_xyz
  1  'x, y, z'
loop_
 _atom_site_type_symbol
 _atom_site_label
 _atom_site_symmetry_multiplicity
 _atom_site_fract_x
 _atom_site_fract_y
 _atom_site_fract_z
 _atom_site_occupancy
  Dy  Dy0  1  0.890923  0.509708  0.351461  1
  Dy  Dy1  1  0.609077  0.990292  0.851461  1
  Dy  Dy2  1  0.109077  0.009708  0.648539  1
  Dy  Dy3  1  0.390923  0.490292  0.148539  1
  Dy  Dy4  1  0.109077  0.490292  0.648539  1
  Dy  Dy5  1  0.390923  0.009708  0.148539  1
  Dy  Dy6  1  0.890923  0.990292  0.351461  1
  Dy  Dy7  1  0.609077  0.509708  0.851461  1
  Er  Er8  1  0.848855  0.750000  0.074649  1
  Er  Er9  1  0.651145  0.750000  0.574649  1
  Er  Er10  1  0.151145  0.250000  0.925351  1
  Er  Er11  1  0.348855  0.250000  0.425351  1
  Ga  Ga12  1  0.875301  0.053288  0.090358  1
  Ga  Ga13  1  0.624699  0.446712  0.590358  1
  Ga  Ga14  1  0.124699  0.553288  0.909642  1
  Ga  Ga15  1  0.375301  0.946712  0.409642  1
  Ga  Ga16  1  0.124699  0.946712  0.909642  1
  Ga  Ga17  1  0.375301  0.553288  0.409642  1
  Ga  Ga18  1  0.875301  0.446712  0.090358  1
  Ga  Ga19  1  0.624699  0.053288  0.590358  1
  Ga  Ga20  1  0.172889  0.750000  0.251771  1
  Ga  Ga21  1  0.327111  0.750000  0.751771  1
  Ga  Ga22  1  0.827111  0.250000  0.748229  1
  Ga  Ga23  1  0.672889  0.250000  0.248229  1
  Ga  Ga24  1  0.373083  0.750000  0.004583  1
  Ga  Ga25  1  0.126917  0.750000  0.504583  1
  Ga  Ga26  1  0.626917  0.250000  0.995417  1
  Ga  Ga27  1  0.873083  0.250000  0.495417  1
  Ga  Ga28  1  0.602222  0.750000  0.299130  1
  Ga  Ga29  1  0.897778  0.750000  0.799130  1
  Ga  Ga30  1  0.397778  0.250000  0.700870  1
  Ga  Ga31  1  0.102222  0.250000  0.200870  1
