# generated using pymatgen
data_HoTm7Tc3OsC8
_symmetry_space_group_name_H-M   'P 1'
_cell_length_a   5.02760200
_cell_length_b   6.49160705
_cell_length_c   9.74035059
_cell_angle_alpha   89.75691994
_cell_angle_beta   90.00000000
_cell_angle_gamma   90.00000000
_symmetry_Int_Tables_number   1
_chemical_formula_structural   HoTm7Tc3OsC8
_chemical_formula_sum   'Ho1 Tm7 Tc3 Os1 C8'
_cell_volume   317.89507104
_cell_formula_units_Z   1
loop_
 _symmetry_equiv_pos_site_id
 _symmetry_equiv_pos_as_xyz
  1  'x, y, z'
loop_
 _atom_site_type_symbol
 _atom_site_label
 _atom_site_symmetry_multiplicity
 _atom_site_fract_x
 _atom_site_fract_y
 _atom_site_fract_z
 _atom_site_occupancy
  Ho  Ho0  1  0.250000  0.031777  0.283925  1
  Tm  Tm1  1  0.250000  0.676331  0.558012  1
  Tm  Tm2  1  0.750000  0.323873  0.441584  1
  Tm  Tm3  1  0.750000  0.824263  0.057999  1
  Tm  Tm4  1  0.250000  0.175076  0.942427  1
  Tm  Tm5  1  0.250000  0.532104  0.216872  1
  Tm  Tm6  1  0.750000  0.465724  0.782870  1
  Tm  Tm7  1  0.750000  0.967285  0.714745  1
  Tc  Tc8  1  0.250000  0.716887  0.867323  1
  Tc  Tc9  1  0.750000  0.283349  0.131321  1
  Tc  Tc10  1  0.750000  0.782053  0.368328  1
  Os  Os11  1  0.250000  0.217548  0.632805  1
  C  C12  1  0.250000  0.449954  0.758980  1
  C  C13  1  0.750000  0.550096  0.241091  1
  C  C14  1  0.750000  0.050178  0.259314  1
  C  C15  1  0.250000  0.951213  0.741157  1
  C  C16  1  0.250000  0.824244  0.051687  1
  C  C17  1  0.750000  0.175494  0.946591  1
  C  C18  1  0.750000  0.674867  0.554062  1
  C  C19  1  0.250000  0.327686  0.448906  1
