# generated using pymatgen
data_YbEr2TmB16
_symmetry_space_group_name_H-M   'P 1'
_cell_length_a   7.08060807
_cell_length_b   7.08060859
_cell_length_c   4.00386500
_cell_angle_alpha   90.00000000
_cell_angle_beta   90.00000000
_cell_angle_gamma   90.17412256
_symmetry_Int_Tables_number   1
_chemical_formula_structural   YbEr2TmB16
_chemical_formula_sum   'Yb1 Er2 Tm1 B16'
_cell_volume   200.73290229
_cell_formula_units_Z   1
loop_
 _symmetry_equiv_pos_site_id
 _symmetry_equiv_pos_as_xyz
  1  'x, y, z'
loop_
 _atom_site_type_symbol
 _atom_site_label
 _atom_site_symmetry_multiplicity
 _atom_site_fract_x
 _atom_site_fract_y
 _atom_site_fract_z
 _atom_site_occupancy
  Yb  Yb0  1  0.817409  0.317409  0.000000  1
  Er  Er1  1  0.318265  0.181900  0.000000  1
  Er  Er2  1  0.681900  0.818265  0.000000  1
  Tm  Tm3  1  0.180540  0.680540  0.000000  1
  B  B4  1  0.500795  0.500159  0.797077  1
  B  B5  1  0.000159  0.000795  0.797077  1
  B  B6  1  0.500795  0.500159  0.202923  1
  B  B7  1  0.000159  0.000795  0.202923  1
  B  B8  1  0.586627  0.086627  0.500000  1
  B  B9  1  0.413168  0.913168  0.500000  1
  B  B10  1  0.086720  0.414136  0.500000  1
  B  B11  1  0.914136  0.586720  0.500000  1
  B  B12  1  0.676272  0.539029  0.500000  1
  B  B13  1  0.322710  0.462537  0.500000  1
  B  B14  1  0.176196  0.961101  0.500000  1
  B  B15  1  0.824251  0.037230  0.500000  1
  B  B16  1  0.461101  0.676196  0.500000  1
  B  B17  1  0.537230  0.324251  0.500000  1
  B  B18  1  0.039029  0.176272  0.500000  1
  B  B19  1  0.962537  0.822710  0.500000  1
