# generated using pymatgen
data_Dy10Er2CoTc3
_symmetry_space_group_name_H-M   'P 1'
_cell_length_a   6.26823038
_cell_length_b   7.29149869
_cell_length_c   9.16309528
_cell_angle_alpha   90.00738193
_cell_angle_beta   89.97264573
_cell_angle_gamma   90.09768144
_symmetry_Int_Tables_number   1
_chemical_formula_structural   Dy10Er2CoTc3
_chemical_formula_sum   'Dy10 Er2 Co1 Tc3'
_cell_volume   418.79671877
_cell_formula_units_Z   1
loop_
 _symmetry_equiv_pos_site_id
 _symmetry_equiv_pos_as_xyz
  1  'x, y, z'
loop_
 _atom_site_type_symbol
 _atom_site_label
 _atom_site_symmetry_multiplicity
 _atom_site_fract_x
 _atom_site_fract_y
 _atom_site_fract_z
 _atom_site_occupancy
  Dy  Dy0  1  0.373063  0.957974  0.750156  1
  Dy  Dy1  1  0.857079  0.543595  0.249744  1
  Dy  Dy2  1  0.626987  0.049547  0.249828  1
  Dy  Dy3  1  0.168059  0.178434  0.436271  1
  Dy  Dy4  1  0.836804  0.823654  0.562182  1
  Dy  Dy5  1  0.168032  0.178532  0.063579  1
  Dy  Dy6  1  0.836583  0.823660  0.937836  1
  Dy  Dy7  1  0.669690  0.322457  0.565361  1
  Dy  Dy8  1  0.334298  0.672863  0.064774  1
  Dy  Dy9  1  0.334007  0.673260  0.435068  1
  Er  Er10  1  0.128574  0.457940  0.750228  1
  Er  Er11  1  0.669761  0.322514  0.934772  1
  Co  Co12  1  0.461127  0.385354  0.249737  1
  Tc  Tc13  1  0.539646  0.609823  0.750153  1
  Tc  Tc14  1  0.960846  0.112660  0.750234  1
  Tc  Tc15  1  0.035445  0.887735  0.250078  1
