# generated using pymatgen
data_HoTh3(Al8Pt3)3
_symmetry_space_group_name_H-M   'P 1'
_cell_length_a   7.60895993
_cell_length_b   7.62079834
_cell_length_c   13.20808478
_cell_angle_alpha   84.50547784
_cell_angle_beta   78.95415597
_cell_angle_gamma   59.95244270
_symmetry_Int_Tables_number   1
_chemical_formula_structural   HoTh3(Al8Pt3)3
_chemical_formula_sum   'Ho1 Th3 Al24 Pt9'
_cell_volume   650.67901501
_cell_formula_units_Z   1
loop_
 _symmetry_equiv_pos_site_id
 _symmetry_equiv_pos_as_xyz
  1  'x, y, z'
loop_
 _atom_site_type_symbol
 _atom_site_label
 _atom_site_symmetry_multiplicity
 _atom_site_fract_x
 _atom_site_fract_y
 _atom_site_fract_z
 _atom_site_occupancy
  Ho  Ho0  1  0.266036  0.501096  0.193744  1
  Th  Th1  1  0.394533  0.168254  0.807210  1
  Th  Th2  1  0.604835  0.832152  0.193436  1
  Th  Th3  1  0.733712  0.498537  0.807119  1
  Al  Al4  1  0.687390  0.833666  0.946429  1
  Al  Al5  1  0.312379  0.169660  0.057329  1
  Al  Al6  1  0.146186  0.832806  0.559941  1
  Al  Al7  1  0.854495  0.166674  0.437478  1
  Al  Al8  1  0.481077  0.167346  0.556891  1
  Al  Al9  1  0.519052  0.833234  0.441623  1
  Al  Al10  1  0.213137  0.168990  0.333017  1
  Al  Al11  1  0.788256  0.834501  0.663922  1
  Al  Al12  1  0.435750  0.510317  0.664362  1
  Al  Al13  1  0.561286  0.490219  0.332873  1
  Al  Al14  1  0.112178  0.155791  0.662580  1
  Al  Al15  1  0.892564  0.839915  0.334169  1
  Al  Al16  1  0.347962  0.502821  0.948335  1
  Al  Al17  1  0.646286  0.497932  0.057272  1
  Al  Al18  1  0.014083  0.164697  0.957345  1
  Al  Al19  1  0.986650  0.832084  0.048076  1
  Al  Al20  1  0.186927  0.499681  0.440227  1
  Al  Al21  1  0.814334  0.500215  0.556783  1
  Al  Al22  1  0.734530  0.166753  0.183984  1
  Al  Al23  1  0.261736  0.835709  0.816639  1
  Al  Al24  1  0.062041  0.634793  0.815137  1
  Al  Al25  1  0.940920  0.365921  0.185255  1
  Al  Al26  1  0.860298  0.037014  0.815915  1
  Al  Al27  1  0.140850  0.958623  0.184219  1
  Pt  Pt28  1  0.120151  0.491295  0.638800  1
  Pt  Pt29  1  0.879700  0.508704  0.360899  1
  Pt  Pt30  1  0.656615  0.171980  0.999633  1
  Pt  Pt31  1  0.343386  0.828676  0.999881  1
  Pt  Pt32  1  0.537622  0.166466  0.361107  1
  Pt  Pt33  1  0.462833  0.833306  0.638817  1
  Pt  Pt34  1  0.778465  0.175452  0.637567  1
  Pt  Pt35  1  0.221766  0.824711  0.362038  1
  Pt  Pt36  1  0.999976  0.500008  0.999946  1
