# generated using pymatgen
data_HoEr3Al2(GaIr2)2
_symmetry_space_group_name_H-M   'P 1'
_cell_length_a   4.24545600
_cell_length_b   6.84023975
_cell_length_c   7.86490775
_cell_angle_alpha   89.76724258
_cell_angle_beta   90.00000000
_cell_angle_gamma   90.00000000
_symmetry_Int_Tables_number   1
_chemical_formula_structural   HoEr3Al2(GaIr2)2
_chemical_formula_sum   'Ho1 Er3 Al2 Ga2 Ir4'
_cell_volume   228.39454008
_cell_formula_units_Z   1
loop_
 _symmetry_equiv_pos_site_id
 _symmetry_equiv_pos_as_xyz
  1  'x, y, z'
loop_
 _atom_site_type_symbol
 _atom_site_label
 _atom_site_symmetry_multiplicity
 _atom_site_fract_x
 _atom_site_fract_y
 _atom_site_fract_z
 _atom_site_occupancy
  Ho  Ho0  1  0.250000  0.969370  0.314235  1
  Er  Er1  1  0.250000  0.471184  0.180341  1
  Er  Er2  1  0.750000  0.031124  0.685795  1
  Er  Er3  1  0.750000  0.528368  0.818969  1
  Al  Al4  1  0.250000  0.358809  0.562660  1
  Al  Al5  1  0.750000  0.641379  0.437547  1
  Ga  Ga6  1  0.250000  0.851006  0.934074  1
  Ga  Ga7  1  0.750000  0.149071  0.065636  1
  Ir  Ir8  1  0.250000  0.234495  0.878293  1
  Ir  Ir9  1  0.250000  0.732119  0.615311  1
  Ir  Ir10  1  0.750000  0.764644  0.121506  1
  Ir  Ir11  1  0.750000  0.268430  0.385634  1
