# generated using pymatgen
data_Tm2Lu2Mn3Os5
_symmetry_space_group_name_H-M   'P 1'
_cell_length_a   5.14907000
_cell_length_b   5.14807493
_cell_length_c   8.65228500
_cell_angle_alpha   90.00196993
_cell_angle_beta   89.99761874
_cell_angle_gamma   119.99798930
_symmetry_Int_Tables_number   1
_chemical_formula_structural   Tm2Lu2Mn3Os5
_chemical_formula_sum   'Tm2 Lu2 Mn3 Os5'
_cell_volume   198.62957003
_cell_formula_units_Z   1
loop_
 _symmetry_equiv_pos_site_id
 _symmetry_equiv_pos_as_xyz
  1  'x, y, z'
loop_
 _atom_site_type_symbol
 _atom_site_label
 _atom_site_symmetry_multiplicity
 _atom_site_fract_x
 _atom_site_fract_y
 _atom_site_fract_z
 _atom_site_occupancy
  Tm  Tm0  1  0.332277  0.666158  0.436916  1
  Tm  Tm1  1  0.666535  0.333262  0.563787  1
  Lu  Lu2  1  0.666688  0.333336  0.936775  1
  Lu  Lu3  1  0.332448  0.666262  0.062657  1
  Mn  Mn4  1  0.177233  0.339665  0.750946  1
  Mn  Mn5  1  0.177354  0.837717  0.750923  1
  Mn  Mn6  1  0.338354  0.169189  0.249070  1
  Os  Os7  1  0.830767  0.658274  0.249022  1
  Os  Os8  1  0.647900  0.824040  0.750974  1
  Os  Os9  1  0.000274  0.000017  0.994626  1
  Os  Os10  1  0.830758  0.172488  0.249023  1
  Os  Os11  1  0.999414  0.999594  0.505282  1
