# generated using pymatgen
data_Ca10Tl2Ag3Rh
_symmetry_space_group_name_H-M   'P 1'
_cell_length_a   9.23295294
_cell_length_b   9.23295322
_cell_length_c   9.26014300
_cell_angle_alpha   128.28339777
_cell_angle_beta   128.28339914
_cell_angle_gamma   75.95097850
_symmetry_Int_Tables_number   1
_chemical_formula_structural   Ca10Tl2Ag3Rh
_chemical_formula_sum   'Ca10 Tl2 Ag3 Rh1'
_cell_volume   473.47155035
_cell_formula_units_Z   1
loop_
 _symmetry_equiv_pos_site_id
 _symmetry_equiv_pos_as_xyz
  1  'x, y, z'
loop_
 _atom_site_type_symbol
 _atom_site_label
 _atom_site_symmetry_multiplicity
 _atom_site_fract_x
 _atom_site_fract_y
 _atom_site_fract_z
 _atom_site_occupancy
  Ca  Ca0  1  0.527056  0.015103  0.823615  1
  Ca  Ca1  1  0.203439  0.691486  0.176385  1
  Ca  Ca2  1  0.025125  0.188488  0.500000  1
  Ca  Ca3  1  0.681226  0.543116  0.500000  1
  Ca  Ca4  1  0.484897  0.972944  0.176385  1
  Ca  Ca5  1  0.808514  0.296561  0.823615  1
  Ca  Ca6  1  0.956884  0.818774  0.500000  1
  Ca  Ca7  1  0.311512  0.474875  0.500000  1
  Ca  Ca8  1  0.503514  0.509572  0.013086  1
  Ca  Ca9  1  0.990428  0.996486  0.986914  1
  Tl  Tl10  1  0.253528  0.246472  0.000000  1
  Tl  Tl11  1  0.753528  0.746472  0.000000  1
  Ag  Ag12  1  0.375528  0.124472  0.500000  1
  Ag  Ag13  1  0.125345  0.625845  0.751190  1
  Ag  Ag14  1  0.874155  0.374655  0.248810  1
  Rh  Rh15  1  0.625319  0.874681  0.500000  1
