# generated using pymatgen
data_Ac2Nd2Te3N2
_symmetry_space_group_name_H-M   'P 1'
_cell_length_a   7.63242300
_cell_length_b   11.76237800
_cell_length_c   12.13489500
_cell_angle_alpha   90.00000000
_cell_angle_beta   90.00000000
_cell_angle_gamma   90.00000000
_symmetry_Int_Tables_number   1
_chemical_formula_structural   Ac2Nd2Te3N2
_chemical_formula_sum   'Ac8 Nd8 Te12 N8'
_cell_volume   1089.41559115
_cell_formula_units_Z   4
loop_
 _symmetry_equiv_pos_site_id
 _symmetry_equiv_pos_as_xyz
  1  'x, y, z'
loop_
 _atom_site_type_symbol
 _atom_site_label
 _atom_site_symmetry_multiplicity
 _atom_site_fract_x
 _atom_site_fract_y
 _atom_site_fract_z
 _atom_site_occupancy
  Ac  Ac0  1  0.158354  0.388336  0.950793  1
  Ac  Ac1  1  0.341646  0.888336  0.049207  1
  Ac  Ac2  1  0.841646  0.611664  0.450793  1
  Ac  Ac3  1  0.158354  0.388336  0.549207  1
  Ac  Ac4  1  0.341646  0.888336  0.450793  1
  Ac  Ac5  1  0.658354  0.111664  0.549207  1
  Ac  Ac6  1  0.841646  0.611664  0.049207  1
  Ac  Ac7  1  0.658354  0.111664  0.950793  1
  Nd  Nd8  1  0.414571  0.156562  0.250000  1
  Nd  Nd9  1  0.743590  0.467091  0.750000  1
  Nd  Nd10  1  0.756410  0.967091  0.250000  1
  Nd  Nd11  1  0.256410  0.532909  0.250000  1
  Nd  Nd12  1  0.085429  0.656562  0.750000  1
  Nd  Nd13  1  0.914571  0.343438  0.250000  1
  Nd  Nd14  1  0.243590  0.032909  0.750000  1
  Nd  Nd15  1  0.585429  0.843438  0.750000  1
  Te  Te16  1  0.066719  0.134735  0.088111  1
  Te  Te17  1  0.065919  0.771037  0.250000  1
  Te  Te18  1  0.566719  0.365265  0.088111  1
  Te  Te19  1  0.565919  0.728963  0.250000  1
  Te  Te20  1  0.933281  0.865265  0.911889  1
  Te  Te21  1  0.433281  0.634735  0.911889  1
  Te  Te22  1  0.934081  0.228963  0.750000  1
  Te  Te23  1  0.933281  0.865265  0.588111  1
  Te  Te24  1  0.066719  0.134735  0.411889  1
  Te  Te25  1  0.433281  0.634735  0.588111  1
  Te  Te26  1  0.566719  0.365265  0.411889  1
  Te  Te27  1  0.434081  0.271037  0.750000  1
  N  N28  1  0.447333  0.966693  0.624730  1
  N  N29  1  0.552667  0.033307  0.124730  1
  N  N30  1  0.947333  0.533307  0.624730  1
  N  N31  1  0.052667  0.466693  0.375270  1
  N  N32  1  0.947333  0.533307  0.875270  1
  N  N33  1  0.052667  0.466693  0.124730  1
  N  N34  1  0.552667  0.033307  0.375270  1
  N  N35  1  0.447333  0.966693  0.875270  1
