# generated using pymatgen
data_LiZr3N4
_symmetry_space_group_name_H-M   'P 1'
_cell_length_a   5.58323305
_cell_length_b   5.58323249
_cell_length_c   5.58323402
_cell_angle_alpha   131.97423188
_cell_angle_beta   131.97421698
_cell_angle_gamma   70.26974712
_symmetry_Int_Tables_number   1
_chemical_formula_structural   LiZr3N4
_chemical_formula_sum   'Li1 Zr3 N4'
_cell_volume   94.28214708
_cell_formula_units_Z   1
loop_
 _symmetry_equiv_pos_site_id
 _symmetry_equiv_pos_as_xyz
  1  'x, y, z'
loop_
 _atom_site_type_symbol
 _atom_site_label
 _atom_site_symmetry_multiplicity
 _atom_site_fract_x
 _atom_site_fract_y
 _atom_site_fract_z
 _atom_site_occupancy
  Li  Li0  1  0.250000  0.750000  0.500000  1
  Zr  Zr1  1  0.500000  0.500000  0.000000  1
  Zr  Zr2  1  0.000000  0.000000  0.000000  1
  Zr  Zr3  1  0.750000  0.250000  0.500000  1
  N  N4  1  0.749984  0.749984  0.000000  1
  N  N5  1  0.250016  0.250016  0.000000  1
  N  N6  1  0.991823  0.491823  0.500000  1
  N  N7  1  0.508177  0.008177  0.500000  1
