# generated using pymatgen
data_TbSc6Fe2Co4Sn23
_symmetry_space_group_name_H-M   'P 1'
_cell_length_a   9.56282599
_cell_length_b   9.56282670
_cell_length_c   9.78202902
_cell_angle_alpha   90.10986168
_cell_angle_beta   89.89013727
_cell_angle_gamma   119.93363441
_symmetry_Int_Tables_number   1
_chemical_formula_structural   TbSc6Fe2Co4Sn23
_chemical_formula_sum   'Tb1 Sc6 Fe2 Co4 Sn23'
_cell_volume   775.21308575
_cell_formula_units_Z   1
loop_
 _symmetry_equiv_pos_site_id
 _symmetry_equiv_pos_as_xyz
  1  'x, y, z'
loop_
 _atom_site_type_symbol
 _atom_site_label
 _atom_site_symmetry_multiplicity
 _atom_site_fract_x
 _atom_site_fract_y
 _atom_site_fract_z
 _atom_site_occupancy
  Tb  Tb0  1  0.000000  0.000000  0.000000  1
  Sc  Sc1  1  0.483460  0.516540  0.307141  1
  Sc  Sc2  1  0.516540  0.483460  0.692859  1
  Sc  Sc3  1  0.484551  0.967209  0.306846  1
  Sc  Sc4  1  0.515449  0.032791  0.693154  1
  Sc  Sc5  1  0.032791  0.515449  0.306846  1
  Sc  Sc6  1  0.967209  0.484551  0.693154  1
  Fe  Fe7  1  0.831064  0.168936  0.200639  1
  Fe  Fe8  1  0.168936  0.831064  0.799361  1
  Co  Co9  1  0.830011  0.661056  0.198613  1
  Co  Co10  1  0.169989  0.338944  0.801387  1
  Co  Co11  1  0.338944  0.169989  0.198613  1
  Co  Co12  1  0.661056  0.830011  0.801387  1
  Sn  Sn13  1  0.347081  0.999001  0.999310  1
  Sn  Sn14  1  0.652919  0.000999  0.000690  1
  Sn  Sn15  1  0.999001  0.347081  0.000690  1
  Sn  Sn16  1  0.000999  0.652919  0.999310  1
  Sn  Sn17  1  0.650886  0.650886  0.000000  1
  Sn  Sn18  1  0.349114  0.349114  0.000000  1
  Sn  Sn19  1  0.332512  0.667488  0.821867  1
  Sn  Sn20  1  0.667488  0.332512  0.178133  1
  Sn  Sn21  1  0.000000  0.000000  0.500000  1
  Sn  Sn22  1  0.779741  0.220259  0.454545  1
  Sn  Sn23  1  0.220259  0.779741  0.545455  1
  Sn  Sn24  1  0.779355  0.559093  0.453977  1
  Sn  Sn25  1  0.220645  0.440907  0.546023  1
  Sn  Sn26  1  0.440907  0.220645  0.453977  1
  Sn  Sn27  1  0.559093  0.779355  0.546023  1
  Sn  Sn28  1  0.333446  0.666554  0.137196  1
  Sn  Sn29  1  0.666554  0.333446  0.862804  1
  Sn  Sn30  1  0.121828  0.878172  0.276259  1
  Sn  Sn31  1  0.878172  0.121828  0.723741  1
  Sn  Sn32  1  0.121887  0.243457  0.275309  1
  Sn  Sn33  1  0.878113  0.756543  0.724691  1
  Sn  Sn34  1  0.756543  0.878113  0.275309  1
  Sn  Sn35  1  0.243457  0.121887  0.724691  1
