# generated using pymatgen
data_Tc(SF6)2
_symmetry_space_group_name_H-M   'P 1'
_cell_length_a   6.26543700
_cell_length_b   7.83909100
_cell_length_c   9.89950700
_cell_angle_alpha   90.00000000
_cell_angle_beta   90.00000000
_cell_angle_gamma   90.00000000
_symmetry_Int_Tables_number   1
_chemical_formula_structural   Tc(SF6)2
_chemical_formula_sum   'Tc2 S4 F24'
_cell_volume   486.21756104
_cell_formula_units_Z   2
loop_
 _symmetry_equiv_pos_site_id
 _symmetry_equiv_pos_as_xyz
  1  'x, y, z'
loop_
 _atom_site_type_symbol
 _atom_site_label
 _atom_site_symmetry_multiplicity
 _atom_site_fract_x
 _atom_site_fract_y
 _atom_site_fract_z
 _atom_site_occupancy
  Tc  Tc0  1  0.000000  0.500000  0.000000  1
  Tc  Tc1  1  0.500000  0.000000  0.500000  1
  S  S2  1  0.500000  0.569949  0.243174  1
  S  S3  1  0.500000  0.430051  0.756826  1
  S  S4  1  0.000000  0.069949  0.256826  1
  S  S5  1  0.000000  0.930051  0.743174  1
  F  F6  1  0.223303  0.365973  0.908293  1
  F  F7  1  0.223303  0.634027  0.091707  1
  F  F8  1  0.276697  0.865973  0.591707  1
  F  F9  1  0.276697  0.134027  0.408293  1
  F  F10  1  0.776697  0.634027  0.091707  1
  F  F11  1  0.776697  0.365973  0.908293  1
  F  F12  1  0.815488  0.971931  0.845704  1
  F  F13  1  0.815488  0.028069  0.154296  1
  F  F14  1  0.684512  0.471931  0.654296  1
  F  F15  1  0.684512  0.528069  0.345704  1
  F  F16  1  0.184512  0.028069  0.154296  1
  F  F17  1  0.184512  0.971931  0.845704  1
  F  F18  1  0.315488  0.528069  0.345704  1
  F  F19  1  0.315488  0.471931  0.654296  1
  F  F20  1  0.000000  0.660081  0.846914  1
  F  F21  1  0.000000  0.339919  0.153086  1
  F  F22  1  0.500000  0.160081  0.653086  1
  F  F23  1  0.500000  0.839919  0.346914  1
  F  F24  1  0.500000  0.611188  0.824365  1
  F  F25  1  0.500000  0.388812  0.175635  1
  F  F26  1  0.000000  0.111188  0.675635  1
  F  F27  1  0.000000  0.888812  0.324365  1
  F  F28  1  0.723303  0.865973  0.591707  1
  F  F29  1  0.723303  0.134027  0.408293  1
