# generated using pymatgen
data_Tb7SmHf12Si15Ge
_symmetry_space_group_name_H-M   'P 1'
_cell_length_a   7.29958419
_cell_length_b   7.30624555
_cell_length_c   13.42898413
_cell_angle_alpha   89.86075216
_cell_angle_beta   89.98122004
_cell_angle_gamma   89.97333465
_symmetry_Int_Tables_number   1
_chemical_formula_structural   Tb7SmHf12Si15Ge
_chemical_formula_sum   'Tb7 Sm1 Hf12 Si15 Ge1'
_cell_volume   716.19979768
_cell_formula_units_Z   1
loop_
 _symmetry_equiv_pos_site_id
 _symmetry_equiv_pos_as_xyz
  1  'x, y, z'
loop_
 _atom_site_type_symbol
 _atom_site_label
 _atom_site_symmetry_multiplicity
 _atom_site_fract_x
 _atom_site_fract_y
 _atom_site_fract_z
 _atom_site_occupancy
  Tb  Tb0  1  0.004785  0.655932  0.715275  1
  Tb  Tb1  1  0.154706  0.497773  0.466434  1
  Tb  Tb2  1  0.505068  0.843421  0.034137  1
  Tb  Tb3  1  0.844365  0.504657  0.964590  1
  Tb  Tb4  1  0.496106  0.154830  0.536072  1
  Tb  Tb5  1  0.344106  0.995458  0.784981  1
  Tb  Tb6  1  0.656541  0.003082  0.284775  1
  Sm  Sm7  1  0.993200  0.343372  0.214751  1
  Hf  Hf8  1  0.174696  0.174809  0.999564  1
  Hf  Hf9  1  0.825150  0.825640  0.500423  1
  Hf  Hf10  1  0.326107  0.677489  0.249347  1
  Hf  Hf11  1  0.674704  0.325221  0.750027  1
  Hf  Hf12  1  0.148667  0.994102  0.374168  1
  Hf  Hf13  1  0.850708  0.003993  0.874024  1
  Hf  Hf14  1  0.503823  0.649449  0.624404  1
  Hf  Hf15  1  0.350737  0.495810  0.875427  1
  Hf  Hf16  1  0.495073  0.350385  0.122956  1
  Hf  Hf17  1  0.651720  0.507443  0.377061  1
  Hf  Hf18  1  0.995590  0.149406  0.626036  1
  Hf  Hf19  1  0.003648  0.849356  0.125152  1
  Si  Si20  1  0.637151  0.704834  0.816651  1
  Si  Si21  1  0.204880  0.863250  0.566874  1
  Si  Si22  1  0.137366  0.795135  0.933038  1
  Si  Si23  1  0.793855  0.135948  0.065333  1
  Si  Si24  1  0.862758  0.203959  0.433873  1
  Si  Si25  1  0.295432  0.362727  0.683343  1
  Si  Si26  1  0.702929  0.638009  0.183238  1
  Si  Si27  1  0.295434  0.044743  0.183418  1
  Si  Si28  1  0.705445  0.950718  0.685738  1
  Si  Si29  1  0.450953  0.795166  0.435685  1
  Si  Si30  1  0.206094  0.550073  0.063743  1
  Si  Si31  1  0.548879  0.205023  0.935238  1
  Si  Si32  1  0.794429  0.450931  0.565051  1
  Si  Si33  1  0.048977  0.294603  0.814376  1
  Si  Si34  1  0.950857  0.706635  0.314690  1
  Ge  Ge35  1  0.365065  0.296619  0.320108  1
