# generated using pymatgen
data_Ta8V3B8W
_symmetry_space_group_name_H-M   'P 1'
_cell_length_a   3.26196100
_cell_length_b   6.04897435
_cell_length_c   12.09781308
_cell_angle_alpha   89.98715607
_cell_angle_beta   90.00000000
_cell_angle_gamma   90.00000000
_symmetry_Int_Tables_number   1
_chemical_formula_structural   Ta8V3B8W
_chemical_formula_sum   'Ta8 V3 B8 W1'
_cell_volume   238.70821571
_cell_formula_units_Z   1
loop_
 _symmetry_equiv_pos_site_id
 _symmetry_equiv_pos_as_xyz
  1  'x, y, z'
loop_
 _atom_site_type_symbol
 _atom_site_label
 _atom_site_symmetry_multiplicity
 _atom_site_fract_x
 _atom_site_fract_y
 _atom_site_fract_z
 _atom_site_occupancy
  Ta  Ta0  1  0.500000  0.823791  0.092067  1
  Ta  Ta1  1  0.500000  0.820090  0.589265  1
  Ta  Ta2  1  0.500000  0.176209  0.907933  1
  Ta  Ta3  1  0.500000  0.179910  0.410735  1
  Ta  Ta4  1  0.500000  0.682249  0.837429  1
  Ta  Ta5  1  0.500000  0.680529  0.340537  1
  Ta  Ta6  1  0.500000  0.317751  0.162571  1
  Ta  Ta7  1  0.500000  0.319471  0.659463  1
  V  V8  1  0.000000  0.500000  0.500000  1
  V  V9  1  0.000000  0.000529  0.748685  1
  V  V10  1  0.000000  0.999471  0.251315  1
  B  B11  1  0.000000  0.389742  0.803201  1
  B  B12  1  0.000000  0.390351  0.306435  1
  B  B13  1  0.000000  0.610258  0.196799  1
  B  B14  1  0.000000  0.609649  0.693565  1
  B  B15  1  0.000000  0.109606  0.055316  1
  B  B16  1  0.000000  0.109295  0.554699  1
  B  B17  1  0.000000  0.890394  0.944684  1
  B  B18  1  0.000000  0.890705  0.445301  1
  W  W19  1  0.000000  0.500000  0.000000  1
