# generated using pymatgen
data_Nd5FeRuO12
_symmetry_space_group_name_H-M   'P 1'
_cell_length_a   7.04340804
_cell_length_b   7.04340868
_cell_length_c   7.59010700
_cell_angle_alpha   74.47402891
_cell_angle_beta   74.47402860
_cell_angle_gamma   50.90490769
_symmetry_Int_Tables_number   1
_chemical_formula_structural   Nd5FeRuO12
_chemical_formula_sum   'Nd5 Fe1 Ru1 O12'
_cell_volume   279.09833824
_cell_formula_units_Z   1
loop_
 _symmetry_equiv_pos_site_id
 _symmetry_equiv_pos_as_xyz
  1  'x, y, z'
loop_
 _atom_site_type_symbol
 _atom_site_label
 _atom_site_symmetry_multiplicity
 _atom_site_fract_x
 _atom_site_fract_y
 _atom_site_fract_z
 _atom_site_occupancy
  Nd  Nd0  1  0.309626  0.302591  0.357565  1
  Nd  Nd1  1  0.697409  0.690374  0.642435  1
  Nd  Nd2  1  0.692539  0.693799  0.165791  1
  Nd  Nd3  1  0.306201  0.307461  0.834209  1
  Nd  Nd4  1  0.004099  0.995901  0.500000  1
  Fe  Fe5  1  0.752718  0.247282  0.000000  1
  Ru  Ru6  1  0.239633  0.760367  0.000000  1
  O  O7  1  0.097573  0.593948  0.577297  1
  O  O8  1  0.009117  0.989268  0.176575  1
  O  O9  1  0.406052  0.902427  0.422703  1
  O  O10  1  0.487114  0.514131  0.176305  1
  O  O11  1  0.098698  0.580455  0.079214  1
  O  O12  1  0.906935  0.401350  0.421761  1
  O  O13  1  0.010732  0.990883  0.823425  1
  O  O14  1  0.598650  0.093064  0.578239  1
  O  O15  1  0.485869  0.512886  0.823695  1
  O  O16  1  0.581828  0.104338  0.077007  1
  O  O17  1  0.419545  0.901302  0.920786  1
  O  O18  1  0.895662  0.418172  0.922993  1
