# generated using pymatgen
data_K2Bi4O7
_symmetry_space_group_name_H-M   'P 1'
_cell_length_a   12.18246029
_cell_length_b   12.18246106
_cell_length_c   15.41686400
_cell_angle_alpha   86.32520141
_cell_angle_beta   86.32520117
_cell_angle_gamma   63.06514410
_symmetry_Int_Tables_number   1
_chemical_formula_structural   K2Bi4O7
_chemical_formula_sum   'K16 Bi32 O56'
_cell_volume   2034.07447688
_cell_formula_units_Z   8
loop_
 _symmetry_equiv_pos_site_id
 _symmetry_equiv_pos_as_xyz
  1  'x, y, z'
loop_
 _atom_site_type_symbol
 _atom_site_label
 _atom_site_symmetry_multiplicity
 _atom_site_fract_x
 _atom_site_fract_y
 _atom_site_fract_z
 _atom_site_occupancy
  K  K0  1  0.541572  0.620091  0.290633  1
  K  K1  1  0.630907  0.025600  0.789940  1
  K  K2  1  0.379909  0.458428  0.209367  1
  K  K3  1  0.123556  0.543165  0.790124  1
  K  K4  1  0.620091  0.541572  0.790633  1
  K  K5  1  0.369093  0.974400  0.210060  1
  K  K6  1  0.543165  0.123556  0.290124  1
  K  K7  1  0.967068  0.863980  0.713423  1
  K  K8  1  0.458428  0.379909  0.709367  1
  K  K9  1  0.974400  0.369093  0.710060  1
  K  K10  1  0.136020  0.032932  0.786577  1
  K  K11  1  0.876444  0.456835  0.209876  1
  K  K12  1  0.863980  0.967068  0.213423  1
  K  K13  1  0.032932  0.136020  0.286577  1
  K  K14  1  0.025600  0.630907  0.289940  1
  K  K15  1  0.456835  0.876444  0.709876  1
  Bi  Bi16  1  0.295579  0.220824  0.613577  1
  Bi  Bi17  1  0.951039  0.396814  0.962679  1
  Bi  Bi18  1  0.219926  0.263143  0.373040  1
  Bi  Bi19  1  0.736857  0.780074  0.126960  1
  Bi  Bi20  1  0.401020  0.909065  0.956432  1
  Bi  Bi21  1  0.894922  0.908816  0.956104  1
  Bi  Bi22  1  0.704421  0.779176  0.386423  1
  Bi  Bi23  1  0.781814  0.243151  0.622178  1
  Bi  Bi24  1  0.718822  0.291251  0.118132  1
  Bi  Bi25  1  0.218186  0.756849  0.377822  1
  Bi  Bi26  1  0.105078  0.091184  0.043896  1
  Bi  Bi27  1  0.291251  0.718822  0.618132  1
  Bi  Bi28  1  0.396814  0.951039  0.462679  1
  Bi  Bi29  1  0.756849  0.218186  0.877822  1
  Bi  Bi30  1  0.446636  0.399461  0.965325  1
  Bi  Bi31  1  0.909065  0.401020  0.456432  1
  Bi  Bi32  1  0.220824  0.295579  0.113577  1
  Bi  Bi33  1  0.243151  0.781814  0.122178  1
  Bi  Bi34  1  0.708749  0.281178  0.381868  1
  Bi  Bi35  1  0.281178  0.708749  0.881868  1
  Bi  Bi36  1  0.553364  0.600539  0.034675  1
  Bi  Bi37  1  0.399461  0.446636  0.465325  1
  Bi  Bi38  1  0.263143  0.219926  0.873040  1
  Bi  Bi39  1  0.600539  0.553364  0.534675  1
  Bi  Bi40  1  0.598980  0.090935  0.043568  1
  Bi  Bi41  1  0.603186  0.048961  0.537321  1
  Bi  Bi42  1  0.779176  0.704421  0.886423  1
  Bi  Bi43  1  0.091184  0.105078  0.543896  1
  Bi  Bi44  1  0.780074  0.736857  0.626960  1
  Bi  Bi45  1  0.048961  0.603186  0.037321  1
  Bi  Bi46  1  0.090935  0.598980  0.543568  1
  Bi  Bi47  1  0.908816  0.894922  0.456104  1
  O  O48  1  0.298944  0.701056  0.250000  1
  O  O49  1  0.971422  0.646853  0.661300  1
  O  O50  1  0.353147  0.028578  0.838700  1
  O  O51  1  0.282124  0.090389  0.030401  1
  O  O52  1  0.296114  0.224203  0.241060  1
  O  O53  1  0.417065  0.614346  0.462823  1
  O  O54  1  0.774496  0.914821  0.610972  1
  O  O55  1  0.120327  0.488145  0.152634  1
  O  O56  1  0.115274  0.420002  0.962962  1
  O  O57  1  0.511855  0.879673  0.347366  1
  O  O58  1  0.085179  0.225504  0.889028  1
  O  O59  1  0.419459  0.779690  0.102602  1
  O  O60  1  0.579998  0.884726  0.537038  1
  O  O61  1  0.262307  0.063284  0.622369  1
  O  O62  1  0.737693  0.936716  0.377631  1
  O  O63  1  0.703886  0.775797  0.758940  1
  O  O64  1  0.090389  0.282124  0.530401  1
  O  O65  1  0.779690  0.419459  0.602602  1
  O  O66  1  0.614346  0.417065  0.962823  1
  O  O67  1  0.582935  0.385654  0.537177  1
  O  O68  1  0.559178  0.263012  0.122412  1
  O  O69  1  0.222976  0.911045  0.968350  1
  O  O70  1  0.717876  0.909611  0.969599  1
  O  O71  1  0.221863  0.778137  0.750000  1
  O  O72  1  0.580541  0.220310  0.897398  1
  O  O73  1  0.646853  0.971422  0.161300  1
  O  O74  1  0.486340  0.621416  0.650779  1
  O  O75  1  0.440822  0.736988  0.877588  1
  O  O76  1  0.220310  0.580541  0.397398  1
  O  O77  1  0.914821  0.774496  0.110972  1
  O  O78  1  0.224203  0.296114  0.741060  1
  O  O79  1  0.488145  0.120327  0.652634  1
  O  O80  1  0.263012  0.559178  0.622412  1
  O  O81  1  0.513660  0.378584  0.349221  1
  O  O82  1  0.936716  0.737693  0.877631  1
  O  O83  1  0.225504  0.085179  0.389028  1
  O  O84  1  0.736988  0.440822  0.377588  1
  O  O85  1  0.152913  0.973482  0.161460  1
  O  O86  1  0.777024  0.088955  0.031650  1
  O  O87  1  0.385654  0.582935  0.037177  1
  O  O88  1  0.909611  0.717876  0.469599  1
  O  O89  1  0.701056  0.298944  0.750000  1
  O  O90  1  0.884726  0.579998  0.037038  1
  O  O91  1  0.028578  0.353147  0.338700  1
  O  O92  1  0.775797  0.703886  0.258940  1
  O  O93  1  0.420002  0.115274  0.462962  1
  O  O94  1  0.621416  0.486340  0.150779  1
  O  O95  1  0.879673  0.511855  0.847366  1
  O  O96  1  0.847087  0.026518  0.838540  1
  O  O97  1  0.778137  0.221863  0.250000  1
  O  O98  1  0.911045  0.222976  0.468350  1
  O  O99  1  0.063284  0.262307  0.122369  1
  O  O100  1  0.088955  0.777024  0.531650  1
  O  O101  1  0.026518  0.847087  0.338540  1
  O  O102  1  0.973482  0.152913  0.661460  1
  O  O103  1  0.378584  0.513660  0.849221  1
