# generated using pymatgen
data_Li2ZrNi11P7
_symmetry_space_group_name_H-M   'P 1'
_cell_length_a   3.59372400
_cell_length_b   8.99154554
_cell_length_c   9.01672093
_cell_angle_alpha   120.31827328
_cell_angle_beta   90.00000000
_cell_angle_gamma   90.00000000
_symmetry_Int_Tables_number   1
_chemical_formula_structural   Li2ZrNi11P7
_chemical_formula_sum   'Li2 Zr1 Ni11 P7'
_cell_volume   251.51074010
_cell_formula_units_Z   1
loop_
 _symmetry_equiv_pos_site_id
 _symmetry_equiv_pos_as_xyz
  1  'x, y, z'
loop_
 _atom_site_type_symbol
 _atom_site_label
 _atom_site_symmetry_multiplicity
 _atom_site_fract_x
 _atom_site_fract_y
 _atom_site_fract_z
 _atom_site_occupancy
  Li  Li0  1  0.500000  0.330074  0.665130  1
  Li  Li1  1  0.500000  0.118386  0.899521  1
  Zr  Zr2  1  0.000000  0.670039  0.337010  1
  Ni  Ni3  1  0.000000  0.882258  0.723491  1
  Ni  Ni4  1  0.000000  0.279016  0.158607  1
  Ni  Ni5  1  0.000000  0.836823  0.121037  1
  Ni  Ni6  1  0.500000  0.956119  0.569540  1
  Ni  Ni7  1  0.500000  0.432958  0.387463  1
  Ni  Ni8  1  0.500000  0.612827  0.043054  1
  Ni  Ni9  1  0.000000  0.376319  0.944267  1
  Ni  Ni10  1  0.000000  0.059884  0.431411  1
  Ni  Ni11  1  0.000000  0.565144  0.625536  1
  Ni  Ni12  1  0.500000  0.088888  0.210636  1
  Ni  Ni13  1  0.500000  0.787172  0.877554  1
  P  P14  1  0.500000  0.711140  0.591840  1
  P  P15  1  0.500000  0.418658  0.125664  1
  P  P16  1  0.500000  0.880242  0.292874  1
  P  P17  1  0.000000  0.995291  0.003342  1
  P  P18  1  0.000000  0.123602  0.701265  1
  P  P19  1  0.000000  0.293527  0.415113  1
  P  P20  1  0.000000  0.581633  0.875647  1
