# generated using pymatgen
data_Li4La4IrPt3
_symmetry_space_group_name_H-M   'P 1'
_cell_length_a   4.13227500
_cell_length_b   7.29100203
_cell_length_c   8.68933209
_cell_angle_alpha   89.22329163
_cell_angle_beta   90.00000000
_cell_angle_gamma   90.00000000
_symmetry_Int_Tables_number   1
_chemical_formula_structural   Li4La4IrPt3
_chemical_formula_sum   'Li4 La4 Ir1 Pt3'
_cell_volume   261.77183902
_cell_formula_units_Z   1
loop_
 _symmetry_equiv_pos_site_id
 _symmetry_equiv_pos_as_xyz
  1  'x, y, z'
loop_
 _atom_site_type_symbol
 _atom_site_label
 _atom_site_symmetry_multiplicity
 _atom_site_fract_x
 _atom_site_fract_y
 _atom_site_fract_z
 _atom_site_occupancy
  Li  Li0  1  0.750000  0.870095  0.944218  1
  Li  Li1  1  0.250000  0.630189  0.444474  1
  Li  Li2  1  0.750000  0.371852  0.553107  1
  Li  Li3  1  0.250000  0.129597  0.057523  1
  La  La4  1  0.750000  0.457498  0.185290  1
  La  La5  1  0.250000  0.034903  0.686152  1
  La  La6  1  0.750000  0.951396  0.321392  1
  La  La7  1  0.250000  0.545335  0.803057  1
  Ir  Ir8  1  0.750000  0.756879  0.623347  1
  Pt  Pt9  1  0.750000  0.251455  0.882843  1
  Pt  Pt10  1  0.250000  0.251040  0.379168  1
  Pt  Pt11  1  0.250000  0.749761  0.119428  1
