# generated using pymatgen
data_Tb2SmHo2(In2Pd)2
_symmetry_space_group_name_H-M   'P 1'
_cell_length_a   3.63622200
_cell_length_b   8.19398100
_cell_length_c   18.37584200
_cell_angle_alpha   90.00000000
_cell_angle_beta   90.00000000
_cell_angle_gamma   90.00000000
_symmetry_Int_Tables_number   1
_chemical_formula_structural   Tb2SmHo2(In2Pd)2
_chemical_formula_sum   'Tb4 Sm2 Ho4 In8 Pd4'
_cell_volume   547.51067438
_cell_formula_units_Z   2
loop_
 _symmetry_equiv_pos_site_id
 _symmetry_equiv_pos_as_xyz
  1  'x, y, z'
loop_
 _atom_site_type_symbol
 _atom_site_label
 _atom_site_symmetry_multiplicity
 _atom_site_fract_x
 _atom_site_fract_y
 _atom_site_fract_z
 _atom_site_occupancy
  Tb  Tb0  1  0.000000  0.739423  0.280682  1
  Tb  Tb1  1  0.000000  0.260577  0.719318  1
  Tb  Tb2  1  0.000000  0.760577  0.780682  1
  Tb  Tb3  1  0.000000  0.239423  0.219318  1
  Sm  Sm4  1  0.000000  0.500000  0.500000  1
  Sm  Sm5  1  0.000000  0.000000  0.000000  1
  Ho  Ho6  1  0.000000  0.617778  0.083600  1
  Ho  Ho7  1  0.000000  0.382222  0.916400  1
  Ho  Ho8  1  0.000000  0.882222  0.583600  1
  Ho  Ho9  1  0.000000  0.117778  0.416400  1
  In  In10  1  0.500000  0.704852  0.931662  1
  In  In11  1  0.500000  0.295148  0.068338  1
  In  In12  1  0.500000  0.795148  0.431662  1
  In  In13  1  0.500000  0.204852  0.568338  1
  In  In14  1  0.500000  0.582047  0.651270  1
  In  In15  1  0.500000  0.417953  0.348730  1
  In  In16  1  0.500000  0.917953  0.151270  1
  In  In17  1  0.500000  0.082047  0.848730  1
  Pd  Pd18  1  0.500000  0.523717  0.195429  1
  Pd  Pd19  1  0.500000  0.476283  0.804571  1
  Pd  Pd20  1  0.500000  0.976283  0.695429  1
  Pd  Pd21  1  0.500000  0.023717  0.304571  1
