# generated using pymatgen
data_Sr9Si10Pb
_symmetry_space_group_name_H-M   'P 1'
_cell_length_a   11.28406693
_cell_length_b   11.28406672
_cell_length_c   11.28406819
_cell_angle_alpha   155.63858671
_cell_angle_beta   110.89691660
_cell_angle_gamma   74.47555861
_symmetry_Int_Tables_number   1
_chemical_formula_structural   Sr9Si10Pb
_chemical_formula_sum   'Sr9 Si10 Pb1'
_cell_volume   547.53389885
_cell_formula_units_Z   1
loop_
 _symmetry_equiv_pos_site_id
 _symmetry_equiv_pos_as_xyz
  1  'x, y, z'
loop_
 _atom_site_type_symbol
 _atom_site_label
 _atom_site_symmetry_multiplicity
 _atom_site_fract_x
 _atom_site_fract_y
 _atom_site_fract_z
 _atom_site_occupancy
  Sr  Sr0  1  0.646316  0.810829  0.835486  1
  Sr  Sr1  1  0.024657  0.189171  0.835486  1
  Sr  Sr2  1  0.353684  0.189171  0.164514  1
  Sr  Sr3  1  0.695298  0.000000  0.695298  1
  Sr  Sr4  1  0.975343  0.810829  0.164514  1
  Sr  Sr5  1  0.000000  0.000000  0.000000  1
  Sr  Sr6  1  0.337834  0.837834  0.500000  1
  Sr  Sr7  1  0.304702  0.000000  0.304702  1
  Sr  Sr8  1  0.662166  0.162166  0.500000  1
  Si  Si9  1  0.549614  0.369983  0.179630  1
  Si  Si10  1  0.223608  0.567322  0.656284  1
  Si  Si11  1  0.911038  0.567322  0.343716  1
  Si  Si12  1  0.142099  0.642099  0.500000  1
  Si  Si13  1  0.809647  0.630017  0.179630  1
  Si  Si14  1  0.088962  0.432678  0.656284  1
  Si  Si15  1  0.190353  0.369983  0.820370  1
  Si  Si16  1  0.450386  0.630017  0.820370  1
  Si  Si17  1  0.857901  0.357901  0.500000  1
  Si  Si18  1  0.776392  0.432678  0.343716  1
  Pb  Pb19  1  0.500000  0.500000  0.000000  1
