# generated using pymatgen
data_Y2IO6
_symmetry_space_group_name_H-M   'P 1'
_cell_length_a   5.53288627
_cell_length_b   7.73880577
_cell_length_c   11.73087631
_cell_angle_alpha   76.03161761
_cell_angle_beta   90.93325175
_cell_angle_gamma   90.31512956
_symmetry_Int_Tables_number   1
_chemical_formula_structural   Y2IO6
_chemical_formula_sum   'Y8 I4 O24'
_cell_volume   487.37333743
_cell_formula_units_Z   4
loop_
 _symmetry_equiv_pos_site_id
 _symmetry_equiv_pos_as_xyz
  1  'x, y, z'
loop_
 _atom_site_type_symbol
 _atom_site_label
 _atom_site_symmetry_multiplicity
 _atom_site_fract_x
 _atom_site_fract_y
 _atom_site_fract_z
 _atom_site_occupancy
  Y  Y0  1  0.257442  0.976137  0.747506  1
  Y  Y1  1  0.742460  0.023640  0.252372  1
  Y  Y2  1  0.310490  0.502405  0.750431  1
  Y  Y3  1  0.185776  0.225466  0.416514  1
  Y  Y4  1  0.689201  0.497497  0.249942  1
  Y  Y5  1  0.827177  0.193125  0.927152  1
  Y  Y6  1  0.812639  0.774453  0.583665  1
  Y  Y7  1  0.173856  0.806825  0.072751  1
  I  I8  1  0.740616  0.706840  0.892868  1
  I  I9  1  0.254267  0.736133  0.380057  1
  I  I10  1  0.745059  0.264007  0.619903  1
  I  I11  1  0.260262  0.293265  0.107250  1
  O  O12  1  0.855485  0.365111  0.468967  1
  O  O13  1  0.475321  0.835233  0.932904  1
  O  O14  1  0.850560  0.633177  0.061609  1
  O  O15  1  0.021745  0.294862  0.716673  1
  O  O16  1  0.938965  0.281660  0.260585  1
  O  O17  1  0.151581  0.365847  0.938107  1
  O  O18  1  0.622062  0.476916  0.892484  1
  O  O19  1  0.526070  0.165192  0.067472  1
  O  O20  1  0.144133  0.635985  0.531250  1
  O  O21  1  0.059609  0.717844  0.739932  1
  O  O22  1  0.452044  0.227010  0.273545  1
  O  O23  1  0.069873  0.944981  0.394342  1
  O  O24  1  0.463457  0.163921  0.565654  1
  O  O25  1  0.977540  0.705694  0.283168  1
  O  O26  1  0.929766  0.055252  0.605308  1
  O  O27  1  0.582917  0.174413  0.768916  1
  O  O28  1  0.546598  0.772829  0.726481  1
  O  O29  1  0.984576  0.043376  0.103901  1
  O  O30  1  0.622572  0.488932  0.623805  1
  O  O31  1  0.380176  0.522902  0.107078  1
  O  O32  1  0.417076  0.825300  0.231157  1
  O  O33  1  0.375740  0.510974  0.376113  1
  O  O34  1  0.536324  0.835851  0.434045  1
  O  O35  1  0.016563  0.956943  0.896093  1
