# generated using pymatgen
data_LaMn2CoNiAs12
_symmetry_space_group_name_H-M   'P 1'
_cell_length_a   7.30817424
_cell_length_b   7.28437950
_cell_length_c   7.27695916
_cell_angle_alpha   109.24221306
_cell_angle_beta   109.48718870
_cell_angle_gamma   109.53476226
_symmetry_Int_Tables_number   1
_chemical_formula_structural   LaMn2CoNiAs12
_chemical_formula_sum   'La1 Mn2 Co1 Ni1 As12'
_cell_volume   298.76227257
_cell_formula_units_Z   1
loop_
 _symmetry_equiv_pos_site_id
 _symmetry_equiv_pos_as_xyz
  1  'x, y, z'
loop_
 _atom_site_type_symbol
 _atom_site_label
 _atom_site_symmetry_multiplicity
 _atom_site_fract_x
 _atom_site_fract_y
 _atom_site_fract_z
 _atom_site_occupancy
  La  La0  1  0.000000  0.000000  0.000000  1
  Mn  Mn1  1  0.000000  0.000000  0.500000  1
  Mn  Mn2  1  0.000000  0.500000  0.000000  1
  Co  Co3  1  0.500000  0.000000  0.000000  1
  Ni  Ni4  1  0.500000  0.500000  0.500000  1
  As  As5  1  0.155782  0.813898  0.655964  1
  As  As6  1  0.844218  0.186102  0.344036  1
  As  As7  1  0.659882  0.159618  0.814277  1
  As  As8  1  0.500050  0.656763  0.849266  1
  As  As9  1  0.659579  0.851166  0.499732  1
  As  As10  1  0.499950  0.343237  0.150734  1
  As  As11  1  0.340118  0.840382  0.185723  1
  As  As12  1  0.182477  0.340584  0.841123  1
  As  As13  1  0.817523  0.659416  0.158877  1
  As  As14  1  0.340421  0.148834  0.500268  1
  As  As15  1  0.850712  0.500127  0.658781  1
  As  As16  1  0.149288  0.499873  0.341219  1
