# generated using pymatgen
data_SmHoSiP5Pd20Pb
_symmetry_space_group_name_H-M   'P 1'
_cell_length_a   8.70889501
_cell_length_b   8.70890737
_cell_length_c   8.70897300
_cell_angle_alpha   59.99853142
_cell_angle_beta   59.99886430
_cell_angle_gamma   59.99822270
_symmetry_Int_Tables_number   1
_chemical_formula_structural   SmHoSiP5Pd20Pb
_chemical_formula_sum   'Sm1 Ho1 Si1 P5 Pd20 Pb1'
_cell_volume   467.05098343
_cell_formula_units_Z   1
loop_
 _symmetry_equiv_pos_site_id
 _symmetry_equiv_pos_as_xyz
  1  'x, y, z'
loop_
 _atom_site_type_symbol
 _atom_site_label
 _atom_site_symmetry_multiplicity
 _atom_site_fract_x
 _atom_site_fract_y
 _atom_site_fract_z
 _atom_site_occupancy
  Sm  Sm0  1  0.750410  0.749574  0.749581  1
  Ho  Ho1  1  0.999674  0.000320  0.000352  1
  Si  Si2  1  0.734234  0.265766  0.265771  1
  P  P3  1  0.263432  0.736562  0.736556  1
  P  P4  1  0.264203  0.735680  0.262757  1
  P  P5  1  0.737367  0.262747  0.735667  1
  P  P6  1  0.264202  0.262748  0.735681  1
  P  P7  1  0.737356  0.735667  0.262755  1
  Pd  Pd8  1  0.383477  0.384251  0.384262  1
  Pd  Pd9  1  0.614237  0.614161  0.614158  1
  Pd  Pd10  1  0.384386  0.384262  0.846948  1
  Pd  Pd11  1  0.384368  0.846982  0.384255  1
  Pd  Pd12  1  0.613676  0.615825  0.156815  1
  Pd  Pd13  1  0.613682  0.156809  0.615825  1
  Pd  Pd14  1  0.848076  0.384222  0.384232  1
  Pd  Pd15  1  0.157422  0.614166  0.614167  1
  Pd  Pd16  1  0.346536  0.997450  0.997454  1
  Pd  Pd17  1  0.658544  0.997454  0.997457  1
  Pd  Pd18  1  0.996358  0.347551  0.659718  1
  Pd  Pd19  1  0.996361  0.659704  0.347559  1
  Pd  Pd20  1  0.997661  0.347977  0.996618  1
  Pd  Pd21  1  0.657728  0.996614  0.347980  1
  Pd  Pd22  1  0.997633  0.657558  0.996923  1
  Pd  Pd23  1  0.347869  0.996915  0.657569  1
  Pd  Pd24  1  0.997664  0.996613  0.347986  1
  Pd  Pd25  1  0.997631  0.996918  0.657562  1
  Pd  Pd26  1  0.657733  0.347972  0.996620  1
  Pd  Pd27  1  0.347865  0.657558  0.996929  1
  Pb  Pb28  1  0.250213  0.249975  0.249842  1
