# generated using pymatgen
data_Tm4Sc4Ga3Co
_symmetry_space_group_name_H-M   'P 1'
_cell_length_a   9.59510000
_cell_length_b   9.59509970
_cell_length_c   6.84455300
_cell_angle_alpha   90.00000000
_cell_angle_beta   90.00000000
_cell_angle_gamma   120.00000105
_symmetry_Int_Tables_number   1
_chemical_formula_structural   Tm4Sc4Ga3Co
_chemical_formula_sum   'Tm8 Sc8 Ga6 Co2'
_cell_volume   545.72608711
_cell_formula_units_Z   2
loop_
 _symmetry_equiv_pos_site_id
 _symmetry_equiv_pos_as_xyz
  1  'x, y, z'
loop_
 _atom_site_type_symbol
 _atom_site_label
 _atom_site_symmetry_multiplicity
 _atom_site_fract_x
 _atom_site_fract_y
 _atom_site_fract_z
 _atom_site_occupancy
  Tm  Tm0  1  0.465569  0.534431  0.288235  1
  Tm  Tm1  1  0.931139  0.465569  0.788235  1
  Tm  Tm2  1  0.534431  0.068861  0.788235  1
  Tm  Tm3  1  0.465569  0.931139  0.288235  1
  Tm  Tm4  1  0.068861  0.534431  0.288235  1
  Tm  Tm5  1  0.534431  0.465569  0.788235  1
  Tm  Tm6  1  0.000000  0.000000  0.270963  1
  Tm  Tm7  1  0.000000  0.000000  0.770963  1
  Sc  Sc8  1  0.174491  0.825509  0.987612  1
  Sc  Sc9  1  0.348982  0.174491  0.487612  1
  Sc  Sc10  1  0.825509  0.651018  0.487612  1
  Sc  Sc11  1  0.174491  0.348982  0.987612  1
  Sc  Sc12  1  0.651018  0.825509  0.987612  1
  Sc  Sc13  1  0.825509  0.174491  0.487612  1
  Sc  Sc14  1  0.333333  0.666667  0.674334  1
  Sc  Sc15  1  0.666667  0.333333  0.174334  1
  Ga  Ga16  1  0.163613  0.836387  0.549379  1
  Ga  Ga17  1  0.327225  0.163613  0.049379  1
  Ga  Ga18  1  0.836387  0.672775  0.049379  1
  Ga  Ga19  1  0.163613  0.327225  0.549379  1
  Ga  Ga20  1  0.672775  0.836387  0.549379  1
  Ga  Ga21  1  0.836387  0.163613  0.049379  1
  Co  Co22  1  0.333333  0.666667  0.041028  1
  Co  Co23  1  0.666667  0.333333  0.541028  1
