# generated using pymatgen
data_Eu4Ho3Tm3Pb8
_symmetry_space_group_name_H-M   'P 1'
_cell_length_a   8.26024100
_cell_length_b   8.36630471
_cell_length_c   15.72810200
_cell_angle_alpha   90.05396538
_cell_angle_beta   90.00000000
_cell_angle_gamma   90.00000000
_symmetry_Int_Tables_number   1
_chemical_formula_structural   Eu4Ho3Tm3Pb8
_chemical_formula_sum   'Eu8 Ho6 Tm6 Pb16'
_cell_volume   1086.93236539
_cell_formula_units_Z   2
loop_
 _symmetry_equiv_pos_site_id
 _symmetry_equiv_pos_as_xyz
  1  'x, y, z'
loop_
 _atom_site_type_symbol
 _atom_site_label
 _atom_site_symmetry_multiplicity
 _atom_site_fract_x
 _atom_site_fract_y
 _atom_site_fract_z
 _atom_site_occupancy
  Eu  Eu0  1  0.488126  0.677494  0.592196  1
  Eu  Eu1  1  0.988126  0.822506  0.907804  1
  Eu  Eu2  1  0.511832  0.322752  0.092489  1
  Eu  Eu3  1  0.011832  0.177248  0.407511  1
  Eu  Eu4  1  0.512156  0.322905  0.407377  1
  Eu  Eu5  1  0.012156  0.177095  0.092623  1
  Eu  Eu6  1  0.487740  0.677153  0.907730  1
  Eu  Eu7  1  0.987740  0.822847  0.592270  1
  Ho  Ho8  1  0.654085  0.156736  0.623021  1
  Ho  Ho9  1  0.154085  0.343264  0.876979  1
  Ho  Ho10  1  0.814031  0.501625  0.750003  1
  Ho  Ho11  1  0.314031  0.998375  0.749997  1
  Ho  Ho12  1  0.185993  0.498909  0.250273  1
  Ho  Ho13  1  0.685993  0.001091  0.249727  1
  Tm  Tm14  1  0.345985  0.843510  0.124224  1
  Tm  Tm15  1  0.845985  0.656490  0.375776  1
  Tm  Tm16  1  0.345660  0.844014  0.376207  1
  Tm  Tm17  1  0.845660  0.655986  0.123793  1
  Tm  Tm18  1  0.654352  0.156598  0.876328  1
  Tm  Tm19  1  0.154352  0.343402  0.623672  1
  Pb  Pb20  1  0.683947  0.955827  0.455434  1
  Pb  Pb21  1  0.183947  0.544173  0.044566  1
  Pb  Pb22  1  0.317511  0.042550  0.956730  1
  Pb  Pb23  1  0.817511  0.457450  0.543270  1
  Pb  Pb24  1  0.314917  0.043499  0.543556  1
  Pb  Pb25  1  0.814917  0.456501  0.956444  1
  Pb  Pb26  1  0.683563  0.956221  0.043590  1
  Pb  Pb27  1  0.183563  0.543779  0.456410  1
  Pb  Pb28  1  0.456817  0.371917  0.750040  1
  Pb  Pb29  1  0.956817  0.128083  0.749960  1
  Pb  Pb30  1  0.543097  0.628278  0.250130  1
  Pb  Pb31  1  0.043097  0.871722  0.249870  1
  Pb  Pb32  1  0.679823  0.855632  0.750234  1
  Pb  Pb33  1  0.179823  0.644368  0.749766  1
  Pb  Pb34  1  0.320366  0.144512  0.250251  1
  Pb  Pb35  1  0.820366  0.355488  0.249749  1
