# generated using pymatgen
data_NpTi5(AlRu2)6
_symmetry_space_group_name_H-M   'P 1'
_cell_length_a   4.33942600
_cell_length_b   6.17877700
_cell_length_c   12.97972900
_cell_angle_alpha   89.99949360
_cell_angle_beta   89.99963858
_cell_angle_gamma   89.99976062
_symmetry_Int_Tables_number   1
_chemical_formula_structural   NpTi5(AlRu2)6
_chemical_formula_sum   'Np1 Ti5 Al6 Ru12'
_cell_volume   348.01697924
_cell_formula_units_Z   1
loop_
 _symmetry_equiv_pos_site_id
 _symmetry_equiv_pos_as_xyz
  1  'x, y, z'
loop_
 _atom_site_type_symbol
 _atom_site_label
 _atom_site_symmetry_multiplicity
 _atom_site_fract_x
 _atom_site_fract_y
 _atom_site_fract_z
 _atom_site_occupancy
  Np  Np0  1  0.000000  0.499999  0.000000  1
  Ti  Ti1  1  0.499891  0.999997  0.174162  1
  Ti  Ti2  1  0.999893  0.500002  0.338720  1
  Ti  Ti3  1  0.500000  0.000000  0.500000  1
  Ti  Ti4  1  0.000108  0.499996  0.661280  1
  Ti  Ti5  1  0.500110  0.000003  0.825838  1
  Al  Al6  1  0.000000  0.000000  0.000000  1
  Al  Al7  1  0.499911  0.499998  0.176281  1
  Al  Al8  1  0.999882  0.999999  0.336871  1
  Al  Al9  1  0.500000  0.499999  0.500000  1
  Al  Al10  1  0.000119  0.000001  0.663129  1
  Al  Al11  1  0.500089  0.500000  0.823719  1
  Ru  Ru12  1  0.499998  0.244623  0.000000  1
  Ru  Ru13  1  0.500002  0.755376  0.000000  1
  Ru  Ru14  1  0.999922  0.251396  0.163900  1
  Ru  Ru15  1  0.999922  0.748596  0.163895  1
  Ru  Ru16  1  0.499898  0.249185  0.332581  1
  Ru  Ru17  1  0.499898  0.750816  0.332581  1
  Ru  Ru18  1  0.000000  0.250924  0.500000  1
  Ru  Ru19  1  0.000000  0.749076  0.500000  1
  Ru  Ru20  1  0.500100  0.249185  0.667419  1
  Ru  Ru21  1  0.500100  0.750816  0.667419  1
  Ru  Ru22  1  0.000079  0.251404  0.836105  1
  Ru  Ru23  1  0.000079  0.748604  0.836100  1
