# generated using pymatgen
data_TbHo3Al4Pd3Rh
_symmetry_space_group_name_H-M   'P 1'
_cell_length_a   4.42072200
_cell_length_b   6.83621168
_cell_length_c   7.84470685
_cell_angle_alpha   89.90622067
_cell_angle_beta   90.00000000
_cell_angle_gamma   90.00000000
_symmetry_Int_Tables_number   1
_chemical_formula_structural   TbHo3Al4Pd3Rh
_chemical_formula_sum   'Tb1 Ho3 Al4 Pd3 Rh1'
_cell_volume   237.07450055
_cell_formula_units_Z   1
loop_
 _symmetry_equiv_pos_site_id
 _symmetry_equiv_pos_as_xyz
  1  'x, y, z'
loop_
 _atom_site_type_symbol
 _atom_site_label
 _atom_site_symmetry_multiplicity
 _atom_site_fract_x
 _atom_site_fract_y
 _atom_site_fract_z
 _atom_site_occupancy
  Tb  Tb0  1  0.250000  0.534036  0.179593  1
  Ho  Ho1  1  0.750000  0.462430  0.817546  1
  Ho  Ho2  1  0.750000  0.972371  0.679010  1
  Ho  Ho3  1  0.250000  0.037849  0.323522  1
  Al  Al4  1  0.250000  0.636042  0.561415  1
  Al  Al5  1  0.750000  0.357685  0.441916  1
  Al  Al6  1  0.750000  0.858750  0.059700  1
  Al  Al7  1  0.250000  0.142740  0.937255  1
  Pd  Pd8  1  0.250000  0.769592  0.879023  1
  Pd  Pd9  1  0.750000  0.230970  0.121710  1
  Pd  Pd10  1  0.750000  0.732464  0.379255  1
  Rh  Rh11  1  0.250000  0.265069  0.620054  1
