# generated using pymatgen
data_Ca2DyErV4O12
_symmetry_space_group_name_H-M   'P 1'
_cell_length_a   5.33570465
_cell_length_b   7.69865404
_cell_length_c   5.57144463
_cell_angle_alpha   89.66452263
_cell_angle_beta   89.99022863
_cell_angle_gamma   89.89063358
_symmetry_Int_Tables_number   1
_chemical_formula_structural   Ca2DyErV4O12
_chemical_formula_sum   'Ca2 Dy1 Er1 V4 O12'
_cell_volume   228.85803458
_cell_formula_units_Z   1
loop_
 _symmetry_equiv_pos_site_id
 _symmetry_equiv_pos_as_xyz
  1  'x, y, z'
loop_
 _atom_site_type_symbol
 _atom_site_label
 _atom_site_symmetry_multiplicity
 _atom_site_fract_x
 _atom_site_fract_y
 _atom_site_fract_z
 _atom_site_occupancy
  Ca  Ca0  1  0.511986  0.249386  0.554100  1
  Ca  Ca1  1  0.990686  0.250359  0.050994  1
  Dy  Dy2  1  0.480338  0.747762  0.434091  1
  Er  Er3  1  0.013367  0.751422  0.933279  1
  V  V4  1  0.501545  0.497046  0.999757  1
  V  V5  1  0.992126  0.496427  0.501394  1
  V  V6  1  0.992685  0.002843  0.497804  1
  V  V7  1  0.502474  0.002471  0.996638  1
  O  O8  1  0.890055  0.750042  0.538606  1
  O  O9  1  0.607095  0.749241  0.034534  1
  O  O10  1  0.091176  0.250779  0.467870  1
  O  O11  1  0.415555  0.250146  0.969188  1
  O  O12  1  0.821344  0.461556  0.791775  1
  O  O13  1  0.710307  0.039061  0.310940  1
  O  O14  1  0.296970  0.562783  0.704745  1
  O  O15  1  0.201297  0.937827  0.201152  1
  O  O16  1  0.186291  0.560940  0.214908  1
  O  O17  1  0.286659  0.941686  0.689572  1
  O  O18  1  0.694063  0.458676  0.306129  1
  O  O19  1  0.813980  0.039554  0.802530  1
