# generated using pymatgen
data_Pr3YAl16(SiIr3)2
_symmetry_space_group_name_H-M   'P 1'
_cell_length_a   7.59941706
_cell_length_b   7.60567770
_cell_length_c   9.47512100
_cell_angle_alpha   90.00000000
_cell_angle_beta   90.00000000
_cell_angle_gamma   119.64962811
_symmetry_Int_Tables_number   1
_chemical_formula_structural   Pr3YAl16(SiIr3)2
_chemical_formula_sum   'Pr3 Y1 Al16 Si2 Ir6'
_cell_volume   475.94427053
_cell_formula_units_Z   1
loop_
 _symmetry_equiv_pos_site_id
 _symmetry_equiv_pos_as_xyz
  1  'x, y, z'
loop_
 _atom_site_type_symbol
 _atom_site_label
 _atom_site_symmetry_multiplicity
 _atom_site_fract_x
 _atom_site_fract_y
 _atom_site_fract_z
 _atom_site_occupancy
  Pr  Pr0  1  0.995335  0.674739  0.250000  1
  Pr  Pr1  1  0.005230  0.325585  0.750000  1
  Pr  Pr2  1  0.674447  0.994868  0.250000  1
  Y  Y3  1  0.324656  0.005254  0.750000  1
  Al  Al4  1  0.003516  0.336525  0.073731  1
  Al  Al5  1  0.998507  0.665319  0.923424  1
  Al  Al6  1  0.998507  0.665319  0.576576  1
  Al  Al7  1  0.336409  0.003086  0.428636  1
  Al  Al8  1  0.003516  0.336525  0.426269  1
  Al  Al9  1  0.661588  0.997077  0.576292  1
  Al  Al10  1  0.661588  0.997077  0.923708  1
  Al  Al11  1  0.336409  0.003086  0.071364  1
  Al  Al12  1  0.336853  0.335417  0.555139  1
  Al  Al13  1  0.662997  0.662963  0.448834  1
  Al  Al14  1  0.662997  0.662963  0.051166  1
  Al  Al15  1  0.336853  0.335417  0.944861  1
  Al  Al16  1  0.335829  0.546371  0.250000  1
  Al  Al17  1  0.661664  0.450619  0.750000  1
  Al  Al18  1  0.545628  0.334481  0.250000  1
  Al  Al19  1  0.452878  0.665898  0.750000  1
  Si  Si20  1  0.132520  0.131621  0.250000  1
  Si  Si21  1  0.870824  0.869270  0.750000  1
  Ir  Ir22  1  0.670618  0.328804  0.999261  1
  Ir  Ir23  1  0.329157  0.671274  0.999304  1
  Ir  Ir24  1  0.329157  0.671274  0.500696  1
  Ir  Ir25  1  0.670618  0.328804  0.500739  1
  Ir  Ir26  1  0.000849  0.000183  0.998555  1
  Ir  Ir27  1  0.000849  0.000183  0.501445  1
