# generated using pymatgen
data_TbSmHo4(SbO7)2
_symmetry_space_group_name_H-M   'P 1'
_cell_length_a   6.46914851
_cell_length_b   6.46914910
_cell_length_c   7.53392903
_cell_angle_alpha   89.99134787
_cell_angle_beta   90.00864942
_cell_angle_gamma   109.29393392
_symmetry_Int_Tables_number   1
_chemical_formula_structural   TbSmHo4(SbO7)2
_chemical_formula_sum   'Tb1 Sm1 Ho4 Sb2 O14'
_cell_volume   297.58587271
_cell_formula_units_Z   1
loop_
 _symmetry_equiv_pos_site_id
 _symmetry_equiv_pos_as_xyz
  1  'x, y, z'
loop_
 _atom_site_type_symbol
 _atom_site_label
 _atom_site_symmetry_multiplicity
 _atom_site_fract_x
 _atom_site_fract_y
 _atom_site_fract_z
 _atom_site_occupancy
  Tb  Tb0  1  0.500000  0.500000  0.000000  1
  Sm  Sm1  1  0.500000  0.500000  0.500000  1
  Ho  Ho2  1  0.531287  0.000666  0.751197  1
  Ho  Ho3  1  0.000666  0.531287  0.248803  1
  Ho  Ho4  1  0.468713  0.999334  0.248803  1
  Ho  Ho5  1  0.999334  0.468713  0.751197  1
  Sb  Sb6  1  0.000000  0.000000  0.500000  1
  Sb  Sb7  1  0.000000  0.000000  0.000000  1
  O  O8  1  0.677273  0.929421  0.469759  1
  O  O9  1  0.929421  0.677273  0.530241  1
  O  O10  1  0.677370  0.927849  0.030032  1
  O  O11  1  0.927849  0.677370  0.969968  1
  O  O12  1  0.322727  0.070579  0.530241  1
  O  O13  1  0.070579  0.322727  0.469759  1
  O  O14  1  0.322630  0.072151  0.969968  1
  O  O15  1  0.072151  0.322630  0.030032  1
  O  O16  1  0.929484  0.070516  0.749855  1
  O  O17  1  0.070516  0.929484  0.250145  1
  O  O18  1  0.366653  0.633347  0.753997  1
  O  O19  1  0.633347  0.366653  0.246003  1
  O  O20  1  0.639846  0.360154  0.753324  1
  O  O21  1  0.360154  0.639846  0.246676  1
