# generated using pymatgen
data_Tb7Dy(PBr6)2
_symmetry_space_group_name_H-M   'P 1'
_cell_length_a   4.01639600
_cell_length_b   13.16661505
_cell_length_c   13.88846806
_cell_angle_alpha   89.98974157
_cell_angle_beta   90.00000000
_cell_angle_gamma   90.00000000
_symmetry_Int_Tables_number   1
_chemical_formula_structural   Tb7Dy(PBr6)2
_chemical_formula_sum   'Tb7 Dy1 P2 Br12'
_cell_volume   734.45467846
_cell_formula_units_Z   1
loop_
 _symmetry_equiv_pos_site_id
 _symmetry_equiv_pos_as_xyz
  1  'x, y, z'
loop_
 _atom_site_type_symbol
 _atom_site_label
 _atom_site_symmetry_multiplicity
 _atom_site_fract_x
 _atom_site_fract_y
 _atom_site_fract_z
 _atom_site_occupancy
  Tb  Tb0  1  0.500000  0.882719  0.657163  1
  Tb  Tb1  1  0.500000  0.617302  0.157192  1
  Tb  Tb2  1  0.500000  0.382699  0.842817  1
  Tb  Tb3  1  0.000000  0.115096  0.576512  1
  Tb  Tb4  1  0.000000  0.884826  0.423596  1
  Tb  Tb5  1  0.000000  0.615112  0.923548  1
  Tb  Tb6  1  0.000000  0.384900  0.076444  1
  Dy  Dy7  1  0.500000  0.117161  0.342986  1
  P  P8  1  0.500000  0.000421  0.499437  1
  P  P9  1  0.500000  0.499998  0.000006  1
  Br  Br10  1  0.500000  0.242901  0.162966  1
  Br  Br11  1  0.500000  0.756845  0.837376  1
  Br  Br12  1  0.500000  0.743154  0.337344  1
  Br  Br13  1  0.500000  0.256861  0.662626  1
  Br  Br14  1  0.000000  0.256224  0.411986  1
  Br  Br15  1  0.000000  0.743184  0.587598  1
  Br  Br16  1  0.000000  0.756766  0.087602  1
  Br  Br17  1  0.000000  0.243235  0.912405  1
  Br  Br18  1  0.000000  0.000925  0.242587  1
  Br  Br19  1  0.000000  0.999678  0.757797  1
  Br  Br20  1  0.000000  0.500344  0.257750  1
  Br  Br21  1  0.000000  0.499649  0.742263  1
