# generated using pymatgen
data_Sc2MnB2RuRh4
_symmetry_space_group_name_H-M   'P 1'
_cell_length_a   9.41152100
_cell_length_b   9.41152100
_cell_length_c   3.03917500
_cell_angle_alpha   90.00000000
_cell_angle_beta   90.00000000
_cell_angle_gamma   90.00000000
_symmetry_Int_Tables_number   1
_chemical_formula_structural   Sc2MnB2RuRh4
_chemical_formula_sum   'Sc4 Mn2 B4 Ru2 Rh8'
_cell_volume   269.20017590
_cell_formula_units_Z   2
loop_
 _symmetry_equiv_pos_site_id
 _symmetry_equiv_pos_as_xyz
  1  'x, y, z'
loop_
 _atom_site_type_symbol
 _atom_site_label
 _atom_site_symmetry_multiplicity
 _atom_site_fract_x
 _atom_site_fract_y
 _atom_site_fract_z
 _atom_site_occupancy
  Sc  Sc0  1  0.674173  0.174173  0.000000  1
  Sc  Sc1  1  0.325827  0.825827  0.000000  1
  Sc  Sc2  1  0.174173  0.325827  0.000000  1
  Sc  Sc3  1  0.825827  0.674173  0.000000  1
  Mn  Mn4  1  0.500000  0.500000  0.000000  1
  Mn  Mn5  1  0.000000  0.000000  0.000000  1
  B  B6  1  0.122677  0.622677  0.000000  1
  B  B7  1  0.877323  0.377323  0.000000  1
  B  B8  1  0.622677  0.877323  0.000000  1
  B  B9  1  0.377323  0.122677  0.000000  1
  Ru  Ru10  1  0.500000  0.000000  0.500000  1
  Ru  Ru11  1  0.000000  0.500000  0.500000  1
  Rh  Rh12  1  0.572359  0.716520  0.500000  1
  Rh  Rh13  1  0.427641  0.283480  0.500000  1
  Rh  Rh14  1  0.072359  0.783480  0.500000  1
  Rh  Rh15  1  0.927641  0.216520  0.500000  1
  Rh  Rh16  1  0.283480  0.572359  0.500000  1
  Rh  Rh17  1  0.716520  0.427641  0.500000  1
  Rh  Rh18  1  0.216520  0.072359  0.500000  1
  Rh  Rh19  1  0.783480  0.927641  0.500000  1
