# generated using pymatgen
data_Cs2NpBr5
_symmetry_space_group_name_H-M   'P 1'
_cell_length_a   9.09398500
_cell_length_b   9.60634600
_cell_length_c   14.73788700
_cell_angle_alpha   90.00000000
_cell_angle_beta   90.00000000
_cell_angle_gamma   90.00000000
_symmetry_Int_Tables_number   1
_chemical_formula_structural   Cs2NpBr5
_chemical_formula_sum   'Cs8 Np4 Br20'
_cell_volume   1287.50131355
_cell_formula_units_Z   4
loop_
 _symmetry_equiv_pos_site_id
 _symmetry_equiv_pos_as_xyz
  1  'x, y, z'
loop_
 _atom_site_type_symbol
 _atom_site_label
 _atom_site_symmetry_multiplicity
 _atom_site_fract_x
 _atom_site_fract_y
 _atom_site_fract_z
 _atom_site_occupancy
  Cs  Cs0  1  0.944934  0.004916  0.828581  1
  Cs  Cs1  1  0.055066  0.995084  0.171419  1
  Cs  Cs2  1  0.444934  0.995084  0.671419  1
  Cs  Cs3  1  0.055066  0.504916  0.171419  1
  Cs  Cs4  1  0.555066  0.004916  0.328581  1
  Cs  Cs5  1  0.944934  0.495084  0.828581  1
  Cs  Cs6  1  0.555066  0.495084  0.328581  1
  Cs  Cs7  1  0.444934  0.504916  0.671419  1
  Np  Np8  1  0.936248  0.750000  0.501624  1
  Np  Np9  1  0.063752  0.250000  0.498376  1
  Np  Np10  1  0.436248  0.250000  0.998376  1
  Np  Np11  1  0.563752  0.750000  0.001624  1
  Br  Br12  1  0.113530  0.750000  0.668566  1
  Br  Br13  1  0.886470  0.250000  0.331434  1
  Br  Br14  1  0.613530  0.250000  0.831434  1
  Br  Br15  1  0.386470  0.750000  0.168566  1
  Br  Br16  1  0.844867  0.040282  0.568869  1
  Br  Br17  1  0.155133  0.959718  0.431131  1
  Br  Br18  1  0.344867  0.959718  0.931131  1
  Br  Br19  1  0.155133  0.540282  0.431131  1
  Br  Br20  1  0.655133  0.040282  0.068869  1
  Br  Br21  1  0.844867  0.459718  0.568869  1
  Br  Br22  1  0.655133  0.459718  0.068869  1
  Br  Br23  1  0.344867  0.540282  0.931131  1
  Br  Br24  1  0.607902  0.750000  0.512646  1
  Br  Br25  1  0.392098  0.250000  0.487354  1
  Br  Br26  1  0.107902  0.250000  0.987354  1
  Br  Br27  1  0.892098  0.750000  0.012646  1
  Br  Br28  1  0.650298  0.750000  0.810052  1
  Br  Br29  1  0.349702  0.250000  0.189948  1
  Br  Br30  1  0.150298  0.250000  0.689948  1
  Br  Br31  1  0.849702  0.750000  0.310052  1
