# generated using pymatgen
data_La6As5S
_symmetry_space_group_name_H-M   'P 1'
_cell_length_a   4.29847606
_cell_length_b   10.57324662
_cell_length_c   8.59344600
_cell_angle_alpha   90.04689009
_cell_angle_beta   59.99255073
_cell_angle_gamma   89.97988434
_symmetry_Int_Tables_number   1
_chemical_formula_structural   La6As5S
_chemical_formula_sum   'La6 As5 S1'
_cell_volume   338.21116511
_cell_formula_units_Z   1
loop_
 _symmetry_equiv_pos_site_id
 _symmetry_equiv_pos_as_xyz
  1  'x, y, z'
loop_
 _atom_site_type_symbol
 _atom_site_label
 _atom_site_symmetry_multiplicity
 _atom_site_fract_x
 _atom_site_fract_y
 _atom_site_fract_z
 _atom_site_occupancy
  La  La0  1  0.935755  0.898387  0.657883  1
  La  La1  1  0.274582  0.231548  0.320421  1
  La  La2  1  0.605680  0.564979  0.988974  1
  La  La3  1  0.272806  0.231528  0.822517  1
  La  La4  1  0.605596  0.564987  0.488953  1
  La  La5  1  0.937458  0.898494  0.155769  1
  As  As6  1  0.272093  0.734908  0.321669  1
  As  As7  1  0.938811  0.395001  0.656316  1
  As  As8  1  0.605012  0.064969  0.489232  1
  As  As9  1  0.940937  0.395813  0.154049  1
  As  As10  1  0.269934  0.734065  0.824079  1
  S  S11  1  0.604845  0.065052  0.989232  1
