# generated using pymatgen
data_SrUP2
_symmetry_space_group_name_H-M   'P 1'
_cell_length_a   7.36852465
_cell_length_b   7.36852528
_cell_length_c   7.36852424
_cell_angle_alpha   32.27278123
_cell_angle_beta   32.27277069
_cell_angle_gamma   32.27277376
_symmetry_Int_Tables_number   1
_chemical_formula_structural   SrUP2
_chemical_formula_sum   'Sr1 U1 P2'
_cell_volume   101.38775845
_cell_formula_units_Z   1
loop_
 _symmetry_equiv_pos_site_id
 _symmetry_equiv_pos_as_xyz
  1  'x, y, z'
loop_
 _atom_site_type_symbol
 _atom_site_label
 _atom_site_symmetry_multiplicity
 _atom_site_fract_x
 _atom_site_fract_y
 _atom_site_fract_z
 _atom_site_occupancy
  Sr  Sr0  1  0.000000  0.000000  0.000000  1
  U  U1  1  0.500000  0.500000  0.500000  1
  P  P2  1  0.237552  0.237552  0.237552  1
  P  P3  1  0.762448  0.762448  0.762448  1
