# generated using pymatgen
data_Dy20(PdRh3)3
_symmetry_space_group_name_H-M   'P 1'
_cell_length_a   10.99855160
_cell_length_b   10.99855126
_cell_length_c   6.33918300
_cell_angle_alpha   89.96911871
_cell_angle_beta   89.96911872
_cell_angle_gamma   90.15768750
_symmetry_Int_Tables_number   1
_chemical_formula_structural   Dy20(PdRh3)3
_chemical_formula_sum   'Dy20 Pd3 Rh9'
_cell_volume   766.83600807
_cell_formula_units_Z   1
loop_
 _symmetry_equiv_pos_site_id
 _symmetry_equiv_pos_as_xyz
  1  'x, y, z'
loop_
 _atom_site_type_symbol
 _atom_site_label
 _atom_site_symmetry_multiplicity
 _atom_site_fract_x
 _atom_site_fract_y
 _atom_site_fract_z
 _atom_site_occupancy
  Dy  Dy0  1  0.293465  0.087922  0.371066  1
  Dy  Dy1  1  0.292565  0.907069  0.877858  1
  Dy  Dy2  1  0.705413  0.091071  0.873155  1
  Dy  Dy3  1  0.704107  0.908775  0.372827  1
  Dy  Dy4  1  0.585791  0.790536  0.879483  1
  Dy  Dy5  1  0.586451  0.209328  0.379457  1
  Dy  Dy6  1  0.409303  0.790734  0.379628  1
  Dy  Dy7  1  0.413351  0.209574  0.879151  1
  Dy  Dy8  1  0.209464  0.414209  0.620517  1
  Dy  Dy9  1  0.209266  0.590697  0.120372  1
  Dy  Dy10  1  0.790672  0.413549  0.120543  1
  Dy  Dy11  1  0.790426  0.586649  0.620849  1
  Dy  Dy12  1  0.912078  0.706535  0.128934  1
  Dy  Dy13  1  0.908929  0.294587  0.626845  1
  Dy  Dy14  1  0.092931  0.707435  0.622142  1
  Dy  Dy15  1  0.091225  0.295893  0.127173  1
  Dy  Dy16  1  0.001424  0.997385  0.499602  1
  Dy  Dy17  1  0.002615  0.998576  0.000398  1
  Dy  Dy18  1  0.499730  0.499818  0.000490  1
  Dy  Dy19  1  0.500182  0.500270  0.499510  1
  Pd  Pd20  1  0.846115  0.153885  0.250000  1
  Pd  Pd21  1  0.844511  0.844728  0.749878  1
  Pd  Pd22  1  0.155272  0.155489  0.750122  1
  Rh  Rh23  1  0.152762  0.847238  0.250000  1
  Rh  Rh24  1  0.655026  0.344974  0.750000  1
  Rh  Rh25  1  0.655669  0.654955  0.249185  1
  Rh  Rh26  1  0.345045  0.344331  0.250815  1
  Rh  Rh27  1  0.345649  0.654351  0.750000  1
  Rh  Rh28  1  0.500480  0.999976  0.123980  1
  Rh  Rh29  1  0.500575  0.000519  0.624767  1
  Rh  Rh30  1  0.999481  0.499425  0.875233  1
  Rh  Rh31  1  0.000024  0.499520  0.376020  1
