# generated using pymatgen
data_YTa3Si2(B2Ru5)2
_symmetry_space_group_name_H-M   'P 1'
_cell_length_a   9.32977748
_cell_length_b   9.32977748
_cell_length_c   2.99917000
_cell_angle_alpha   90.00000000
_cell_angle_beta   90.00000000
_cell_angle_gamma   90.35384268
_symmetry_Int_Tables_number   1
_chemical_formula_structural   YTa3Si2(B2Ru5)2
_chemical_formula_sum   'Y1 Ta3 Si2 B4 Ru10'
_cell_volume   261.05701792
_cell_formula_units_Z   1
loop_
 _symmetry_equiv_pos_site_id
 _symmetry_equiv_pos_as_xyz
  1  'x, y, z'
loop_
 _atom_site_type_symbol
 _atom_site_label
 _atom_site_symmetry_multiplicity
 _atom_site_fract_x
 _atom_site_fract_y
 _atom_site_fract_z
 _atom_site_occupancy
  Y  Y0  1  0.823723  0.676277  0.000000  1
  Ta  Ta1  1  0.177099  0.322901  0.000000  1
  Ta  Ta2  1  0.324271  0.824724  0.000000  1
  Ta  Ta3  1  0.675276  0.175729  0.000000  1
  Si  Si4  1  0.503663  0.501965  0.000000  1
  Si  Si5  1  0.998035  0.996337  0.000000  1
  B  B6  1  0.620719  0.879281  0.000000  1
  B  B7  1  0.373792  0.126208  0.000000  1
  B  B8  1  0.127754  0.623286  0.000000  1
  B  B9  1  0.876714  0.372246  0.000000  1
  Ru  Ru10  1  0.555275  0.717120  0.500000  1
  Ru  Ru11  1  0.429356  0.290185  0.500000  1
  Ru  Ru12  1  0.080490  0.790288  0.500000  1
  Ru  Ru13  1  0.935043  0.208908  0.500000  1
  Ru  Ru14  1  0.291092  0.564957  0.500000  1
  Ru  Ru15  1  0.709712  0.419510  0.500000  1
  Ru  Ru16  1  0.209815  0.070644  0.500000  1
  Ru  Ru17  1  0.782880  0.944725  0.500000  1
  Ru  Ru18  1  0.496704  0.003296  0.500000  1
  Ru  Ru19  1  0.008588  0.491412  0.500000  1
