# generated using pymatgen
data_TbHo3Fe4(CoO5)4
_symmetry_space_group_name_H-M   'P 1'
_cell_length_a   5.76983500
_cell_length_b   7.26790717
_cell_length_c   8.50964620
_cell_angle_alpha   90.02457686
_cell_angle_beta   90.00000000
_cell_angle_gamma   90.00000000
_symmetry_Int_Tables_number   1
_chemical_formula_structural   TbHo3Fe4(CoO5)4
_chemical_formula_sum   'Tb1 Ho3 Fe4 Co4 O20'
_cell_volume   356.84879055
_cell_formula_units_Z   1
loop_
 _symmetry_equiv_pos_site_id
 _symmetry_equiv_pos_as_xyz
  1  'x, y, z'
loop_
 _atom_site_type_symbol
 _atom_site_label
 _atom_site_symmetry_multiplicity
 _atom_site_fract_x
 _atom_site_fract_y
 _atom_site_fract_z
 _atom_site_occupancy
  Tb  Tb0  1  0.500000  0.366513  0.330145  1
  Ho  Ho1  1  0.500000  0.634530  0.670049  1
  Ho  Ho2  1  0.500000  0.133968  0.830373  1
  Ho  Ho3  1  0.500000  0.865971  0.169562  1
  Fe  Fe4  1  0.000000  0.109130  0.146622  1
  Fe  Fe5  1  0.000000  0.890376  0.852775  1
  Fe  Fe6  1  0.000000  0.390345  0.647864  1
  Fe  Fe7  1  0.000000  0.610194  0.352938  1
  Co  Co8  1  0.250673  0.999537  0.500222  1
  Co  Co9  1  0.749327  0.999537  0.500222  1
  Co  Co10  1  0.749373  0.500119  0.999500  1
  Co  Co11  1  0.250627  0.500119  0.999500  1
  O  O12  1  0.235212  0.000042  0.999836  1
  O  O13  1  0.764788  0.000042  0.999836  1
  O  O14  1  0.766046  0.501146  0.501057  1
  O  O15  1  0.233954  0.501146  0.501057  1
  O  O16  1  0.000000  0.353294  0.069111  1
  O  O17  1  0.000000  0.646699  0.930885  1
  O  O18  1  0.000000  0.146696  0.568984  1
  O  O19  1  0.000000  0.853277  0.431330  1
  O  O20  1  0.259523  0.104321  0.297609  1
  O  O21  1  0.739791  0.893806  0.702357  1
  O  O22  1  0.260209  0.893806  0.702357  1
  O  O23  1  0.739686  0.393909  0.797780  1
  O  O24  1  0.740477  0.104321  0.297609  1
  O  O25  1  0.259567  0.607111  0.201802  1
  O  O26  1  0.740433  0.607111  0.201802  1
  O  O27  1  0.260314  0.393909  0.797780  1
  O  O28  1  0.500000  0.341373  0.055101  1
  O  O29  1  0.500000  0.658666  0.943250  1
  O  O30  1  0.500000  0.157848  0.557235  1
  O  O31  1  0.500000  0.841135  0.443450  1
