# generated using pymatgen
data_Nd5Sm3(Ho3Sn4)4
_symmetry_space_group_name_H-M   'P 1'
_cell_length_a   8.09489384
_cell_length_b   8.25157283
_cell_length_c   15.56805097
_cell_angle_alpha   89.99787265
_cell_angle_beta   89.94235096
_cell_angle_gamma   90.05150343
_symmetry_Int_Tables_number   1
_chemical_formula_structural   Nd5Sm3(Ho3Sn4)4
_chemical_formula_sum   'Nd5 Sm3 Ho12 Sn16'
_cell_volume   1039.87645372
_cell_formula_units_Z   1
loop_
 _symmetry_equiv_pos_site_id
 _symmetry_equiv_pos_as_xyz
  1  'x, y, z'
loop_
 _atom_site_type_symbol
 _atom_site_label
 _atom_site_symmetry_multiplicity
 _atom_site_fract_x
 _atom_site_fract_y
 _atom_site_fract_z
 _atom_site_occupancy
  Nd  Nd0  1  0.517143  0.320569  0.902828  1
  Nd  Nd1  1  0.017453  0.179068  0.597104  1
  Nd  Nd2  1  0.482375  0.679148  0.402844  1
  Nd  Nd3  1  0.982560  0.821301  0.097031  1
  Nd  Nd4  1  0.482464  0.679290  0.097491  1
  Sm  Sm5  1  0.981613  0.821037  0.402444  1
  Sm  Sm6  1  0.518360  0.320832  0.597862  1
  Sm  Sm7  1  0.018331  0.179148  0.902016  1
  Ho  Ho8  1  0.364532  0.836002  0.877458  1
  Ho  Ho9  1  0.864991  0.664177  0.622502  1
  Ho  Ho10  1  0.635162  0.164290  0.377838  1
  Ho  Ho11  1  0.135273  0.335626  0.122624  1
  Ho  Ho12  1  0.635456  0.164063  0.122368  1
  Ho  Ho13  1  0.135087  0.335739  0.377673  1
  Ho  Ho14  1  0.364782  0.835879  0.622383  1
  Ho  Ho15  1  0.864402  0.664310  0.877357  1
  Ho  Ho16  1  0.197643  0.503185  0.749858  1
  Ho  Ho17  1  0.697735  0.996818  0.749999  1
  Ho  Ho18  1  0.802383  0.496596  0.250211  1
  Ho  Ho19  1  0.302194  0.003293  0.250266  1
  Sn  Sn20  1  0.298318  0.040060  0.041461  1
  Sn  Sn21  1  0.798588  0.461141  0.458370  1
  Sn  Sn22  1  0.701372  0.960753  0.541688  1
  Sn  Sn23  1  0.199797  0.538394  0.957800  1
  Sn  Sn24  1  0.702353  0.962074  0.957493  1
  Sn  Sn25  1  0.202139  0.538043  0.542407  1
  Sn  Sn26  1  0.297797  0.038156  0.457653  1
  Sn  Sn27  1  0.799698  0.460582  0.041935  1
  Sn  Sn28  1  0.563692  0.622491  0.749789  1
  Sn  Sn29  1  0.063861  0.877616  0.750133  1
  Sn  Sn30  1  0.436117  0.377002  0.249969  1
  Sn  Sn31  1  0.936144  0.122464  0.250208  1
  Sn  Sn32  1  0.326574  0.143158  0.749576  1
  Sn  Sn33  1  0.826451  0.356767  0.750390  1
  Sn  Sn34  1  0.674415  0.857730  0.250321  1
  Sn  Sn35  1  0.172743  0.643202  0.250649  1
