# generated using pymatgen
data_LiNb12Ga8Cu3N4
_symmetry_space_group_name_H-M   'P 1'
_cell_length_a   8.25339823
_cell_length_b   8.26560798
_cell_length_c   8.26560900
_cell_angle_alpha   59.99999993
_cell_angle_beta   59.95105101
_cell_angle_gamma   59.95105077
_symmetry_Int_Tables_number   1
_chemical_formula_structural   LiNb12Ga8Cu3N4
_chemical_formula_sum   'Li1 Nb12 Ga8 Cu3 N4'
_cell_volume   398.42423550
_cell_formula_units_Z   1
loop_
 _symmetry_equiv_pos_site_id
 _symmetry_equiv_pos_as_xyz
  1  'x, y, z'
loop_
 _atom_site_type_symbol
 _atom_site_label
 _atom_site_symmetry_multiplicity
 _atom_site_fract_x
 _atom_site_fract_y
 _atom_site_fract_z
 _atom_site_occupancy
  Li  Li0  1  0.125000  0.625000  0.625000  1
  Nb  Nb1  1  0.814922  0.814279  0.185399  1
  Nb  Nb2  1  0.186231  0.190416  0.811676  1
  Nb  Nb3  1  0.814922  0.185399  0.814279  1
  Nb  Nb4  1  0.186231  0.811676  0.190416  1
  Nb  Nb5  1  0.186231  0.811676  0.811676  1
  Nb  Nb6  1  0.814922  0.185399  0.185399  1
  Nb  Nb7  1  0.435078  0.435721  0.064601  1
  Nb  Nb8  1  0.063769  0.059584  0.438324  1
  Nb  Nb9  1  0.435078  0.064601  0.435721  1
  Nb  Nb10  1  0.063769  0.438324  0.059584  1
  Nb  Nb11  1  0.063769  0.438324  0.438324  1
  Nb  Nb12  1  0.435078  0.064601  0.064601  1
  Ga  Ga13  1  0.756358  0.414548  0.414548  1
  Ga  Ga14  1  0.412801  0.754465  0.416368  1
  Ga  Ga15  1  0.412801  0.416368  0.754465  1
  Ga  Ga16  1  0.412801  0.416368  0.416368  1
  Ga  Ga17  1  0.493642  0.835452  0.835452  1
  Ga  Ga18  1  0.837199  0.495535  0.833632  1
  Ga  Ga19  1  0.837199  0.833632  0.495535  1
  Ga  Ga20  1  0.837199  0.833632  0.833632  1
  Cu  Cu21  1  0.625000  0.125000  0.625000  1
  Cu  Cu22  1  0.625000  0.625000  0.125000  1
  Cu  Cu23  1  0.625000  0.625000  0.625000  1
  N  N24  1  0.625000  0.125000  0.125000  1
  N  N25  1  0.125000  0.625000  0.125000  1
  N  N26  1  0.125000  0.125000  0.625000  1
  N  N27  1  0.125000  0.125000  0.125000  1
