# generated using pymatgen
data_Li3Lu3InSiGe
_symmetry_space_group_name_H-M   'P 1'
_cell_length_a   7.10558400
_cell_length_b   7.10558515
_cell_length_c   4.15747500
_cell_angle_alpha   90.00000000
_cell_angle_beta   90.00000000
_cell_angle_gamma   120.00000397
_symmetry_Int_Tables_number   1
_chemical_formula_structural   Li3Lu3InSiGe
_chemical_formula_sum   'Li3 Lu3 In1 Si1 Ge1'
_cell_volume   181.78577106
_cell_formula_units_Z   1
loop_
 _symmetry_equiv_pos_site_id
 _symmetry_equiv_pos_as_xyz
  1  'x, y, z'
loop_
 _atom_site_type_symbol
 _atom_site_label
 _atom_site_symmetry_multiplicity
 _atom_site_fract_x
 _atom_site_fract_y
 _atom_site_fract_z
 _atom_site_occupancy
  Li  Li0  1  0.747608  0.746630  0.500000  1
  Li  Li1  1  0.253370  0.000978  0.500000  1
  Li  Li2  1  0.999022  0.252392  0.500000  1
  Lu  Lu3  1  0.443581  0.441788  0.000000  1
  Lu  Lu4  1  0.558212  0.001794  0.000000  1
  Lu  Lu5  1  0.998206  0.556419  0.000000  1
  In  In6  1  0.000000  0.000000  0.000000  1
  Si  Si7  1  0.666667  0.333333  0.500000  1
  Ge  Ge8  1  0.333333  0.666667  0.500000  1
