# generated using pymatgen
data_Er6Zn16AsPt7
_symmetry_space_group_name_H-M   'P 1'
_cell_length_a   9.01657388
_cell_length_b   9.01657474
_cell_length_c   9.01657500
_cell_angle_alpha   60.00000271
_cell_angle_beta   59.99999956
_cell_angle_gamma   60.00000710
_symmetry_Int_Tables_number   1
_chemical_formula_structural   Er6Zn16AsPt7
_chemical_formula_sum   'Er6 Zn16 As1 Pt7'
_cell_volume   518.33408077
_cell_formula_units_Z   1
loop_
 _symmetry_equiv_pos_site_id
 _symmetry_equiv_pos_as_xyz
  1  'x, y, z'
loop_
 _atom_site_type_symbol
 _atom_site_label
 _atom_site_symmetry_multiplicity
 _atom_site_fract_x
 _atom_site_fract_y
 _atom_site_fract_z
 _atom_site_occupancy
  Er  Er0  1  0.719432  0.280568  0.280568  1
  Er  Er1  1  0.719432  0.280568  0.719432  1
  Er  Er2  1  0.719432  0.719432  0.280568  1
  Er  Er3  1  0.280568  0.719432  0.719432  1
  Er  Er4  1  0.280568  0.719432  0.280568  1
  Er  Er5  1  0.280568  0.280568  0.719432  1
  Zn  Zn6  1  0.631922  0.122693  0.122693  1
  Zn  Zn7  1  0.122693  0.631922  0.122693  1
  Zn  Zn8  1  0.122693  0.122693  0.631922  1
  Zn  Zn9  1  0.122693  0.122693  0.122693  1
  Zn  Zn10  1  0.368078  0.877307  0.877307  1
  Zn  Zn11  1  0.877307  0.368078  0.877307  1
  Zn  Zn12  1  0.877307  0.877307  0.368078  1
  Zn  Zn13  1  0.877307  0.877307  0.877307  1
  Zn  Zn14  1  0.000571  0.333142  0.333142  1
  Zn  Zn15  1  0.333142  0.000571  0.333142  1
  Zn  Zn16  1  0.333142  0.333142  0.000571  1
  Zn  Zn17  1  0.333142  0.333142  0.333142  1
  Zn  Zn18  1  0.999429  0.666858  0.666858  1
  Zn  Zn19  1  0.666858  0.999429  0.666858  1
  Zn  Zn20  1  0.666858  0.666858  0.999429  1
  Zn  Zn21  1  0.666858  0.666858  0.666858  1
  As  As22  1  0.500000  0.500000  0.500000  1
  Pt  Pt23  1  0.500000  0.000000  0.000000  1
  Pt  Pt24  1  0.500000  0.000000  0.500000  1
  Pt  Pt25  1  0.500000  0.500000  0.000000  1
  Pt  Pt26  1  0.000000  0.500000  0.500000  1
  Pt  Pt27  1  0.000000  0.500000  0.000000  1
  Pt  Pt28  1  0.000000  0.000000  0.500000  1
  Pt  Pt29  1  0.000000  0.000000  0.000000  1
