# generated using pymatgen
data_Tb3Lu5In3Fe
_symmetry_space_group_name_H-M   'P 1'
_cell_length_a   10.15237984
_cell_length_b   10.15245699
_cell_length_c   7.09211819
_cell_angle_alpha   90.19039120
_cell_angle_beta   89.81167014
_cell_angle_gamma   119.91141185
_symmetry_Int_Tables_number   1
_chemical_formula_structural   Tb3Lu5In3Fe
_chemical_formula_sum   'Tb6 Lu10 In6 Fe2'
_cell_volume   633.62081829
_cell_formula_units_Z   2
loop_
 _symmetry_equiv_pos_site_id
 _symmetry_equiv_pos_as_xyz
  1  'x, y, z'
loop_
 _atom_site_type_symbol
 _atom_site_label
 _atom_site_symmetry_multiplicity
 _atom_site_fract_x
 _atom_site_fract_y
 _atom_site_fract_z
 _atom_site_occupancy
  Tb  Tb0  1  0.536269  0.463726  0.785603  1
  Tb  Tb1  1  0.465594  0.930658  0.286251  1
  Tb  Tb2  1  0.069356  0.534406  0.286274  1
  Tb  Tb3  1  0.464923  0.535062  0.285154  1
  Tb  Tb4  1  0.999950  0.000029  0.773167  1
  Tb  Tb5  1  0.999510  0.000494  0.273482  1
  Lu  Lu6  1  0.820429  0.639853  0.491263  1
  Lu  Lu7  1  0.360143  0.179575  0.491259  1
  Lu  Lu8  1  0.818877  0.181132  0.492452  1
  Lu  Lu9  1  0.179292  0.359559  0.988545  1
  Lu  Lu10  1  0.640433  0.820701  0.988519  1
  Lu  Lu11  1  0.180744  0.819241  0.987667  1
  Lu  Lu12  1  0.667013  0.332977  0.180543  1
  Lu  Lu13  1  0.332618  0.667383  0.682349  1
  Lu  Lu14  1  0.536265  0.072124  0.787853  1
  Lu  Lu15  1  0.927870  0.463731  0.787860  1
  In  In16  1  0.837037  0.671959  0.038842  1
  In  In17  1  0.328050  0.162963  0.038811  1
  In  In18  1  0.835670  0.164319  0.038537  1
  In  In19  1  0.162896  0.326997  0.539936  1
  In  In20  1  0.673033  0.837129  0.539856  1
  In  In21  1  0.163478  0.836522  0.539500  1
  Fe  Fe22  1  0.667117  0.332839  0.562097  1
  Fe  Fe23  1  0.333432  0.666619  0.060254  1
