# generated using pymatgen
data_Ta9BeNiS6
_symmetry_space_group_name_H-M   'P 1'
_cell_length_a   10.11061100
_cell_length_b   10.11061077
_cell_length_c   3.42257700
_cell_angle_alpha   90.00000000
_cell_angle_beta   90.00000000
_cell_angle_gamma   119.99999747
_symmetry_Int_Tables_number   1
_chemical_formula_structural   Ta9BeNiS6
_chemical_formula_sum   'Ta9 Be1 Ni1 S6'
_cell_volume   302.99723368
_cell_formula_units_Z   1
loop_
 _symmetry_equiv_pos_site_id
 _symmetry_equiv_pos_as_xyz
  1  'x, y, z'
loop_
 _atom_site_type_symbol
 _atom_site_label
 _atom_site_symmetry_multiplicity
 _atom_site_fract_x
 _atom_site_fract_y
 _atom_site_fract_z
 _atom_site_occupancy
  Ta  Ta0  1  0.550739  0.541288  0.000000  1
  Ta  Ta1  1  0.458712  0.009449  0.000000  1
  Ta  Ta2  1  0.990551  0.449261  0.000000  1
  Ta  Ta3  1  0.800045  0.533875  0.500000  1
  Ta  Ta4  1  0.466125  0.266169  0.500000  1
  Ta  Ta5  1  0.733831  0.199955  0.500000  1
  Ta  Ta6  1  0.538315  0.805871  0.500000  1
  Ta  Ta7  1  0.267555  0.461685  0.500000  1
  Ta  Ta8  1  0.194129  0.732445  0.500000  1
  Be  Be9  1  0.666667  0.333333  0.000000  1
  Ni  Ni10  1  0.333333  0.666667  0.000000  1
  S  S11  1  0.728441  0.729363  0.500000  1
  S  S12  1  0.270637  0.999077  0.500000  1
  S  S13  1  0.000923  0.271559  0.500000  1
  S  S14  1  0.296053  0.293494  0.000000  1
  S  S15  1  0.706506  0.002559  0.000000  1
  S  S16  1  0.997441  0.703947  0.000000  1
