# generated using pymatgen
data_Ho6Al21Fe2(SiOs2)3
_symmetry_space_group_name_H-M   'P 1'
_cell_length_a   8.68729700
_cell_length_b   8.68729734
_cell_length_c   9.54857900
_cell_angle_alpha   90.00000000
_cell_angle_beta   90.00000000
_cell_angle_gamma   120.00000250
_symmetry_Int_Tables_number   1
_chemical_formula_structural   Ho6Al21Fe2(SiOs2)3
_chemical_formula_sum   'Ho6 Al21 Fe2 Si3 Os6'
_cell_volume   624.07778318
_cell_formula_units_Z   1
loop_
 _symmetry_equiv_pos_site_id
 _symmetry_equiv_pos_as_xyz
  1  'x, y, z'
loop_
 _atom_site_type_symbol
 _atom_site_label
 _atom_site_symmetry_multiplicity
 _atom_site_fract_x
 _atom_site_fract_y
 _atom_site_fract_z
 _atom_site_occupancy
  Ho  Ho0  1  0.195721  0.391441  0.248398  1
  Ho  Ho1  1  0.804032  0.608064  0.752337  1
  Ho  Ho2  1  0.608559  0.804279  0.248398  1
  Ho  Ho3  1  0.391936  0.195968  0.752337  1
  Ho  Ho4  1  0.195721  0.804279  0.248398  1
  Ho  Ho5  1  0.804032  0.195968  0.752337  1
  Al  Al6  1  0.333333  0.666667  0.482023  1
  Al  Al7  1  0.160027  0.320054  0.574228  1
  Al  Al8  1  0.839204  0.678408  0.423432  1
  Al  Al9  1  0.679946  0.839973  0.574228  1
  Al  Al10  1  0.839012  0.678025  0.076575  1
  Al  Al11  1  0.321592  0.160796  0.423432  1
  Al  Al12  1  0.161168  0.322335  0.922970  1
  Al  Al13  1  0.160027  0.839973  0.574228  1
  Al  Al14  1  0.321975  0.160988  0.076575  1
  Al  Al15  1  0.839204  0.160796  0.423432  1
  Al  Al16  1  0.677665  0.838832  0.922970  1
  Al  Al17  1  0.839012  0.160988  0.076575  1
  Al  Al18  1  0.161168  0.838832  0.922970  1
  Al  Al19  1  0.563763  0.127527  0.248558  1
  Al  Al20  1  0.437087  0.874172  0.748275  1
  Al  Al21  1  0.872473  0.436237  0.248558  1
  Al  Al22  1  0.125828  0.562913  0.748275  1
  Al  Al23  1  0.563763  0.436237  0.248558  1
  Al  Al24  1  0.437087  0.562913  0.748275  1
  Al  Al25  1  0.000000  0.000000  0.249392  1
  Al  Al26  1  0.000000  0.000000  0.749328  1
  Fe  Fe27  1  0.000000  0.000000  0.999207  1
  Fe  Fe28  1  0.000000  0.000000  0.499166  1
  Si  Si29  1  0.333333  0.666667  0.034400  1
  Si  Si30  1  0.666667  0.333333  0.965546  1
  Si  Si31  1  0.666667  0.333333  0.537501  1
  Os  Os32  1  0.499674  0.999348  0.998664  1
  Os  Os33  1  0.000652  0.500326  0.998664  1
  Os  Os34  1  0.504374  0.008749  0.501040  1
  Os  Os35  1  0.499674  0.500326  0.998664  1
  Os  Os36  1  0.991251  0.495626  0.501040  1
  Os  Os37  1  0.504374  0.495626  0.501040  1
