# generated using pymatgen
data_Cs8Tm(UTe4)3
_symmetry_space_group_name_H-M   'P 1'
_cell_length_a   14.99105559
_cell_length_b   7.49988768
_cell_length_c   10.06843000
_cell_angle_alpha   71.46392439
_cell_angle_beta   89.98390557
_cell_angle_gamma   89.98547926
_symmetry_Int_Tables_number   1
_chemical_formula_structural   Cs8Tm(UTe4)3
_chemical_formula_sum   'Cs8 Tm1 U3 Te12'
_cell_volume   1073.28163670
_cell_formula_units_Z   1
loop_
 _symmetry_equiv_pos_site_id
 _symmetry_equiv_pos_as_xyz
  1  'x, y, z'
loop_
 _atom_site_type_symbol
 _atom_site_label
 _atom_site_symmetry_multiplicity
 _atom_site_fract_x
 _atom_site_fract_y
 _atom_site_fract_z
 _atom_site_occupancy
  Cs  Cs0  1  0.944882  0.665350  0.669180  1
  Cs  Cs1  1  0.455089  0.833002  0.328119  1
  Cs  Cs2  1  0.046542  0.335302  0.327059  1
  Cs  Cs3  1  0.554169  0.167998  0.671544  1
  Cs  Cs4  1  0.869600  0.077796  0.898162  1
  Cs  Cs5  1  0.374288  0.415123  0.103009  1
  Cs  Cs6  1  0.125685  0.916890  0.103009  1
  Cs  Cs7  1  0.629502  0.588816  0.899302  1
  Tm  Tm8  1  0.750616  0.658275  0.292440  1
  U  U9  1  0.250191  0.841694  0.706203  1
  U  U10  1  0.249629  0.341525  0.706243  1
  U  U11  1  0.749643  0.157808  0.294599  1
  Te  Te12  1  0.908860  0.914600  0.285760  1
  Te  Te13  1  0.410280  0.588372  0.713744  1
  Te  Te14  1  0.089837  0.089294  0.713299  1
  Te  Te15  1  0.591050  0.408765  0.286739  1
  Te  Te16  1  0.819548  0.309275  0.516898  1
  Te  Te17  1  0.320512  0.187860  0.482228  1
  Te  Te18  1  0.179641  0.687612  0.481727  1
  Te  Te19  1  0.681111  0.815736  0.517532  1
  Te  Te20  1  0.843262  0.494341  0.081764  1
  Te  Te21  1  0.342856  0.000442  0.919619  1
  Te  Te22  1  0.156833  0.500135  0.919362  1
  Te  Te23  1  0.656375  0.003991  0.082460  1
