# generated using pymatgen
data_Sr21Ga8Sn6I
_symmetry_space_group_name_H-M   'P 1'
_cell_length_a   12.18235260
_cell_length_b   12.18235327
_cell_length_c   12.18235300
_cell_angle_alpha   60.00000346
_cell_angle_beta   60.00000162
_cell_angle_gamma   59.99999979
_symmetry_Int_Tables_number   1
_chemical_formula_structural   Sr21Ga8Sn6I
_chemical_formula_sum   'Sr21 Ga8 Sn6 I1'
_cell_volume   1278.43470721
_cell_formula_units_Z   1
loop_
 _symmetry_equiv_pos_site_id
 _symmetry_equiv_pos_as_xyz
  1  'x, y, z'
loop_
 _atom_site_type_symbol
 _atom_site_label
 _atom_site_symmetry_multiplicity
 _atom_site_fract_x
 _atom_site_fract_y
 _atom_site_fract_z
 _atom_site_occupancy
  Sr  Sr0  1  0.869503  0.869503  0.391490  1
  Sr  Sr1  1  0.608510  0.130497  0.130497  1
  Sr  Sr2  1  0.869503  0.391490  0.869503  1
  Sr  Sr3  1  0.130497  0.130497  0.130497  1
  Sr  Sr4  1  0.391490  0.869503  0.869503  1
  Sr  Sr5  1  0.869503  0.869503  0.869503  1
  Sr  Sr6  1  0.166656  0.833344  0.500000  1
  Sr  Sr7  1  0.833344  0.500000  0.500000  1
  Sr  Sr8  1  0.130497  0.130497  0.608510  1
  Sr  Sr9  1  0.833344  0.166656  0.500000  1
  Sr  Sr10  1  0.166656  0.500000  0.500000  1
  Sr  Sr11  1  0.130497  0.608510  0.130497  1
  Sr  Sr12  1  0.500000  0.500000  0.166656  1
  Sr  Sr13  1  0.500000  0.166656  0.833344  1
  Sr  Sr14  1  0.500000  0.833344  0.166656  1
  Sr  Sr15  1  0.500000  0.500000  0.833344  1
  Sr  Sr16  1  0.500000  0.166656  0.500000  1
  Sr  Sr17  1  0.166656  0.500000  0.833344  1
  Sr  Sr18  1  0.000000  0.000000  0.000000  1
  Sr  Sr19  1  0.500000  0.833344  0.500000  1
  Sr  Sr20  1  0.833344  0.500000  0.166656  1
  Ga  Ga21  1  0.693432  0.919706  0.693432  1
  Ga  Ga22  1  0.693432  0.693432  0.919706  1
  Ga  Ga23  1  0.693432  0.693432  0.693432  1
  Ga  Ga24  1  0.306568  0.080294  0.306568  1
  Ga  Ga25  1  0.919706  0.693432  0.693432  1
  Ga  Ga26  1  0.306568  0.306568  0.080294  1
  Ga  Ga27  1  0.080294  0.306568  0.306568  1
  Ga  Ga28  1  0.306568  0.306568  0.306568  1
  Sn  Sn29  1  0.783483  0.216517  0.783483  1
  Sn  Sn30  1  0.783483  0.216517  0.216517  1
  Sn  Sn31  1  0.216517  0.783483  0.216517  1
  Sn  Sn32  1  0.216517  0.783483  0.783483  1
  Sn  Sn33  1  0.783483  0.783483  0.216517  1
  Sn  Sn34  1  0.216517  0.216517  0.783483  1
  I  I35  1  0.500000  0.500000  0.500000  1
