# generated using pymatgen
data_YbSm3(Sc3Sn4)2
_symmetry_space_group_name_H-M   'P 1'
_cell_length_a   7.75912726
_cell_length_b   7.99244555
_cell_length_c   14.94273600
_cell_angle_alpha   90.06795969
_cell_angle_beta   89.85093282
_cell_angle_gamma   90.09493296
_symmetry_Int_Tables_number   1
_chemical_formula_structural   YbSm3(Sc3Sn4)2
_chemical_formula_sum   'Yb2 Sm6 Sc12 Sn16'
_cell_volume   926.65978434
_cell_formula_units_Z   2
loop_
 _symmetry_equiv_pos_site_id
 _symmetry_equiv_pos_as_xyz
  1  'x, y, z'
loop_
 _atom_site_type_symbol
 _atom_site_label
 _atom_site_symmetry_multiplicity
 _atom_site_fract_x
 _atom_site_fract_y
 _atom_site_fract_z
 _atom_site_occupancy
  Yb  Yb0  1  0.490168  0.324266  0.406760  1
  Yb  Yb1  1  0.509832  0.675734  0.593240  1
  Sm  Sm2  1  0.994222  0.175219  0.095473  1
  Sm  Sm3  1  0.005778  0.824781  0.904527  1
  Sm  Sm4  1  0.504758  0.675666  0.906123  1
  Sm  Sm5  1  0.005506  0.823556  0.594389  1
  Sm  Sm6  1  0.495242  0.324334  0.093877  1
  Sm  Sm7  1  0.994494  0.176444  0.405611  1
  Sc  Sc8  1  0.170064  0.496353  0.749141  1
  Sc  Sc9  1  0.829936  0.503647  0.250859  1
  Sc  Sc10  1  0.330487  0.995410  0.250355  1
  Sc  Sc11  1  0.669513  0.004590  0.749645  1
  Sc  Sc12  1  0.339214  0.162233  0.627352  1
  Sc  Sc13  1  0.660786  0.837767  0.372648  1
  Sc  Sc14  1  0.161093  0.660156  0.373665  1
  Sc  Sc15  1  0.660685  0.839003  0.127680  1
  Sc  Sc16  1  0.838907  0.339844  0.626335  1
  Sc  Sc17  1  0.339315  0.160997  0.872320  1
  Sc  Sc18  1  0.838187  0.338351  0.872337  1
  Sc  Sc19  1  0.161813  0.661649  0.127663  1
  Sn  Sn20  1  0.032268  0.127314  0.748894  1
  Sn  Sn21  1  0.967732  0.872686  0.251106  1
  Sn  Sn22  1  0.467764  0.626424  0.249802  1
  Sn  Sn23  1  0.532236  0.373576  0.750198  1
  Sn  Sn24  1  0.311570  0.852435  0.748935  1
  Sn  Sn25  1  0.688430  0.147565  0.251065  1
  Sn  Sn26  1  0.190377  0.353711  0.250049  1
  Sn  Sn27  1  0.809623  0.646289  0.749951  1
  Sn  Sn28  1  0.177805  0.458599  0.542898  1
  Sn  Sn29  1  0.822195  0.541401  0.457102  1
  Sn  Sn30  1  0.323644  0.956545  0.456809  1
  Sn  Sn31  1  0.823516  0.544434  0.042802  1
  Sn  Sn32  1  0.676356  0.043455  0.543191  1
  Sn  Sn33  1  0.176484  0.455566  0.957198  1
  Sn  Sn34  1  0.678578  0.044097  0.957412  1
  Sn  Sn35  1  0.321422  0.955903  0.042588  1
