# generated using pymatgen
data_NiAg2Pd3O8
_symmetry_space_group_name_H-M   'P 1'
_cell_length_a   6.22381120
_cell_length_b   6.23991010
_cell_length_c   6.24977200
_cell_angle_alpha   60.03645629
_cell_angle_beta   59.71396336
_cell_angle_gamma   59.91091758
_symmetry_Int_Tables_number   1
_chemical_formula_structural   NiAg2Pd3O8
_chemical_formula_sum   'Ni1 Ag2 Pd3 O8'
_cell_volume   171.18398884
_cell_formula_units_Z   1
loop_
 _symmetry_equiv_pos_site_id
 _symmetry_equiv_pos_as_xyz
  1  'x, y, z'
loop_
 _atom_site_type_symbol
 _atom_site_label
 _atom_site_symmetry_multiplicity
 _atom_site_fract_x
 _atom_site_fract_y
 _atom_site_fract_z
 _atom_site_occupancy
  Ni  Ni0  1  0.000113  0.499638  0.500097  1
  Ag  Ag1  1  0.136849  0.120967  0.121426  1
  Ag  Ag2  1  0.863122  0.879093  0.878560  1
  Pd  Pd3  1  0.499955  0.500011  0.499916  1
  Pd  Pd4  1  0.500003  0.000114  0.499946  1
  Pd  Pd5  1  0.499957  0.500022  0.000115  1
  O  O6  1  0.271520  0.267725  0.693052  1
  O  O7  1  0.726518  0.733874  0.732574  1
  O  O8  1  0.728506  0.732314  0.306939  1
  O  O9  1  0.273462  0.692964  0.267390  1
  O  O10  1  0.273504  0.266161  0.267379  1
  O  O11  1  0.302791  0.732010  0.733167  1
  O  O12  1  0.726566  0.307024  0.732605  1
  O  O13  1  0.697139  0.268081  0.266830  1
