# generated using pymatgen
data_TmHfCo6(Ni2P3)2
_symmetry_space_group_name_H-M   'P 1'
_cell_length_a   3.62656300
_cell_length_b   10.16014500
_cell_length_c   11.78912700
_cell_angle_alpha   90.00000000
_cell_angle_beta   90.00000000
_cell_angle_gamma   90.00000000
_symmetry_Int_Tables_number   1
_chemical_formula_structural   TmHfCo6(Ni2P3)2
_chemical_formula_sum   'Tm2 Hf2 Co12 Ni8 P12'
_cell_volume   434.38695902
_cell_formula_units_Z   2
loop_
 _symmetry_equiv_pos_site_id
 _symmetry_equiv_pos_as_xyz
  1  'x, y, z'
loop_
 _atom_site_type_symbol
 _atom_site_label
 _atom_site_symmetry_multiplicity
 _atom_site_fract_x
 _atom_site_fract_y
 _atom_site_fract_z
 _atom_site_occupancy
  Tm  Tm0  1  0.750000  0.419270  0.293959  1
  Tm  Tm1  1  0.750000  0.080730  0.793959  1
  Hf  Hf2  1  0.250000  0.579171  0.705931  1
  Hf  Hf3  1  0.250000  0.920829  0.205931  1
  Co  Co4  1  0.250000  0.220623  0.176916  1
  Co  Co5  1  0.250000  0.279377  0.676916  1
  Co  Co6  1  0.750000  0.777046  0.822589  1
  Co  Co7  1  0.750000  0.722954  0.322589  1
  Co  Co8  1  0.250000  0.878258  0.697680  1
  Co  Co9  1  0.250000  0.621742  0.197680  1
  Co  Co10  1  0.750000  0.116877  0.300557  1
  Co  Co11  1  0.750000  0.383123  0.800557  1
  Co  Co12  1  0.250000  0.469392  0.929959  1
  Co  Co13  1  0.250000  0.030608  0.429959  1
  Co  Co14  1  0.750000  0.536618  0.065940  1
  Co  Co15  1  0.750000  0.963382  0.565940  1
  Ni  Ni16  1  0.250000  0.716774  0.991797  1
  Ni  Ni17  1  0.250000  0.783226  0.491797  1
  Ni  Ni18  1  0.750000  0.285925  0.010738  1
  Ni  Ni19  1  0.750000  0.214075  0.510738  1
  Ni  Ni20  1  0.250000  0.410307  0.484865  1
  Ni  Ni21  1  0.250000  0.089693  0.984865  1
  Ni  Ni22  1  0.750000  0.591464  0.520436  1
  Ni  Ni23  1  0.750000  0.908536  0.020436  1
  P  P24  1  0.250000  0.420773  0.112396  1
  P  P25  1  0.250000  0.079227  0.612396  1
  P  P26  1  0.750000  0.580596  0.883117  1
  P  P27  1  0.750000  0.919404  0.383117  1
  P  P28  1  0.250000  0.270052  0.866598  1
  P  P29  1  0.250000  0.229948  0.366598  1
  P  P30  1  0.750000  0.733817  0.135635  1
  P  P31  1  0.750000  0.766183  0.635635  1
  P  P32  1  0.250000  0.604113  0.386677  1
  P  P33  1  0.250000  0.895887  0.886677  1
  P  P34  1  0.750000  0.397778  0.614210  1
  P  P35  1  0.750000  0.102222  0.114210  1
