# generated using pymatgen
data_Dy2YZnCd3Ga2
_symmetry_space_group_name_H-M   'P 1'
_cell_length_a   7.34733600
_cell_length_b   7.34733546
_cell_length_c   4.30221300
_cell_angle_alpha   90.00000000
_cell_angle_beta   90.00000000
_cell_angle_gamma   120.00175706
_symmetry_Int_Tables_number   1
_chemical_formula_structural   Dy2YZnCd3Ga2
_chemical_formula_sum   'Dy2 Y1 Zn1 Cd3 Ga2'
_cell_volume   201.12896579
_cell_formula_units_Z   1
loop_
 _symmetry_equiv_pos_site_id
 _symmetry_equiv_pos_as_xyz
  1  'x, y, z'
loop_
 _atom_site_type_symbol
 _atom_site_label
 _atom_site_symmetry_multiplicity
 _atom_site_fract_x
 _atom_site_fract_y
 _atom_site_fract_z
 _atom_site_occupancy
  Dy  Dy0  1  0.578231  0.000000  0.500000  1
  Dy  Dy1  1  0.000000  0.578231  0.500000  1
  Y  Y2  1  0.421768  0.421768  0.500000  1
  Zn  Zn3  1  0.999968  0.999968  0.500000  1
  Cd  Cd4  1  0.752614  0.752614  0.000000  1
  Cd  Cd5  1  0.247406  0.999982  0.000000  1
  Cd  Cd6  1  0.999982  0.247406  0.000000  1
  Ga  Ga7  1  0.666707  0.333325  0.000000  1
  Ga  Ga8  1  0.333325  0.666707  0.000000  1
