# generated using pymatgen
data_YbTmB6Os
_symmetry_space_group_name_H-M   'P 1'
_cell_length_a   3.61521000
_cell_length_b   9.11971500
_cell_length_c   11.50139900
_cell_angle_alpha   90.00000000
_cell_angle_beta   90.00000000
_cell_angle_gamma   90.00000000
_symmetry_Int_Tables_number   1
_chemical_formula_structural   YbTmB6Os
_chemical_formula_sum   'Yb4 Tm4 B24 Os4'
_cell_volume   379.19750054
_cell_formula_units_Z   4
loop_
 _symmetry_equiv_pos_site_id
 _symmetry_equiv_pos_as_xyz
  1  'x, y, z'
loop_
 _atom_site_type_symbol
 _atom_site_label
 _atom_site_symmetry_multiplicity
 _atom_site_fract_x
 _atom_site_fract_y
 _atom_site_fract_z
 _atom_site_occupancy
  Yb  Yb0  1  0.000000  0.324095  0.414765  1
  Yb  Yb1  1  0.000000  0.675905  0.585235  1
  Yb  Yb2  1  0.000000  0.824095  0.085235  1
  Yb  Yb3  1  0.000000  0.175905  0.914765  1
  Tm  Tm4  1  0.000000  0.942722  0.368536  1
  Tm  Tm5  1  0.000000  0.057278  0.631465  1
  Tm  Tm6  1  0.000000  0.442722  0.131464  1
  Tm  Tm7  1  0.000000  0.557278  0.868535  1
  B  B8  1  0.500000  0.553913  0.433082  1
  B  B9  1  0.500000  0.446087  0.566918  1
  B  B10  1  0.500000  0.053913  0.066918  1
  B  B11  1  0.500000  0.946087  0.933082  1
  B  B12  1  0.500000  0.749124  0.417642  1
  B  B13  1  0.500000  0.250876  0.582358  1
  B  B14  1  0.500000  0.249124  0.082358  1
  B  B15  1  0.500000  0.750876  0.917642  1
  B  B16  1  0.500000  0.791573  0.264309  1
  B  B17  1  0.500000  0.208427  0.735691  1
  B  B18  1  0.500000  0.291572  0.235691  1
  B  B19  1  0.500000  0.708427  0.764309  1
  B  B20  1  0.500000  0.630971  0.185423  1
  B  B21  1  0.500000  0.369029  0.814577  1
  B  B22  1  0.500000  0.130971  0.314577  1
  B  B23  1  0.500000  0.869029  0.685423  1
  B  B24  1  0.500000  0.982805  0.211414  1
  B  B25  1  0.500000  0.017195  0.788586  1
  B  B26  1  0.500000  0.482805  0.288586  1
  B  B27  1  0.500000  0.517195  0.711414  1
  B  B28  1  0.500000  0.596963  0.026739  1
  B  B29  1  0.500000  0.403037  0.973261  1
  B  B30  1  0.500000  0.096963  0.473261  1
  B  B31  1  0.500000  0.903037  0.526739  1
  Os  Os32  1  0.000000  0.639135  0.320165  1
  Os  Os33  1  0.000000  0.360865  0.679835  1
  Os  Os34  1  0.000000  0.139135  0.179835  1
  Os  Os35  1  0.000000  0.860865  0.820165  1
