# generated using pymatgen
data_SbOsI18
_symmetry_space_group_name_H-M   'P 1'
_cell_length_a   10.19678356
_cell_length_b   10.21058378
_cell_length_c   10.19417627
_cell_angle_alpha   89.34941905
_cell_angle_beta   89.48079560
_cell_angle_gamma   89.32482452
_symmetry_Int_Tables_number   1
_chemical_formula_structural   SbOsI18
_chemical_formula_sum   'Sb1 Os1 I18'
_cell_volume   1061.18339921
_cell_formula_units_Z   1
loop_
 _symmetry_equiv_pos_site_id
 _symmetry_equiv_pos_as_xyz
  1  'x, y, z'
loop_
 _atom_site_type_symbol
 _atom_site_label
 _atom_site_symmetry_multiplicity
 _atom_site_fract_x
 _atom_site_fract_y
 _atom_site_fract_z
 _atom_site_occupancy
  Sb  Sb0  1  0.000000  0.000000  0.000000  1
  Os  Os1  1  0.500000  0.500000  0.500000  1
  I  I2  1  0.763637  0.488392  0.501457  1
  I  I3  1  0.500707  0.763291  0.488049  1
  I  I4  1  0.488044  0.500952  0.763422  1
  I  I5  1  0.236363  0.511608  0.498543  1
  I  I6  1  0.499293  0.236709  0.511951  1
  I  I7  1  0.511956  0.499048  0.236578  1
  I  I8  1  0.879396  0.384450  0.743455  1
  I  I9  1  0.742646  0.878848  0.384148  1
  I  I10  1  0.384487  0.742787  0.879051  1
  I  I11  1  0.120604  0.615550  0.256545  1
  I  I12  1  0.257354  0.121152  0.615852  1
  I  I13  1  0.615513  0.257213  0.120949  1
  I  I14  1  0.020768  0.973863  0.700628  1
  I  I15  1  0.700371  0.021247  0.973076  1
  I  I16  1  0.973095  0.700773  0.019946  1
  I  I17  1  0.979232  0.026137  0.299372  1
  I  I18  1  0.299629  0.978753  0.026924  1
  I  I19  1  0.026905  0.299227  0.980054  1
