# generated using pymatgen
data_Al6Cu2PdRh
_symmetry_space_group_name_H-M   'P 1'
_cell_length_a   4.20277300
_cell_length_b   4.20277172
_cell_length_c   10.10453700
_cell_angle_alpha   90.00000000
_cell_angle_beta   90.00000000
_cell_angle_gamma   120.00000217
_symmetry_Int_Tables_number   1
_chemical_formula_structural   Al6Cu2PdRh
_chemical_formula_sum   'Al6 Cu2 Pd1 Rh1'
_cell_volume   154.56771117
_cell_formula_units_Z   1
loop_
 _symmetry_equiv_pos_site_id
 _symmetry_equiv_pos_as_xyz
  1  'x, y, z'
loop_
 _atom_site_type_symbol
 _atom_site_label
 _atom_site_symmetry_multiplicity
 _atom_site_fract_x
 _atom_site_fract_y
 _atom_site_fract_z
 _atom_site_occupancy
  Al  Al0  1  0.666667  0.333333  0.182922  1
  Al  Al1  1  0.666667  0.333333  0.676686  1
  Al  Al2  1  0.000000  0.000000  0.324900  1
  Al  Al3  1  0.000000  0.000000  0.821712  1
  Al  Al4  1  0.333333  0.666667  0.000221  1
  Al  Al5  1  0.333333  0.666667  0.481002  1
  Cu  Cu6  1  0.000000  0.000000  0.077979  1
  Cu  Cu7  1  0.000000  0.000000  0.578045  1
  Pd  Pd8  1  0.666667  0.333333  0.927315  1
  Rh  Rh9  1  0.666667  0.333333  0.429215  1
