# generated using pymatgen
data_Nd8Gd12Si15Au
_symmetry_space_group_name_H-M   'P 1'
_cell_length_a   7.55277014
_cell_length_b   7.80107252
_cell_length_c   14.83833200
_cell_angle_alpha   89.95516120
_cell_angle_beta   89.65980107
_cell_angle_gamma   90.22656107
_symmetry_Int_Tables_number   1
_chemical_formula_structural   Nd8Gd12Si15Au
_chemical_formula_sum   'Nd8 Gd12 Si15 Au1'
_cell_volume   874.24765235
_cell_formula_units_Z   1
loop_
 _symmetry_equiv_pos_site_id
 _symmetry_equiv_pos_as_xyz
  1  'x, y, z'
loop_
 _atom_site_type_symbol
 _atom_site_label
 _atom_site_symmetry_multiplicity
 _atom_site_fract_x
 _atom_site_fract_y
 _atom_site_fract_z
 _atom_site_occupancy
  Nd  Nd0  1  0.977797  0.821599  0.098823  1
  Nd  Nd1  1  0.472112  0.682659  0.401567  1
  Nd  Nd2  1  0.518761  0.317812  0.899524  1
  Nd  Nd3  1  0.028031  0.180468  0.599275  1
  Nd  Nd4  1  0.029540  0.176951  0.900233  1
  Nd  Nd5  1  0.527222  0.317298  0.598474  1
  Nd  Nd6  1  0.475206  0.682485  0.101029  1
  Nd  Nd7  1  0.970919  0.817006  0.400652  1
  Gd  Gd8  1  0.647168  0.992244  0.249910  1
  Gd  Gd9  1  0.148009  0.510746  0.248507  1
  Gd  Gd10  1  0.846606  0.491746  0.751557  1
  Gd  Gd11  1  0.353384  0.007539  0.749298  1
  Gd  Gd12  1  0.674926  0.824253  0.877273  1
  Gd  Gd13  1  0.180374  0.681665  0.621363  1
  Gd  Gd14  1  0.822809  0.323571  0.123315  1
  Gd  Gd15  1  0.317936  0.179391  0.377387  1
  Gd  Gd16  1  0.322494  0.178107  0.124280  1
  Gd  Gd17  1  0.818884  0.320239  0.377614  1
  Gd  Gd18  1  0.181271  0.678007  0.878187  1
  Gd  Gd19  1  0.683484  0.820774  0.621278  1
  Si  Si20  1  0.762702  0.621497  0.251010  1
  Si  Si21  1  0.262045  0.878551  0.251610  1
  Si  Si22  1  0.738424  0.121272  0.748730  1
  Si  Si23  1  0.233207  0.380190  0.747851  1
  Si  Si24  1  0.025887  0.105755  0.250456  1
  Si  Si25  1  0.527424  0.395743  0.251331  1
  Si  Si26  1  0.471088  0.606523  0.747494  1
  Si  Si27  1  0.973244  0.892774  0.748881  1
  Si  Si28  1  0.358061  0.971710  0.539851  1
  Si  Si29  1  0.645165  0.031251  0.040209  1
  Si  Si30  1  0.143310  0.468764  0.460978  1
  Si  Si31  1  0.158387  0.466777  0.041175  1
  Si  Si32  1  0.641221  0.030137  0.459664  1
  Si  Si33  1  0.356246  0.968986  0.962176  1
  Si  Si34  1  0.858974  0.527233  0.539603  1
  Au  Au35  1  0.847681  0.528274  0.959436  1
