# generated using pymatgen
data_Hf6TaMn4ReN2
_symmetry_space_group_name_H-M   'P 1'
_cell_length_a   8.40129438
_cell_length_b   8.40129334
_cell_length_c   8.42175700
_cell_angle_alpha   59.91939638
_cell_angle_beta   59.91940050
_cell_angle_gamma   59.83759299
_symmetry_Int_Tables_number   1
_chemical_formula_structural   Hf6TaMn4ReN2
_chemical_formula_sum   'Hf12 Ta2 Mn8 Re2 N4'
_cell_volume   419.29076767
_cell_formula_units_Z   2
loop_
 _symmetry_equiv_pos_site_id
 _symmetry_equiv_pos_as_xyz
  1  'x, y, z'
loop_
 _atom_site_type_symbol
 _atom_site_label
 _atom_site_symmetry_multiplicity
 _atom_site_fract_x
 _atom_site_fract_y
 _atom_site_fract_z
 _atom_site_occupancy
  Hf  Hf0  1  0.809795  0.809795  0.190205  1
  Hf  Hf1  1  0.188143  0.188143  0.811857  1
  Hf  Hf2  1  0.810357  0.190359  0.811047  1
  Hf  Hf3  1  0.190359  0.810357  0.188237  1
  Hf  Hf4  1  0.190359  0.810357  0.811047  1
  Hf  Hf5  1  0.810357  0.190359  0.188237  1
  Hf  Hf6  1  0.440205  0.440205  0.059795  1
  Hf  Hf7  1  0.061857  0.061857  0.438143  1
  Hf  Hf8  1  0.439643  0.059641  0.438953  1
  Hf  Hf9  1  0.059641  0.439643  0.061763  1
  Hf  Hf10  1  0.059641  0.439643  0.438953  1
  Hf  Hf11  1  0.439643  0.059641  0.061763  1
  Ta  Ta12  1  0.125000  0.625000  0.625000  1
  Ta  Ta13  1  0.625000  0.125000  0.625000  1
  Mn  Mn14  1  0.736013  0.426908  0.418540  1
  Mn  Mn15  1  0.426908  0.736013  0.418540  1
  Mn  Mn16  1  0.423406  0.423406  0.738944  1
  Mn  Mn17  1  0.423406  0.423406  0.414246  1
  Mn  Mn18  1  0.513987  0.823092  0.831460  1
  Mn  Mn19  1  0.823092  0.513987  0.831460  1
  Mn  Mn20  1  0.826594  0.826594  0.511056  1
  Mn  Mn21  1  0.826594  0.826594  0.835754  1
  Re  Re22  1  0.625000  0.625000  0.125000  1
  Re  Re23  1  0.625000  0.625000  0.625000  1
  N  N24  1  0.625000  0.125000  0.125000  1
  N  N25  1  0.125000  0.625000  0.125000  1
  N  N26  1  0.125000  0.125000  0.625000  1
  N  N27  1  0.125000  0.125000  0.125000  1
