# generated using pymatgen
data_PrDy2Mg(Co4P3)2
_symmetry_space_group_name_H-M   'P 1'
_cell_length_a   3.76208100
_cell_length_b   10.70255100
_cell_length_c   12.37200900
_cell_angle_alpha   90.00000000
_cell_angle_beta   90.00000000
_cell_angle_gamma   90.00000000
_symmetry_Int_Tables_number   1
_chemical_formula_structural   PrDy2Mg(Co4P3)2
_chemical_formula_sum   'Pr2 Dy4 Mg2 Co16 P12'
_cell_volume   498.14488492
_cell_formula_units_Z   2
loop_
 _symmetry_equiv_pos_site_id
 _symmetry_equiv_pos_as_xyz
  1  'x, y, z'
loop_
 _atom_site_type_symbol
 _atom_site_label
 _atom_site_symmetry_multiplicity
 _atom_site_fract_x
 _atom_site_fract_y
 _atom_site_fract_z
 _atom_site_occupancy
  Pr  Pr0  1  0.000000  0.500000  0.526440  1
  Pr  Pr1  1  0.500000  0.000000  0.473560  1
  Dy  Dy2  1  0.500000  0.821248  0.205260  1
  Dy  Dy3  1  0.500000  0.178752  0.205260  1
  Dy  Dy4  1  0.000000  0.678752  0.794740  1
  Dy  Dy5  1  0.000000  0.321248  0.794740  1
  Mg  Mg6  1  0.500000  0.500000  0.153024  1
  Mg  Mg7  1  0.000000  0.000000  0.846976  1
  Co  Co8  1  0.500000  0.500000  0.708540  1
  Co  Co9  1  0.000000  0.000000  0.291460  1
  Co  Co10  1  0.000000  0.500000  0.988025  1
  Co  Co11  1  0.500000  0.000000  0.011975  1
  Co  Co12  1  0.500000  0.332603  0.996300  1
  Co  Co13  1  0.500000  0.667397  0.996300  1
  Co  Co14  1  0.000000  0.167397  0.003700  1
  Co  Co15  1  0.000000  0.832603  0.003700  1
  Co  Co16  1  0.500000  0.296213  0.430406  1
  Co  Co17  1  0.500000  0.703787  0.430406  1
  Co  Co18  1  0.000000  0.203787  0.569594  1
  Co  Co19  1  0.000000  0.796213  0.569594  1
  Co  Co20  1  0.500000  0.878488  0.708617  1
  Co  Co21  1  0.500000  0.121512  0.708617  1
  Co  Co22  1  0.000000  0.621512  0.291383  1
  Co  Co23  1  0.000000  0.378488  0.291383  1
  P  P24  1  0.500000  0.500000  0.885683  1
  P  P25  1  0.000000  0.000000  0.114317  1
  P  P26  1  0.500000  0.500000  0.350204  1
  P  P27  1  0.000000  0.000000  0.649796  1
  P  P28  1  0.500000  0.305247  0.616719  1
  P  P29  1  0.500000  0.694753  0.616719  1
  P  P30  1  0.000000  0.194753  0.383281  1
  P  P31  1  0.000000  0.805247  0.383281  1
  P  P32  1  0.500000  0.839034  0.894519  1
  P  P33  1  0.500000  0.160966  0.894519  1
  P  P34  1  0.000000  0.660966  0.105481  1
  P  P35  1  0.000000  0.339034  0.105481  1
