# generated using pymatgen
data_SmTi2AlAu3
_symmetry_space_group_name_H-M   'P 1'
_cell_length_a   5.70715149
_cell_length_b   5.70715252
_cell_length_c   5.65938111
_cell_angle_alpha   101.74415185
_cell_angle_beta   101.74415304
_cell_angle_gamma   126.60706401
_symmetry_Int_Tables_number   1
_chemical_formula_structural   SmTi2AlAu3
_chemical_formula_sum   'Sm1 Ti2 Al1 Au3'
_cell_volume   131.91598116
_cell_formula_units_Z   1
loop_
 _symmetry_equiv_pos_site_id
 _symmetry_equiv_pos_as_xyz
  1  'x, y, z'
loop_
 _atom_site_type_symbol
 _atom_site_label
 _atom_site_symmetry_multiplicity
 _atom_site_fract_x
 _atom_site_fract_y
 _atom_site_fract_z
 _atom_site_occupancy
  Sm  Sm0  1  0.004072  0.995928  0.000000  1
  Ti  Ti1  1  0.246379  0.753621  0.500000  1
  Ti  Ti2  1  0.746379  0.253621  0.500000  1
  Al  Al3  1  0.306911  0.693089  0.000000  1
  Au  Au4  1  0.308279  0.320393  0.628673  1
  Au  Au5  1  0.679607  0.691721  0.371327  1
  Au  Au6  1  0.708375  0.291625  0.000000  1
