# generated using pymatgen
data_La4Tl2PdPt3
_symmetry_space_group_name_H-M   'P 1'
_cell_length_a   8.16044800
_cell_length_b   8.16044746
_cell_length_c   3.85913400
_cell_angle_alpha   90.00000000
_cell_angle_beta   90.00000000
_cell_angle_gamma   89.82409167
_symmetry_Int_Tables_number   1
_chemical_formula_structural   La4Tl2PdPt3
_chemical_formula_sum   'La4 Tl2 Pd1 Pt3'
_cell_volume   256.98974096
_cell_formula_units_Z   1
loop_
 _symmetry_equiv_pos_site_id
 _symmetry_equiv_pos_as_xyz
  1  'x, y, z'
loop_
 _atom_site_type_symbol
 _atom_site_label
 _atom_site_symmetry_multiplicity
 _atom_site_fract_x
 _atom_site_fract_y
 _atom_site_fract_z
 _atom_site_occupancy
  La  La0  1  0.670637  0.170637  0.500000  1
  La  La1  1  0.180214  0.326978  0.500000  1
  La  La2  1  0.826978  0.680214  0.500000  1
  La  La3  1  0.324642  0.824642  0.500000  1
  Tl  Tl4  1  0.999600  0.005812  0.000000  1
  Tl  Tl5  1  0.505812  0.499600  0.000000  1
  Pd  Pd6  1  0.872309  0.372309  0.000000  1
  Pt  Pt7  1  0.374689  0.124269  0.000000  1
  Pt  Pt8  1  0.120850  0.620850  0.000000  1
  Pt  Pt9  1  0.624269  0.874689  0.000000  1
