# generated using pymatgen
data_TbDy3Sn5SbRh7
_symmetry_space_group_name_H-M   'P 1'
_cell_length_a   7.61514876
_cell_length_b   7.61514988
_cell_length_c   7.61347129
_cell_angle_alpha   109.42567172
_cell_angle_beta   109.42567725
_cell_angle_gamma   109.62541343
_symmetry_Int_Tables_number   1
_chemical_formula_structural   TbDy3Sn5SbRh7
_chemical_formula_sum   'Tb1 Dy3 Sn5 Sb1 Rh7'
_cell_volume   339.60782186
_cell_formula_units_Z   1
loop_
 _symmetry_equiv_pos_site_id
 _symmetry_equiv_pos_as_xyz
  1  'x, y, z'
loop_
 _atom_site_type_symbol
 _atom_site_label
 _atom_site_symmetry_multiplicity
 _atom_site_fract_x
 _atom_site_fract_y
 _atom_site_fract_z
 _atom_site_occupancy
  Tb  Tb0  1  0.495467  0.495467  0.496573  1
  Dy  Dy1  1  0.495204  0.998529  0.999960  1
  Dy  Dy2  1  0.998529  0.495204  0.999960  1
  Dy  Dy3  1  0.998789  0.998789  0.503430  1
  Sn  Sn4  1  0.995951  0.312491  0.315954  1
  Sn  Sn5  1  0.680445  0.996961  0.684039  1
  Sn  Sn6  1  0.692302  0.692302  0.000565  1
  Sn  Sn7  1  0.996961  0.680445  0.684039  1
  Sn  Sn8  1  0.312491  0.995951  0.315954  1
  Sb  Sb9  1  0.321689  0.321689  0.999544  1
  Rh  Rh10  1  0.008755  0.008755  0.999971  1
  Rh  Rh11  1  0.502167  0.751305  0.248583  1
  Rh  Rh12  1  0.751305  0.502167  0.248583  1
  Rh  Rh13  1  0.247193  0.747822  0.499999  1
  Rh  Rh14  1  0.252884  0.502048  0.751423  1
  Rh  Rh15  1  0.502048  0.252884  0.751423  1
  Rh  Rh16  1  0.747822  0.247193  0.499999  1
