# generated using pymatgen
data_Dy2Tm2TcOsC4
_symmetry_space_group_name_H-M   'P 1'
_cell_length_a   5.06892700
_cell_length_b   6.51416220
_cell_length_c   9.73460162
_cell_angle_alpha   89.75772270
_cell_angle_beta   90.00000000
_cell_angle_gamma   90.00000000
_symmetry_Int_Tables_number   1
_chemical_formula_structural   Dy2Tm2TcOsC4
_chemical_formula_sum   'Dy4 Tm4 Tc2 Os2 C8'
_cell_volume   321.43184786
_cell_formula_units_Z   2
loop_
 _symmetry_equiv_pos_site_id
 _symmetry_equiv_pos_as_xyz
  1  'x, y, z'
loop_
 _atom_site_type_symbol
 _atom_site_label
 _atom_site_symmetry_multiplicity
 _atom_site_fract_x
 _atom_site_fract_y
 _atom_site_fract_z
 _atom_site_occupancy
  Dy  Dy0  1  0.250000  0.531755  0.215305  1
  Dy  Dy1  1  0.750000  0.468245  0.784695  1
  Dy  Dy2  1  0.750000  0.970213  0.713250  1
  Dy  Dy3  1  0.250000  0.029787  0.286750  1
  Tm  Tm4  1  0.250000  0.675771  0.556597  1
  Tm  Tm5  1  0.750000  0.324229  0.443403  1
  Tm  Tm6  1  0.750000  0.825238  0.057038  1
  Tm  Tm7  1  0.250000  0.174762  0.942962  1
  Tc  Tc8  1  0.250000  0.721714  0.866475  1
  Tc  Tc9  1  0.750000  0.278286  0.133525  1
  Os  Os10  1  0.750000  0.776890  0.366191  1
  Os  Os11  1  0.250000  0.223110  0.633809  1
  C  C12  1  0.250000  0.454676  0.759280  1
  C  C13  1  0.750000  0.545324  0.240720  1
  C  C14  1  0.750000  0.044367  0.260097  1
  C  C15  1  0.250000  0.955633  0.739903  1
  C  C16  1  0.250000  0.827475  0.051788  1
  C  C17  1  0.750000  0.172525  0.948212  1
  C  C18  1  0.750000  0.671156  0.552272  1
  C  C19  1  0.250000  0.328844  0.447728  1
