# generated using pymatgen
data_TmLu2Co8P6Rh
_symmetry_space_group_name_H-M   'P 1'
_cell_length_a   3.67851200
_cell_length_b   10.48528900
_cell_length_c   12.16389200
_cell_angle_alpha   90.00000000
_cell_angle_beta   90.00000000
_cell_angle_gamma   90.00000000
_symmetry_Int_Tables_number   1
_chemical_formula_structural   TmLu2Co8P6Rh
_chemical_formula_sum   'Tm2 Lu4 Co16 P12 Rh2'
_cell_volume   469.16449420
_cell_formula_units_Z   2
loop_
 _symmetry_equiv_pos_site_id
 _symmetry_equiv_pos_as_xyz
  1  'x, y, z'
loop_
 _atom_site_type_symbol
 _atom_site_label
 _atom_site_symmetry_multiplicity
 _atom_site_fract_x
 _atom_site_fract_y
 _atom_site_fract_z
 _atom_site_occupancy
  Tm  Tm0  1  0.000000  0.500000  0.525972  1
  Tm  Tm1  1  0.500000  0.000000  0.474028  1
  Lu  Lu2  1  0.500000  0.819141  0.207680  1
  Lu  Lu3  1  0.500000  0.180859  0.207680  1
  Lu  Lu4  1  0.000000  0.680859  0.792320  1
  Lu  Lu5  1  0.000000  0.319141  0.792320  1
  Co  Co6  1  0.500000  0.500000  0.705154  1
  Co  Co7  1  0.000000  0.000000  0.294846  1
  Co  Co8  1  0.000000  0.500000  0.986786  1
  Co  Co9  1  0.500000  0.000000  0.013214  1
  Co  Co10  1  0.500000  0.332191  0.992281  1
  Co  Co11  1  0.500000  0.667809  0.992281  1
  Co  Co12  1  0.000000  0.167809  0.007719  1
  Co  Co13  1  0.000000  0.832191  0.007719  1
  Co  Co14  1  0.500000  0.297757  0.431327  1
  Co  Co15  1  0.500000  0.702243  0.431327  1
  Co  Co16  1  0.000000  0.202243  0.568673  1
  Co  Co17  1  0.000000  0.797757  0.568673  1
  Co  Co18  1  0.500000  0.877485  0.707617  1
  Co  Co19  1  0.500000  0.122515  0.707617  1
  Co  Co20  1  0.000000  0.622515  0.292383  1
  Co  Co21  1  0.000000  0.377485  0.292383  1
  P  P22  1  0.500000  0.500000  0.882295  1
  P  P23  1  0.000000  0.000000  0.117705  1
  P  P24  1  0.500000  0.500000  0.353674  1
  P  P25  1  0.000000  0.000000  0.646326  1
  P  P26  1  0.500000  0.312320  0.616973  1
  P  P27  1  0.500000  0.687680  0.616973  1
  P  P28  1  0.000000  0.187680  0.383027  1
  P  P29  1  0.000000  0.812320  0.383027  1
  P  P30  1  0.500000  0.843548  0.892499  1
  P  P31  1  0.500000  0.156452  0.892499  1
  P  P32  1  0.000000  0.656452  0.107501  1
  P  P33  1  0.000000  0.343548  0.107501  1
  Rh  Rh34  1  0.500000  0.500000  0.161464  1
  Rh  Rh35  1  0.000000  0.000000  0.838536  1
