# generated using pymatgen
data_TbNd4(BN3)2
_symmetry_space_group_name_H-M   'P 1'
_cell_length_a   6.38723766
_cell_length_b   6.38723759
_cell_length_c   8.80013644
_cell_angle_alpha   74.92525045
_cell_angle_beta   74.92524888
_cell_angle_gamma   32.62034380
_symmetry_Int_Tables_number   1
_chemical_formula_structural   TbNd4(BN3)2
_chemical_formula_sum   'Tb1 Nd4 B2 N6'
_cell_volume   186.29410180
_cell_formula_units_Z   1
loop_
 _symmetry_equiv_pos_site_id
 _symmetry_equiv_pos_as_xyz
  1  'x, y, z'
loop_
 _atom_site_type_symbol
 _atom_site_label
 _atom_site_symmetry_multiplicity
 _atom_site_fract_x
 _atom_site_fract_y
 _atom_site_fract_z
 _atom_site_occupancy
  Tb  Tb0  1  0.000000  0.000000  0.000000  1
  Nd  Nd1  1  0.623569  0.623569  0.629518  1
  Nd  Nd2  1  0.307881  0.307881  0.820850  1
  Nd  Nd3  1  0.692119  0.692119  0.179150  1
  Nd  Nd4  1  0.376431  0.376431  0.370482  1
  B  B5  1  0.054907  0.054907  0.408619  1
  B  B6  1  0.945093  0.945093  0.591381  1
  N  N7  1  0.025376  0.025376  0.256467  1
  N  N8  1  0.349242  0.349242  0.078995  1
  N  N9  1  0.826670  0.826670  0.585609  1
  N  N10  1  0.974624  0.974624  0.743533  1
  N  N11  1  0.650758  0.650758  0.921005  1
  N  N12  1  0.173330  0.173330  0.414391  1
