# generated using pymatgen
data_Zr4TaNb3Si3P
_symmetry_space_group_name_H-M   'P 1'
_cell_length_a   3.63544400
_cell_length_b   7.00910531
_cell_length_c   8.46354468
_cell_angle_alpha   90.23557313
_cell_angle_beta   90.00000000
_cell_angle_gamma   90.00000000
_symmetry_Int_Tables_number   1
_chemical_formula_structural   Zr4TaNb3Si3P
_chemical_formula_sum   'Zr4 Ta1 Nb3 Si3 P1'
_cell_volume   215.65953520
_cell_formula_units_Z   1
loop_
 _symmetry_equiv_pos_site_id
 _symmetry_equiv_pos_as_xyz
  1  'x, y, z'
loop_
 _atom_site_type_symbol
 _atom_site_label
 _atom_site_symmetry_multiplicity
 _atom_site_fract_x
 _atom_site_fract_y
 _atom_site_fract_z
 _atom_site_occupancy
  Zr  Zr0  1  0.250000  0.542621  0.833406  1
  Zr  Zr1  1  0.750000  0.961179  0.333035  1
  Zr  Zr2  1  0.250000  0.040768  0.667871  1
  Zr  Zr3  1  0.750000  0.456943  0.169142  1
  Ta  Ta4  1  0.750000  0.868867  0.940480  1
  Nb  Nb5  1  0.250000  0.135104  0.061512  1
  Nb  Nb6  1  0.250000  0.631863  0.440164  1
  Nb  Nb7  1  0.750000  0.363228  0.555676  1
  Si  Si8  1  0.750000  0.742169  0.640614  1
  Si  Si9  1  0.250000  0.755972  0.140607  1
  Si  Si10  1  0.750000  0.244552  0.858789  1
  P  P11  1  0.250000  0.256732  0.358701  1
