# generated using pymatgen
data_Ho4TiOs7
_symmetry_space_group_name_H-M   'P 1'
_cell_length_a   5.39523500
_cell_length_b   5.39523476
_cell_length_c   8.65270800
_cell_angle_alpha   90.00000000
_cell_angle_beta   90.00000000
_cell_angle_gamma   120.00000762
_symmetry_Int_Tables_number   1
_chemical_formula_structural   Ho4TiOs7
_chemical_formula_sum   'Ho4 Ti1 Os7'
_cell_volume   218.12395250
_cell_formula_units_Z   1
loop_
 _symmetry_equiv_pos_site_id
 _symmetry_equiv_pos_as_xyz
  1  'x, y, z'
loop_
 _atom_site_type_symbol
 _atom_site_label
 _atom_site_symmetry_multiplicity
 _atom_site_fract_x
 _atom_site_fract_y
 _atom_site_fract_z
 _atom_site_occupancy
  Ho  Ho0  1  0.333333  0.666667  0.428308  1
  Ho  Ho1  1  0.666667  0.333333  0.571692  1
  Ho  Ho2  1  0.666667  0.333333  0.938026  1
  Ho  Ho3  1  0.333333  0.666667  0.061974  1
  Ti  Ti4  1  0.000000  0.000000  0.500000  1
  Os  Os5  1  0.000000  0.000000  0.000000  1
  Os  Os6  1  0.827556  0.172444  0.250603  1
  Os  Os7  1  0.827556  0.655114  0.250603  1
  Os  Os8  1  0.344886  0.172444  0.250603  1
  Os  Os9  1  0.172444  0.827556  0.749397  1
  Os  Os10  1  0.172444  0.344886  0.749397  1
  Os  Os11  1  0.655114  0.827556  0.749397  1
