# generated using pymatgen
data_MgTa3(TiRu3)2
_symmetry_space_group_name_H-M   'P 1'
_cell_length_a   4.42678000
_cell_length_b   6.26006100
_cell_length_c   13.28376400
_cell_angle_alpha   89.99886751
_cell_angle_beta   89.99974119
_cell_angle_gamma   89.99965784
_symmetry_Int_Tables_number   1
_chemical_formula_structural   MgTa3(TiRu3)2
_chemical_formula_sum   'Mg2 Ta6 Ti4 Ru12'
_cell_volume   368.11851003
_cell_formula_units_Z   2
loop_
 _symmetry_equiv_pos_site_id
 _symmetry_equiv_pos_as_xyz
  1  'x, y, z'
loop_
 _atom_site_type_symbol
 _atom_site_label
 _atom_site_symmetry_multiplicity
 _atom_site_fract_x
 _atom_site_fract_y
 _atom_site_fract_z
 _atom_site_occupancy
  Mg  Mg0  1  0.999999  0.000032  0.000456  1
  Mg  Mg1  1  0.500006  0.499965  0.166230  1
  Ta  Ta2  1  0.000000  0.499964  0.003715  1
  Ta  Ta3  1  0.500005  0.000042  0.162987  1
  Ta  Ta4  1  0.000007  0.499949  0.330339  1
  Ta  Ta5  1  0.500000  0.000051  0.500237  1
  Ta  Ta6  1  0.999993  0.499958  0.666411  1
  Ta  Ta7  1  0.499994  0.000044  0.836321  1
  Ti  Ti8  1  0.000006  0.000040  0.332641  1
  Ti  Ti9  1  0.500000  0.499942  0.500232  1
  Ti  Ti10  1  0.999993  0.000060  0.666420  1
  Ti  Ti11  1  0.499994  0.499954  0.834011  1
  Ru  Ru12  1  0.500001  0.253498  0.996692  1
  Ru  Ru13  1  0.500001  0.746499  0.996688  1
  Ru  Ru14  1  0.000006  0.246498  0.170005  1
  Ru  Ru15  1  0.000007  0.753500  0.170009  1
  Ru  Ru16  1  0.500009  0.247301  0.335574  1
  Ru  Ru17  1  0.500010  0.752702  0.335576  1
  Ru  Ru18  1  0.000001  0.249058  0.499557  1
  Ru  Ru19  1  0.000001  0.750940  0.499560  1
  Ru  Ru20  1  0.499992  0.250950  0.667060  1
  Ru  Ru21  1  0.499997  0.749060  0.667059  1
  Ru  Ru22  1  0.999990  0.252708  0.831109  1
  Ru  Ru23  1  0.999991  0.747288  0.831107  1
