# generated using pymatgen
data_Cs2LiGa3F12
_symmetry_space_group_name_H-M   'P 1'
_cell_length_a   7.34442169
_cell_length_b   7.34442145
_cell_length_c   7.34442209
_cell_angle_alpha   60.55811071
_cell_angle_beta   60.55811056
_cell_angle_gamma   60.55811424
_symmetry_Int_Tables_number   1
_chemical_formula_structural   Cs2LiGa3F12
_chemical_formula_sum   'Cs2 Li1 Ga3 F12'
_cell_volume   283.66083756
_cell_formula_units_Z   1
loop_
 _symmetry_equiv_pos_site_id
 _symmetry_equiv_pos_as_xyz
  1  'x, y, z'
loop_
 _atom_site_type_symbol
 _atom_site_label
 _atom_site_symmetry_multiplicity
 _atom_site_fract_x
 _atom_site_fract_y
 _atom_site_fract_z
 _atom_site_occupancy
  Cs  Cs0  1  0.627662  0.627662  0.627662  1
  Cs  Cs1  1  0.372338  0.372338  0.372338  1
  Li  Li2  1  0.000000  0.000000  0.000000  1
  Ga  Ga3  1  0.500000  0.000000  0.000000  1
  Ga  Ga4  1  0.000000  0.500000  0.000000  1
  Ga  Ga5  1  0.000000  0.000000  0.500000  1
  F  F6  1  0.926638  0.313041  0.313041  1
  F  F7  1  0.072354  0.072354  0.659314  1
  F  F8  1  0.072354  0.659314  0.072354  1
  F  F9  1  0.927646  0.340686  0.927646  1
  F  F10  1  0.927646  0.927646  0.340686  1
  F  F11  1  0.659314  0.072354  0.072354  1
  F  F12  1  0.313041  0.313041  0.926638  1
  F  F13  1  0.313041  0.926638  0.313041  1
  F  F14  1  0.686959  0.073362  0.686959  1
  F  F15  1  0.073362  0.686959  0.686959  1
  F  F16  1  0.686959  0.686959  0.073362  1
  F  F17  1  0.340686  0.927646  0.927646  1
