# generated using pymatgen
data_La3Tm3TcSb2
_symmetry_space_group_name_H-M   'P 1'
_cell_length_a   8.35281400
_cell_length_b   8.35281563
_cell_length_c   4.37058000
_cell_angle_alpha   90.00000000
_cell_angle_beta   90.00000000
_cell_angle_gamma   119.99999354
_symmetry_Int_Tables_number   1
_chemical_formula_structural   La3Tm3TcSb2
_chemical_formula_sum   'La3 Tm3 Tc1 Sb2'
_cell_volume   264.07995672
_cell_formula_units_Z   1
loop_
 _symmetry_equiv_pos_site_id
 _symmetry_equiv_pos_as_xyz
  1  'x, y, z'
loop_
 _atom_site_type_symbol
 _atom_site_label
 _atom_site_symmetry_multiplicity
 _atom_site_fract_x
 _atom_site_fract_y
 _atom_site_fract_z
 _atom_site_occupancy
  La  La0  1  0.000000  0.603877  0.500000  1
  La  La1  1  0.396123  0.396123  0.500000  1
  La  La2  1  0.603877  0.000000  0.500000  1
  Tm  Tm3  1  0.228330  0.000000  0.000000  1
  Tm  Tm4  1  0.771670  0.771670  0.000000  1
  Tm  Tm5  1  0.000000  0.228330  0.000000  1
  Tc  Tc6  1  0.000000  0.000000  0.500000  1
  Sb  Sb7  1  0.333333  0.666667  0.000000  1
  Sb  Sb8  1  0.666667  0.333333  0.000000  1
