# generated using pymatgen
data_Tm3Lu3Al19Si5Os8
_symmetry_space_group_name_H-M   'P 1'
_cell_length_a   8.67117800
_cell_length_b   8.65642148
_cell_length_c   9.54958000
_cell_angle_alpha   90.00000000
_cell_angle_beta   90.00000000
_cell_angle_gamma   120.05897998
_symmetry_Int_Tables_number   1
_chemical_formula_structural   Tm3Lu3Al19Si5Os8
_chemical_formula_sum   'Tm3 Lu3 Al19 Si5 Os8'
_cell_volume   620.40170242
_cell_formula_units_Z   1
loop_
 _symmetry_equiv_pos_site_id
 _symmetry_equiv_pos_as_xyz
  1  'x, y, z'
loop_
 _atom_site_type_symbol
 _atom_site_label
 _atom_site_symmetry_multiplicity
 _atom_site_fract_x
 _atom_site_fract_y
 _atom_site_fract_z
 _atom_site_occupancy
  Tm  Tm0  1  0.606609  0.805571  0.250000  1
  Tm  Tm1  1  0.198945  0.805592  0.250000  1
  Tm  Tm2  1  0.804824  0.196222  0.750000  1
  Lu  Lu3  1  0.196010  0.391981  0.250000  1
  Lu  Lu4  1  0.804196  0.608619  0.750000  1
  Lu  Lu5  1  0.392365  0.196888  0.750000  1
  Al  Al6  1  0.164667  0.329118  0.578968  1
  Al  Al7  1  0.834779  0.669566  0.421285  1
  Al  Al8  1  0.670092  0.835382  0.577720  1
  Al  Al9  1  0.834779  0.669566  0.078715  1
  Al  Al10  1  0.328844  0.165435  0.421398  1
  Al  Al11  1  0.164667  0.329118  0.921032  1
  Al  Al12  1  0.165360  0.835513  0.577773  1
  Al  Al13  1  0.328844  0.165435  0.078602  1
  Al  Al14  1  0.836611  0.165426  0.421271  1
  Al  Al15  1  0.670092  0.835382  0.922280  1
  Al  Al16  1  0.836611  0.165426  0.078729  1
  Al  Al17  1  0.165360  0.835513  0.922227  1
  Al  Al18  1  0.437371  0.875097  0.750000  1
  Al  Al19  1  0.873663  0.433882  0.250000  1
  Al  Al20  1  0.127097  0.564400  0.750000  1
  Al  Al21  1  0.560205  0.433892  0.250000  1
  Al  Al22  1  0.437303  0.564057  0.750000  1
  Al  Al23  1  0.999944  0.999914  0.250000  1
  Al  Al24  1  0.000520  0.000545  0.750000  1
  Si  Si25  1  0.332342  0.664717  0.039300  1
  Si  Si26  1  0.667028  0.334653  0.959166  1
  Si  Si27  1  0.667028  0.334653  0.540834  1
  Si  Si28  1  0.332342  0.664717  0.460700  1
  Si  Si29  1  0.563635  0.127269  0.250000  1
  Os  Os30  1  0.500583  0.001481  0.006281  1
  Os  Os31  1  0.998937  0.498918  0.000459  1
  Os  Os32  1  0.500583  0.001481  0.493719  1
  Os  Os33  1  0.499830  0.498716  0.000285  1
  Os  Os34  1  0.998937  0.498918  0.499541  1
  Os  Os35  1  0.499830  0.498716  0.499715  1
  Os  Os36  1  0.999584  0.999107  0.999976  1
  Os  Os37  1  0.999584  0.999107  0.500024  1
