# generated using pymatgen
data_Er4Tm5Lu3Co5Bi
_symmetry_space_group_name_H-M   'P 1'
_cell_length_a   8.18513721
_cell_length_b   8.18093349
_cell_length_c   8.18093288
_cell_angle_alpha   110.83291161
_cell_angle_beta   111.03744791
_cell_angle_gamma   106.56166764
_symmetry_Int_Tables_number   1
_chemical_formula_structural   Er4Tm5Lu3Co5Bi
_chemical_formula_sum   'Er4 Tm5 Lu3 Co5 Bi1'
_cell_volume   421.00256240
_cell_formula_units_Z   1
loop_
 _symmetry_equiv_pos_site_id
 _symmetry_equiv_pos_as_xyz
  1  'x, y, z'
loop_
 _atom_site_type_symbol
 _atom_site_label
 _atom_site_symmetry_multiplicity
 _atom_site_fract_x
 _atom_site_fract_y
 _atom_site_fract_z
 _atom_site_occupancy
  Er  Er0  1  0.210129  0.406311  0.195616  1
  Er  Er1  1  0.790009  0.594594  0.804830  1
  Er  Er2  1  0.210129  0.014513  0.803818  1
  Er  Er3  1  0.790009  0.985179  0.195415  1
  Tm  Tm4  1  0.286301  0.183109  0.470136  1
  Tm  Tm5  1  0.713627  0.817392  0.530356  1
  Tm  Tm6  1  0.286301  0.816165  0.103192  1
  Tm  Tm7  1  0.713627  0.183271  0.896235  1
  Tm  Tm8  1  0.621402  0.311959  0.309442  1
  Lu  Lu9  1  0.377603  0.687721  0.689881  1
  Lu  Lu10  1  0.002175  0.312457  0.689717  1
  Lu  Lu11  1  0.997862  0.687554  0.310309  1
  Co  Co12  1  0.000879  0.374712  0.374941  1
  Co  Co13  1  0.000879  0.625938  0.626167  1
  Co  Co14  1  0.386712  0.886995  0.499717  1
  Co  Co15  1  0.611955  0.111648  0.500307  1
  Co  Co16  1  0.000457  0.000279  0.000178  1
  Bi  Bi17  1  0.499944  0.500201  0.999743  1
