# generated using pymatgen
data_Ta5NbAl3Zn(IrC)2
_symmetry_space_group_name_H-M   'P 1'
_cell_length_a   8.32048925
_cell_length_b   8.32048970
_cell_length_c   8.31589000
_cell_angle_alpha   59.93746526
_cell_angle_beta   59.93746348
_cell_angle_gamma   59.95922124
_symmetry_Int_Tables_number   1
_chemical_formula_structural   Ta5NbAl3Zn(IrC)2
_chemical_formula_sum   'Ta10 Nb2 Al6 Zn2 Ir4 C4'
_cell_volume   406.58052043
_cell_formula_units_Z   2
loop_
 _symmetry_equiv_pos_site_id
 _symmetry_equiv_pos_as_xyz
  1  'x, y, z'
loop_
 _atom_site_type_symbol
 _atom_site_label
 _atom_site_symmetry_multiplicity
 _atom_site_fract_x
 _atom_site_fract_y
 _atom_site_fract_z
 _atom_site_occupancy
  Ta  Ta0  1  0.686277  0.312473  0.312988  1
  Ta  Ta1  1  0.313606  0.686298  0.312567  1
  Ta  Ta2  1  0.689872  0.690419  0.309478  1
  Ta  Ta3  1  0.314154  0.312646  0.686033  1
  Ta  Ta4  1  0.562789  0.564289  0.936742  1
  Ta  Ta5  1  0.939830  0.560402  0.560462  1
  Ta  Ta6  1  0.560589  0.938153  0.938360  1
  Ta  Ta7  1  0.940213  0.940191  0.559466  1
  Ta  Ta8  1  0.690889  0.308329  0.691294  1
  Ta  Ta9  1  0.939348  0.560084  0.939693  1
  Nb  Nb10  1  0.563304  0.936148  0.564622  1
  Nb  Nb11  1  0.312098  0.687990  0.688144  1
  Al  Al12  1  0.330445  0.001500  0.335299  1
  Al  Al13  1  0.329117  0.335346  0.001422  1
  Al  Al14  1  0.915546  0.248905  0.917536  1
  Al  Al15  1  0.914051  0.917646  0.248808  1
  Al  Al16  1  0.248928  0.916044  0.914147  1
  Al  Al17  1  0.332182  0.332883  0.334266  1
  Zn  Zn18  1  0.914554  0.912831  0.914327  1
  Zn  Zn19  1  0.991366  0.335949  0.334234  1
  Ir  Ir20  1  0.127902  0.120781  0.121526  1
  Ir  Ir21  1  0.620482  0.129725  0.125163  1
  Ir  Ir22  1  0.129778  0.624971  0.128403  1
  Ir  Ir23  1  0.126065  0.129753  0.625178  1
  C  C24  1  0.628745  0.620951  0.623848  1
  C  C25  1  0.123346  0.625080  0.625225  1
  C  C26  1  0.627697  0.125351  0.625719  1
  C  C27  1  0.626829  0.624858  0.125049  1
