# generated using pymatgen
data_K4Hf6CCl18
_symmetry_space_group_name_H-M   'P 1'
_cell_length_a   10.08316755
_cell_length_b   10.08316669
_cell_length_c   9.85536603
_cell_angle_alpha   77.48020553
_cell_angle_beta   77.48020882
_cell_angle_gamma   117.70404126
_symmetry_Int_Tables_number   1
_chemical_formula_structural   K4Hf6CCl18
_chemical_formula_sum   'K4 Hf6 C1 Cl18'
_cell_volume   805.46251385
_cell_formula_units_Z   1
loop_
 _symmetry_equiv_pos_site_id
 _symmetry_equiv_pos_as_xyz
  1  'x, y, z'
loop_
 _atom_site_type_symbol
 _atom_site_label
 _atom_site_symmetry_multiplicity
 _atom_site_fract_x
 _atom_site_fract_y
 _atom_site_fract_z
 _atom_site_occupancy
  K  K0  1  0.771961  0.447868  0.676764  1
  K  K1  1  0.552132  0.228039  0.323236  1
  K  K2  1  0.228039  0.552132  0.323236  1
  K  K3  1  0.447868  0.771961  0.676764  1
  Hf  Hf4  1  0.125678  0.125678  0.140202  1
  Hf  Hf5  1  0.874322  0.874322  0.859798  1
  Hf  Hf6  1  0.949156  0.764299  0.148412  1
  Hf  Hf7  1  0.235701  0.050844  0.851588  1
  Hf  Hf8  1  0.050844  0.235701  0.851588  1
  Hf  Hf9  1  0.764299  0.949156  0.148412  1
  C  C10  1  0.000000  0.000000  0.000000  1
  Cl  Cl11  1  0.805154  0.596566  0.009606  1
  Cl  Cl12  1  0.403435  0.194846  0.990394  1
  Cl  Cl13  1  0.194846  0.403435  0.990394  1
  Cl  Cl14  1  0.596565  0.805154  0.009606  1
  Cl  Cl15  1  0.206757  0.793243  0.000000  1
  Cl  Cl16  1  0.793243  0.206757  0.000000  1
  Cl  Cl17  1  0.321109  0.321109  0.672236  1
  Cl  Cl18  1  0.678891  0.678891  0.327764  1
  Cl  Cl19  1  0.888058  0.490568  0.328224  1
  Cl  Cl20  1  0.509432  0.111942  0.671776  1
  Cl  Cl21  1  0.111942  0.509432  0.671776  1
  Cl  Cl22  1  0.490568  0.888058  0.328224  1
  Cl  Cl23  1  0.271711  0.271711  0.298202  1
  Cl  Cl24  1  0.728289  0.728289  0.701798  1
  Cl  Cl25  1  0.081751  0.876333  0.319572  1
  Cl  Cl26  1  0.123667  0.918249  0.680428  1
  Cl  Cl27  1  0.918249  0.123667  0.680428  1
  Cl  Cl28  1  0.876333  0.081751  0.319572  1
