# generated using pymatgen
data_PrGd3(ZnSi3)2
_symmetry_space_group_name_H-M   'P 1'
_cell_length_a   4.18481300
_cell_length_b   4.19160700
_cell_length_c   13.79516700
_cell_angle_alpha   90.00000000
_cell_angle_beta   90.00000000
_cell_angle_gamma   90.00000000
_symmetry_Int_Tables_number   1
_chemical_formula_structural   PrGd3(ZnSi3)2
_chemical_formula_sum   'Pr1 Gd3 Zn2 Si6'
_cell_volume   241.98228611
_cell_formula_units_Z   1
loop_
 _symmetry_equiv_pos_site_id
 _symmetry_equiv_pos_as_xyz
  1  'x, y, z'
loop_
 _atom_site_type_symbol
 _atom_site_label
 _atom_site_symmetry_multiplicity
 _atom_site_fract_x
 _atom_site_fract_y
 _atom_site_fract_z
 _atom_site_occupancy
  Pr  Pr0  1  0.500000  0.500000  0.004087  1
  Gd  Gd1  1  0.000000  0.000000  0.504896  1
  Gd  Gd2  1  0.500000  0.000000  0.745322  1
  Gd  Gd3  1  0.000000  0.500000  0.247532  1
  Zn  Zn4  1  0.000000  0.000000  0.913983  1
  Zn  Zn5  1  0.500000  0.500000  0.415181  1
  Si  Si6  1  0.000000  0.500000  0.831852  1
  Si  Si7  1  0.500000  0.000000  0.334914  1
  Si  Si8  1  0.000000  0.000000  0.085896  1
  Si  Si9  1  0.500000  0.500000  0.584170  1
  Si  Si10  1  0.500000  0.000000  0.167747  1
  Si  Si11  1  0.000000  0.500000  0.664420  1
