# generated using pymatgen
data_Cs4P21Cl
_symmetry_space_group_name_H-M   'P 1'
_cell_length_a   9.94946600
_cell_length_b   13.07609461
_cell_length_c   13.07609500
_cell_angle_alpha   115.42298248
_cell_angle_beta   90.00000000
_cell_angle_gamma   90.00000000
_symmetry_Int_Tables_number   1
_chemical_formula_structural   Cs4P21Cl
_chemical_formula_sum   'Cs8 P42 Cl2'
_cell_volume   1536.46301516
_cell_formula_units_Z   2
loop_
 _symmetry_equiv_pos_site_id
 _symmetry_equiv_pos_as_xyz
  1  'x, y, z'
loop_
 _atom_site_type_symbol
 _atom_site_label
 _atom_site_symmetry_multiplicity
 _atom_site_fract_x
 _atom_site_fract_y
 _atom_site_fract_z
 _atom_site_occupancy
  Cs  Cs0  1  0.250000  0.078638  0.245099  1
  Cs  Cs1  1  0.750000  0.921362  0.754901  1
  Cs  Cs2  1  0.250000  0.245099  0.078638  1
  Cs  Cs3  1  0.750000  0.754901  0.921362  1
  Cs  Cs4  1  0.500000  0.611200  0.388800  1
  Cs  Cs5  1  0.000000  0.388800  0.611200  1
  Cs  Cs6  1  0.500000  0.388800  0.611200  1
  Cs  Cs7  1  0.000000  0.611200  0.388800  1
  P  P8  1  0.250000  0.949073  0.949073  1
  P  P9  1  0.750000  0.050927  0.050927  1
  P  P10  1  0.250000  0.199324  0.661468  1
  P  P11  1  0.750000  0.800676  0.338532  1
  P  P12  1  0.250000  0.661468  0.199324  1
  P  P13  1  0.750000  0.338532  0.800676  1
  P  P14  1  0.922856  0.014701  0.316217  1
  P  P15  1  0.422856  0.985299  0.683783  1
  P  P16  1  0.577144  0.316217  0.014701  1
  P  P17  1  0.077144  0.683783  0.985299  1
  P  P18  1  0.915450  0.501110  0.058181  1
  P  P19  1  0.415450  0.498890  0.941819  1
  P  P20  1  0.584550  0.058181  0.501110  1
  P  P21  1  0.084550  0.941819  0.498890  1
  P  P22  1  0.084550  0.498890  0.941819  1
  P  P23  1  0.584550  0.501110  0.058181  1
  P  P24  1  0.415450  0.941819  0.498890  1
  P  P25  1  0.915450  0.058181  0.501110  1
  P  P26  1  0.911236  0.152012  0.152012  1
  P  P27  1  0.411236  0.847988  0.847988  1
  P  P28  1  0.588764  0.152012  0.152012  1
  P  P29  1  0.088764  0.847988  0.847988  1
  P  P30  1  0.750000  0.502655  0.943520  1
  P  P31  1  0.250000  0.497345  0.056480  1
  P  P32  1  0.750000  0.943520  0.502655  1
  P  P33  1  0.250000  0.056480  0.497345  1
  P  P34  1  0.750000  0.238753  0.894853  1
  P  P35  1  0.250000  0.761247  0.105147  1
  P  P36  1  0.750000  0.894853  0.238753  1
  P  P37  1  0.250000  0.105147  0.761247  1
  P  P38  1  0.863973  0.330051  0.182077  1
  P  P39  1  0.363973  0.669949  0.817923  1
  P  P40  1  0.636027  0.182077  0.330051  1
  P  P41  1  0.136027  0.817923  0.669949  1
  P  P42  1  0.136027  0.669949  0.817923  1
  P  P43  1  0.636027  0.330051  0.182077  1
  P  P44  1  0.363973  0.817923  0.669949  1
  P  P45  1  0.863973  0.182077  0.330051  1
  P  P46  1  0.922856  0.316217  0.014701  1
  P  P47  1  0.422856  0.683783  0.985299  1
  P  P48  1  0.577144  0.014701  0.316217  1
  P  P49  1  0.077144  0.985299  0.683783  1
  Cl  Cl50  1  0.250000  0.396129  0.396129  1
  Cl  Cl51  1  0.750000  0.603871  0.603871  1
