# generated using pymatgen
data_Dy9Er(CoRu)2
_symmetry_space_group_name_H-M   'P 1'
_cell_length_a   6.32534248
_cell_length_b   7.12123673
_cell_length_c   8.56556218
_cell_angle_alpha   96.33435765
_cell_angle_beta   111.66819901
_cell_angle_gamma   90.00000296
_symmetry_Int_Tables_number   1
_chemical_formula_structural   Dy9Er(CoRu)2
_chemical_formula_sum   'Dy9 Er1 Co2 Ru2'
_cell_volume   356.02997630
_cell_formula_units_Z   1
loop_
 _symmetry_equiv_pos_site_id
 _symmetry_equiv_pos_as_xyz
  1  'x, y, z'
loop_
 _atom_site_type_symbol
 _atom_site_label
 _atom_site_symmetry_multiplicity
 _atom_site_fract_x
 _atom_site_fract_y
 _atom_site_fract_z
 _atom_site_occupancy
  Dy  Dy0  1  0.788104  0.588408  0.810738  1
  Dy  Dy1  1  0.977365  0.911592  0.189262  1
  Dy  Dy2  1  0.197371  0.416230  0.185131  1
  Dy  Dy3  1  0.012241  0.083770  0.814869  1
  Dy  Dy4  1  0.216545  0.688298  0.568017  1
  Dy  Dy5  1  0.648528  0.811702  0.431983  1
  Dy  Dy6  1  0.792085  0.318480  0.433307  1
  Dy  Dy7  1  0.358778  0.181520  0.566693  1
  Dy  Dy8  1  0.428598  0.750000  0.000000  1
  Er  Er9  1  0.575481  0.250000  0.000000  1
  Co  Co10  1  0.603539  0.924156  0.777751  1
  Co  Co11  1  0.825787  0.575844  0.222249  1
  Ru  Ru12  1  0.398237  0.072385  0.220897  1
  Ru  Ru13  1  0.177341  0.427615  0.779103  1
