# generated using pymatgen
data_Tb3Bi2Rh3Pb
_symmetry_space_group_name_H-M   'P 1'
_cell_length_a   7.65410600
_cell_length_b   7.68516157
_cell_length_c   3.98756600
_cell_angle_alpha   90.00000000
_cell_angle_beta   90.00000000
_cell_angle_gamma   119.86641532
_symmetry_Int_Tables_number   1
_chemical_formula_structural   Tb3Bi2Rh3Pb
_chemical_formula_sum   'Tb3 Bi2 Rh3 Pb1'
_cell_volume   203.40846229
_cell_formula_units_Z   1
loop_
 _symmetry_equiv_pos_site_id
 _symmetry_equiv_pos_as_xyz
  1  'x, y, z'
loop_
 _atom_site_type_symbol
 _atom_site_label
 _atom_site_symmetry_multiplicity
 _atom_site_fract_x
 _atom_site_fract_y
 _atom_site_fract_z
 _atom_site_occupancy
  Tb  Tb0  1  0.593770  0.000000  0.000000  1
  Tb  Tb1  1  0.001868  0.599940  0.000000  1
  Tb  Tb2  1  0.401928  0.400060  0.000000  1
  Bi  Bi3  1  0.001780  0.264478  0.500000  1
  Bi  Bi4  1  0.737303  0.735522  0.500000  1
  Rh  Rh5  1  0.332685  0.664978  0.500000  1
  Rh  Rh6  1  0.667708  0.335022  0.500000  1
  Rh  Rh7  1  0.996941  0.000000  0.000000  1
  Pb  Pb8  1  0.266017  0.000000  0.500000  1
