# generated using pymatgen
data_PuMoF7
_symmetry_space_group_name_H-M   'P 1'
_cell_length_a   5.89774800
_cell_length_b   8.99364277
_cell_length_c   12.10130100
_cell_angle_alpha   63.24067942
_cell_angle_beta   90.00000000
_cell_angle_gamma   90.00000000
_symmetry_Int_Tables_number   1
_chemical_formula_structural   PuMoF7
_chemical_formula_sum   'Pu4 Mo4 F28'
_cell_volume   573.13840383
_cell_formula_units_Z   4
loop_
 _symmetry_equiv_pos_site_id
 _symmetry_equiv_pos_as_xyz
  1  'x, y, z'
loop_
 _atom_site_type_symbol
 _atom_site_label
 _atom_site_symmetry_multiplicity
 _atom_site_fract_x
 _atom_site_fract_y
 _atom_site_fract_z
 _atom_site_occupancy
  Pu  Pu0  1  0.745936  0.803886  0.267355  1
  Pu  Pu1  1  0.245936  0.196114  0.232645  1
  Pu  Pu2  1  0.254064  0.196114  0.732645  1
  Pu  Pu3  1  0.754064  0.803886  0.767355  1
  Mo  Mo4  1  0.744633  0.265599  0.460288  1
  Mo  Mo5  1  0.244633  0.734401  0.039712  1
  Mo  Mo6  1  0.255367  0.734401  0.539712  1
  Mo  Mo7  1  0.755367  0.265599  0.960288  1
  F  F8  1  0.471324  0.714637  0.915949  1
  F  F9  1  0.971324  0.285363  0.584051  1
  F  F10  1  0.528676  0.285363  0.084051  1
  F  F11  1  0.028676  0.714637  0.415949  1
  F  F12  1  0.452054  0.277740  0.553093  1
  F  F13  1  0.952054  0.722260  0.946907  1
  F  F14  1  0.547946  0.722260  0.446907  1
  F  F15  1  0.047946  0.277740  0.053093  1
  F  F16  1  0.766692  0.522177  0.855132  1
  F  F17  1  0.266692  0.477823  0.644868  1
  F  F18  1  0.233308  0.477823  0.144868  1
  F  F19  1  0.733308  0.522177  0.355132  1
  F  F20  1  0.758324  0.010855  0.063554  1
  F  F21  1  0.258324  0.989145  0.436446  1
  F  F22  1  0.241676  0.989145  0.936446  1
  F  F23  1  0.741676  0.010855  0.563554  1
  F  F24  1  0.984687  0.732407  0.650123  1
  F  F25  1  0.484687  0.267593  0.849877  1
  F  F26  1  0.015313  0.267593  0.349877  1
  F  F27  1  0.515313  0.732407  0.150123  1
  F  F28  1  0.034911  0.747976  0.173856  1
  F  F29  1  0.534911  0.252024  0.326144  1
  F  F30  1  0.965089  0.252024  0.826144  1
  F  F31  1  0.465089  0.747976  0.673856  1
  F  F32  1  0.429291  0.970419  0.236452  1
  F  F33  1  0.929291  0.029581  0.263548  1
  F  F34  1  0.570709  0.029581  0.763548  1
  F  F35  1  0.070709  0.970419  0.736452  1
