# generated using pymatgen
data_Ta6Ga4Fe2BN
_symmetry_space_group_name_H-M   'P 1'
_cell_length_a   8.19835051
_cell_length_b   8.22240779
_cell_length_c   8.19828115
_cell_angle_alpha   59.89731164
_cell_angle_beta   59.87541202
_cell_angle_gamma   59.89762345
_symmetry_Int_Tables_number   1
_chemical_formula_structural   Ta6Ga4Fe2BN
_chemical_formula_sum   'Ta12 Ga8 Fe4 B2 N2'
_cell_volume   389.80659592
_cell_formula_units_Z   2
loop_
 _symmetry_equiv_pos_site_id
 _symmetry_equiv_pos_as_xyz
  1  'x, y, z'
loop_
 _atom_site_type_symbol
 _atom_site_label
 _atom_site_symmetry_multiplicity
 _atom_site_fract_x
 _atom_site_fract_y
 _atom_site_fract_z
 _atom_site_occupancy
  Ta  Ta0  1  0.551142  0.948846  0.551158  1
  Ta  Ta1  1  0.299530  0.695023  0.698945  1
  Ta  Ta2  1  0.698956  0.306517  0.299544  1
  Ta  Ta3  1  0.306243  0.693792  0.306209  1
  Ta  Ta4  1  0.698944  0.695013  0.299539  1
  Ta  Ta5  1  0.299533  0.306510  0.698960  1
  Ta  Ta6  1  0.551059  0.554977  0.950478  1
  Ta  Ta7  1  0.950485  0.554971  0.551054  1
  Ta  Ta8  1  0.551038  0.943478  0.950468  1
  Ta  Ta9  1  0.950475  0.943483  0.551035  1
  Ta  Ta10  1  0.698874  0.301143  0.698851  1
  Ta  Ta11  1  0.943759  0.556196  0.943798  1
  Ga  Ga12  1  0.915353  0.916993  0.915498  1
  Ga  Ga13  1  0.997757  0.333652  0.335045  1
  Ga  Ga14  1  0.334686  0.997827  0.334545  1
  Ga  Ga15  1  0.335123  0.333590  0.997800  1
  Ga  Ga16  1  0.915320  0.252157  0.915461  1
  Ga  Ga17  1  0.914880  0.916408  0.252200  1
  Ga  Ga18  1  0.252242  0.916349  0.914960  1
  Ga  Ga19  1  0.334647  0.333017  0.334509  1
  Fe  Fe20  1  0.125023  0.125010  0.125025  1
  Fe  Fe21  1  0.624851  0.125063  0.125043  1
  Fe  Fe22  1  0.125019  0.624977  0.124976  1
  Fe  Fe23  1  0.125040  0.125024  0.624890  1
  B  B24  1  0.625011  0.624990  0.625005  1
  B  B25  1  0.625003  0.125002  0.625002  1
  N  N26  1  0.125005  0.624998  0.625000  1
  N  N27  1  0.624999  0.624998  0.125006  1
