# generated using pymatgen
data_Tb11In9Ni3Ag
_symmetry_space_group_name_H-M   'P 1'
_cell_length_a   3.60988600
_cell_length_b   13.17236626
_cell_length_c   13.17006299
_cell_angle_alpha   110.83841775
_cell_angle_beta   90.00000000
_cell_angle_gamma   90.00000000
_symmetry_Int_Tables_number   1
_chemical_formula_structural   Tb11In9Ni3Ag
_chemical_formula_sum   'Tb11 In9 Ni3 Ag1'
_cell_volume   585.28182860
_cell_formula_units_Z   1
loop_
 _symmetry_equiv_pos_site_id
 _symmetry_equiv_pos_as_xyz
  1  'x, y, z'
loop_
 _atom_site_type_symbol
 _atom_site_label
 _atom_site_symmetry_multiplicity
 _atom_site_fract_x
 _atom_site_fract_y
 _atom_site_fract_z
 _atom_site_occupancy
  Tb  Tb0  1  0.000000  0.939971  0.584713  1
  Tb  Tb1  1  0.000000  0.083194  0.421774  1
  Tb  Tb2  1  0.000000  0.578114  0.923121  1
  Tb  Tb3  1  0.000000  0.419719  0.076455  1
  Tb  Tb4  1  0.000000  0.158794  0.843307  1
  Tb  Tb5  1  0.000000  0.843798  0.158662  1
  Tb  Tb6  1  0.000000  0.372505  0.626569  1
  Tb  Tb7  1  0.000000  0.614114  0.356654  1
  Tb  Tb8  1  0.000000  0.679265  0.698661  1
  Tb  Tb9  1  0.000000  0.311358  0.311537  1
  Tb  Tb10  1  0.000000  0.999614  0.000296  1
  In  In11  1  0.500000  0.163297  0.635147  1
  In  In12  1  0.500000  0.845025  0.367759  1
  In  In13  1  0.500000  0.634672  0.153169  1
  In  In14  1  0.500000  0.366823  0.840973  1
  In  In15  1  0.500000  0.923920  0.780663  1
  In  In16  1  0.500000  0.077196  0.220399  1
  In  In17  1  0.500000  0.779841  0.926985  1
  In  In18  1  0.500000  0.219624  0.076541  1
  In  In19  1  0.500000  0.497584  0.499376  1
  Ni  Ni20  1  0.500000  0.251154  0.451935  1
  Ni  Ni21  1  0.500000  0.545507  0.752950  1
  Ni  Ni22  1  0.500000  0.447874  0.245561  1
  Ag  Ag23  1  0.500000  0.747036  0.546795  1
