# generated using pymatgen
data_Sm8Ga(Pd5Pt)4
_symmetry_space_group_name_H-M   'P 1'
_cell_length_a   8.44882102
_cell_length_b   8.44911702
_cell_length_c   8.44802200
_cell_angle_alpha   90.00000000
_cell_angle_beta   90.00000000
_cell_angle_gamma   90.00863271
_symmetry_Int_Tables_number   1
_chemical_formula_structural   Sm8Ga(Pd5Pt)4
_chemical_formula_sum   'Sm8 Ga1 Pd20 Pt4'
_cell_volume   603.06269874
_cell_formula_units_Z   1
loop_
 _symmetry_equiv_pos_site_id
 _symmetry_equiv_pos_as_xyz
  1  'x, y, z'
loop_
 _atom_site_type_symbol
 _atom_site_label
 _atom_site_symmetry_multiplicity
 _atom_site_fract_x
 _atom_site_fract_y
 _atom_site_fract_z
 _atom_site_occupancy
  Sm  Sm0  1  0.251560  0.251891  0.251685  1
  Sm  Sm1  1  0.748047  0.747643  0.748131  1
  Sm  Sm2  1  0.748047  0.747643  0.251869  1
  Sm  Sm3  1  0.748369  0.252356  0.747825  1
  Sm  Sm4  1  0.251560  0.251891  0.748315  1
  Sm  Sm5  1  0.251886  0.748116  0.251376  1
  Sm  Sm6  1  0.251886  0.748116  0.748624  1
  Sm  Sm7  1  0.748369  0.252356  0.252175  1
  Ga  Ga8  1  0.000479  0.000165  0.000000  1
  Pd  Pd9  1  0.499943  0.260697  0.000000  1
  Pd  Pd10  1  0.999927  0.739347  0.500000  1
  Pd  Pd11  1  0.499964  0.739406  0.000000  1
  Pd  Pd12  1  0.499939  0.999958  0.260807  1
  Pd  Pd13  1  0.260670  0.999986  0.500000  1
  Pd  Pd14  1  0.499939  0.999958  0.739193  1
  Pd  Pd15  1  0.739117  0.999996  0.500000  1
  Pd  Pd16  1  0.999934  0.499877  0.260834  1
  Pd  Pd17  1  0.999934  0.499877  0.739166  1
  Pd  Pd18  1  0.253108  0.499939  0.500000  1
  Pd  Pd19  1  0.746938  0.499964  0.500000  1
  Pd  Pd20  1  0.500112  0.253141  0.500000  1
  Pd  Pd21  1  0.500108  0.746799  0.500000  1
  Pd  Pd22  1  0.500089  0.500112  0.253079  1
  Pd  Pd23  1  0.500089  0.500112  0.746921  1
  Pd  Pd24  1  0.707613  0.999938  0.000000  1
  Pd  Pd25  1  0.999776  0.293466  0.000000  1
  Pd  Pd26  1  0.999770  0.706337  0.000000  1
  Pd  Pd27  1  0.999776  0.999983  0.293638  1
  Pd  Pd28  1  0.999776  0.999983  0.706362  1
  Pt  Pt29  1  0.260470  0.500155  0.000000  1
  Pt  Pt30  1  0.739264  0.500136  0.000000  1
  Pt  Pt31  1  0.999921  0.260739  0.500000  1
  Pt  Pt32  1  0.293620  0.999917  0.000000  1
