# generated using pymatgen
data_Nd4Tm4Tc(B8Ru)3
_symmetry_space_group_name_H-M   'P 1'
_cell_length_a   3.70418400
_cell_length_b   9.18975957
_cell_length_c   11.62977602
_cell_angle_alpha   89.91675963
_cell_angle_beta   90.00000000
_cell_angle_gamma   90.00000000
_symmetry_Int_Tables_number   1
_chemical_formula_structural   Nd4Tm4Tc(B8Ru)3
_chemical_formula_sum   'Nd4 Tm4 Tc1 B24 Ru3'
_cell_volume   395.88367474
_cell_formula_units_Z   1
loop_
 _symmetry_equiv_pos_site_id
 _symmetry_equiv_pos_as_xyz
  1  'x, y, z'
loop_
 _atom_site_type_symbol
 _atom_site_label
 _atom_site_symmetry_multiplicity
 _atom_site_fract_x
 _atom_site_fract_y
 _atom_site_fract_z
 _atom_site_occupancy
  Nd  Nd0  1  0.000000  0.323768  0.413450  1
  Nd  Nd1  1  0.000000  0.677236  0.583824  1
  Nd  Nd2  1  0.000000  0.821045  0.087226  1
  Nd  Nd3  1  0.000000  0.176892  0.915193  1
  Tm  Tm4  1  0.000000  0.943376  0.371900  1
  Tm  Tm5  1  0.000000  0.056905  0.628719  1
  Tm  Tm6  1  0.000000  0.444730  0.128701  1
  Tm  Tm7  1  0.000000  0.556401  0.870844  1
  Tc  Tc8  1  0.000000  0.639545  0.319052  1
  B  B9  1  0.500000  0.555253  0.430326  1
  B  B10  1  0.500000  0.443974  0.569931  1
  B  B11  1  0.500000  0.056118  0.069883  1
  B  B12  1  0.500000  0.943559  0.930518  1
  B  B13  1  0.500000  0.750279  0.416901  1
  B  B14  1  0.500000  0.249838  0.583105  1
  B  B15  1  0.500000  0.250165  0.082733  1
  B  B16  1  0.500000  0.749604  0.917099  1
  B  B17  1  0.500000  0.791334  0.266634  1
  B  B18  1  0.500000  0.209268  0.733525  1
  B  B19  1  0.500000  0.290851  0.232782  1
  B  B20  1  0.500000  0.709713  0.766419  1
  B  B21  1  0.500000  0.629967  0.185566  1
  B  B22  1  0.500000  0.369807  0.814982  1
  B  B23  1  0.500000  0.130017  0.314395  1
  B  B24  1  0.500000  0.870450  0.685149  1
  B  B25  1  0.500000  0.984925  0.214171  1
  B  B26  1  0.500000  0.014895  0.786383  1
  B  B27  1  0.500000  0.484102  0.285805  1
  B  B28  1  0.500000  0.514772  0.714051  1
  B  B29  1  0.500000  0.600850  0.026860  1
  B  B30  1  0.500000  0.398771  0.971928  1
  B  B31  1  0.500000  0.101628  0.472691  1
  B  B32  1  0.500000  0.899815  0.528136  1
  Ru  Ru33  1  0.000000  0.360130  0.681512  1
  Ru  Ru34  1  0.000000  0.139642  0.180631  1
  Ru  Ru35  1  0.000000  0.860376  0.818973  1
