# generated using pymatgen
data_Tm13Th3Mg2(CdNi2)2
_symmetry_space_group_name_H-M   'P 1'
_cell_length_a   9.52759593
_cell_length_b   9.54978063
_cell_length_c   9.53368300
_cell_angle_alpha   60.05574188
_cell_angle_beta   59.97886001
_cell_angle_gamma   60.08232826
_symmetry_Int_Tables_number   1
_chemical_formula_structural   Tm13Th3Mg2(CdNi2)2
_chemical_formula_sum   'Tm13 Th3 Mg2 Cd2 Ni4'
_cell_volume   613.91068789
_cell_formula_units_Z   1
loop_
 _symmetry_equiv_pos_site_id
 _symmetry_equiv_pos_as_xyz
  1  'x, y, z'
loop_
 _atom_site_type_symbol
 _atom_site_label
 _atom_site_symmetry_multiplicity
 _atom_site_fract_x
 _atom_site_fract_y
 _atom_site_fract_z
 _atom_site_occupancy
  Tm  Tm0  1  0.200987  0.601221  0.598897  1
  Tm  Tm1  1  0.063140  0.437474  0.437642  1
  Tm  Tm2  1  0.437767  0.062852  0.062820  1
  Tm  Tm3  1  0.437767  0.062852  0.436560  1
  Tm  Tm4  1  0.063140  0.437474  0.061744  1
  Tm  Tm5  1  0.439102  0.435946  0.062476  1
  Tm  Tm6  1  0.062870  0.061896  0.437617  1
  Tm  Tm7  1  0.184387  0.816484  0.817216  1
  Tm  Tm8  1  0.814975  0.184226  0.183536  1
  Tm  Tm9  1  0.814975  0.184226  0.817263  1
  Tm  Tm10  1  0.184387  0.816484  0.181913  1
  Tm  Tm11  1  0.815115  0.817015  0.183934  1
  Tm  Tm12  1  0.183872  0.181334  0.817397  1
  Th  Th13  1  0.591068  0.597834  0.599976  1
  Th  Th14  1  0.591068  0.597834  0.211123  1
  Th  Th15  1  0.591572  0.206001  0.601213  1
  Mg  Mg16  1  0.833767  0.514475  0.825879  1
  Mg  Mg17  1  0.513841  0.830052  0.828053  1
  Cd  Cd18  1  0.836254  0.830334  0.832129  1
  Cd  Cd19  1  0.836254  0.830334  0.501282  1
  Ni  Ni20  1  0.395118  0.389758  0.390604  1
  Ni  Ni21  1  0.395118  0.389758  0.824522  1
  Ni  Ni22  1  0.394015  0.823243  0.391372  1
  Ni  Ni23  1  0.819437  0.390897  0.394834  1
