# generated using pymatgen
data_YbPu3H11
_symmetry_space_group_name_H-M   'P 1'
_cell_length_a   6.42153502
_cell_length_b   6.42153470
_cell_length_c   6.42153477
_cell_angle_alpha   130.84397531
_cell_angle_beta   133.30653825
_cell_angle_gamma   70.12903857
_symmetry_Int_Tables_number   1
_chemical_formula_structural   YbPu3H11
_chemical_formula_sum   'Yb1 Pu3 H11'
_cell_volume   142.90201728
_cell_formula_units_Z   1
loop_
 _symmetry_equiv_pos_site_id
 _symmetry_equiv_pos_as_xyz
  1  'x, y, z'
loop_
 _atom_site_type_symbol
 _atom_site_label
 _atom_site_symmetry_multiplicity
 _atom_site_fract_x
 _atom_site_fract_y
 _atom_site_fract_z
 _atom_site_occupancy
  Yb  Yb0  1  0.500000  0.000000  0.500000  1
  Pu  Pu1  1  0.262316  0.262316  0.000000  1
  Pu  Pu2  1  0.000000  0.500000  0.500000  1
  Pu  Pu3  1  0.737684  0.737684  0.000000  1
  H  H4  1  0.648066  0.113141  0.004999  1
  H  H5  1  0.351934  0.356933  0.465074  1
  H  H6  1  0.108142  0.643067  0.995001  1
  H  H7  1  0.891858  0.886859  0.534926  1
  H  H8  1  0.891858  0.356933  0.004999  1
  H  H9  1  0.648066  0.643067  0.534926  1
  H  H10  1  0.351934  0.886859  0.995001  1
  H  H11  1  0.108142  0.113141  0.465074  1
  H  H12  1  0.760731  0.260731  0.500000  1
  H  H13  1  0.500000  0.500000  0.000000  1
  H  H14  1  0.239269  0.739269  0.500000  1
