# generated using pymatgen
data_Ti8Al15Os2Pt4Rh
_symmetry_space_group_name_H-M   'P 1'
_cell_length_a   8.67875479
_cell_length_b   8.70105929
_cell_length_c   8.67875434
_cell_angle_alpha   119.99140707
_cell_angle_beta   119.82907799
_cell_angle_gamma   90.08177745
_symmetry_Int_Tables_number   1
_chemical_formula_structural   Ti8Al15Os2Pt4Rh
_chemical_formula_sum   'Ti8 Al15 Os2 Pt4 Rh1'
_cell_volume   464.34154261
_cell_formula_units_Z   1
loop_
 _symmetry_equiv_pos_site_id
 _symmetry_equiv_pos_as_xyz
  1  'x, y, z'
loop_
 _atom_site_type_symbol
 _atom_site_label
 _atom_site_symmetry_multiplicity
 _atom_site_fract_x
 _atom_site_fract_y
 _atom_site_fract_z
 _atom_site_occupancy
  Ti  Ti0  1  0.789853  0.287617  0.078138  1
  Ti  Ti1  1  0.209479  0.287617  0.497763  1
  Ti  Ti2  1  0.208372  0.715178  0.506805  1
  Ti  Ti3  1  0.219951  0.720040  0.926665  1
  Ti  Ti4  1  0.793375  0.720040  0.500089  1
  Ti  Ti5  1  0.786512  0.278672  0.492160  1
  Ti  Ti6  1  0.374306  0.116234  0.741929  1
  Ti  Ti7  1  0.381328  0.640067  0.258739  1
  Al  Al8  1  0.997563  0.499239  0.501676  1
  Al  Al9  1  0.154096  0.346588  0.192491  1
  Al  Al10  1  0.155573  0.968981  0.813409  1
  Al  Al11  1  0.151433  0.345241  0.804868  1
  Al  Al12  1  0.540372  0.345241  0.193807  1
  Al  Al13  1  0.847451  0.650587  0.803137  1
  Al  Al14  1  0.841977  0.030315  0.188339  1
  Al  Al15  1  0.844311  0.656044  0.189521  1
  Al  Al16  1  0.466522  0.656044  0.811732  1
  Al  Al17  1  0.383327  0.119217  0.258100  1
  Al  Al18  1  0.861117  0.119217  0.735889  1
  Al  Al19  1  0.623046  0.880643  0.257597  1
  Al  Al20  1  0.619509  0.359614  0.740106  1
  Al  Al21  1  0.617832  0.881770  0.744749  1
  Al  Al22  1  0.137020  0.881770  0.263938  1
  Os  Os23  1  0.001696  0.999502  0.502514  1
  Os  Os24  1  0.496988  0.999502  0.997806  1
  Pt  Pt25  1  0.498505  0.496285  0.997779  1
  Pt  Pt26  1  0.499386  0.500290  0.499853  1
  Pt  Pt27  1  0.000439  0.500290  0.000904  1
  Pt  Pt28  1  0.999369  0.999535  0.000166  1
  Rh  Rh29  1  0.499286  0.998620  0.499334  1
