# generated using pymatgen
data_Er10Ga3Sn2Te
_symmetry_space_group_name_H-M   'P 1'
_cell_length_a   8.71558700
_cell_length_b   8.72936842
_cell_length_c   6.53077700
_cell_angle_alpha   90.00000000
_cell_angle_beta   90.00000000
_cell_angle_gamma   120.01758315
_symmetry_Int_Tables_number   1
_chemical_formula_structural   Er10Ga3Sn2Te
_chemical_formula_sum   'Er10 Ga3 Sn2 Te1'
_cell_volume   430.22731118
_cell_formula_units_Z   1
loop_
 _symmetry_equiv_pos_site_id
 _symmetry_equiv_pos_as_xyz
  1  'x, y, z'
loop_
 _atom_site_type_symbol
 _atom_site_label
 _atom_site_symmetry_multiplicity
 _atom_site_fract_x
 _atom_site_fract_y
 _atom_site_fract_z
 _atom_site_occupancy
  Er  Er0  1  0.981963  0.748277  0.750000  1
  Er  Er1  1  0.012647  0.242825  0.250000  1
  Er  Er2  1  0.758885  0.756945  0.250000  1
  Er  Er3  1  0.766649  0.000233  0.750000  1
  Er  Er4  1  0.230728  0.248774  0.750000  1
  Er  Er5  1  0.242150  0.011538  0.250000  1
  Er  Er6  1  0.335100  0.646763  0.499976  1
  Er  Er7  1  0.668894  0.347306  0.000035  1
  Er  Er8  1  0.668894  0.347306  0.499965  1
  Er  Er9  1  0.335100  0.646763  0.000024  1
  Ga  Ga10  1  0.401285  0.395565  0.250000  1
  Ga  Ga11  1  0.994744  0.396276  0.750000  1
  Ga  Ga12  1  0.601081  0.602313  0.750000  1
  Sn  Sn13  1  0.008853  0.609404  0.250000  1
  Sn  Sn14  1  0.605303  0.002845  0.250000  1
  Te  Te15  1  0.387724  0.996870  0.750000  1
