# generated using pymatgen
data_Tm5Ti3(P3Ir4)4
_symmetry_space_group_name_H-M   'P 1'
_cell_length_a   12.64506200
_cell_length_b   12.64506207
_cell_length_c   3.96908400
_cell_angle_alpha   90.00000000
_cell_angle_beta   90.00000000
_cell_angle_gamma   119.99999983
_symmetry_Int_Tables_number   1
_chemical_formula_structural   Tm5Ti3(P3Ir4)4
_chemical_formula_sum   'Tm5 Ti3 P12 Ir16'
_cell_volume   549.62040913
_cell_formula_units_Z   1
loop_
 _symmetry_equiv_pos_site_id
 _symmetry_equiv_pos_as_xyz
  1  'x, y, z'
loop_
 _atom_site_type_symbol
 _atom_site_label
 _atom_site_symmetry_multiplicity
 _atom_site_fract_x
 _atom_site_fract_y
 _atom_site_fract_z
 _atom_site_occupancy
  Tm  Tm0  1  0.333333  0.666667  0.000000  1
  Tm  Tm1  1  0.666667  0.333333  0.000000  1
  Tm  Tm2  1  0.813669  0.000000  0.500000  1
  Tm  Tm3  1  0.000000  0.813669  0.500000  1
  Tm  Tm4  1  0.186331  0.186331  0.500000  1
  Ti  Ti5  1  0.449254  0.000000  0.000000  1
  Ti  Ti6  1  0.000000  0.449254  0.000000  1
  Ti  Ti7  1  0.550746  0.550746  0.000000  1
  P  P8  1  0.176390  0.000000  0.000000  1
  P  P9  1  0.000000  0.176390  0.000000  1
  P  P10  1  0.823610  0.823610  0.000000  1
  P  P11  1  0.167178  0.484034  0.500000  1
  P  P12  1  0.515966  0.683143  0.500000  1
  P  P13  1  0.316857  0.832822  0.500000  1
  P  P14  1  0.683143  0.515966  0.500000  1
  P  P15  1  0.832822  0.316857  0.500000  1
  P  P16  1  0.484034  0.167178  0.500000  1
  P  P17  1  0.641895  0.000000  0.000000  1
  P  P18  1  0.000000  0.641895  0.000000  1
  P  P19  1  0.358105  0.358105  0.000000  1
  Ir  Ir20  1  0.355815  0.490327  0.500000  1
  Ir  Ir21  1  0.509673  0.865488  0.500000  1
  Ir  Ir22  1  0.134512  0.644185  0.500000  1
  Ir  Ir23  1  0.865488  0.509673  0.500000  1
  Ir  Ir24  1  0.644185  0.134512  0.500000  1
  Ir  Ir25  1  0.490327  0.355815  0.500000  1
  Ir  Ir26  1  0.178118  0.371770  0.000000  1
  Ir  Ir27  1  0.628230  0.806349  0.000000  1
  Ir  Ir28  1  0.193651  0.821882  0.000000  1
  Ir  Ir29  1  0.806349  0.628230  0.000000  1
  Ir  Ir30  1  0.821882  0.193651  0.000000  1
  Ir  Ir31  1  0.371770  0.178118  0.000000  1
  Ir  Ir32  1  0.283455  0.000000  0.500000  1
  Ir  Ir33  1  0.000000  0.283455  0.500000  1
  Ir  Ir34  1  0.716545  0.716545  0.500000  1
  Ir  Ir35  1  0.000000  0.000000  0.000000  1
