# generated using pymatgen
data_Nd3Sm2(Tm5Bi4)3
_symmetry_space_group_name_H-M   'P 1'
_cell_length_a   8.25334211
_cell_length_b   9.49070076
_cell_length_c   12.03093500
_cell_angle_alpha   89.91354346
_cell_angle_beta   90.12331316
_cell_angle_gamma   90.09110982
_symmetry_Int_Tables_number   1
_chemical_formula_structural   Nd3Sm2(Tm5Bi4)3
_chemical_formula_sum   'Nd3 Sm2 Tm15 Bi12'
_cell_volume   942.37869941
_cell_formula_units_Z   1
loop_
 _symmetry_equiv_pos_site_id
 _symmetry_equiv_pos_as_xyz
  1  'x, y, z'
loop_
 _atom_site_type_symbol
 _atom_site_label
 _atom_site_symmetry_multiplicity
 _atom_site_fract_x
 _atom_site_fract_y
 _atom_site_fract_z
 _atom_site_occupancy
  Nd  Nd0  1  0.189884  0.560472  0.438481  1
  Nd  Nd1  1  0.316152  0.250445  0.218746  1
  Nd  Nd2  1  0.817564  0.249685  0.280806  1
  Sm  Sm3  1  0.684771  0.751079  0.782577  1
  Sm  Sm4  1  0.184403  0.751080  0.719032  1
  Tm  Tm5  1  0.356278  0.751081  0.217504  1
  Tm  Tm6  1  0.851798  0.751274  0.281196  1
  Tm  Tm7  1  0.647317  0.250767  0.781679  1
  Tm  Tm8  1  0.147833  0.252656  0.719318  1
  Tm  Tm9  1  0.690995  0.566985  0.061043  1
  Tm  Tm10  1  0.191322  0.931215  0.437441  1
  Tm  Tm11  1  0.307985  0.066772  0.938765  1
  Tm  Tm12  1  0.810671  0.432706  0.560986  1
  Tm  Tm13  1  0.309212  0.433709  0.938605  1
  Tm  Tm14  1  0.805051  0.065215  0.563089  1
  Tm  Tm15  1  0.691728  0.933865  0.061071  1
  Tm  Tm16  1  0.477924  0.251121  0.488652  1
  Tm  Tm17  1  0.977654  0.251163  0.010467  1
  Tm  Tm18  1  0.522827  0.749967  0.512935  1
  Tm  Tm19  1  0.021703  0.750435  0.987027  1
  Bi  Bi20  1  0.402768  0.750235  0.961193  1
  Bi  Bi21  1  0.900350  0.752512  0.540037  1
  Bi  Bi22  1  0.597499  0.250244  0.036769  1
  Bi  Bi23  1  0.094433  0.239219  0.465198  1
  Bi  Bi24  1  0.565668  0.992171  0.328183  1
  Bi  Bi25  1  0.064892  0.509538  0.169321  1
  Bi  Bi26  1  0.434788  0.493283  0.674405  1
  Bi  Bi27  1  0.934062  0.009036  0.826969  1
  Bi  Bi28  1  0.434154  0.008412  0.673093  1
  Bi  Bi29  1  0.933397  0.493483  0.827235  1
  Bi  Bi30  1  0.569227  0.509166  0.327489  1
  Bi  Bi31  1  0.065687  0.991005  0.170687  1
