# generated using pymatgen
data_Ba2Ir2Br
_symmetry_space_group_name_H-M   'P 1'
_cell_length_a   4.42538200
_cell_length_b   4.42538130
_cell_length_c   18.51469400
_cell_angle_alpha   90.00000000
_cell_angle_beta   90.00000000
_cell_angle_gamma   119.99999030
_symmetry_Int_Tables_number   1
_chemical_formula_structural   Ba2Ir2Br
_chemical_formula_sum   'Ba4 Ir4 Br2'
_cell_volume   314.01375629
_cell_formula_units_Z   2
loop_
 _symmetry_equiv_pos_site_id
 _symmetry_equiv_pos_as_xyz
  1  'x, y, z'
loop_
 _atom_site_type_symbol
 _atom_site_label
 _atom_site_symmetry_multiplicity
 _atom_site_fract_x
 _atom_site_fract_y
 _atom_site_fract_z
 _atom_site_occupancy
  Ba  Ba0  1  0.000000  0.000000  0.117294  1
  Ba  Ba1  1  0.000000  0.000000  0.882706  1
  Ba  Ba2  1  0.000000  0.000000  0.617294  1
  Ba  Ba3  1  0.000000  0.000000  0.382706  1
  Ir  Ir4  1  0.333333  0.666667  0.500396  1
  Ir  Ir5  1  0.666667  0.333333  0.499604  1
  Ir  Ir6  1  0.666667  0.333333  0.000396  1
  Ir  Ir7  1  0.333333  0.666667  0.999604  1
  Br  Br8  1  0.333333  0.666667  0.250000  1
  Br  Br9  1  0.666667  0.333333  0.750000  1
