# generated using pymatgen
data_Dy6Y4Ho2Co5Hg
_symmetry_space_group_name_H-M   'P 1'
_cell_length_a   8.27269730
_cell_length_b   8.26502171
_cell_length_c   8.27269508
_cell_angle_alpha   110.45385856
_cell_angle_beta   110.15196470
_cell_angle_gamma   107.85712591
_symmetry_Int_Tables_number   1
_chemical_formula_structural   Dy6Y4Ho2Co5Hg
_chemical_formula_sum   'Dy6 Y4 Ho2 Co5 Hg1'
_cell_volume   434.96366396
_cell_formula_units_Z   1
loop_
 _symmetry_equiv_pos_site_id
 _symmetry_equiv_pos_as_xyz
  1  'x, y, z'
loop_
 _atom_site_type_symbol
 _atom_site_label
 _atom_site_symmetry_multiplicity
 _atom_site_fract_x
 _atom_site_fract_y
 _atom_site_fract_z
 _atom_site_occupancy
  Dy  Dy0  1  0.684344  0.988729  0.304386  1
  Dy  Dy1  1  0.315656  0.011271  0.695614  1
  Dy  Dy2  1  0.598831  0.790312  0.807860  1
  Dy  Dy3  1  0.401169  0.209688  0.192140  1
  Dy  Dy4  1  0.982452  0.790312  0.191481  1
  Dy  Dy5  1  0.017548  0.209688  0.808519  1
  Y  Y6  1  0.813162  0.707537  0.521498  1
  Y  Y7  1  0.186838  0.292463  0.478502  1
  Y  Y8  1  0.186038  0.707537  0.894374  1
  Y  Y9  1  0.813962  0.292463  0.105626  1
  Ho  Ho10  1  0.684276  0.379618  0.695342  1
  Ho  Ho11  1  0.315724  0.620382  0.304658  1
  Co  Co12  1  0.621147  0.000000  0.621147  1
  Co  Co13  1  0.378853  0.000000  0.378853  1
  Co  Co14  1  0.113626  0.613495  0.499869  1
  Co  Co15  1  0.886374  0.386505  0.500131  1
  Co  Co16  1  0.000000  0.000000  0.000000  1
  Hg  Hg17  1  0.500000  0.500000  0.000000  1
