# generated using pymatgen
data_Yb5Lu(IrO6)3
_symmetry_space_group_name_H-M   'P 1'
_cell_length_a   8.75309395
_cell_length_b   8.75309430
_cell_length_c   5.11207100
_cell_angle_alpha   90.76830710
_cell_angle_beta   89.23169287
_cell_angle_gamma   119.84909084
_symmetry_Int_Tables_number   1
_chemical_formula_structural   Yb5Lu(IrO6)3
_chemical_formula_sum   'Yb5 Lu1 Ir3 O18'
_cell_volume   339.66982712
_cell_formula_units_Z   1
loop_
 _symmetry_equiv_pos_site_id
 _symmetry_equiv_pos_as_xyz
  1  'x, y, z'
loop_
 _atom_site_type_symbol
 _atom_site_label
 _atom_site_symmetry_multiplicity
 _atom_site_fract_x
 _atom_site_fract_y
 _atom_site_fract_z
 _atom_site_occupancy
  Yb  Yb0  1  0.998797  0.263015  0.505245  1
  Yb  Yb1  1  0.263015  0.998797  0.494755  1
  Yb  Yb2  1  0.408788  0.408788  0.000000  1
  Yb  Yb3  1  0.990549  0.593403  0.002933  1
  Yb  Yb4  1  0.593403  0.990549  0.997067  1
  Lu  Lu5  1  0.726803  0.726803  0.500000  1
  Ir  Ir6  1  0.666188  0.330310  0.568755  1
  Ir  Ir7  1  0.330310  0.666188  0.431245  1
  Ir  Ir8  1  0.003812  0.003812  0.000000  1
  O  O9  1  0.791040  0.263409  0.798487  1
  O  O10  1  0.736316  0.540207  0.783357  1
  O  O11  1  0.464092  0.208227  0.782729  1
  O  O12  1  0.540207  0.736316  0.216643  1
  O  O13  1  0.208227  0.464092  0.217271  1
  O  O14  1  0.263409  0.791040  0.201513  1
  O  O15  1  0.584600  0.446929  0.345674  1
  O  O16  1  0.558884  0.132725  0.348545  1
  O  O17  1  0.872307  0.424725  0.362226  1
  O  O18  1  0.045886  0.852520  0.784989  1
  O  O19  1  0.148817  0.189007  0.772050  1
  O  O20  1  0.809099  0.949544  0.760726  1
  O  O21  1  0.189007  0.148817  0.227950  1
  O  O22  1  0.949544  0.809099  0.239274  1
  O  O23  1  0.852520  0.045886  0.215011  1
  O  O24  1  0.446929  0.584600  0.654326  1
  O  O25  1  0.424725  0.872307  0.637774  1
  O  O26  1  0.132725  0.558884  0.651455  1
