# generated using pymatgen
data_Hf10ZnSnGeSb5
_symmetry_space_group_name_H-M   'P 1'
_cell_length_a   8.60816000
_cell_length_b   8.62047501
_cell_length_c   5.79577800
_cell_angle_alpha   89.99874173
_cell_angle_beta   90.00252013
_cell_angle_gamma   119.95275432
_symmetry_Int_Tables_number   1
_chemical_formula_structural   Hf10ZnSnGeSb5
_chemical_formula_sum   'Hf10 Zn1 Sn1 Ge1 Sb5'
_cell_volume   372.64085080
_cell_formula_units_Z   1
loop_
 _symmetry_equiv_pos_site_id
 _symmetry_equiv_pos_as_xyz
  1  'x, y, z'
loop_
 _atom_site_type_symbol
 _atom_site_label
 _atom_site_symmetry_multiplicity
 _atom_site_fract_x
 _atom_site_fract_y
 _atom_site_fract_z
 _atom_site_occupancy
  Hf  Hf0  1  0.732932  0.733315  0.249883  1
  Hf  Hf1  1  0.732654  0.000000  0.749910  1
  Hf  Hf2  1  0.999616  0.266685  0.249883  1
  Hf  Hf3  1  0.999973  0.731368  0.749904  1
  Hf  Hf4  1  0.268605  0.268632  0.749904  1
  Hf  Hf5  1  0.266399  0.000000  0.249981  1
  Hf  Hf6  1  0.333523  0.666387  0.500665  1
  Hf  Hf7  1  0.666605  0.333103  0.999234  1
  Hf  Hf8  1  0.667138  0.333613  0.500665  1
  Hf  Hf9  1  0.333500  0.666897  0.999234  1
  Zn  Zn10  1  0.000624  0.000000  0.501323  1
  Sn  Sn11  1  0.387962  0.000000  0.748413  1
  Ge  Ge12  1  0.000384  0.000000  0.998614  1
  Sb  Sb13  1  0.390443  0.389788  0.252057  1
  Sb  Sb14  1  0.000654  0.610212  0.252057  1
  Sb  Sb15  1  0.999986  0.389404  0.748081  1
  Sb  Sb16  1  0.610582  0.610596  0.748081  1
  Sb  Sb17  1  0.608420  0.000000  0.252110  1
