# generated using pymatgen
data_Zr10CuBi4Pb2Au
_symmetry_space_group_name_H-M   'P 1'
_cell_length_a   8.86092289
_cell_length_b   8.86092326
_cell_length_c   5.98116002
_cell_angle_alpha   89.99583425
_cell_angle_beta   89.99583423
_cell_angle_gamma   119.93285082
_symmetry_Int_Tables_number   1
_chemical_formula_structural   Zr10CuBi4Pb2Au
_chemical_formula_sum   'Zr10 Cu1 Bi4 Pb2 Au1'
_cell_volume   406.97473087
_cell_formula_units_Z   1
loop_
 _symmetry_equiv_pos_site_id
 _symmetry_equiv_pos_as_xyz
  1  'x, y, z'
loop_
 _atom_site_type_symbol
 _atom_site_label
 _atom_site_symmetry_multiplicity
 _atom_site_fract_x
 _atom_site_fract_y
 _atom_site_fract_z
 _atom_site_occupancy
  Zr  Zr0  1  0.666531  0.333162  0.500877  1
  Zr  Zr1  1  0.333162  0.666531  0.500877  1
  Zr  Zr2  1  0.333211  0.666537  0.998633  1
  Zr  Zr3  1  0.666537  0.333211  0.998633  1
  Zr  Zr4  1  0.732785  0.732785  0.237294  1
  Zr  Zr5  1  0.265966  0.999418  0.237453  1
  Zr  Zr6  1  0.999418  0.265966  0.237453  1
  Zr  Zr7  1  0.266933  0.266933  0.762356  1
  Zr  Zr8  1  0.733721  0.002035  0.762480  1
  Zr  Zr9  1  0.002035  0.733721  0.762480  1
  Cu  Cu10  1  0.000613  0.000613  0.999719  1
  Bi  Bi11  1  0.384291  0.384291  0.254281  1
  Bi  Bi12  1  0.613764  0.000023  0.254447  1
  Bi  Bi13  1  0.000023  0.613764  0.254447  1
  Bi  Bi14  1  0.616108  0.616108  0.745454  1
  Pb  Pb15  1  0.384373  0.000158  0.745768  1
  Pb  Pb16  1  0.000158  0.384373  0.745768  1
  Au  Au17  1  0.000370  0.000370  0.501581  1
