# generated using pymatgen
data_Pr2B4Ir3Ru
_symmetry_space_group_name_H-M   'P 1'
_cell_length_a   7.04489013
_cell_length_b   6.11158348
_cell_length_c   5.59963686
_cell_angle_alpha   73.81632165
_cell_angle_beta   56.42295963
_cell_angle_gamma   50.16529685
_symmetry_Int_Tables_number   1
_chemical_formula_structural   Pr2B4Ir3Ru
_chemical_formula_sum   'Pr2 B4 Ir3 Ru1'
_cell_volume   153.16498557
_cell_formula_units_Z   1
loop_
 _symmetry_equiv_pos_site_id
 _symmetry_equiv_pos_as_xyz
  1  'x, y, z'
loop_
 _atom_site_type_symbol
 _atom_site_label
 _atom_site_symmetry_multiplicity
 _atom_site_fract_x
 _atom_site_fract_y
 _atom_site_fract_z
 _atom_site_occupancy
  Pr  Pr0  1  0.501597  0.501597  0.498403  1
  Pr  Pr1  1  0.751963  0.751963  0.748037  1
  B  B2  1  0.174186  0.821467  0.180543  1
  B  B3  1  0.071522  0.430693  0.067934  1
  B  B4  1  0.821467  0.174186  0.823804  1
  B  B5  1  0.430693  0.071522  0.429851  1
  Ir  Ir6  1  0.131530  0.131530  0.868470  1
  Ir  Ir7  1  0.381667  0.381667  0.118333  1
  Ir  Ir8  1  0.117969  0.117969  0.382031  1
  Ru  Ru9  1  0.867406  0.867406  0.132594  1
