# generated using pymatgen
data_K6Be2O5
_symmetry_space_group_name_H-M   'P 1'
_cell_length_a   6.32058200
_cell_length_b   6.32058200
_cell_length_c   11.49039800
_cell_angle_alpha   90.00000000
_cell_angle_beta   90.00000000
_cell_angle_gamma   90.00000000
_symmetry_Int_Tables_number   1
_chemical_formula_structural   K6Be2O5
_chemical_formula_sum   'K12 Be4 O10'
_cell_volume   459.03860585
_cell_formula_units_Z   2
loop_
 _symmetry_equiv_pos_site_id
 _symmetry_equiv_pos_as_xyz
  1  'x, y, z'
loop_
 _atom_site_type_symbol
 _atom_site_label
 _atom_site_symmetry_multiplicity
 _atom_site_fract_x
 _atom_site_fract_y
 _atom_site_fract_z
 _atom_site_occupancy
  K  K0  1  0.327092  0.327092  0.000000  1
  K  K1  1  0.172908  0.827092  0.500000  1
  K  K2  1  0.827092  0.172908  0.500000  1
  K  K3  1  0.672908  0.672908  0.000000  1
  K  K4  1  0.500000  0.000000  0.750000  1
  K  K5  1  0.500000  0.000000  0.250000  1
  K  K6  1  0.000000  0.500000  0.750000  1
  K  K7  1  0.000000  0.500000  0.250000  1
  K  K8  1  0.000000  0.000000  0.225588  1
  K  K9  1  0.500000  0.500000  0.725588  1
  K  K10  1  0.500000  0.500000  0.274412  1
  K  K11  1  0.000000  0.000000  0.774412  1
  Be  Be12  1  0.682890  0.682890  0.500000  1
  Be  Be13  1  0.317110  0.317110  0.500000  1
  Be  Be14  1  0.817110  0.182890  0.000000  1
  Be  Be15  1  0.182890  0.817110  0.000000  1
  O  O16  1  0.229213  0.229213  0.380983  1
  O  O17  1  0.270787  0.729213  0.880983  1
  O  O18  1  0.770787  0.770787  0.619017  1
  O  O19  1  0.729213  0.270787  0.119017  1
  O  O20  1  0.270787  0.729213  0.119017  1
  O  O21  1  0.229213  0.229213  0.619017  1
  O  O22  1  0.770787  0.770787  0.380983  1
  O  O23  1  0.000000  0.000000  0.000000  1
  O  O24  1  0.729213  0.270787  0.880983  1
  O  O25  1  0.500000  0.500000  0.500000  1
