# generated using pymatgen
data_Lu3ThCoHg
_symmetry_space_group_name_H-M   'P 1'
_cell_length_a   9.44796184
_cell_length_b   9.44798374
_cell_length_c   9.44798369
_cell_angle_alpha   59.77791627
_cell_angle_beta   59.78466676
_cell_angle_gamma   59.78465256
_symmetry_Int_Tables_number   1
_chemical_formula_structural   Lu3ThCoHg
_chemical_formula_sum   'Lu12 Th4 Co4 Hg4'
_cell_volume   593.40428745
_cell_formula_units_Z   4
loop_
 _symmetry_equiv_pos_site_id
 _symmetry_equiv_pos_as_xyz
  1  'x, y, z'
loop_
 _atom_site_type_symbol
 _atom_site_label
 _atom_site_symmetry_multiplicity
 _atom_site_fract_x
 _atom_site_fract_y
 _atom_site_fract_z
 _atom_site_occupancy
  Lu  Lu0  1  0.565216  0.936660  0.565332  1
  Lu  Lu1  1  0.936111  0.566158  0.936090  1
  Lu  Lu2  1  0.565216  0.565332  0.936660  1
  Lu  Lu3  1  0.936111  0.936090  0.566158  1
  Lu  Lu4  1  0.813327  0.186896  0.186896  1
  Lu  Lu5  1  0.185846  0.814903  0.814903  1
  Lu  Lu6  1  0.186845  0.813328  0.186877  1
  Lu  Lu7  1  0.814954  0.185838  0.814856  1
  Lu  Lu8  1  0.186845  0.186877  0.813328  1
  Lu  Lu9  1  0.814954  0.814856  0.185838  1
  Lu  Lu10  1  0.936590  0.565328  0.565328  1
  Lu  Lu11  1  0.566077  0.936177  0.936177  1
  Th  Th12  1  0.346897  0.346750  0.346750  1
  Th  Th13  1  0.349015  0.348701  0.954550  1
  Th  Th14  1  0.349015  0.954550  0.348701  1
  Th  Th15  1  0.954481  0.348838  0.348838  1
  Co  Co16  1  0.143043  0.143630  0.143630  1
  Co  Co17  1  0.141895  0.142010  0.569277  1
  Co  Co18  1  0.141895  0.569277  0.142010  1
  Co  Co19  1  0.569340  0.141957  0.141957  1
  Hg  Hg20  1  0.587619  0.587689  0.587689  1
  Hg  Hg21  1  0.585399  0.585482  0.237479  1
  Hg  Hg22  1  0.585399  0.237479  0.585482  1
  Hg  Hg23  1  0.237909  0.585194  0.585194  1
