# generated using pymatgen
data_TbNd3Th6(Ge3C)2
_symmetry_space_group_name_H-M   'P 1'
_cell_length_a   8.91929800
_cell_length_b   8.91929830
_cell_length_c   6.47583400
_cell_angle_alpha   90.00000000
_cell_angle_beta   90.00000000
_cell_angle_gamma   119.99999888
_symmetry_Int_Tables_number   1
_chemical_formula_structural   TbNd3Th6(Ge3C)2
_chemical_formula_sum   'Tb1 Nd3 Th6 Ge6 C2'
_cell_volume   446.15699602
_cell_formula_units_Z   1
loop_
 _symmetry_equiv_pos_site_id
 _symmetry_equiv_pos_as_xyz
  1  'x, y, z'
loop_
 _atom_site_type_symbol
 _atom_site_label
 _atom_site_symmetry_multiplicity
 _atom_site_fract_x
 _atom_site_fract_y
 _atom_site_fract_z
 _atom_site_occupancy
  Tb  Tb0  1  0.666667  0.333333  0.500000  1
  Nd  Nd1  1  0.666667  0.333333  0.000000  1
  Nd  Nd2  1  0.333333  0.666667  0.000000  1
  Nd  Nd3  1  0.333333  0.666667  0.500000  1
  Th  Th4  1  0.771308  0.771190  0.749470  1
  Th  Th5  1  0.228810  0.000119  0.749470  1
  Th  Th6  1  0.999881  0.228692  0.749470  1
  Th  Th7  1  0.228810  0.228692  0.250530  1
  Th  Th8  1  0.771308  0.000119  0.250530  1
  Th  Th9  1  0.999881  0.771190  0.250530  1
  Ge  Ge10  1  0.400741  0.397848  0.746848  1
  Ge  Ge11  1  0.602152  0.002893  0.746848  1
  Ge  Ge12  1  0.997107  0.599259  0.746848  1
  Ge  Ge13  1  0.602152  0.599259  0.253152  1
  Ge  Ge14  1  0.400741  0.002893  0.253152  1
  Ge  Ge15  1  0.997107  0.397848  0.253152  1
  C  C16  1  0.000000  0.000000  0.000000  1
  C  C17  1  0.000000  0.000000  0.500000  1
