# generated using pymatgen
data_Y2Si7(Pt3Rh)3
_symmetry_space_group_name_H-M   'P 1'
_cell_length_a   9.91988800
_cell_length_b   9.91988749
_cell_length_c   3.91819000
_cell_angle_alpha   90.00000000
_cell_angle_beta   90.00000000
_cell_angle_gamma   119.99998925
_symmetry_Int_Tables_number   1
_chemical_formula_structural   Y2Si7(Pt3Rh)3
_chemical_formula_sum   'Y2 Si7 Pt9 Rh3'
_cell_volume   333.91020016
_cell_formula_units_Z   1
loop_
 _symmetry_equiv_pos_site_id
 _symmetry_equiv_pos_as_xyz
  1  'x, y, z'
loop_
 _atom_site_type_symbol
 _atom_site_label
 _atom_site_symmetry_multiplicity
 _atom_site_fract_x
 _atom_site_fract_y
 _atom_site_fract_z
 _atom_site_occupancy
  Y  Y0  1  0.333333  0.666667  0.751955  1
  Y  Y1  1  0.666667  0.333333  0.249348  1
  Si  Si2  1  0.000000  0.000000  0.479995  1
  Si  Si3  1  0.399713  0.284191  0.751434  1
  Si  Si4  1  0.715809  0.115522  0.751434  1
  Si  Si5  1  0.884478  0.600287  0.751434  1
  Si  Si6  1  0.600271  0.712458  0.251132  1
  Si  Si7  1  0.287542  0.887813  0.251132  1
  Si  Si8  1  0.112187  0.399729  0.251132  1
  Pt  Pt9  1  0.454128  0.073249  0.749764  1
  Pt  Pt10  1  0.926751  0.380879  0.749764  1
  Pt  Pt11  1  0.619121  0.545872  0.749764  1
  Pt  Pt12  1  0.546859  0.926939  0.248597  1
  Pt  Pt13  1  0.073061  0.619919  0.248597  1
  Pt  Pt14  1  0.380081  0.453141  0.248597  1
  Pt  Pt15  1  0.143942  0.260020  0.752431  1
  Pt  Pt16  1  0.739980  0.883922  0.752431  1
  Pt  Pt17  1  0.116078  0.856058  0.752431  1
  Rh  Rh18  1  0.855062  0.738627  0.252874  1
  Rh  Rh19  1  0.261373  0.116435  0.252874  1
  Rh  Rh20  1  0.883565  0.144938  0.252874  1
