# generated using pymatgen
data_Dy5Ta2Nb(P3Ir4)4
_symmetry_space_group_name_H-M   'P 1'
_cell_length_a   12.77603322
_cell_length_b   12.77194937
_cell_length_c   3.99601300
_cell_angle_alpha   90.00000000
_cell_angle_beta   90.00000000
_cell_angle_gamma   119.98942171
_symmetry_Int_Tables_number   1
_chemical_formula_structural   Dy5Ta2Nb(P3Ir4)4
_chemical_formula_sum   'Dy5 Ta2 Nb1 P12 Ir16'
_cell_volume   564.75102494
_cell_formula_units_Z   1
loop_
 _symmetry_equiv_pos_site_id
 _symmetry_equiv_pos_as_xyz
  1  'x, y, z'
loop_
 _atom_site_type_symbol
 _atom_site_label
 _atom_site_symmetry_multiplicity
 _atom_site_fract_x
 _atom_site_fract_y
 _atom_site_fract_z
 _atom_site_occupancy
  Dy  Dy0  1  0.333193  0.666553  0.500000  1
  Dy  Dy1  1  0.666807  0.333360  0.500000  1
  Dy  Dy2  1  0.000000  0.813685  0.000000  1
  Dy  Dy3  1  0.186212  0.186248  0.000000  1
  Dy  Dy4  1  0.813788  0.000036  0.000000  1
  Ta  Ta5  1  0.547215  0.547257  0.500000  1
  Ta  Ta6  1  0.452785  0.000042  0.500000  1
  Nb  Nb7  1  0.000000  0.452927  0.500000  1
  P  P8  1  0.000000  0.642649  0.500000  1
  P  P9  1  0.356585  0.356732  0.500000  1
  P  P10  1  0.643415  0.000147  0.500000  1
  P  P11  1  0.517274  0.684885  0.000000  1
  P  P12  1  0.315059  0.832234  0.000000  1
  P  P13  1  0.167560  0.482751  0.000000  1
  P  P14  1  0.482726  0.167611  0.000000  1
  P  P15  1  0.684941  0.517176  0.000000  1
  P  P16  1  0.832440  0.315191  0.000000  1
  P  P17  1  0.000000  0.176719  0.500000  1
  P  P18  1  0.823678  0.823670  0.500000  1
  P  P19  1  0.176322  0.999992  0.500000  1
  Ir  Ir20  1  0.506951  0.863891  0.000000  1
  Ir  Ir21  1  0.136381  0.643811  0.000000  1
  Ir  Ir22  1  0.357107  0.493113  0.000000  1
  Ir  Ir23  1  0.493049  0.356938  0.000000  1
  Ir  Ir24  1  0.863619  0.507428  0.000000  1
  Ir  Ir25  1  0.642893  0.136005  0.000000  1
  Ir  Ir26  1  0.000000  0.282927  0.000000  1
  Ir  Ir27  1  0.716273  0.716289  0.000000  1
  Ir  Ir28  1  0.283727  0.000016  0.000000  1
  Ir  Ir29  1  0.626950  0.804638  0.500000  1
  Ir  Ir30  1  0.195465  0.822474  0.500000  1
  Ir  Ir31  1  0.178143  0.372964  0.500000  1
  Ir  Ir32  1  0.373050  0.177688  0.500000  1
  Ir  Ir33  1  0.804535  0.627009  0.500000  1
  Ir  Ir34  1  0.821857  0.194822  0.500000  1
  Ir  Ir35  1  0.000000  0.000119  0.500000  1
