# generated using pymatgen
data_Mn5Ir2Os
_symmetry_space_group_name_H-M   'P 1'
_cell_length_a   5.27492500
_cell_length_b   5.23720409
_cell_length_c   4.11066200
_cell_angle_alpha   90.00000000
_cell_angle_beta   90.00000000
_cell_angle_gamma   120.23855014
_symmetry_Int_Tables_number   1
_chemical_formula_structural   Mn5Ir2Os
_chemical_formula_sum   'Mn5 Ir2 Os1'
_cell_volume   98.10908118
_cell_formula_units_Z   1
loop_
 _symmetry_equiv_pos_site_id
 _symmetry_equiv_pos_as_xyz
  1  'x, y, z'
loop_
 _atom_site_type_symbol
 _atom_site_label
 _atom_site_symmetry_multiplicity
 _atom_site_fract_x
 _atom_site_fract_y
 _atom_site_fract_z
 _atom_site_occupancy
  Mn  Mn0  1  0.685943  0.838500  0.250000  1
  Mn  Mn1  1  0.152558  0.838500  0.250000  1
  Mn  Mn2  1  0.844956  0.689913  0.750000  1
  Mn  Mn3  1  0.316018  0.152625  0.750000  1
  Mn  Mn4  1  0.836607  0.152625  0.750000  1
  Ir  Ir5  1  0.339391  0.678782  0.750000  1
  Ir  Ir6  1  0.666390  0.332780  0.250000  1
  Os  Os7  1  0.158138  0.316275  0.250000  1
