# generated using pymatgen
data_Tl2CrF5
_symmetry_space_group_name_H-M   'P 1'
_cell_length_a   5.87365300
_cell_length_b   7.71161600
_cell_length_c   12.23494000
_cell_angle_alpha   90.00000000
_cell_angle_beta   90.00000000
_cell_angle_gamma   90.00000000
_symmetry_Int_Tables_number   1
_chemical_formula_structural   Tl2CrF5
_chemical_formula_sum   'Tl8 Cr4 F20'
_cell_volume   554.18596848
_cell_formula_units_Z   4
loop_
 _symmetry_equiv_pos_site_id
 _symmetry_equiv_pos_as_xyz
  1  'x, y, z'
loop_
 _atom_site_type_symbol
 _atom_site_label
 _atom_site_symmetry_multiplicity
 _atom_site_fract_x
 _atom_site_fract_y
 _atom_site_fract_z
 _atom_site_occupancy
  Tl  Tl0  1  0.250000  0.493154  0.273474  1
  Tl  Tl1  1  0.750000  0.506846  0.726526  1
  Tl  Tl2  1  0.250000  0.993154  0.226526  1
  Tl  Tl3  1  0.750000  0.006846  0.773474  1
  Tl  Tl4  1  0.250000  0.146541  0.583705  1
  Tl  Tl5  1  0.750000  0.853459  0.416295  1
  Tl  Tl6  1  0.250000  0.646541  0.916295  1
  Tl  Tl7  1  0.750000  0.353459  0.083705  1
  Cr  Cr8  1  0.250000  0.655675  0.560838  1
  Cr  Cr9  1  0.750000  0.344325  0.439162  1
  Cr  Cr10  1  0.250000  0.155675  0.939162  1
  Cr  Cr11  1  0.750000  0.844325  0.060838  1
  F  F12  1  0.513827  0.196546  0.384129  1
  F  F13  1  0.013827  0.803454  0.615871  1
  F  F14  1  0.986173  0.696546  0.115871  1
  F  F15  1  0.486173  0.303454  0.884129  1
  F  F16  1  0.486173  0.803454  0.615871  1
  F  F17  1  0.986173  0.196546  0.384129  1
  F  F18  1  0.013827  0.303454  0.884129  1
  F  F19  1  0.513827  0.696546  0.115871  1
  F  F20  1  0.250000  0.781900  0.421832  1
  F  F21  1  0.750000  0.218100  0.578168  1
  F  F22  1  0.250000  0.281900  0.078168  1
  F  F23  1  0.750000  0.718100  0.921832  1
  F  F24  1  0.500000  0.500000  0.500000  1
  F  F25  1  0.000000  0.500000  0.500000  1
  F  F26  1  0.000000  0.000000  0.000000  1
  F  F27  1  0.500000  0.000000  0.000000  1
  F  F28  1  0.750000  0.984634  0.190449  1
  F  F29  1  0.250000  0.015366  0.809551  1
  F  F30  1  0.750000  0.484634  0.309551  1
  F  F31  1  0.250000  0.515366  0.690449  1
