# generated using pymatgen
data_Yb3Er3Fe2(Si4Ru)6
_symmetry_space_group_name_H-M   'P 1'
_cell_length_a   10.07894419
_cell_length_b   10.07888587
_cell_length_c   8.06626239
_cell_angle_alpha   89.95946948
_cell_angle_beta   90.02405086
_cell_angle_gamma   132.78912535
_symmetry_Int_Tables_number   1
_chemical_formula_structural   Yb3Er3Fe2(Si4Ru)6
_chemical_formula_sum   'Yb3 Er3 Fe2 Si24 Ru6'
_cell_volume   601.32922874
_cell_formula_units_Z   1
loop_
 _symmetry_equiv_pos_site_id
 _symmetry_equiv_pos_as_xyz
  1  'x, y, z'
loop_
 _atom_site_type_symbol
 _atom_site_label
 _atom_site_symmetry_multiplicity
 _atom_site_fract_x
 _atom_site_fract_y
 _atom_site_fract_z
 _atom_site_occupancy
  Yb  Yb0  1  0.498171  0.998263  0.250207  1
  Yb  Yb1  1  0.001341  0.501462  0.749864  1
  Yb  Yb2  1  0.502501  0.502532  0.498715  1
  Er  Er3  1  0.501627  0.001555  0.749816  1
  Er  Er4  1  0.998502  0.498479  0.250220  1
  Er  Er5  1  0.002200  0.002148  0.999914  1
  Fe  Fe6  1  0.625485  0.626503  0.874293  1
  Fe  Fe7  1  0.123654  0.122674  0.628636  1
  Si  Si8  1  0.388416  0.154879  0.004343  1
  Si  Si9  1  0.653356  0.886366  0.494824  1
  Si  Si10  1  0.114888  0.343270  0.509754  1
  Si  Si11  1  0.841574  0.612688  0.991390  1
  Si  Si12  1  0.613034  0.840783  0.990363  1
  Si  Si13  1  0.342410  0.115310  0.510544  1
  Si  Si14  1  0.886067  0.653366  0.493567  1
  Si  Si15  1  0.154744  0.388135  0.005908  1
  Si  Si16  1  0.609454  0.376198  0.229714  1
  Si  Si17  1  0.875804  0.109374  0.271576  1
  Si  Si18  1  0.896214  0.123783  0.727729  1
  Si  Si19  1  0.623429  0.396395  0.770863  1
  Si  Si20  1  0.396478  0.622959  0.771221  1
  Si  Si21  1  0.123509  0.896288  0.727427  1
  Si  Si22  1  0.704829  0.293901  0.999600  1
  Si  Si23  1  0.794038  0.204582  0.500410  1
  Si  Si24  1  0.294858  0.704738  0.999143  1
  Si  Si25  1  0.204494  0.795025  0.500881  1
  Si  Si26  1  0.166078  0.170815  0.341041  1
  Si  Si27  1  0.669137  0.664251  0.161097  1
  Si  Si28  1  0.337051  0.332337  0.825193  1
  Si  Si29  1  0.830144  0.834877  0.672597  1
  Si  Si30  1  0.375651  0.608726  0.229746  1
  Si  Si31  1  0.108558  0.875017  0.271408  1
  Ru  Ru32  1  0.875138  0.874275  0.375148  1
  Ru  Ru33  1  0.371517  0.372479  0.122711  1
  Ru  Ru34  1  0.328522  0.669548  0.501754  1
  Ru  Ru35  1  0.168588  0.829455  0.998297  1
  Ru  Ru36  1  0.668631  0.328963  0.501760  1
  Ru  Ru37  1  0.829905  0.167601  0.998326  1
