# generated using pymatgen
data_Nb4Si4Os3Pt
_symmetry_space_group_name_H-M   'P 1'
_cell_length_a   3.87031700
_cell_length_b   6.43257757
_cell_length_c   7.33403616
_cell_angle_alpha   90.40423978
_cell_angle_beta   90.00000000
_cell_angle_gamma   90.00000000
_symmetry_Int_Tables_number   1
_chemical_formula_structural   Nb4Si4Os3Pt
_chemical_formula_sum   'Nb4 Si4 Os3 Pt1'
_cell_volume   182.58445817
_cell_formula_units_Z   1
loop_
 _symmetry_equiv_pos_site_id
 _symmetry_equiv_pos_as_xyz
  1  'x, y, z'
loop_
 _atom_site_type_symbol
 _atom_site_label
 _atom_site_symmetry_multiplicity
 _atom_site_fract_x
 _atom_site_fract_y
 _atom_site_fract_z
 _atom_site_occupancy
  Nb  Nb0  1  0.750000  0.481797  0.327970  1
  Nb  Nb1  1  0.250000  0.017547  0.822257  1
  Nb  Nb2  1  0.750000  0.974788  0.178724  1
  Nb  Nb3  1  0.250000  0.531473  0.672001  1
  Si  Si4  1  0.250000  0.270953  0.130840  1
  Si  Si5  1  0.250000  0.776956  0.372162  1
  Si  Si6  1  0.750000  0.730769  0.878000  1
  Si  Si7  1  0.750000  0.227870  0.620230  1
  Os  Os8  1  0.250000  0.644853  0.059378  1
  Os  Os9  1  0.250000  0.149627  0.441711  1
  Os  Os10  1  0.750000  0.847775  0.561970  1
  Pt  Pt11  1  0.750000  0.345594  0.934758  1
