# generated using pymatgen
data_Ho2Fe3Re14C3
_symmetry_space_group_name_H-M   'P 1'
_cell_length_a   6.92089803
_cell_length_b   6.92089782
_cell_length_c   6.92089771
_cell_angle_alpha   82.45002161
_cell_angle_beta   82.45002232
_cell_angle_gamma   82.45002163
_symmetry_Int_Tables_number   1
_chemical_formula_structural   Ho2Fe3Re14C3
_chemical_formula_sum   'Ho2 Fe3 Re14 C3'
_cell_volume   323.57565632
_cell_formula_units_Z   1
loop_
 _symmetry_equiv_pos_site_id
 _symmetry_equiv_pos_as_xyz
  1  'x, y, z'
loop_
 _atom_site_type_symbol
 _atom_site_label
 _atom_site_symmetry_multiplicity
 _atom_site_fract_x
 _atom_site_fract_y
 _atom_site_fract_z
 _atom_site_occupancy
  Ho  Ho0  1  0.648704  0.648704  0.648704  1
  Ho  Ho1  1  0.351296  0.351296  0.351296  1
  Fe  Fe2  1  0.000000  0.000000  0.500000  1
  Fe  Fe3  1  0.500000  0.000000  0.000000  1
  Fe  Fe4  1  0.000000  0.500000  0.000000  1
  Re  Re5  1  0.722020  0.277980  0.000000  1
  Re  Re6  1  0.000000  0.722020  0.277980  1
  Re  Re7  1  0.277980  0.000000  0.722020  1
  Re  Re8  1  0.000000  0.277980  0.722020  1
  Re  Re9  1  0.722020  0.000000  0.277980  1
  Re  Re10  1  0.277980  0.722020  0.000000  1
  Re  Re11  1  0.346735  0.860589  0.346735  1
  Re  Re12  1  0.346735  0.346735  0.860589  1
  Re  Re13  1  0.860589  0.346735  0.346735  1
  Re  Re14  1  0.653265  0.139411  0.653265  1
  Re  Re15  1  0.653265  0.653265  0.139411  1
  Re  Re16  1  0.139411  0.653265  0.653265  1
  Re  Re17  1  0.897592  0.897592  0.897592  1
  Re  Re18  1  0.102408  0.102408  0.102408  1
  C  C19  1  0.500000  0.500000  0.000000  1
  C  C20  1  0.000000  0.500000  0.500000  1
  C  C21  1  0.500000  0.000000  0.500000  1
