# generated using pymatgen
data_Hf4In2Cu2PdAu
_symmetry_space_group_name_H-M   'P 1'
_cell_length_a   7.36402403
_cell_length_b   7.36402377
_cell_length_c   6.90044640
_cell_angle_alpha   90.02777174
_cell_angle_beta   90.02777237
_cell_angle_gamma   89.81078243
_symmetry_Int_Tables_number   1
_chemical_formula_structural   Hf4In2Cu2PdAu
_chemical_formula_sum   'Hf8 In4 Cu4 Pd2 Au2'
_cell_volume   374.20113057
_cell_formula_units_Z   2
loop_
 _symmetry_equiv_pos_site_id
 _symmetry_equiv_pos_as_xyz
  1  'x, y, z'
loop_
 _atom_site_type_symbol
 _atom_site_label
 _atom_site_symmetry_multiplicity
 _atom_site_fract_x
 _atom_site_fract_y
 _atom_site_fract_z
 _atom_site_occupancy
  Hf  Hf0  1  0.146592  0.146106  0.003051  1
  Hf  Hf1  1  0.853894  0.853408  0.996949  1
  Hf  Hf2  1  0.652888  0.347112  0.500000  1
  Hf  Hf3  1  0.349668  0.650332  0.500000  1
  Hf  Hf4  1  0.700460  0.299540  0.000000  1
  Hf  Hf5  1  0.301499  0.698501  0.000000  1
  Hf  Hf6  1  0.810681  0.811470  0.502536  1
  Hf  Hf7  1  0.188530  0.189319  0.497464  1
  In  In8  1  0.501192  0.009699  0.251888  1
  In  In9  1  0.505645  0.994176  0.748610  1
  In  In10  1  0.005824  0.494355  0.251390  1
  In  In11  1  0.990301  0.498808  0.748112  1
  Cu  Cu12  1  0.370698  0.370988  0.206463  1
  Cu  Cu13  1  0.629012  0.629302  0.793537  1
  Cu  Cu14  1  0.872843  0.128539  0.703783  1
  Cu  Cu15  1  0.871461  0.127157  0.296217  1
  Pd  Pd16  1  0.123574  0.875001  0.290238  1
  Pd  Pd17  1  0.124999  0.876426  0.709762  1
  Au  Au18  1  0.624787  0.624544  0.203546  1
  Au  Au19  1  0.375456  0.375213  0.796454  1
