# generated using pymatgen
data_Th2Ni2Hg
_symmetry_space_group_name_H-M   'P 1'
_cell_length_a   7.65721900
_cell_length_b   7.65721900
_cell_length_c   3.67988300
_cell_angle_alpha   90.00000000
_cell_angle_beta   90.00000000
_cell_angle_gamma   90.00000000
_symmetry_Int_Tables_number   1
_chemical_formula_structural   Th2Ni2Hg
_chemical_formula_sum   'Th4 Ni4 Hg2'
_cell_volume   215.76259029
_cell_formula_units_Z   2
loop_
 _symmetry_equiv_pos_site_id
 _symmetry_equiv_pos_as_xyz
  1  'x, y, z'
loop_
 _atom_site_type_symbol
 _atom_site_label
 _atom_site_symmetry_multiplicity
 _atom_site_fract_x
 _atom_site_fract_y
 _atom_site_fract_z
 _atom_site_occupancy
  Th  Th0  1  0.673179  0.173179  0.500000  1
  Th  Th1  1  0.326821  0.826821  0.500000  1
  Th  Th2  1  0.173179  0.326821  0.500000  1
  Th  Th3  1  0.826821  0.673179  0.500000  1
  Ni  Ni4  1  0.877464  0.377464  0.000000  1
  Ni  Ni5  1  0.122536  0.622536  0.000000  1
  Ni  Ni6  1  0.377464  0.122536  0.000000  1
  Ni  Ni7  1  0.622536  0.877464  0.000000  1
  Hg  Hg8  1  0.500000  0.500000  0.000000  1
  Hg  Hg9  1  0.000000  0.000000  0.000000  1
