# generated using pymatgen
data_Hf8Tc3Ru4Rh
_symmetry_space_group_name_H-M   'P 1'
_cell_length_a   6.51168402
_cell_length_b   6.51501103
_cell_length_c   6.49405802
_cell_angle_alpha   89.99350825
_cell_angle_beta   89.99552431
_cell_angle_gamma   90.00815438
_symmetry_Int_Tables_number   1
_chemical_formula_structural   Hf8Tc3Ru4Rh
_chemical_formula_sum   'Hf8 Tc3 Ru4 Rh1'
_cell_volume   275.50191949
_cell_formula_units_Z   1
loop_
 _symmetry_equiv_pos_site_id
 _symmetry_equiv_pos_as_xyz
  1  'x, y, z'
loop_
 _atom_site_type_symbol
 _atom_site_label
 _atom_site_symmetry_multiplicity
 _atom_site_fract_x
 _atom_site_fract_y
 _atom_site_fract_z
 _atom_site_occupancy
  Hf  Hf0  1  0.498042  0.998124  0.251390  1
  Hf  Hf1  1  0.498036  0.501852  0.251433  1
  Hf  Hf2  1  0.001730  0.998149  0.251446  1
  Hf  Hf3  1  0.001722  0.501899  0.251444  1
  Hf  Hf4  1  0.001956  0.998104  0.748542  1
  Hf  Hf5  1  0.001953  0.501839  0.748590  1
  Hf  Hf6  1  0.498282  0.998134  0.748569  1
  Hf  Hf7  1  0.498275  0.501897  0.748558  1
  Tc  Tc8  1  0.249983  0.750001  0.499850  1
  Tc  Tc9  1  0.750020  0.249999  0.500145  1
  Tc  Tc10  1  0.250018  0.750002  0.999854  1
  Ru  Ru11  1  0.249969  0.249999  0.000003  1
  Ru  Ru12  1  0.750034  0.749999  0.999979  1
  Ru  Ru13  1  0.749965  0.749999  0.499952  1
  Ru  Ru14  1  0.250035  0.250001  0.500038  1
  Rh  Rh15  1  0.749977  0.250000  0.000210  1
