# generated using pymatgen
data_Li3Th5(P3Rh4)4
_symmetry_space_group_name_H-M   'P 1'
_cell_length_a   12.85454600
_cell_length_b   12.85454653
_cell_length_c   4.05226100
_cell_angle_alpha   90.00000000
_cell_angle_beta   90.00000000
_cell_angle_gamma   119.99999864
_symmetry_Int_Tables_number   1
_chemical_formula_structural   Li3Th5(P3Rh4)4
_chemical_formula_sum   'Li3 Th5 P12 Rh16'
_cell_volume   579.88456722
_cell_formula_units_Z   1
loop_
 _symmetry_equiv_pos_site_id
 _symmetry_equiv_pos_as_xyz
  1  'x, y, z'
loop_
 _atom_site_type_symbol
 _atom_site_label
 _atom_site_symmetry_multiplicity
 _atom_site_fract_x
 _atom_site_fract_y
 _atom_site_fract_z
 _atom_site_occupancy
  Li  Li0  1  0.000000  0.439027  0.500000  1
  Li  Li1  1  0.560973  0.560973  0.500000  1
  Li  Li2  1  0.439027  0.000000  0.500000  1
  Th  Th3  1  0.333333  0.666667  0.500000  1
  Th  Th4  1  0.666667  0.333333  0.500000  1
  Th  Th5  1  0.000000  0.805551  0.000000  1
  Th  Th6  1  0.194449  0.194449  0.000000  1
  Th  Th7  1  0.805551  0.000000  0.000000  1
  P  P8  1  0.000000  0.628459  0.500000  1
  P  P9  1  0.371541  0.371541  0.500000  1
  P  P10  1  0.628459  0.000000  0.500000  1
  P  P11  1  0.519545  0.688226  0.000000  1
  P  P12  1  0.311774  0.831320  0.000000  1
  P  P13  1  0.168680  0.480455  0.000000  1
  P  P14  1  0.480455  0.168680  0.000000  1
  P  P15  1  0.688226  0.519545  0.000000  1
  P  P16  1  0.831320  0.311774  0.000000  1
  P  P17  1  0.000000  0.180553  0.500000  1
  P  P18  1  0.819447  0.819447  0.500000  1
  P  P19  1  0.180553  0.000000  0.500000  1
  Rh  Rh20  1  0.512816  0.869566  0.000000  1
  Rh  Rh21  1  0.130434  0.643251  0.000000  1
  Rh  Rh22  1  0.356749  0.487184  0.000000  1
  Rh  Rh23  1  0.487184  0.356749  0.000000  1
  Rh  Rh24  1  0.869566  0.512816  0.000000  1
  Rh  Rh25  1  0.643251  0.130434  0.000000  1
  Rh  Rh26  1  0.000000  0.282859  0.000000  1
  Rh  Rh27  1  0.717141  0.717141  0.000000  1
  Rh  Rh28  1  0.282859  0.000000  0.000000  1
  Rh  Rh29  1  0.622461  0.801262  0.500000  1
  Rh  Rh30  1  0.198738  0.821198  0.500000  1
  Rh  Rh31  1  0.178802  0.377539  0.500000  1
  Rh  Rh32  1  0.377539  0.178802  0.500000  1
  Rh  Rh33  1  0.801262  0.622461  0.500000  1
  Rh  Rh34  1  0.821198  0.198738  0.500000  1
  Rh  Rh35  1  0.000000  0.000000  0.500000  1
