# generated using pymatgen
data_Tb2AlRuRh
_symmetry_space_group_name_H-M   'P 1'
_cell_length_a   5.57480677
_cell_length_b   5.57480769
_cell_length_c   5.57480702
_cell_angle_alpha   137.53234555
_cell_angle_beta   115.52360449
_cell_angle_gamma   80.29696682
_symmetry_Int_Tables_number   1
_chemical_formula_structural   Tb2AlRuRh
_chemical_formula_sum   'Tb2 Al1 Ru1 Rh1'
_cell_volume   102.34363707
_cell_formula_units_Z   1
loop_
 _symmetry_equiv_pos_site_id
 _symmetry_equiv_pos_as_xyz
  1  'x, y, z'
loop_
 _atom_site_type_symbol
 _atom_site_label
 _atom_site_symmetry_multiplicity
 _atom_site_fract_x
 _atom_site_fract_y
 _atom_site_fract_z
 _atom_site_occupancy
  Tb  Tb0  1  0.697122  0.201726  0.495395  1
  Tb  Tb1  1  0.293669  0.798274  0.495395  1
  Al  Al2  1  0.005226  0.000000  0.005226  1
  Ru  Ru3  1  0.260959  0.500000  0.760959  1
  Rh  Rh4  1  0.743024  0.500000  0.243024  1
