# generated using pymatgen
data_U4FeNi3
_symmetry_space_group_name_H-M   'P 1'
_cell_length_a   5.37502384
_cell_length_b   5.53286625
_cell_length_c   5.53286582
_cell_angle_alpha   110.04188999
_cell_angle_beta   108.89433401
_cell_angle_gamma   108.89433291
_symmetry_Int_Tables_number   1
_chemical_formula_structural   U4FeNi3
_chemical_formula_sum   'U4 Fe1 Ni3'
_cell_volume   127.55615419
_cell_formula_units_Z   1
loop_
 _symmetry_equiv_pos_site_id
 _symmetry_equiv_pos_as_xyz
  1  'x, y, z'
loop_
 _atom_site_type_symbol
 _atom_site_label
 _atom_site_symmetry_multiplicity
 _atom_site_fract_x
 _atom_site_fract_y
 _atom_site_fract_z
 _atom_site_occupancy
  U  U0  1  0.079233  0.500000  0.000000  1
  U  U1  1  0.001742  0.076729  0.496011  1
  U  U2  1  0.505731  0.003989  0.080718  1
  U  U3  1  0.425013  0.419282  0.423271  1
  Fe  Fe4  1  0.590647  0.500000  0.000000  1
  Ni  Ni5  1  0.001885  0.606827  0.501194  1
  Ni  Ni6  1  0.500692  0.998806  0.605632  1
  Ni  Ni7  1  0.895058  0.894368  0.893173  1
