# generated using pymatgen
data_PaCoH6
_symmetry_space_group_name_H-M   'P 1'
_cell_length_a   4.35574629
_cell_length_b   4.35574792
_cell_length_c   4.35783869
_cell_angle_alpha   58.89679722
_cell_angle_beta   58.89678152
_cell_angle_gamma   58.90218035
_symmetry_Int_Tables_number   1
_chemical_formula_structural   PaCoH6
_chemical_formula_sum   'Pa1 Co1 H6'
_cell_volume   56.99337093
_cell_formula_units_Z   1
loop_
 _symmetry_equiv_pos_site_id
 _symmetry_equiv_pos_as_xyz
  1  'x, y, z'
loop_
 _atom_site_type_symbol
 _atom_site_label
 _atom_site_symmetry_multiplicity
 _atom_site_fract_x
 _atom_site_fract_y
 _atom_site_fract_z
 _atom_site_occupancy
  Pa  Pa0  1  0.500000  0.500000  0.500000  1
  Co  Co1  1  0.000000  0.000000  0.000000  1
  H  H2  1  0.563999  0.102800  0.102565  1
  H  H3  1  0.102800  0.563999  0.102565  1
  H  H4  1  0.897450  0.897450  0.435634  1
  H  H5  1  0.102550  0.102550  0.564365  1
  H  H6  1  0.897200  0.436000  0.897435  1
  H  H7  1  0.436000  0.897200  0.897435  1
