# generated using pymatgen
data_Y4Ho5ScCd3Ru
_symmetry_space_group_name_H-M   'P 1'
_cell_length_a   9.52376120
_cell_length_b   9.52376157
_cell_length_c   9.75443715
_cell_angle_alpha   89.93831468
_cell_angle_beta   90.06169063
_cell_angle_gamma   120.01659311
_symmetry_Int_Tables_number   1
_chemical_formula_structural   Y4Ho5ScCd3Ru
_chemical_formula_sum   'Y8 Ho10 Sc2 Cd6 Ru2'
_cell_volume   766.08486600
_cell_formula_units_Z   2
loop_
 _symmetry_equiv_pos_site_id
 _symmetry_equiv_pos_as_xyz
  1  'x, y, z'
loop_
 _atom_site_type_symbol
 _atom_site_label
 _atom_site_symmetry_multiplicity
 _atom_site_fract_x
 _atom_site_fract_y
 _atom_site_fract_z
 _atom_site_occupancy
  Y  Y0  1  0.207677  0.416053  0.058611  1
  Y  Y1  1  0.583947  0.792323  0.058611  1
  Y  Y2  1  0.541236  0.458764  0.251276  1
  Y  Y3  1  0.540152  0.081136  0.250713  1
  Y  Y4  1  0.918864  0.459848  0.250713  1
  Y  Y5  1  0.460083  0.539917  0.748479  1
  Y  Y6  1  0.459286  0.919327  0.749076  1
  Y  Y7  1  0.080673  0.540714  0.749076  1
  Ho  Ho8  1  0.208706  0.791294  0.441344  1
  Ho  Ho9  1  0.208813  0.417794  0.441700  1
  Ho  Ho10  1  0.582206  0.791187  0.441700  1
  Ho  Ho11  1  0.791142  0.208858  0.558769  1
  Ho  Ho12  1  0.791379  0.582351  0.558699  1
  Ho  Ho13  1  0.417649  0.208621  0.558699  1
  Ho  Ho14  1  0.790966  0.209034  0.940775  1
  Ho  Ho15  1  0.791473  0.581787  0.941004  1
  Ho  Ho16  1  0.418213  0.208527  0.941004  1
  Ho  Ho17  1  0.208204  0.791796  0.059332  1
  Sc  Sc18  1  0.000021  0.999979  0.499879  1
  Sc  Sc19  1  0.000615  0.999385  0.999471  1
  Cd  Cd20  1  0.889058  0.110942  0.250012  1
  Cd  Cd21  1  0.889199  0.778324  0.250116  1
  Cd  Cd22  1  0.221676  0.110801  0.250116  1
  Cd  Cd23  1  0.110855  0.889145  0.749771  1
  Cd  Cd24  1  0.110750  0.221563  0.749765  1
  Cd  Cd25  1  0.778437  0.889250  0.749765  1
  Ru  Ru26  1  0.332135  0.667865  0.251833  1
  Ru  Ru27  1  0.666585  0.333415  0.749692  1
