# generated using pymatgen
data_Tb3NdTh6(Ge3C)2
_symmetry_space_group_name_H-M   'P 1'
_cell_length_a   8.86549200
_cell_length_b   8.86550346
_cell_length_c   6.44399600
_cell_angle_alpha   90.00029820
_cell_angle_beta   90.00002182
_cell_angle_gamma   119.99947284
_symmetry_Int_Tables_number   1
_chemical_formula_structural   Tb3NdTh6(Ge3C)2
_chemical_formula_sum   'Tb3 Nd1 Th6 Ge6 C2'
_cell_volume   438.62607622
_cell_formula_units_Z   1
loop_
 _symmetry_equiv_pos_site_id
 _symmetry_equiv_pos_as_xyz
  1  'x, y, z'
loop_
 _atom_site_type_symbol
 _atom_site_label
 _atom_site_symmetry_multiplicity
 _atom_site_fract_x
 _atom_site_fract_y
 _atom_site_fract_z
 _atom_site_occupancy
  Tb  Tb0  1  0.333334  0.666668  0.000000  1
  Tb  Tb1  1  0.333338  0.666666  0.500000  1
  Tb  Tb2  1  0.666664  0.333333  0.500000  1
  Nd  Nd3  1  0.666666  0.333332  0.000001  1
  Th  Th4  1  0.769869  0.769950  0.749532  1
  Th  Th5  1  0.230052  0.999919  0.749527  1
  Th  Th6  1  0.000085  0.230136  0.749525  1
  Th  Th7  1  0.230051  0.230134  0.250468  1
  Th  Th8  1  0.769867  0.999918  0.250472  1
  Th  Th9  1  0.000083  0.769948  0.250475  1
  Ge  Ge10  1  0.399906  0.402766  0.746980  1
  Ge  Ge11  1  0.597234  0.997139  0.746980  1
  Ge  Ge12  1  0.002855  0.600093  0.746976  1
  Ge  Ge13  1  0.597236  0.600092  0.253016  1
  Ge  Ge14  1  0.399902  0.997139  0.253028  1
  Ge  Ge15  1  0.002862  0.402766  0.253021  1
  C  C16  1  0.999998  0.000001  0.000000  1
  C  C17  1  0.000000  0.000001  0.500000  1
