# generated using pymatgen
data_Tb9YbRu4
_symmetry_space_group_name_H-M   'P 1'
_cell_length_a   6.40037835
_cell_length_b   7.27765220
_cell_length_c   8.53437867
_cell_angle_alpha   96.76137700
_cell_angle_beta   111.98776000
_cell_angle_gamma   89.61403263
_symmetry_Int_Tables_number   1
_chemical_formula_structural   Tb9YbRu4
_chemical_formula_sum   'Tb9 Yb1 Ru4'
_cell_volume   365.74946923
_cell_formula_units_Z   1
loop_
 _symmetry_equiv_pos_site_id
 _symmetry_equiv_pos_as_xyz
  1  'x, y, z'
loop_
 _atom_site_type_symbol
 _atom_site_label
 _atom_site_symmetry_multiplicity
 _atom_site_fract_x
 _atom_site_fract_y
 _atom_site_fract_z
 _atom_site_occupancy
  Tb  Tb0  1  0.794963  0.584382  0.815129  1
  Tb  Tb1  1  0.019397  0.085007  0.813919  1
  Tb  Tb2  1  0.207356  0.414988  0.187598  1
  Tb  Tb3  1  0.639845  0.814308  0.434986  1
  Tb  Tb4  1  0.204805  0.685415  0.566142  1
  Tb  Tb5  1  0.362250  0.186864  0.566256  1
  Tb  Tb6  1  0.792651  0.315747  0.433598  1
  Tb  Tb7  1  0.425487  0.749939  0.000626  1
  Tb  Tb8  1  0.577678  0.249903  0.000921  1
  Yb  Yb9  1  0.980167  0.917906  0.186331  1
  Ru  Ru10  1  0.821733  0.569977  0.221904  1
  Ru  Ru11  1  0.597597  0.923800  0.771348  1
  Ru  Ru12  1  0.175712  0.424673  0.780959  1
  Ru  Ru13  1  0.400358  0.077093  0.220284  1
