# generated using pymatgen
data_Tm18Lu2(SiSb3)3
_symmetry_space_group_name_H-M   'P 1'
_cell_length_a   7.89801303
_cell_length_b   9.00737000
_cell_length_c   11.70371200
_cell_angle_alpha   90.00000000
_cell_angle_beta   89.91804556
_cell_angle_gamma   90.00000000
_symmetry_Int_Tables_number   1
_chemical_formula_structural   Tm18Lu2(SiSb3)3
_chemical_formula_sum   'Tm18 Lu2 Si3 Sb9'
_cell_volume   832.60503062
_cell_formula_units_Z   1
loop_
 _symmetry_equiv_pos_site_id
 _symmetry_equiv_pos_as_xyz
  1  'x, y, z'
loop_
 _atom_site_type_symbol
 _atom_site_label
 _atom_site_symmetry_multiplicity
 _atom_site_fract_x
 _atom_site_fract_y
 _atom_site_fract_z
 _atom_site_occupancy
  Tm  Tm0  1  0.815527  0.946544  0.063779  1
  Tm  Tm1  1  0.310678  0.043816  0.431437  1
  Tm  Tm2  1  0.180820  0.447140  0.938751  1
  Tm  Tm3  1  0.687064  0.564898  0.565690  1
  Tm  Tm4  1  0.180820  0.052860  0.938751  1
  Tm  Tm5  1  0.687064  0.935102  0.565690  1
  Tm  Tm6  1  0.815527  0.553456  0.063779  1
  Tm  Tm7  1  0.310678  0.456184  0.431437  1
  Tm  Tm8  1  0.460996  0.750000  0.001485  1
  Tm  Tm9  1  0.974624  0.250000  0.497527  1
  Tm  Tm10  1  0.165809  0.750000  0.213564  1
  Tm  Tm11  1  0.677475  0.250000  0.272102  1
  Tm  Tm12  1  0.835517  0.250000  0.786279  1
  Tm  Tm13  1  0.334662  0.750000  0.716156  1
  Tm  Tm14  1  0.640688  0.750000  0.293564  1
  Tm  Tm15  1  0.141560  0.250000  0.207156  1
  Tm  Tm16  1  0.343701  0.250000  0.713907  1
  Tm  Tm17  1  0.858418  0.750000  0.794973  1
  Lu  Lu18  1  0.535884  0.250000  0.996138  1
  Lu  Lu19  1  0.041019  0.750000  0.501990  1
  Si  Si20  1  0.909001  0.250000  0.024735  1
  Si  Si21  1  0.416388  0.750000  0.480541  1
  Si  Si22  1  0.087598  0.750000  0.977867  1
  Sb  Sb23  1  0.932764  0.988153  0.326410  1
  Sb  Sb24  1  0.433063  0.010968  0.172911  1
  Sb  Sb25  1  0.066478  0.491719  0.674263  1
  Sb  Sb26  1  0.566950  0.509736  0.825928  1
  Sb  Sb27  1  0.066478  0.008281  0.674263  1
  Sb  Sb28  1  0.566950  0.990264  0.825928  1
  Sb  Sb29  1  0.932764  0.511847  0.326410  1
  Sb  Sb30  1  0.433063  0.489032  0.172911  1
  Sb  Sb31  1  0.589968  0.250000  0.523679  1
