# generated using pymatgen
data_La2DyY(Ga3Ir)6
_symmetry_space_group_name_H-M   'P 1'
_cell_length_a   7.64754100
_cell_length_b   7.64834263
_cell_length_c   9.61331200
_cell_angle_alpha   90.00000000
_cell_angle_beta   90.00000000
_cell_angle_gamma   119.65372812
_symmetry_Int_Tables_number   1
_chemical_formula_structural   La2DyY(Ga3Ir)6
_chemical_formula_sum   'La2 Dy1 Y1 Ga18 Ir6'
_cell_volume   488.64970035
_cell_formula_units_Z   1
loop_
 _symmetry_equiv_pos_site_id
 _symmetry_equiv_pos_as_xyz
  1  'x, y, z'
loop_
 _atom_site_type_symbol
 _atom_site_label
 _atom_site_symmetry_multiplicity
 _atom_site_fract_x
 _atom_site_fract_y
 _atom_site_fract_z
 _atom_site_occupancy
  La  La0  1  0.996614  0.669438  0.250000  1
  La  La1  1  0.669613  0.996651  0.250000  1
  Dy  Dy2  1  0.001408  0.329595  0.750000  1
  Y  Y3  1  0.329248  0.001471  0.750000  1
  Ga  Ga4  1  0.132930  0.132654  0.250000  1
  Ga  Ga5  1  0.872379  0.872652  0.750000  1
  Ga  Ga6  1  0.004136  0.335093  0.073142  1
  Ga  Ga7  1  0.001015  0.664995  0.915942  1
  Ga  Ga8  1  0.001015  0.664995  0.584058  1
  Ga  Ga9  1  0.335109  0.003906  0.427029  1
  Ga  Ga10  1  0.004136  0.335093  0.426858  1
  Ga  Ga11  1  0.664807  0.001130  0.584065  1
  Ga  Ga12  1  0.664807  0.001130  0.915935  1
  Ga  Ga13  1  0.335109  0.003906  0.072971  1
  Ga  Ga14  1  0.330978  0.330966  0.567575  1
  Ga  Ga15  1  0.664999  0.665026  0.447844  1
  Ga  Ga16  1  0.664999  0.665026  0.052156  1
  Ga  Ga17  1  0.330978  0.330966  0.932425  1
  Ga  Ga18  1  0.339656  0.542759  0.250000  1
  Ga  Ga19  1  0.659655  0.451224  0.750000  1
  Ga  Ga20  1  0.542612  0.339221  0.250000  1
  Ga  Ga21  1  0.451342  0.659512  0.750000  1
  Ir  Ir22  1  0.671533  0.329149  0.997786  1
  Ir  Ir23  1  0.328944  0.671234  0.997745  1
  Ir  Ir24  1  0.328944  0.671234  0.502255  1
  Ir  Ir25  1  0.671533  0.329149  0.502214  1
  Ir  Ir26  1  0.000751  0.000916  0.997190  1
  Ir  Ir27  1  0.000751  0.000916  0.502810  1
