# generated using pymatgen
data_LiY4Ho(Si3Ru)8
_symmetry_space_group_name_H-M   'P 1'
_cell_length_a   10.12878653
_cell_length_b   10.12878635
_cell_length_c   8.11257509
_cell_angle_alpha   90.00041685
_cell_angle_beta   90.00041849
_cell_angle_gamma   132.72936149
_symmetry_Int_Tables_number   1
_chemical_formula_structural   LiY4Ho(Si3Ru)8
_chemical_formula_sum   'Li1 Y4 Ho1 Si24 Ru8'
_cell_volume   611.37117182
_cell_formula_units_Z   1
loop_
 _symmetry_equiv_pos_site_id
 _symmetry_equiv_pos_as_xyz
  1  'x, y, z'
loop_
 _atom_site_type_symbol
 _atom_site_label
 _atom_site_symmetry_multiplicity
 _atom_site_fract_x
 _atom_site_fract_y
 _atom_site_fract_z
 _atom_site_occupancy
  Li  Li0  1  0.500000  0.500000  0.500000  1
  Y  Y1  1  0.502024  0.002029  0.749244  1
  Y  Y2  1  0.997971  0.497976  0.250756  1
  Y  Y3  1  0.497976  0.997971  0.250756  1
  Y  Y4  1  0.002029  0.502024  0.749244  1
  Ho  Ho5  1  0.000000  0.000000  0.000000  1
  Si  Si6  1  0.796832  0.203168  0.500000  1
  Si  Si7  1  0.296521  0.703479  0.000000  1
  Si  Si8  1  0.203168  0.796832  0.500000  1
  Si  Si9  1  0.703479  0.296521  0.000000  1
  Si  Si10  1  0.336656  0.336656  0.827388  1
  Si  Si11  1  0.663344  0.663344  0.172612  1
  Si  Si12  1  0.172392  0.172392  0.336654  1
  Si  Si13  1  0.827608  0.827608  0.663346  1
  Si  Si14  1  0.123412  0.890361  0.728659  1
  Si  Si15  1  0.109639  0.876588  0.271341  1
  Si  Si16  1  0.607259  0.378226  0.234502  1
  Si  Si17  1  0.621774  0.392741  0.765498  1
  Si  Si18  1  0.876588  0.109639  0.271341  1
  Si  Si19  1  0.890361  0.123412  0.728659  1
  Si  Si20  1  0.392741  0.621774  0.765498  1
  Si  Si21  1  0.378226  0.607259  0.234502  1
  Si  Si22  1  0.349346  0.120756  0.507236  1
  Si  Si23  1  0.879244  0.650654  0.492764  1
  Si  Si24  1  0.387695  0.154801  0.006174  1
  Si  Si25  1  0.845199  0.612305  0.993826  1
  Si  Si26  1  0.650654  0.879244  0.492764  1
  Si  Si27  1  0.120756  0.349346  0.507236  1
  Si  Si28  1  0.612305  0.845199  0.993826  1
  Si  Si29  1  0.154801  0.387695  0.006174  1
  Ru  Ru30  1  0.671620  0.328380  0.500000  1
  Ru  Ru31  1  0.170563  0.829437  0.000000  1
  Ru  Ru32  1  0.328380  0.671620  0.500000  1
  Ru  Ru33  1  0.829437  0.170563  0.000000  1
  Ru  Ru34  1  0.123696  0.123696  0.628776  1
  Ru  Ru35  1  0.876304  0.876304  0.371224  1
  Ru  Ru36  1  0.371438  0.371438  0.123901  1
  Ru  Ru37  1  0.628562  0.628562  0.876099  1
