# generated using pymatgen
data_Y4Er8Co4BiRh
_symmetry_space_group_name_H-M   'P 1'
_cell_length_a   8.26967781
_cell_length_b   8.26961960
_cell_length_c   8.26967887
_cell_angle_alpha   110.81184778
_cell_angle_beta   110.76286795
_cell_angle_gamma   106.87012260
_symmetry_Int_Tables_number   1
_chemical_formula_structural   Y4Er8Co4BiRh
_chemical_formula_sum   'Y4 Er8 Co4 Bi1 Rh1'
_cell_volume   434.68164035
_cell_formula_units_Z   1
loop_
 _symmetry_equiv_pos_site_id
 _symmetry_equiv_pos_as_xyz
  1  'x, y, z'
loop_
 _atom_site_type_symbol
 _atom_site_label
 _atom_site_symmetry_multiplicity
 _atom_site_fract_x
 _atom_site_fract_y
 _atom_site_fract_z
 _atom_site_occupancy
  Y  Y0  1  0.288242  0.186106  0.474337  1
  Y  Y1  1  0.711758  0.813894  0.525663  1
  Y  Y2  1  0.288230  0.813894  0.102136  1
  Y  Y3  1  0.711770  0.186106  0.897864  1
  Er  Er4  1  0.620797  0.311254  0.309531  1
  Er  Er5  1  0.379203  0.688746  0.690469  1
  Er  Er6  1  0.001724  0.311254  0.690457  1
  Er  Er7  1  0.998276  0.688746  0.309543  1
  Er  Er8  1  0.210145  0.407107  0.196962  1
  Er  Er9  1  0.789855  0.592893  0.803038  1
  Er  Er10  1  0.210141  0.013179  0.803038  1
  Er  Er11  1  0.789859  0.986821  0.196962  1
  Co  Co12  1  0.000003  0.376668  0.376665  1
  Co  Co13  1  0.999997  0.623332  0.623335  1
  Co  Co14  1  0.388060  0.888060  0.500000  1
  Co  Co15  1  0.611940  0.111940  0.500000  1
  Bi  Bi16  1  0.500000  0.500000  0.000000  1
  Rh  Rh17  1  0.000000  0.000000  0.000000  1
