# generated using pymatgen
data_TbRe2BC
_symmetry_space_group_name_H-M   'P 1'
_cell_length_a   3.56871361
_cell_length_b   5.73555866
_cell_length_c   7.18767900
_cell_angle_alpha   90.00082040
_cell_angle_beta   89.99967913
_cell_angle_gamma   71.99662084
_symmetry_Int_Tables_number   1
_chemical_formula_structural   TbRe2BC
_chemical_formula_sum   'Tb2 Re4 B2 C2'
_cell_volume   139.91816427
_cell_formula_units_Z   2
loop_
 _symmetry_equiv_pos_site_id
 _symmetry_equiv_pos_as_xyz
  1  'x, y, z'
loop_
 _atom_site_type_symbol
 _atom_site_label
 _atom_site_symmetry_multiplicity
 _atom_site_fract_x
 _atom_site_fract_y
 _atom_site_fract_z
 _atom_site_occupancy
  Tb  Tb0  1  0.958147  0.087299  0.250002  1
  Tb  Tb1  1  0.041876  0.912664  0.749998  1
  Re  Re2  1  0.673535  0.649162  0.065366  1
  Re  Re3  1  0.673497  0.649223  0.434595  1
  Re  Re4  1  0.326502  0.350758  0.565434  1
  Re  Re5  1  0.326475  0.350815  0.934603  1
  B  B6  1  0.235522  0.524954  0.250069  1
  B  B7  1  0.764444  0.475143  0.749935  1
  C  C8  1  0.500007  0.999990  0.999990  1
  C  C9  1  0.499996  0.999992  0.500007  1
