# generated using pymatgen
data_Pr4HoIr2Rh
_symmetry_space_group_name_H-M   'P 1'
_cell_length_a   11.21820500
_cell_length_b   11.21820500
_cell_length_c   6.60811800
_cell_angle_alpha   90.00000000
_cell_angle_beta   90.00000000
_cell_angle_gamma   90.00000000
_symmetry_Int_Tables_number   1
_chemical_formula_structural   Pr4HoIr2Rh
_chemical_formula_sum   'Pr16 Ho4 Ir8 Rh4'
_cell_volume   831.61924965
_cell_formula_units_Z   4
loop_
 _symmetry_equiv_pos_site_id
 _symmetry_equiv_pos_as_xyz
  1  'x, y, z'
loop_
 _atom_site_type_symbol
 _atom_site_label
 _atom_site_symmetry_multiplicity
 _atom_site_fract_x
 _atom_site_fract_y
 _atom_site_fract_z
 _atom_site_occupancy
  Pr  Pr0  1  0.287966  0.088048  0.382680  1
  Pr  Pr1  1  0.287966  0.911952  0.882680  1
  Pr  Pr2  1  0.712034  0.088048  0.882680  1
  Pr  Pr3  1  0.712034  0.911952  0.382680  1
  Pr  Pr4  1  0.588048  0.787966  0.882680  1
  Pr  Pr5  1  0.588048  0.212034  0.382680  1
  Pr  Pr6  1  0.411952  0.787966  0.382680  1
  Pr  Pr7  1  0.411952  0.212034  0.882680  1
  Pr  Pr8  1  0.212034  0.411952  0.617320  1
  Pr  Pr9  1  0.212034  0.588048  0.117320  1
  Pr  Pr10  1  0.787966  0.411952  0.117320  1
  Pr  Pr11  1  0.787966  0.588048  0.617320  1
  Pr  Pr12  1  0.911952  0.712034  0.117320  1
  Pr  Pr13  1  0.911952  0.287966  0.617320  1
  Pr  Pr14  1  0.088048  0.712034  0.617320  1
  Pr  Pr15  1  0.088048  0.287966  0.117320  1
  Ho  Ho16  1  0.000000  0.000000  0.500000  1
  Ho  Ho17  1  0.000000  0.000000  0.000000  1
  Ho  Ho18  1  0.500000  0.500000  0.000000  1
  Ho  Ho19  1  0.500000  0.500000  0.500000  1
  Ir  Ir20  1  0.851855  0.148145  0.250000  1
  Ir  Ir21  1  0.851855  0.851855  0.750000  1
  Ir  Ir22  1  0.148145  0.148145  0.750000  1
  Ir  Ir23  1  0.148145  0.851855  0.250000  1
  Ir  Ir24  1  0.648145  0.351855  0.750000  1
  Ir  Ir25  1  0.648145  0.648145  0.250000  1
  Ir  Ir26  1  0.351855  0.351855  0.250000  1
  Ir  Ir27  1  0.351855  0.648145  0.750000  1
  Rh  Rh28  1  0.500000  0.000000  0.117449  1
  Rh  Rh29  1  0.500000  0.000000  0.617449  1
  Rh  Rh30  1  0.000000  0.500000  0.882551  1
  Rh  Rh31  1  0.000000  0.500000  0.382551  1
