# generated using pymatgen
data_Ho16InAg3Ir4
_symmetry_space_group_name_H-M   'P 1'
_cell_length_a   9.53670876
_cell_length_b   9.55520587
_cell_length_c   9.55520600
_cell_angle_alpha   59.99999954
_cell_angle_beta   59.93581835
_cell_angle_gamma   59.93582090
_symmetry_Int_Tables_number   1
_chemical_formula_structural   Ho16InAg3Ir4
_chemical_formula_sum   'Ho16 In1 Ag3 Ir4'
_cell_volume   615.09420974
_cell_formula_units_Z   1
loop_
 _symmetry_equiv_pos_site_id
 _symmetry_equiv_pos_as_xyz
  1  'x, y, z'
loop_
 _atom_site_type_symbol
 _atom_site_label
 _atom_site_symmetry_multiplicity
 _atom_site_fract_x
 _atom_site_fract_y
 _atom_site_fract_z
 _atom_site_occupancy
  Ho  Ho0  1  0.437497  0.436219  0.063142  1
  Ho  Ho1  1  0.650414  0.648546  0.052496  1
  Ho  Ho2  1  0.188208  0.811340  0.189111  1
  Ho  Ho3  1  0.066858  0.436470  0.060202  1
  Ho  Ho4  1  0.188208  0.811340  0.811340  1
  Ho  Ho5  1  0.066858  0.436470  0.436470  1
  Ho  Ho6  1  0.810649  0.190001  0.190001  1
  Ho  Ho7  1  0.650414  0.648546  0.648546  1
  Ho  Ho8  1  0.810649  0.190001  0.809350  1
  Ho  Ho9  1  0.188208  0.189111  0.811340  1
  Ho  Ho10  1  0.051735  0.649422  0.649422  1
  Ho  Ho11  1  0.437497  0.063142  0.063142  1
  Ho  Ho12  1  0.066858  0.060202  0.436470  1
  Ho  Ho13  1  0.650414  0.052496  0.648546  1
  Ho  Ho14  1  0.810649  0.809350  0.190001  1
  Ho  Ho15  1  0.437497  0.063142  0.436219  1
  In  In16  1  0.737457  0.420848  0.420848  1
  Ag  Ag17  1  0.416562  0.417647  0.417647  1
  Ag  Ag18  1  0.416562  0.417647  0.748145  1
  Ag  Ag19  1  0.416562  0.748145  0.417647  1
  Ir  Ir20  1  0.427493  0.857502  0.857502  1
  Ir  Ir21  1  0.857584  0.857902  0.857902  1
  Ir  Ir22  1  0.857584  0.426612  0.857902  1
  Ir  Ir23  1  0.857584  0.857902  0.426612  1
