# generated using pymatgen
data_Ga2Sn2Se5
_symmetry_space_group_name_H-M   'P 1'
_cell_length_a   6.71013000
_cell_length_b   11.55597700
_cell_length_c   13.23981800
_cell_angle_alpha   90.00000000
_cell_angle_beta   90.00000000
_cell_angle_gamma   90.00000000
_symmetry_Int_Tables_number   1
_chemical_formula_structural   Ga2Sn2Se5
_chemical_formula_sum   'Ga8 Sn8 Se20'
_cell_volume   1026.64339655
_cell_formula_units_Z   4
loop_
 _symmetry_equiv_pos_site_id
 _symmetry_equiv_pos_as_xyz
  1  'x, y, z'
loop_
 _atom_site_type_symbol
 _atom_site_label
 _atom_site_symmetry_multiplicity
 _atom_site_fract_x
 _atom_site_fract_y
 _atom_site_fract_z
 _atom_site_occupancy
  Ga  Ga0  1  0.647776  0.115651  0.768152  1
  Ga  Ga1  1  0.352224  0.615651  0.231848  1
  Ga  Ga2  1  0.852224  0.115651  0.268152  1
  Ga  Ga3  1  0.147776  0.615651  0.731848  1
  Ga  Ga4  1  0.152662  0.280388  0.819011  1
  Ga  Ga5  1  0.847338  0.780388  0.180989  1
  Ga  Ga6  1  0.347338  0.280388  0.319011  1
  Ga  Ga7  1  0.652662  0.780388  0.680989  1
  Sn  Sn8  1  0.543281  0.482537  0.538595  1
  Sn  Sn9  1  0.456719  0.982537  0.461405  1
  Sn  Sn10  1  0.956719  0.482537  0.038595  1
  Sn  Sn11  1  0.043281  0.982537  0.961405  1
  Sn  Sn12  1  0.550589  0.256462  0.015467  1
  Sn  Sn13  1  0.449411  0.756462  0.984533  1
  Sn  Sn14  1  0.949411  0.256462  0.515467  1
  Sn  Sn15  1  0.050589  0.756462  0.484533  1
  Se  Se16  1  0.469394  0.965700  0.672778  1
  Se  Se17  1  0.530606  0.465700  0.327222  1
  Se  Se18  1  0.030606  0.965700  0.172778  1
  Se  Se19  1  0.969394  0.465700  0.827222  1
  Se  Se20  1  0.502202  0.806642  0.227140  1
  Se  Se21  1  0.497798  0.306642  0.772860  1
  Se  Se22  1  0.997798  0.806642  0.727140  1
  Se  Se23  1  0.002202  0.306642  0.272860  1
  Se  Se24  1  0.141440  0.535109  0.559379  1
  Se  Se25  1  0.858560  0.035109  0.440621  1
  Se  Se26  1  0.358560  0.535109  0.059379  1
  Se  Se27  1  0.641440  0.035109  0.940621  1
  Se  Se28  1  0.639411  0.720995  0.503191  1
  Se  Se29  1  0.360589  0.220995  0.496809  1
  Se  Se30  1  0.860589  0.720995  0.003191  1
  Se  Se31  1  0.139411  0.220995  0.996809  1
  Se  Se32  1  0.993155  0.136916  0.709732  1
  Se  Se33  1  0.006845  0.636916  0.290268  1
  Se  Se34  1  0.506845  0.136916  0.209732  1
  Se  Se35  1  0.493155  0.636916  0.790268  1
