# generated using pymatgen
data_Ta2Nb10Al8ReRu3C4
_symmetry_space_group_name_H-M   'P 1'
_cell_length_a   8.29414653
_cell_length_b   8.29414655
_cell_length_c   8.32951300
_cell_angle_alpha   60.14035587
_cell_angle_beta   60.14035578
_cell_angle_gamma   59.99999324
_symmetry_Int_Tables_number   1
_chemical_formula_structural   Ta2Nb10Al8ReRu3C4
_chemical_formula_sum   'Ta2 Nb10 Al8 Re1 Ru3 C4'
_cell_volume   406.03745259
_cell_formula_units_Z   1
loop_
 _symmetry_equiv_pos_site_id
 _symmetry_equiv_pos_as_xyz
  1  'x, y, z'
loop_
 _atom_site_type_symbol
 _atom_site_label
 _atom_site_symmetry_multiplicity
 _atom_site_fract_x
 _atom_site_fract_y
 _atom_site_fract_z
 _atom_site_occupancy
  Ta  Ta0  1  0.699995  0.304803  0.690400  1
  Ta  Ta1  1  0.940707  0.559471  0.940352  1
  Nb  Nb2  1  0.550454  0.944637  0.560272  1
  Nb  Nb3  1  0.305343  0.699569  0.690100  1
  Nb  Nb4  1  0.690294  0.309203  0.310065  1
  Nb  Nb5  1  0.309503  0.690244  0.310008  1
  Nb  Nb6  1  0.690294  0.690438  0.310065  1
  Nb  Nb7  1  0.305343  0.304989  0.690100  1
  Nb  Nb8  1  0.559426  0.559770  0.940594  1
  Nb  Nb9  1  0.945335  0.549881  0.559961  1
  Nb  Nb10  1  0.559426  0.940211  0.940594  1
  Nb  Nb11  1  0.945335  0.944822  0.559961  1
  Al  Al12  1  0.913537  0.914134  0.922669  1
  Al  Al13  1  0.000146  0.336314  0.327224  1
  Al  Al14  1  0.336157  0.000600  0.326848  1
  Al  Al15  1  0.335293  0.335197  0.994309  1
  Al  Al16  1  0.913537  0.249660  0.922669  1
  Al  Al17  1  0.914936  0.914810  0.255447  1
  Al  Al18  1  0.249333  0.913886  0.922895  1
  Al  Al19  1  0.336157  0.336394  0.326848  1
  Re  Re20  1  0.123321  0.125810  0.625058  1
  Ru  Ru21  1  0.123980  0.127613  0.123602  1
  Ru  Ru22  1  0.625175  0.125863  0.123099  1
  Ru  Ru23  1  0.123980  0.624805  0.123602  1
  C  C24  1  0.625642  0.622787  0.625891  1
  C  C25  1  0.124468  0.624270  0.626992  1
  C  C26  1  0.625642  0.125681  0.625891  1
  C  C27  1  0.627242  0.624139  0.124481  1
