# generated using pymatgen
data_Rb4ThPaI12
_symmetry_space_group_name_H-M   'P 1'
_cell_length_a   8.56324601
_cell_length_b   8.56324601
_cell_length_c   12.29684600
_cell_angle_alpha   90.00000000
_cell_angle_beta   90.00000000
_cell_angle_gamma   90.00000000
_symmetry_Int_Tables_number   1
_chemical_formula_structural   Rb4ThPaI12
_chemical_formula_sum   'Rb4 Th1 Pa1 I12'
_cell_volume   901.71766043
_cell_formula_units_Z   1
loop_
 _symmetry_equiv_pos_site_id
 _symmetry_equiv_pos_as_xyz
  1  'x, y, z'
loop_
 _atom_site_type_symbol
 _atom_site_label
 _atom_site_symmetry_multiplicity
 _atom_site_fract_x
 _atom_site_fract_y
 _atom_site_fract_z
 _atom_site_occupancy
  Rb  Rb0  1  0.000000  0.500000  0.250956  1
  Rb  Rb1  1  0.500000  0.000000  0.250956  1
  Rb  Rb2  1  0.000000  0.500000  0.749044  1
  Rb  Rb3  1  0.500000  0.000000  0.749044  1
  Th  Th4  1  0.000000  0.000000  0.000000  1
  Pa  Pa5  1  0.500000  0.500000  0.500000  1
  I  I6  1  0.000000  0.000000  0.250512  1
  I  I7  1  0.500000  0.500000  0.252925  1
  I  I8  1  0.000000  0.000000  0.749487  1
  I  I9  1  0.500000  0.500000  0.747075  1
  I  I10  1  0.188984  0.305796  0.000000  1
  I  I11  1  0.694204  0.188984  0.000000  1
  I  I12  1  0.305796  0.811016  0.000000  1
  I  I13  1  0.688470  0.198563  0.500000  1
  I  I14  1  0.311530  0.801437  0.500000  1
  I  I15  1  0.811016  0.694204  0.000000  1
  I  I16  1  0.801437  0.688470  0.500000  1
  I  I17  1  0.198563  0.311530  0.500000  1
