# generated using pymatgen
data_Er13Th3Tl2Cd2Ir3Rh
_symmetry_space_group_name_H-M   'P 1'
_cell_length_a   9.65476278
_cell_length_b   9.66537587
_cell_length_c   9.66537600
_cell_angle_alpha   59.95449041
_cell_angle_beta   59.90915144
_cell_angle_gamma   59.90916499
_symmetry_Int_Tables_number   1
_chemical_formula_structural   Er13Th3Tl2Cd2Ir3Rh
_chemical_formula_sum   'Er13 Th3 Tl2 Cd2 Ir3 Rh1'
_cell_volume   636.67418932
_cell_formula_units_Z   1
loop_
 _symmetry_equiv_pos_site_id
 _symmetry_equiv_pos_as_xyz
  1  'x, y, z'
loop_
 _atom_site_type_symbol
 _atom_site_label
 _atom_site_symmetry_multiplicity
 _atom_site_fract_x
 _atom_site_fract_y
 _atom_site_fract_z
 _atom_site_occupancy
  Er  Er0  1  0.196477  0.602304  0.602360  1
  Er  Er1  1  0.061326  0.438771  0.439697  1
  Er  Er2  1  0.436771  0.063145  0.063365  1
  Er  Er3  1  0.436583  0.062608  0.437470  1
  Er  Er4  1  0.062286  0.438092  0.059854  1
  Er  Er5  1  0.436756  0.436983  0.062990  1
  Er  Er6  1  0.062322  0.059614  0.438599  1
  Er  Er7  1  0.188903  0.814461  0.813897  1
  Er  Er8  1  0.816180  0.187454  0.183373  1
  Er  Er9  1  0.815148  0.187538  0.815309  1
  Er  Er10  1  0.188095  0.815416  0.184580  1
  Er  Er11  1  0.814077  0.815440  0.185609  1
  Er  Er12  1  0.186188  0.186114  0.815440  1
  Th  Th13  1  0.597251  0.598614  0.599755  1
  Th  Th14  1  0.597710  0.601180  0.200792  1
  Th  Th15  1  0.597384  0.200817  0.601943  1
  Tl  Tl16  1  0.837337  0.832741  0.835109  1
  Tl  Tl17  1  0.836529  0.832069  0.495388  1
  Cd  Cd18  1  0.834606  0.497428  0.833163  1
  Cd  Cd19  1  0.495946  0.832656  0.834414  1
  Ir  Ir20  1  0.392780  0.390240  0.823465  1
  Ir  Ir21  1  0.393373  0.823180  0.390208  1
  Ir  Ir22  1  0.821951  0.392016  0.392042  1
  Rh  Rh23  1  0.394021  0.391114  0.391172  1
