# generated using pymatgen
data_Ca2(Hf2Bi3)3
_symmetry_space_group_name_H-M   'P 1'
_cell_length_a   10.99122200
_cell_length_b   10.99122200
_cell_length_c   7.95500900
_cell_angle_alpha   90.00000000
_cell_angle_beta   90.00000000
_cell_angle_gamma   90.00000000
_symmetry_Int_Tables_number   1
_chemical_formula_structural   Ca2(Hf2Bi3)3
_chemical_formula_sum   'Ca4 Hf12 Bi18'
_cell_volume   961.02046244
_cell_formula_units_Z   2
loop_
 _symmetry_equiv_pos_site_id
 _symmetry_equiv_pos_as_xyz
  1  'x, y, z'
loop_
 _atom_site_type_symbol
 _atom_site_label
 _atom_site_symmetry_multiplicity
 _atom_site_fract_x
 _atom_site_fract_y
 _atom_site_fract_z
 _atom_site_occupancy
  Ca  Ca0  1  0.750000  0.750000  0.073427  1
  Ca  Ca1  1  0.250000  0.250000  0.421104  1
  Ca  Ca2  1  0.750000  0.750000  0.578897  1
  Ca  Ca3  1  0.250000  0.250000  0.926574  1
  Hf  Hf4  1  0.000000  0.000000  0.000000  1
  Hf  Hf5  1  0.500000  0.000000  0.000000  1
  Hf  Hf6  1  0.000000  0.500000  0.000000  1
  Hf  Hf7  1  0.500000  0.500000  0.000000  1
  Hf  Hf8  1  0.750000  0.103734  0.160055  1
  Hf  Hf9  1  0.750000  0.396265  0.160055  1
  Hf  Hf10  1  0.103734  0.750000  0.160055  1
  Hf  Hf11  1  0.396265  0.750000  0.160055  1
  Hf  Hf12  1  0.603734  0.249999  0.839946  1
  Hf  Hf13  1  0.896267  0.250000  0.839946  1
  Hf  Hf14  1  0.249999  0.603734  0.839946  1
  Hf  Hf15  1  0.250000  0.896267  0.839946  1
  Bi  Bi16  1  0.250000  0.999831  0.183787  1
  Bi  Bi17  1  0.999831  0.250000  0.183787  1
  Bi  Bi18  1  0.500168  0.249999  0.183787  1
  Bi  Bi19  1  0.249999  0.500168  0.183787  1
  Bi  Bi20  1  0.577315  0.577315  0.345062  1
  Bi  Bi21  1  0.922685  0.577315  0.345062  1
  Bi  Bi22  1  0.922685  0.922685  0.345062  1
  Bi  Bi23  1  0.577315  0.922685  0.345062  1
  Bi  Bi24  1  0.750000  0.250000  0.500000  1
  Bi  Bi25  1  0.250000  0.750000  0.500000  1
  Bi  Bi26  1  0.422685  0.077315  0.654938  1
  Bi  Bi27  1  0.077315  0.077315  0.654938  1
  Bi  Bi28  1  0.077315  0.422685  0.654938  1
  Bi  Bi29  1  0.422685  0.422685  0.654938  1
  Bi  Bi30  1  0.750000  0.499831  0.816214  1
  Bi  Bi31  1  0.499831  0.750000  0.816214  1
  Bi  Bi32  1  0.000169  0.750000  0.816214  1
  Bi  Bi33  1  0.750000  0.000169  0.816214  1
