# generated using pymatgen
data_La4YB4Pd7Rh8
_symmetry_space_group_name_H-M   'P 1'
_cell_length_a   4.28845700
_cell_length_b   4.28845700
_cell_length_c   21.36742500
_cell_angle_alpha   90.00000000
_cell_angle_beta   90.00000000
_cell_angle_gamma   90.00000000
_symmetry_Int_Tables_number   1
_chemical_formula_structural   La4YB4Pd7Rh8
_chemical_formula_sum   'La4 Y1 B4 Pd7 Rh8'
_cell_volume   392.96539526
_cell_formula_units_Z   1
loop_
 _symmetry_equiv_pos_site_id
 _symmetry_equiv_pos_as_xyz
  1  'x, y, z'
loop_
 _atom_site_type_symbol
 _atom_site_label
 _atom_site_symmetry_multiplicity
 _atom_site_fract_x
 _atom_site_fract_y
 _atom_site_fract_z
 _atom_site_occupancy
  La  La0  1  0.000000  0.000000  0.899526  1
  La  La1  1  0.000000  0.000000  0.100474  1
  La  La2  1  0.000000  0.000000  0.301914  1
  La  La3  1  0.000000  0.000000  0.698086  1
  Y  Y4  1  0.000000  0.000000  0.500000  1
  B  B5  1  0.500000  0.500000  0.188966  1
  B  B6  1  0.500000  0.500000  0.397783  1
  B  B7  1  0.500000  0.500000  0.602217  1
  B  B8  1  0.500000  0.500000  0.811034  1
  Pd  Pd9  1  0.500000  0.500000  0.909691  1
  Pd  Pd10  1  0.500000  0.500000  0.090309  1
  Pd  Pd11  1  0.500000  0.500000  0.296741  1
  Pd  Pd12  1  0.500000  0.500000  0.500000  1
  Pd  Pd13  1  0.500000  0.500000  0.703259  1
  Pd  Pd14  1  0.500000  0.000000  0.000000  1
  Pd  Pd15  1  0.000000  0.500000  0.000000  1
  Rh  Rh16  1  0.500000  0.000000  0.201040  1
  Rh  Rh17  1  0.500000  0.000000  0.403341  1
  Rh  Rh18  1  0.500000  0.000000  0.596659  1
  Rh  Rh19  1  0.500000  0.000000  0.798960  1
  Rh  Rh20  1  0.000000  0.500000  0.201040  1
  Rh  Rh21  1  0.000000  0.500000  0.403341  1
  Rh  Rh22  1  0.000000  0.500000  0.596659  1
  Rh  Rh23  1  0.000000  0.500000  0.798960  1
