# generated using pymatgen
data_Zr6BeZn22Pd
_symmetry_space_group_name_H-M   'P 1'
_cell_length_a   8.75979638
_cell_length_b   8.75987988
_cell_length_c   8.75988852
_cell_angle_alpha   120.00068572
_cell_angle_beta   89.99749496
_cell_angle_gamma   120.00079724
_symmetry_Int_Tables_number   1
_chemical_formula_structural   Zr6BeZn22Pd
_chemical_formula_sum   'Zr6 Be1 Zn22 Pd1'
_cell_volume   475.30841419
_cell_formula_units_Z   1
loop_
 _symmetry_equiv_pos_site_id
 _symmetry_equiv_pos_as_xyz
  1  'x, y, z'
loop_
 _atom_site_type_symbol
 _atom_site_label
 _atom_site_symmetry_multiplicity
 _atom_site_fract_x
 _atom_site_fract_y
 _atom_site_fract_z
 _atom_site_occupancy
  Zr  Zr0  1  0.295583  0.999994  0.295578  1
  Zr  Zr1  1  0.704447  0.999998  0.295546  1
  Zr  Zr2  1  0.295568  0.591140  0.295565  1
  Zr  Zr3  1  0.295553  0.000002  0.704454  1
  Zr  Zr4  1  0.704417  0.000006  0.704422  1
  Zr  Zr5  1  0.704432  0.408860  0.704435  1
  Be  Be6  1  0.500000  0.000000  0.500000  1
  Zn  Zn7  1  0.499999  0.000000  0.000000  1
  Zn  Zn8  1  0.000000  0.499999  0.000000  1
  Zn  Zn9  1  0.499999  0.499999  0.000000  1
  Zn  Zn10  1  0.336971  0.673907  0.010856  1
  Zn  Zn11  1  0.365167  0.243442  0.121731  1
  Zn  Zn12  1  0.878278  0.243451  0.121707  1
  Zn  Zn13  1  0.878290  0.756546  0.121715  1
  Zn  Zn14  1  0.663063  0.326098  0.336954  1
  Zn  Zn15  1  0.010857  0.673910  0.336974  1
  Zn  Zn16  1  0.663051  0.673908  0.336941  1
  Zn  Zn17  1  0.121731  0.243439  0.365158  1
  Zn  Zn18  1  0.000000  0.000000  0.499999  1
  Zn  Zn19  1  0.000000  0.499999  0.499999  1
  Zn  Zn20  1  0.499999  0.499999  0.499999  1
  Zn  Zn21  1  0.878269  0.756561  0.634842  1
  Zn  Zn22  1  0.336937  0.673902  0.663046  1
  Zn  Zn23  1  0.336949  0.326092  0.663059  1
  Zn  Zn24  1  0.989143  0.326090  0.663026  1
  Zn  Zn25  1  0.121710  0.243454  0.878285  1
  Zn  Zn26  1  0.121722  0.756549  0.878293  1
  Zn  Zn27  1  0.634833  0.756558  0.878269  1
  Zn  Zn28  1  0.663029  0.326093  0.989144  1
  Pd  Pd29  1  0.000000  0.000000  0.000000  1
