# generated using pymatgen
data_Ac6BiTe7
_symmetry_space_group_name_H-M   'P 1'
_cell_length_a   8.66503121
_cell_length_b   8.66503197
_cell_length_c   8.66503241
_cell_angle_alpha   109.40269553
_cell_angle_beta   109.40268705
_cell_angle_gamma   109.40268636
_symmetry_Int_Tables_number   1
_chemical_formula_structural   Ac6BiTe7
_chemical_formula_sum   'Ac6 Bi1 Te7'
_cell_volume   502.09472729
_cell_formula_units_Z   1
loop_
 _symmetry_equiv_pos_site_id
 _symmetry_equiv_pos_as_xyz
  1  'x, y, z'
loop_
 _atom_site_type_symbol
 _atom_site_label
 _atom_site_symmetry_multiplicity
 _atom_site_fract_x
 _atom_site_fract_y
 _atom_site_fract_z
 _atom_site_occupancy
  Ac  Ac0  1  0.873830  0.124204  0.750410  1
  Ac  Ac1  1  0.376376  0.250918  0.625403  1
  Ac  Ac2  1  0.124204  0.750410  0.873830  1
  Ac  Ac3  1  0.750410  0.873830  0.124204  1
  Ac  Ac4  1  0.250918  0.625403  0.376376  1
  Ac  Ac5  1  0.625403  0.376376  0.250918  1
  Bi  Bi6  1  0.656029  0.656029  0.656029  1
  Te  Te7  1  0.499721  0.999768  0.346467  1
  Te  Te8  1  0.999768  0.346467  0.499721  1
  Te  Te9  1  0.346467  0.499721  0.999768  1
  Te  Te10  1  0.999504  0.845826  0.498551  1
  Te  Te11  1  0.845826  0.498551  0.999504  1
  Te  Te12  1  0.152992  0.152992  0.152992  1
  Te  Te13  1  0.498551  0.999504  0.845826  1
