# generated using pymatgen
data_HfZr9Sn7Sb
_symmetry_space_group_name_H-M   'P 1'
_cell_length_a   8.84157511
_cell_length_b   8.85264447
_cell_length_c   5.95665225
_cell_angle_alpha   90.03127562
_cell_angle_beta   89.99373190
_cell_angle_gamma   120.08125577
_symmetry_Int_Tables_number   1
_chemical_formula_structural   HfZr9Sn7Sb
_chemical_formula_sum   'Hf1 Zr9 Sn7 Sb1'
_cell_volume   403.44031274
_cell_formula_units_Z   1
loop_
 _symmetry_equiv_pos_site_id
 _symmetry_equiv_pos_as_xyz
  1  'x, y, z'
loop_
 _atom_site_type_symbol
 _atom_site_label
 _atom_site_symmetry_multiplicity
 _atom_site_fract_x
 _atom_site_fract_y
 _atom_site_fract_z
 _atom_site_occupancy
  Hf  Hf0  1  0.332808  0.666699  0.500754  1
  Zr  Zr1  1  0.280715  0.281501  0.749510  1
  Zr  Zr2  1  0.720835  0.720493  0.250392  1
  Zr  Zr3  1  0.717117  0.998500  0.749548  1
  Zr  Zr4  1  0.001558  0.282487  0.250375  1
  Zr  Zr5  1  0.667364  0.333770  0.500451  1
  Zr  Zr6  1  0.999156  0.717662  0.750114  1
  Zr  Zr7  1  0.332532  0.666827  0.999648  1
  Zr  Zr8  1  0.280611  0.999407  0.249842  1
  Zr  Zr9  1  0.667484  0.333484  0.999552  1
  Sn  Sn10  1  0.000162  0.000949  0.500874  1
  Sn  Sn11  1  0.612286  0.613886  0.749006  1
  Sn  Sn12  1  0.386166  0.999551  0.749298  1
  Sn  Sn13  1  0.000115  0.000935  0.999107  1
  Sn  Sn14  1  0.612871  0.999171  0.250646  1
  Sn  Sn15  1  0.386610  0.387562  0.250956  1
  Sn  Sn16  1  0.000692  0.385134  0.749370  1
  Sb  Sb17  1  0.000918  0.611980  0.250555  1
