# generated using pymatgen
data_LaEr3(WO6)2
_symmetry_space_group_name_H-M   'P 1'
_cell_length_a   5.44226000
_cell_length_b   7.76575427
_cell_length_c   11.54324413
_cell_angle_alpha   75.53239187
_cell_angle_beta   90.00000000
_cell_angle_gamma   90.00000000
_symmetry_Int_Tables_number   1
_chemical_formula_structural   LaEr3(WO6)2
_chemical_formula_sum   'La2 Er6 W4 O24'
_cell_volume   472.38470265
_cell_formula_units_Z   2
loop_
 _symmetry_equiv_pos_site_id
 _symmetry_equiv_pos_as_xyz
  1  'x, y, z'
loop_
 _atom_site_type_symbol
 _atom_site_label
 _atom_site_symmetry_multiplicity
 _atom_site_fract_x
 _atom_site_fract_y
 _atom_site_fract_z
 _atom_site_occupancy
  La  La0  1  0.687123  0.500000  0.750000  1
  La  La1  1  0.312877  0.500000  0.250000  1
  Er  Er2  1  0.742353  0.000000  0.750000  1
  Er  Er3  1  0.257647  0.000000  0.250000  1
  Er  Er4  1  0.186709  0.799220  0.576697  1
  Er  Er5  1  0.813291  0.799220  0.076697  1
  Er  Er6  1  0.186709  0.200780  0.923303  1
  Er  Er7  1  0.813291  0.200780  0.423303  1
  W  W8  1  0.253021  0.729451  0.884085  1
  W  W9  1  0.746979  0.729451  0.384085  1
  W  W10  1  0.253021  0.270549  0.615915  1
  W  W11  1  0.746979  0.270549  0.115915  1
  O  O12  1  0.040074  0.942811  0.896027  1
  O  O13  1  0.534766  0.845801  0.930718  1
  O  O14  1  0.959926  0.942811  0.396027  1
  O  O15  1  0.455011  0.797892  0.726492  1
  O  O16  1  0.465234  0.845801  0.430718  1
  O  O17  1  0.987393  0.723547  0.768127  1
  O  O18  1  0.544989  0.797892  0.226492  1
  O  O19  1  0.859335  0.643765  0.544645  1
  O  O20  1  0.344617  0.493885  0.887990  1
  O  O21  1  0.012607  0.723547  0.268127  1
  O  O22  1  0.344617  0.506115  0.612010  1
  O  O23  1  0.859335  0.356235  0.955355  1
  O  O24  1  0.140665  0.643765  0.044645  1
  O  O25  1  0.655383  0.493885  0.387990  1
  O  O26  1  0.987393  0.276453  0.731873  1
  O  O27  1  0.655383  0.506115  0.112010  1
  O  O28  1  0.140665  0.356235  0.455355  1
  O  O29  1  0.455011  0.202108  0.773508  1
  O  O30  1  0.012607  0.276453  0.231873  1
  O  O31  1  0.534766  0.154199  0.569282  1
  O  O32  1  0.544989  0.202108  0.273508  1
  O  O33  1  0.040074  0.057189  0.603973  1
  O  O34  1  0.465234  0.154199  0.069282  1
  O  O35  1  0.959926  0.057189  0.103973  1
