# generated using pymatgen
data_TbSm3(MoO4)6
_symmetry_space_group_name_H-M   'P 1'
_cell_length_a   7.55461348
_cell_length_b   7.55461348
_cell_length_c   10.83262214
_cell_angle_alpha   90.03713028
_cell_angle_beta   89.96286972
_cell_angle_gamma   89.91495668
_symmetry_Int_Tables_number   1
_chemical_formula_structural   TbSm3(MoO4)6
_chemical_formula_sum   'Tb1 Sm3 Mo6 O24'
_cell_volume   618.24047145
_cell_formula_units_Z   1
loop_
 _symmetry_equiv_pos_site_id
 _symmetry_equiv_pos_as_xyz
  1  'x, y, z'
loop_
 _atom_site_type_symbol
 _atom_site_label
 _atom_site_symmetry_multiplicity
 _atom_site_fract_x
 _atom_site_fract_y
 _atom_site_fract_z
 _atom_site_occupancy
  Tb  Tb0  1  0.310737  0.189263  0.736794  1
  Sm  Sm1  1  0.188365  0.688167  0.261963  1
  Sm  Sm2  1  0.811833  0.311635  0.261963  1
  Sm  Sm3  1  0.686721  0.813279  0.738251  1
  Mo  Mo4  1  0.208067  0.707096  0.645448  1
  Mo  Mo5  1  0.792904  0.291933  0.645448  1
  Mo  Mo6  1  0.707702  0.792298  0.355457  1
  Mo  Mo7  1  0.292304  0.207696  0.358062  1
  Mo  Mo8  1  0.002156  0.001510  0.998231  1
  Mo  Mo9  1  0.498490  0.497844  0.998231  1
  O  O10  1  0.196744  0.695670  0.481253  1
  O  O11  1  0.804330  0.303256  0.481253  1
  O  O12  1  0.695510  0.804490  0.519508  1
  O  O13  1  0.304324  0.195676  0.522430  1
  O  O14  1  0.624804  0.129488  0.691983  1
  O  O15  1  0.370512  0.875196  0.691983  1
  O  O16  1  0.127448  0.372552  0.310690  1
  O  O17  1  0.873073  0.626927  0.308907  1
  O  O18  1  0.774084  0.002171  0.296553  1
  O  O19  1  0.226238  0.997940  0.298634  1
  O  O20  1  0.502060  0.273762  0.298634  1
  O  O21  1  0.497829  0.725916  0.296553  1
  O  O22  1  0.003964  0.224718  0.703185  1
  O  O23  1  0.997213  0.771769  0.703831  1
  O  O24  1  0.728231  0.502787  0.703831  1
  O  O25  1  0.275282  0.496036  0.703185  1
  O  O26  1  0.812702  0.957159  0.903842  1
  O  O27  1  0.188276  0.047450  0.900587  1
  O  O28  1  0.452550  0.311724  0.900587  1
  O  O29  1  0.542841  0.687298  0.903842  1
  O  O30  1  0.957756  0.188525  0.095208  1
  O  O31  1  0.047046  0.813570  0.094233  1
  O  O32  1  0.686430  0.452954  0.094233  1
  O  O33  1  0.311475  0.542244  0.095208  1
