# generated using pymatgen
data_NdY7(WC2)4
_symmetry_space_group_name_H-M   'P 1'
_cell_length_a   5.76352182
_cell_length_b   5.76352182
_cell_length_c   9.98605501
_cell_angle_alpha   90.40313872
_cell_angle_beta   89.59686128
_cell_angle_gamma   90.08208055
_symmetry_Int_Tables_number   1
_chemical_formula_structural   NdY7(WC2)4
_chemical_formula_sum   'Nd1 Y7 W4 C8'
_cell_volume   331.70187099
_cell_formula_units_Z   1
loop_
 _symmetry_equiv_pos_site_id
 _symmetry_equiv_pos_as_xyz
  1  'x, y, z'
loop_
 _atom_site_type_symbol
 _atom_site_label
 _atom_site_symmetry_multiplicity
 _atom_site_fract_x
 _atom_site_fract_y
 _atom_site_fract_z
 _atom_site_occupancy
  Nd  Nd0  1  0.300859  0.699141  0.159664  1
  Y  Y1  1  0.200308  0.197919  0.343427  1
  Y  Y2  1  0.801266  0.798791  0.658475  1
  Y  Y3  1  0.299654  0.700346  0.842173  1
  Y  Y4  1  0.802081  0.799692  0.343427  1
  Y  Y5  1  0.201209  0.198734  0.658475  1
  Y  Y6  1  0.698025  0.301975  0.156710  1
  Y  Y7  1  0.699779  0.300221  0.840671  1
  W  W8  1  0.175001  0.180000  0.997548  1
  W  W9  1  0.820000  0.824999  0.997548  1
  W  W10  1  0.324514  0.675486  0.502849  1
  W  W11  1  0.680488  0.319512  0.501658  1
  C  C12  1  0.993848  0.006152  0.150519  1
  C  C13  1  0.505480  0.494520  0.352520  1
  C  C14  1  0.501078  0.498922  0.653924  1
  C  C15  1  0.499129  0.006258  0.995577  1
  C  C16  1  0.993742  0.500871  0.995577  1
  C  C17  1  0.999609  0.000391  0.846219  1
  C  C18  1  0.501635  0.997706  0.501520  1
  C  C19  1  0.002294  0.498365  0.501520  1
