# generated using pymatgen
data_Er3TmZr4F28
_symmetry_space_group_name_H-M   'P 1'
_cell_length_a   5.71878846
_cell_length_b   9.03879671
_cell_length_c   12.15608630
_cell_angle_alpha   62.47581475
_cell_angle_beta   90.02189035
_cell_angle_gamma   90.01276996
_symmetry_Int_Tables_number   1
_chemical_formula_structural   Er3TmZr4F28
_chemical_formula_sum   'Er3 Tm1 Zr4 F28'
_cell_volume   557.23942715
_cell_formula_units_Z   1
loop_
 _symmetry_equiv_pos_site_id
 _symmetry_equiv_pos_as_xyz
  1  'x, y, z'
loop_
 _atom_site_type_symbol
 _atom_site_label
 _atom_site_symmetry_multiplicity
 _atom_site_fract_x
 _atom_site_fract_y
 _atom_site_fract_z
 _atom_site_occupancy
  Er  Er0  1  0.743741  0.816276  0.266411  1
  Er  Er1  1  0.243691  0.183482  0.233698  1
  Er  Er2  1  0.256803  0.182283  0.733945  1
  Tm  Tm3  1  0.756437  0.816575  0.766062  1
  Zr  Zr4  1  0.744362  0.274069  0.454927  1
  Zr  Zr5  1  0.244003  0.725899  0.044988  1
  Zr  Zr6  1  0.255186  0.725417  0.545784  1
  Zr  Zr7  1  0.755669  0.274712  0.954368  1
  F  F8  1  0.469628  0.712246  0.920486  1
  F  F9  1  0.969510  0.288701  0.579089  1
  F  F10  1  0.531359  0.289308  0.078707  1
  F  F11  1  0.032380  0.710337  0.420825  1
  F  F12  1  0.451539  0.279648  0.550726  1
  F  F13  1  0.950180  0.721673  0.948856  1
  F  F14  1  0.547720  0.719654  0.449639  1
  F  F15  1  0.048055  0.280104  0.050576  1
  F  F16  1  0.769077  0.528125  0.857408  1
  F  F17  1  0.267798  0.472529  0.642438  1
  F  F18  1  0.232808  0.473208  0.142688  1
  F  F19  1  0.732486  0.526844  0.357258  1
  F  F20  1  0.759228  0.022095  0.058381  1
  F  F21  1  0.259195  0.977779  0.441422  1
  F  F22  1  0.241240  0.978494  0.941070  1
  F  F23  1  0.739958  0.021447  0.559823  1
  F  F24  1  0.982247  0.734956  0.650602  1
  F  F25  1  0.484155  0.266196  0.848595  1
  F  F26  1  0.013540  0.265333  0.348220  1
  F  F27  1  0.513475  0.734786  0.151727  1
  F  F28  1  0.032266  0.747251  0.173686  1
  F  F29  1  0.530799  0.253482  0.326587  1
  F  F30  1  0.968444  0.252443  0.826362  1
  F  F31  1  0.468998  0.747223  0.674083  1
  F  F32  1  0.432906  0.974828  0.235651  1
  F  F33  1  0.932218  0.025373  0.264591  1
  F  F34  1  0.571157  0.024726  0.764874  1
  F  F35  1  0.067744  0.972496  0.735443  1
