# generated using pymatgen
data_Tm12CdInFe3
_symmetry_space_group_name_H-M   'P 1'
_cell_length_a   8.22802749
_cell_length_b   8.22802755
_cell_length_c   8.22802776
_cell_angle_alpha   108.81326637
_cell_angle_beta   107.70935841
_cell_angle_gamma   111.92092034
_symmetry_Int_Tables_number   1
_chemical_formula_structural   Tm12CdInFe3
_chemical_formula_sum   'Tm12 Cd1 In1 Fe3'
_cell_volume   428.18171573
_cell_formula_units_Z   1
loop_
 _symmetry_equiv_pos_site_id
 _symmetry_equiv_pos_as_xyz
  1  'x, y, z'
loop_
 _atom_site_type_symbol
 _atom_site_label
 _atom_site_symmetry_multiplicity
 _atom_site_fract_x
 _atom_site_fract_y
 _atom_site_fract_z
 _atom_site_occupancy
  Tm  Tm0  1  0.190471  0.427590  0.237119  1
  Tm  Tm1  1  0.809529  0.572410  0.762881  1
  Tm  Tm2  1  0.190471  0.953353  0.762881  1
  Tm  Tm3  1  0.955670  0.190759  0.764909  1
  Tm  Tm4  1  0.809529  0.046647  0.237119  1
  Tm  Tm5  1  0.044330  0.809241  0.235091  1
  Tm  Tm6  1  0.425850  0.190759  0.235091  1
  Tm  Tm7  1  0.574150  0.809241  0.764909  1
  Tm  Tm8  1  0.308105  0.307330  0.615435  1
  Tm  Tm9  1  0.691895  0.692670  0.384565  1
  Tm  Tm10  1  0.691895  0.307330  0.999224  1
  Tm  Tm11  1  0.308105  0.692670  0.000776  1
  Cd  Cd12  1  0.000000  0.500000  0.500000  1
  In  In13  1  0.500000  0.000000  0.500000  1
  Fe  Fe14  1  0.383721  0.383721  0.000000  1
  Fe  Fe15  1  0.616279  0.616279  0.000000  1
  Fe  Fe16  1  0.000000  0.000000  0.000000  1
