# generated using pymatgen
data_Na5P12Ir2Rh17
_symmetry_space_group_name_H-M   'P 1'
_cell_length_a   12.61300000
_cell_length_b   12.61212806
_cell_length_c   3.91108200
_cell_angle_alpha   90.00000000
_cell_angle_beta   90.00000000
_cell_angle_gamma   120.00229224
_symmetry_Int_Tables_number   1
_chemical_formula_structural   Na5P12Ir2Rh17
_chemical_formula_sum   'Na5 P12 Ir2 Rh17'
_cell_volume   538.79590821
_cell_formula_units_Z   1
loop_
 _symmetry_equiv_pos_site_id
 _symmetry_equiv_pos_as_xyz
  1  'x, y, z'
loop_
 _atom_site_type_symbol
 _atom_site_label
 _atom_site_symmetry_multiplicity
 _atom_site_fract_x
 _atom_site_fract_y
 _atom_site_fract_z
 _atom_site_occupancy
  Na  Na0  1  0.333339  0.666090  0.500000  1
  Na  Na1  1  0.667250  0.333910  0.500000  1
  Na  Na2  1  0.999563  0.817332  0.000000  1
  Na  Na3  1  0.182230  0.182668  0.000000  1
  Na  Na4  1  0.817407  0.000000  0.000000  1
  P  P5  1  0.999749  0.632817  0.500000  1
  P  P6  1  0.366933  0.367183  0.500000  1
  P  P7  1  0.633409  0.000000  0.500000  1
  P  P8  1  0.518614  0.686523  0.000000  1
  P  P9  1  0.313240  0.830965  0.000000  1
  P  P10  1  0.167843  0.481016  0.000000  1
  P  P11  1  0.482275  0.169035  0.000000  1
  P  P12  1  0.686827  0.518984  0.000000  1
  P  P13  1  0.832091  0.313477  0.000000  1
  P  P14  1  0.999726  0.179189  0.500000  1
  P  P15  1  0.820537  0.820811  0.500000  1
  P  P16  1  0.178510  0.000000  0.500000  1
  Ir  Ir17  1  0.284514  0.000000  0.000000  1
  Ir  Ir18  1  0.998962  0.000000  0.500000  1
  Rh  Rh19  1  0.512287  0.871271  0.000000  1
  Rh  Rh20  1  0.128635  0.640457  0.000000  1
  Rh  Rh21  1  0.358959  0.487684  0.000000  1
  Rh  Rh22  1  0.488179  0.359543  0.000000  1
  Rh  Rh23  1  0.871276  0.512316  0.000000  1
  Rh  Rh24  1  0.641016  0.128729  0.000000  1
  Rh  Rh25  1  0.999881  0.452501  0.500000  1
  Rh  Rh26  1  0.547380  0.547499  0.500000  1
  Rh  Rh27  1  0.452880  0.000000  0.500000  1
  Rh  Rh28  1  0.999853  0.283219  0.000000  1
  Rh  Rh29  1  0.716633  0.716781  0.000000  1
  Rh  Rh30  1  0.623315  0.805343  0.500000  1
  Rh  Rh31  1  0.194408  0.817310  0.500000  1
  Rh  Rh32  1  0.181735  0.376263  0.500000  1
  Rh  Rh33  1  0.377099  0.182690  0.500000  1
  Rh  Rh34  1  0.805472  0.623737  0.500000  1
  Rh  Rh35  1  0.817972  0.194657  0.500000  1
