# generated using pymatgen
data_Tb3Ho2In2(HgPd)2
_symmetry_space_group_name_H-M   'P 1'
_cell_length_a   3.63893800
_cell_length_b   8.04738000
_cell_length_c   18.32997800
_cell_angle_alpha   90.00000000
_cell_angle_beta   90.00000000
_cell_angle_gamma   90.00000000
_symmetry_Int_Tables_number   1
_chemical_formula_structural   Tb3Ho2In2(HgPd)2
_chemical_formula_sum   'Tb6 Ho4 In4 Hg4 Pd4'
_cell_volume   536.77355221
_cell_formula_units_Z   2
loop_
 _symmetry_equiv_pos_site_id
 _symmetry_equiv_pos_as_xyz
  1  'x, y, z'
loop_
 _atom_site_type_symbol
 _atom_site_label
 _atom_site_symmetry_multiplicity
 _atom_site_fract_x
 _atom_site_fract_y
 _atom_site_fract_z
 _atom_site_occupancy
  Tb  Tb0  1  0.000000  0.500000  0.500000  1
  Tb  Tb1  1  0.000000  0.000000  0.000000  1
  Tb  Tb2  1  0.000000  0.743550  0.284400  1
  Tb  Tb3  1  0.000000  0.256450  0.715600  1
  Tb  Tb4  1  0.000000  0.756450  0.784400  1
  Tb  Tb5  1  0.000000  0.243550  0.215600  1
  Ho  Ho6  1  0.000000  0.609169  0.083613  1
  Ho  Ho7  1  0.000000  0.390831  0.916387  1
  Ho  Ho8  1  0.000000  0.890831  0.583613  1
  Ho  Ho9  1  0.000000  0.109169  0.416387  1
  In  In10  1  0.500000  0.581710  0.649221  1
  In  In11  1  0.500000  0.418290  0.350779  1
  In  In12  1  0.500000  0.918290  0.149221  1
  In  In13  1  0.500000  0.081710  0.850779  1
  Hg  Hg14  1  0.500000  0.711112  0.933881  1
  Hg  Hg15  1  0.500000  0.288888  0.066119  1
  Hg  Hg16  1  0.500000  0.788888  0.433881  1
  Hg  Hg17  1  0.500000  0.211112  0.566119  1
  Pd  Pd18  1  0.500000  0.531033  0.197306  1
  Pd  Pd19  1  0.500000  0.468967  0.802694  1
  Pd  Pd20  1  0.500000  0.968967  0.697306  1
  Pd  Pd21  1  0.500000  0.031033  0.302694  1
