# generated using pymatgen
data_Zr4Re17Tc7Sn
_symmetry_space_group_name_H-M   'P 1'
_cell_length_a   8.48624914
_cell_length_b   8.48624824
_cell_length_c   8.47407933
_cell_angle_alpha   109.48044969
_cell_angle_beta   109.48043909
_cell_angle_gamma   109.59915948
_symmetry_Int_Tables_number   1
_chemical_formula_structural   Zr4Re17Tc7Sn
_chemical_formula_sum   'Zr4 Re17 Tc7 Sn1'
_cell_volume   468.93709874
_cell_formula_units_Z   1
loop_
 _symmetry_equiv_pos_site_id
 _symmetry_equiv_pos_as_xyz
  1  'x, y, z'
loop_
 _atom_site_type_symbol
 _atom_site_label
 _atom_site_symmetry_multiplicity
 _atom_site_fract_x
 _atom_site_fract_y
 _atom_site_fract_z
 _atom_site_occupancy
  Zr  Zr0  1  0.628480  0.999771  0.999697  1
  Zr  Zr1  1  0.999771  0.628480  0.999697  1
  Zr  Zr2  1  0.001566  0.001566  0.630924  1
  Zr  Zr3  1  0.369200  0.369200  0.369717  1
  Re  Re4  1  0.000349  0.675158  0.393931  1
  Re  Re5  1  0.675158  0.000349  0.393931  1
  Re  Re6  1  0.605960  0.605960  0.280637  1
  Re  Re7  1  0.280855  0.606764  0.606194  1
  Re  Re8  1  0.606764  0.280855  0.606194  1
  Re  Re9  1  0.377438  0.196155  0.001113  1
  Re  Re10  1  0.180236  0.805124  0.804225  1
  Re  Re11  1  0.376057  0.000763  0.195597  1
  Re  Re12  1  0.196155  0.377438  0.001113  1
  Re  Re13  1  0.000763  0.376057  0.195597  1
  Re  Re14  1  0.805124  0.180236  0.804225  1
  Re  Re15  1  0.805443  0.805443  0.181445  1
  Re  Re16  1  0.000539  0.195094  0.377481  1
  Re  Re17  1  0.195094  0.000539  0.377481  1
  Re  Re18  1  0.622360  0.622360  0.816529  1
  Re  Re19  1  0.816582  0.622712  0.622126  1
  Re  Re20  1  0.622712  0.816582  0.622126  1
  Tc  Tc21  1  0.393928  0.676539  0.000215  1
  Tc  Tc22  1  0.718881  0.324156  0.323742  1
  Tc  Tc23  1  0.395019  0.001434  0.676919  1
  Tc  Tc24  1  0.676539  0.393928  0.000215  1
  Tc  Tc25  1  0.001434  0.395019  0.676919  1
  Tc  Tc26  1  0.324156  0.718881  0.323742  1
  Tc  Tc27  1  0.324524  0.324524  0.718684  1
  Sn  Sn28  1  0.998912  0.998912  0.999584  1
