# generated using pymatgen
data_ScTlF4
_symmetry_space_group_name_H-M   'P 1'
_cell_length_a   8.22522832
_cell_length_b   8.22522772
_cell_length_c   13.51127200
_cell_angle_alpha   72.83299359
_cell_angle_beta   72.83299487
_cell_angle_gamma   29.01663960
_symmetry_Int_Tables_number   1
_chemical_formula_structural   ScTlF4
_chemical_formula_sum   'Sc4 Tl4 F16'
_cell_volume   422.28531369
_cell_formula_units_Z   4
loop_
 _symmetry_equiv_pos_site_id
 _symmetry_equiv_pos_as_xyz
  1  'x, y, z'
loop_
 _atom_site_type_symbol
 _atom_site_label
 _atom_site_symmetry_multiplicity
 _atom_site_fract_x
 _atom_site_fract_y
 _atom_site_fract_z
 _atom_site_occupancy
  Sc  Sc0  1  0.882339  0.882339  0.614425  1
  Sc  Sc1  1  0.117661  0.117661  0.385575  1
  Sc  Sc2  1  0.973935  0.973935  0.861375  1
  Sc  Sc3  1  0.026065  0.026065  0.138625  1
  Tl  Tl4  1  0.242123  0.242123  0.866881  1
  Tl  Tl5  1  0.757877  0.757877  0.133119  1
  Tl  Tl6  1  0.637123  0.637123  0.634703  1
  Tl  Tl7  1  0.362877  0.362877  0.365297  1
  F  F8  1  0.000000  0.000000  0.500000  1
  F  F9  1  0.000000  0.000000  0.000000  1
  F  F10  1  0.953873  0.953873  0.718405  1
  F  F11  1  0.046127  0.046127  0.281595  1
  F  F12  1  0.472267  0.472267  0.859348  1
  F  F13  1  0.527733  0.527733  0.140652  1
  F  F14  1  0.768158  0.768158  0.727731  1
  F  F15  1  0.231842  0.231842  0.272269  1
  F  F16  1  0.896871  0.896871  0.213107  1
  F  F17  1  0.103129  0.103129  0.786893  1
  F  F18  1  0.615309  0.615309  0.383107  1
  F  F19  1  0.384691  0.384691  0.616893  1
  F  F20  1  0.180092  0.180092  0.491251  1
  F  F21  1  0.819908  0.819908  0.508749  1
  F  F22  1  0.156407  0.156407  0.071713  1
  F  F23  1  0.843593  0.843593  0.928287  1
