# generated using pymatgen
data_Ac5(Ag2Au3)2
_symmetry_space_group_name_H-M   'P 1'
_cell_length_a   6.26865350
_cell_length_b   6.26865477
_cell_length_c   29.37907943
_cell_angle_alpha   82.93276178
_cell_angle_beta   82.93275910
_cell_angle_gamma   45.13855446
_symmetry_Int_Tables_number   1
_chemical_formula_structural   Ac5(Ag2Au3)2
_chemical_formula_sum   'Ac10 Ag8 Au12'
_cell_volume   811.01706426
_cell_formula_units_Z   2
loop_
 _symmetry_equiv_pos_site_id
 _symmetry_equiv_pos_as_xyz
  1  'x, y, z'
loop_
 _atom_site_type_symbol
 _atom_site_label
 _atom_site_symmetry_multiplicity
 _atom_site_fract_x
 _atom_site_fract_y
 _atom_site_fract_z
 _atom_site_occupancy
  Ac  Ac0  1  0.003017  0.003017  0.165905  1
  Ac  Ac1  1  0.794294  0.794294  0.566154  1
  Ac  Ac2  1  0.391938  0.391938  0.364619  1
  Ac  Ac3  1  0.611553  0.611553  0.967541  1
  Ac  Ac4  1  0.206504  0.206504  0.766166  1
  Ac  Ac5  1  0.810917  0.810917  0.066654  1
  Ac  Ac6  1  0.589150  0.589150  0.466295  1
  Ac  Ac7  1  0.195521  0.195521  0.266534  1
  Ac  Ac8  1  0.411534  0.411534  0.866186  1
  Ac  Ac9  1  0.000105  0.000105  0.666273  1
  Ag  Ag10  1  0.314389  0.314389  0.982901  1
  Ag  Ag11  1  0.908281  0.908281  0.783048  1
  Ag  Ag12  1  0.495907  0.495907  0.583470  1
  Ag  Ag13  1  0.090140  0.090140  0.383537  1
  Ag  Ag14  1  0.702579  0.702579  0.183433  1
  Ag  Ag15  1  0.112999  0.112999  0.883212  1
  Ag  Ag16  1  0.701953  0.701953  0.683113  1
  Ag  Ag17  1  0.289994  0.289994  0.482725  1
  Au  Au18  1  0.893917  0.893917  0.283483  1
  Au  Au19  1  0.509918  0.509918  0.083961  1
  Au  Au20  1  0.710713  0.710713  0.848731  1
  Au  Au21  1  0.298773  0.298773  0.649102  1
  Au  Au22  1  0.889540  0.889540  0.448692  1
  Au  Au23  1  0.499090  0.499090  0.247327  1
  Au  Au24  1  0.114673  0.114673  0.047903  1
  Au  Au25  1  0.914187  0.914187  0.948712  1
  Au  Au26  1  0.505056  0.505056  0.748888  1
  Au  Au27  1  0.092976  0.092976  0.549195  1
  Au  Au28  1  0.689145  0.689145  0.349519  1
  Au  Au29  1  0.303433  0.303433  0.149324  1
