# generated using pymatgen
data_Nd20Ir5Os2Au5
_symmetry_space_group_name_H-M   'P 1'
_cell_length_a   11.52159112
_cell_length_b   11.52159112
_cell_length_c   6.58764993
_cell_angle_alpha   90.07503553
_cell_angle_beta   90.07503553
_cell_angle_gamma   89.70277549
_symmetry_Int_Tables_number   1
_chemical_formula_structural   Nd20Ir5Os2Au5
_chemical_formula_sum   'Nd20 Ir5 Os2 Au5'
_cell_volume   874.47791427
_cell_formula_units_Z   1
loop_
 _symmetry_equiv_pos_site_id
 _symmetry_equiv_pos_as_xyz
  1  'x, y, z'
loop_
 _atom_site_type_symbol
 _atom_site_label
 _atom_site_symmetry_multiplicity
 _atom_site_fract_x
 _atom_site_fract_y
 _atom_site_fract_z
 _atom_site_occupancy
  Nd  Nd0  1  0.086775  0.297565  0.137492  1
  Nd  Nd1  1  0.799567  0.409309  0.135088  1
  Nd  Nd2  1  0.201791  0.577434  0.136562  1
  Nd  Nd3  1  0.903811  0.695552  0.134187  1
  Nd  Nd4  1  0.422566  0.798209  0.363438  1
  Nd  Nd5  1  0.590691  0.200433  0.364912  1
  Nd  Nd6  1  0.304448  0.096189  0.365813  1
  Nd  Nd7  1  0.702435  0.913225  0.362508  1
  Nd  Nd8  1  0.413529  0.208824  0.882480  1
  Nd  Nd9  1  0.703660  0.087368  0.877958  1
  Nd  Nd10  1  0.301367  0.918342  0.865851  1
  Nd  Nd11  1  0.589253  0.793103  0.881106  1
  Nd  Nd12  1  0.081658  0.698633  0.634149  1
  Nd  Nd13  1  0.912632  0.296340  0.622042  1
  Nd  Nd14  1  0.206897  0.410747  0.618894  1
  Nd  Nd15  1  0.791176  0.586471  0.617520  1
  Nd  Nd16  1  0.993567  0.005175  0.002405  1
  Nd  Nd17  1  0.500339  0.500588  0.003666  1
  Nd  Nd18  1  0.499412  0.499661  0.496334  1
  Nd  Nd19  1  0.994825  0.006433  0.497595  1
  Ir  Ir20  1  0.350498  0.351081  0.250035  1
  Ir  Ir21  1  0.648919  0.649502  0.249965  1
  Ir  Ir22  1  0.848591  0.151409  0.250000  1
  Ir  Ir23  1  0.500880  0.000080  0.619412  1
  Ir  Ir24  1  0.999920  0.499120  0.880588  1
  Os  Os25  1  0.999623  0.500881  0.387310  1
  Os  Os26  1  0.499119  0.000377  0.112690  1
  Au  Au27  1  0.153648  0.846352  0.250000  1
  Au  Au28  1  0.342885  0.657115  0.750000  1
  Au  Au29  1  0.155748  0.156137  0.750300  1
  Au  Au30  1  0.843863  0.844252  0.749700  1
  Au  Au31  1  0.655906  0.344094  0.750000  1
