# generated using pymatgen
data_Sr7Nd(Tm3Sn4)4
_symmetry_space_group_name_H-M   'P 1'
_cell_length_a   8.24315884
_cell_length_b   8.40040431
_cell_length_c   15.84062900
_cell_angle_alpha   90.00706614
_cell_angle_beta   89.81312992
_cell_angle_gamma   90.22058691
_symmetry_Int_Tables_number   1
_chemical_formula_structural   Sr7Nd(Tm3Sn4)4
_chemical_formula_sum   'Sr7 Nd1 Tm12 Sn16'
_cell_volume   1096.88411980
_cell_formula_units_Z   1
loop_
 _symmetry_equiv_pos_site_id
 _symmetry_equiv_pos_as_xyz
  1  'x, y, z'
loop_
 _atom_site_type_symbol
 _atom_site_label
 _atom_site_symmetry_multiplicity
 _atom_site_fract_x
 _atom_site_fract_y
 _atom_site_fract_z
 _atom_site_occupancy
  Sr  Sr0  1  0.999495  0.173463  0.596744  1
  Sr  Sr1  1  0.502211  0.674306  0.407249  1
  Sr  Sr2  1  0.002996  0.824687  0.091440  1
  Sr  Sr3  1  0.504816  0.673333  0.090935  1
  Sr  Sr4  1  0.001655  0.825437  0.407512  1
  Sr  Sr5  1  0.499079  0.326942  0.595112  1
  Sr  Sr6  1  0.999557  0.173326  0.905142  1
  Nd  Nd7  1  0.492555  0.320659  0.901532  1
  Tm  Tm8  1  0.324907  0.839971  0.872886  1
  Tm  Tm9  1  0.825312  0.661300  0.628013  1
  Tm  Tm10  1  0.672311  0.161621  0.375303  1
  Tm  Tm11  1  0.174821  0.338579  0.124381  1
  Tm  Tm12  1  0.671929  0.163282  0.124017  1
  Tm  Tm13  1  0.172659  0.337410  0.375243  1
  Tm  Tm14  1  0.325494  0.840680  0.628795  1
  Tm  Tm15  1  0.824512  0.660054  0.873730  1
  Tm  Tm16  1  0.160024  0.499368  0.750093  1
  Tm  Tm17  1  0.663593  0.002469  0.750425  1
  Tm  Tm18  1  0.838615  0.502051  0.249981  1
  Tm  Tm19  1  0.337548  0.997052  0.250056  1
  Sn  Sn20  1  0.340101  0.048031  0.039853  1
  Sn  Sn21  1  0.839400  0.456867  0.457622  1
  Sn  Sn22  1  0.660360  0.957768  0.544561  1
  Sn  Sn23  1  0.167984  0.537935  0.954514  1
  Sn  Sn24  1  0.660106  0.964432  0.954341  1
  Sn  Sn25  1  0.160752  0.541674  0.544672  1
  Sn  Sn26  1  0.338681  0.041976  0.457731  1
  Sn  Sn27  1  0.836657  0.455121  0.041036  1
  Sn  Sn28  1  0.521196  0.627991  0.752436  1
  Sn  Sn29  1  0.021042  0.866644  0.751619  1
  Sn  Sn30  1  0.475661  0.368392  0.250124  1
  Sn  Sn31  1  0.974512  0.130544  0.249151  1
  Sn  Sn32  1  0.307378  0.144531  0.752128  1
  Sn  Sn33  1  0.795457  0.359907  0.753482  1
  Sn  Sn34  1  0.703679  0.865439  0.249183  1
  Sn  Sn35  1  0.202948  0.636759  0.248963  1
