# generated using pymatgen
data_Dy2Er5Sn23Ir6
_symmetry_space_group_name_H-M   'P 1'
_cell_length_a   9.84251605
_cell_length_b   9.84259062
_cell_length_c   10.10409700
_cell_angle_alpha   89.99950102
_cell_angle_beta   90.00068368
_cell_angle_gamma   119.98870646
_symmetry_Int_Tables_number   1
_chemical_formula_structural   Dy2Er5Sn23Ir6
_chemical_formula_sum   'Dy2 Er5 Sn23 Ir6'
_cell_volume   847.79939790
_cell_formula_units_Z   1
loop_
 _symmetry_equiv_pos_site_id
 _symmetry_equiv_pos_as_xyz
  1  'x, y, z'
loop_
 _atom_site_type_symbol
 _atom_site_label
 _atom_site_symmetry_multiplicity
 _atom_site_fract_x
 _atom_site_fract_y
 _atom_site_fract_z
 _atom_site_occupancy
  Dy  Dy0  1  0.480588  0.519409  0.306937  1
  Dy  Dy1  1  0.000020  0.999979  0.999984  1
  Er  Er2  1  0.518934  0.481062  0.693417  1
  Er  Er3  1  0.481081  0.962126  0.306721  1
  Er  Er4  1  0.518944  0.037855  0.693303  1
  Er  Er5  1  0.037872  0.518918  0.306719  1
  Er  Er6  1  0.962146  0.481056  0.693304  1
  Sn  Sn7  1  0.119649  0.880352  0.284260  1
  Sn  Sn8  1  0.880376  0.119624  0.715737  1
  Sn  Sn9  1  0.119372  0.239015  0.284227  1
  Sn  Sn10  1  0.880424  0.760768  0.715737  1
  Sn  Sn11  1  0.760986  0.880629  0.284227  1
  Sn  Sn12  1  0.239230  0.119577  0.715735  1
  Sn  Sn13  1  0.777132  0.222869  0.456923  1
  Sn  Sn14  1  0.222900  0.777101  0.543105  1
  Sn  Sn15  1  0.777421  0.554254  0.457034  1
  Sn  Sn16  1  0.222719  0.445744  0.543286  1
  Sn  Sn17  1  0.445745  0.222578  0.457035  1
  Sn  Sn18  1  0.554257  0.777282  0.543286  1
  Sn  Sn19  1  0.352542  0.999913  0.999953  1
  Sn  Sn20  1  0.647460  0.000017  0.999973  1
  Sn  Sn21  1  0.999983  0.352539  0.999972  1
  Sn  Sn22  1  0.000087  0.647459  0.999953  1
  Sn  Sn23  1  0.647537  0.647483  0.999945  1
  Sn  Sn24  1  0.352518  0.352464  0.999946  1
  Sn  Sn25  1  0.333049  0.666955  0.124747  1
  Sn  Sn26  1  0.666686  0.333312  0.874903  1
  Sn  Sn27  1  0.333334  0.666668  0.826734  1
  Sn  Sn28  1  0.666706  0.333293  0.173220  1
  Sn  Sn29  1  0.000019  0.999987  0.500010  1
  Ir  Ir30  1  0.830911  0.169090  0.198730  1
  Ir  Ir31  1  0.169067  0.830930  0.801203  1
  Ir  Ir32  1  0.831395  0.662036  0.198618  1
  Ir  Ir33  1  0.169085  0.338138  0.801245  1
  Ir  Ir34  1  0.337963  0.168604  0.198619  1
  Ir  Ir35  1  0.661862  0.830915  0.801249  1
