# generated using pymatgen
data_K3ErIr2O9
_symmetry_space_group_name_H-M   'P 1'
_cell_length_a   5.95804200
_cell_length_b   5.95804273
_cell_length_c   14.44678800
_cell_angle_alpha   90.00000000
_cell_angle_beta   90.00000000
_cell_angle_gamma   120.00000702
_symmetry_Int_Tables_number   1
_chemical_formula_structural   K3ErIr2O9
_chemical_formula_sum   'K6 Er2 Ir4 O18'
_cell_volume   444.12894177
_cell_formula_units_Z   2
loop_
 _symmetry_equiv_pos_site_id
 _symmetry_equiv_pos_as_xyz
  1  'x, y, z'
loop_
 _atom_site_type_symbol
 _atom_site_label
 _atom_site_symmetry_multiplicity
 _atom_site_fract_x
 _atom_site_fract_y
 _atom_site_fract_z
 _atom_site_occupancy
  K  K0  1  0.000000  0.000000  0.250000  1
  K  K1  1  0.000000  0.000000  0.750000  1
  K  K2  1  0.333333  0.666667  0.598499  1
  K  K3  1  0.666667  0.333333  0.401501  1
  K  K4  1  0.666667  0.333333  0.098499  1
  K  K5  1  0.333333  0.666667  0.901501  1
  Er  Er6  1  0.000000  0.000000  0.500000  1
  Er  Er7  1  0.000000  0.000000  0.000000  1
  Ir  Ir8  1  0.333333  0.666667  0.343341  1
  Ir  Ir9  1  0.666667  0.333333  0.656659  1
  Ir  Ir10  1  0.666667  0.333333  0.843341  1
  Ir  Ir11  1  0.333333  0.666667  0.156659  1
  O  O12  1  0.477056  0.522944  0.250000  1
  O  O13  1  0.477056  0.954113  0.250000  1
  O  O14  1  0.045887  0.522944  0.250000  1
  O  O15  1  0.522944  0.477056  0.750000  1
  O  O16  1  0.522944  0.045887  0.750000  1
  O  O17  1  0.954113  0.477056  0.750000  1
  O  O18  1  0.178310  0.821690  0.084908  1
  O  O19  1  0.178310  0.356620  0.084908  1
  O  O20  1  0.643380  0.821690  0.084908  1
  O  O21  1  0.821690  0.178310  0.915092  1
  O  O22  1  0.821690  0.643380  0.915092  1
  O  O23  1  0.356620  0.178310  0.915092  1
  O  O24  1  0.821690  0.178310  0.584908  1
  O  O25  1  0.821690  0.643380  0.584908  1
  O  O26  1  0.356620  0.178310  0.584908  1
  O  O27  1  0.178310  0.821690  0.415092  1
  O  O28  1  0.178310  0.356620  0.415092  1
  O  O29  1  0.643380  0.821690  0.415092  1
