# generated using pymatgen
data_LiNd6Zn3Pd2Pt11
_symmetry_space_group_name_H-M   'P 1'
_cell_length_a   8.38809618
_cell_length_b   8.38809533
_cell_length_c   8.38093208
_cell_angle_alpha   109.40421297
_cell_angle_beta   109.40420154
_cell_angle_gamma   109.58816395
_symmetry_Int_Tables_number   1
_chemical_formula_structural   LiNd6Zn3Pd2Pt11
_chemical_formula_sum   'Li1 Nd6 Zn3 Pd2 Pt11'
_cell_volume   454.03318805
_cell_formula_units_Z   1
loop_
 _symmetry_equiv_pos_site_id
 _symmetry_equiv_pos_as_xyz
  1  'x, y, z'
loop_
 _atom_site_type_symbol
 _atom_site_label
 _atom_site_symmetry_multiplicity
 _atom_site_fract_x
 _atom_site_fract_y
 _atom_site_fract_z
 _atom_site_occupancy
  Li  Li0  1  0.000094  0.000094  0.500053  1
  Nd  Nd1  1  0.697796  0.697796  0.001944  1
  Nd  Nd2  1  0.301366  0.999548  0.301068  1
  Nd  Nd3  1  0.999548  0.301366  0.301068  1
  Nd  Nd4  1  0.302390  0.302390  0.000275  1
  Nd  Nd5  1  0.698863  0.000542  0.697974  1
  Nd  Nd6  1  0.000542  0.698863  0.697974  1
  Zn  Zn7  1  0.999394  0.499491  0.999383  1
  Zn  Zn8  1  0.499491  0.999394  0.999383  1
  Zn  Zn9  1  0.499612  0.499612  0.500146  1
  Pd  Pd10  1  0.668654  0.337519  0.668461  1
  Pd  Pd11  1  0.337519  0.668654  0.668461  1
  Pt  Pt12  1  0.330044  0.330044  0.661689  1
  Pt  Pt13  1  0.670767  0.001272  0.333606  1
  Pt  Pt14  1  0.001272  0.670767  0.333606  1
  Pt  Pt15  1  0.670929  0.329753  0.000139  1
  Pt  Pt16  1  0.330460  0.660015  0.330671  1
  Pt  Pt17  1  0.000816  0.330811  0.667561  1
  Pt  Pt18  1  0.329753  0.670929  0.000139  1
  Pt  Pt19  1  0.330811  0.000816  0.667561  1
  Pt  Pt20  1  0.660015  0.330460  0.330671  1
  Pt  Pt21  1  0.670844  0.670844  0.338825  1
  Pt  Pt22  1  0.999021  0.999021  0.999343  1
