# generated using pymatgen
data_U4Al6ReSi6
_symmetry_space_group_name_H-M   'P 1'
_cell_length_a   7.21583982
_cell_length_b   7.21584044
_cell_length_c   7.21584100
_cell_angle_alpha   109.47121939
_cell_angle_beta   109.47122115
_cell_angle_gamma   109.47122233
_symmetry_Int_Tables_number   1
_chemical_formula_structural   U4Al6ReSi6
_chemical_formula_sum   'U4 Al6 Re1 Si6'
_cell_volume   289.22702104
_cell_formula_units_Z   1
loop_
 _symmetry_equiv_pos_site_id
 _symmetry_equiv_pos_as_xyz
  1  'x, y, z'
loop_
 _atom_site_type_symbol
 _atom_site_label
 _atom_site_symmetry_multiplicity
 _atom_site_fract_x
 _atom_site_fract_y
 _atom_site_fract_z
 _atom_site_occupancy
  U  U0  1  0.500001  0.000000  0.000000  1
  U  U1  1  0.000000  0.500001  0.000000  1
  U  U2  1  0.000000  0.000000  0.500001  1
  U  U3  1  0.500001  0.500001  0.500001  1
  Al  Al4  1  0.750000  0.499999  0.250000  1
  Al  Al5  1  0.499999  0.750000  0.250000  1
  Al  Al6  1  0.750000  0.250000  0.499999  1
  Al  Al7  1  0.250000  0.750000  0.499999  1
  Al  Al8  1  0.499999  0.250000  0.750000  1
  Al  Al9  1  0.250000  0.499999  0.750000  1
  Re  Re10  1  0.000000  0.000000  0.000000  1
  Si  Si11  1  0.295361  0.295361  0.000000  1
  Si  Si12  1  0.704639  0.704639  0.000000  1
  Si  Si13  1  0.295361  0.000000  0.295361  1
  Si  Si14  1  0.000000  0.295361  0.295361  1
  Si  Si15  1  0.704639  0.000000  0.704639  1
  Si  Si16  1  0.000000  0.704639  0.704639  1
