# generated using pymatgen
data_YLu7Re2(B12Ru)2
_symmetry_space_group_name_H-M   'P 1'
_cell_length_a   3.61356700
_cell_length_b   9.05510512
_cell_length_c   11.42747602
_cell_angle_alpha   90.19265281
_cell_angle_beta   90.00000000
_cell_angle_gamma   90.00000000
_symmetry_Int_Tables_number   1
_chemical_formula_structural   YLu7Re2(B12Ru)2
_chemical_formula_sum   'Y1 Lu7 Re2 B24 Ru2'
_cell_volume   373.91894652
_cell_formula_units_Z   1
loop_
 _symmetry_equiv_pos_site_id
 _symmetry_equiv_pos_as_xyz
  1  'x, y, z'
loop_
 _atom_site_type_symbol
 _atom_site_label
 _atom_site_symmetry_multiplicity
 _atom_site_fract_x
 _atom_site_fract_y
 _atom_site_fract_z
 _atom_site_occupancy
  Y  Y0  1  0.000000  0.320513  0.412591  1
  Lu  Lu1  1  0.000000  0.679923  0.587779  1
  Lu  Lu2  1  0.000000  0.824276  0.084213  1
  Lu  Lu3  1  0.000000  0.175645  0.915657  1
  Lu  Lu4  1  0.000000  0.942924  0.370709  1
  Lu  Lu5  1  0.000000  0.056465  0.629493  1
  Lu  Lu6  1  0.000000  0.443263  0.128532  1
  Lu  Lu7  1  0.000000  0.556904  0.871317  1
  Re  Re8  1  0.000000  0.138501  0.179283  1
  Re  Re9  1  0.000000  0.860968  0.820057  1
  B  B10  1  0.500000  0.554895  0.433721  1
  B  B11  1  0.500000  0.446625  0.567159  1
  B  B12  1  0.500000  0.052766  0.065944  1
  B  B13  1  0.500000  0.947006  0.933817  1
  B  B14  1  0.500000  0.750162  0.419718  1
  B  B15  1  0.500000  0.249828  0.581586  1
  B  B16  1  0.500000  0.250329  0.079856  1
  B  B17  1  0.500000  0.749668  0.919814  1
  B  B18  1  0.500000  0.792118  0.265186  1
  B  B19  1  0.500000  0.207948  0.735048  1
  B  B20  1  0.500000  0.292875  0.234334  1
  B  B21  1  0.500000  0.706710  0.764689  1
  B  B22  1  0.500000  0.631175  0.184706  1
  B  B23  1  0.500000  0.369182  0.815260  1
  B  B24  1  0.500000  0.130259  0.315237  1
  B  B25  1  0.500000  0.868737  0.684070  1
  B  B26  1  0.500000  0.980862  0.212395  1
  B  B27  1  0.500000  0.018734  0.787493  1
  B  B28  1  0.500000  0.483430  0.287316  1
  B  B29  1  0.500000  0.517867  0.712302  1
  B  B30  1  0.500000  0.602418  0.028382  1
  B  B31  1  0.500000  0.397702  0.971502  1
  B  B32  1  0.500000  0.100961  0.472312  1
  B  B33  1  0.500000  0.897566  0.528126  1
  Ru  Ru34  1  0.000000  0.639114  0.320827  1
  Ru  Ru35  1  0.000000  0.361683  0.679569  1
