# generated using pymatgen
data_Y3Cd3Ag2Ir
_symmetry_space_group_name_H-M   'P 1'
_cell_length_a   7.95501500
_cell_length_b   7.95501518
_cell_length_c   3.79142300
_cell_angle_alpha   90.00000000
_cell_angle_beta   90.00000000
_cell_angle_gamma   120.00000340
_symmetry_Int_Tables_number   1
_chemical_formula_structural   Y3Cd3Ag2Ir
_chemical_formula_sum   'Y3 Cd3 Ag2 Ir1'
_cell_volume   207.78532548
_cell_formula_units_Z   1
loop_
 _symmetry_equiv_pos_site_id
 _symmetry_equiv_pos_as_xyz
  1  'x, y, z'
loop_
 _atom_site_type_symbol
 _atom_site_label
 _atom_site_symmetry_multiplicity
 _atom_site_fract_x
 _atom_site_fract_y
 _atom_site_fract_z
 _atom_site_occupancy
  Y  Y0  1  0.575823  0.965083  0.000000  1
  Y  Y1  1  0.034917  0.610741  0.000000  1
  Y  Y2  1  0.389259  0.424177  0.000000  1
  Cd  Cd3  1  0.269485  0.004901  0.500000  1
  Cd  Cd4  1  0.995099  0.264585  0.500000  1
  Cd  Cd5  1  0.735415  0.730515  0.500000  1
  Ag  Ag6  1  0.666667  0.333333  0.500000  1
  Ag  Ag7  1  0.000000  0.000000  0.000000  1
  Ir  Ir8  1  0.333333  0.666667  0.500000  1
