# generated using pymatgen
data_Er20Cd5InPd2
_symmetry_space_group_name_H-M   'P 1'
_cell_length_a   9.63740010
_cell_length_b   9.63739935
_cell_length_c   9.68695900
_cell_angle_alpha   90.00000000
_cell_angle_beta   90.00000000
_cell_angle_gamma   120.12806353
_symmetry_Int_Tables_number   1
_chemical_formula_structural   Er20Cd5InPd2
_chemical_formula_sum   'Er20 Cd5 In1 Pd2'
_cell_volume   778.17263342
_cell_formula_units_Z   1
loop_
 _symmetry_equiv_pos_site_id
 _symmetry_equiv_pos_as_xyz
  1  'x, y, z'
loop_
 _atom_site_type_symbol
 _atom_site_label
 _atom_site_symmetry_multiplicity
 _atom_site_fract_x
 _atom_site_fract_y
 _atom_site_fract_z
 _atom_site_occupancy
  Er  Er0  1  0.207733  0.792267  0.942207  1
  Er  Er1  1  0.207410  0.414546  0.941605  1
  Er  Er2  1  0.585454  0.792590  0.941605  1
  Er  Er3  1  0.792487  0.207513  0.057569  1
  Er  Er4  1  0.792160  0.584944  0.058781  1
  Er  Er5  1  0.415056  0.207840  0.058781  1
  Er  Er6  1  0.792487  0.207513  0.442431  1
  Er  Er7  1  0.792160  0.584944  0.441219  1
  Er  Er8  1  0.415056  0.207840  0.441219  1
  Er  Er9  1  0.207733  0.792267  0.557793  1
  Er  Er10  1  0.207410  0.414546  0.558395  1
  Er  Er11  1  0.585454  0.792590  0.558395  1
  Er  Er12  1  0.542225  0.457775  0.750000  1
  Er  Er13  1  0.539706  0.085771  0.750000  1
  Er  Er14  1  0.914229  0.460294  0.750000  1
  Er  Er15  1  0.456937  0.543063  0.250000  1
  Er  Er16  1  0.457300  0.914018  0.250000  1
  Er  Er17  1  0.085982  0.542700  0.250000  1
  Er  Er18  1  0.001250  0.998750  0.001753  1
  Er  Er19  1  0.001250  0.998750  0.498247  1
  Cd  Cd20  1  0.884838  0.768954  0.750000  1
  Cd  Cd21  1  0.231046  0.115162  0.750000  1
  Cd  Cd22  1  0.115922  0.884078  0.250000  1
  Cd  Cd23  1  0.115262  0.231209  0.250000  1
  Cd  Cd24  1  0.768791  0.884738  0.250000  1
  In  In25  1  0.884690  0.115310  0.750000  1
  Pd  Pd26  1  0.333108  0.666892  0.750000  1
  Pd  Pd27  1  0.666860  0.333140  0.250000  1
