# generated using pymatgen
data_YLuMn12P7
_symmetry_space_group_name_H-M   'P 1'
_cell_length_a   9.28009400
_cell_length_b   9.28009523
_cell_length_c   3.58897000
_cell_angle_alpha   90.00000000
_cell_angle_beta   90.00000000
_cell_angle_gamma   120.00000273
_symmetry_Int_Tables_number   1
_chemical_formula_structural   YLuMn12P7
_chemical_formula_sum   'Y1 Lu1 Mn12 P7'
_cell_volume   267.67342512
_cell_formula_units_Z   1
loop_
 _symmetry_equiv_pos_site_id
 _symmetry_equiv_pos_as_xyz
  1  'x, y, z'
loop_
 _atom_site_type_symbol
 _atom_site_label
 _atom_site_symmetry_multiplicity
 _atom_site_fract_x
 _atom_site_fract_y
 _atom_site_fract_z
 _atom_site_occupancy
  Y  Y0  1  0.000000  0.000000  0.500000  1
  Lu  Lu1  1  0.666667  0.333333  0.000000  1
  Mn  Mn2  1  0.757175  0.714335  0.000000  1
  Mn  Mn3  1  0.285665  0.042841  0.000000  1
  Mn  Mn4  1  0.957159  0.242825  0.000000  1
  Mn  Mn5  1  0.489790  0.943682  0.000000  1
  Mn  Mn6  1  0.056318  0.546108  0.000000  1
  Mn  Mn7  1  0.453892  0.510210  0.000000  1
  Mn  Mn8  1  0.726346  0.105541  0.500000  1
  Mn  Mn9  1  0.894459  0.620806  0.500000  1
  Mn  Mn10  1  0.379194  0.273654  0.500000  1
  Mn  Mn11  1  0.560764  0.769402  0.500000  1
  Mn  Mn12  1  0.230598  0.791362  0.500000  1
  Mn  Mn13  1  0.208638  0.439236  0.500000  1
  P  P14  1  0.463890  0.077767  0.500000  1
  P  P15  1  0.922233  0.386123  0.500000  1
  P  P16  1  0.613877  0.536110  0.500000  1
  P  P17  1  0.743485  0.957839  0.000000  1
  P  P18  1  0.042161  0.785646  0.000000  1
  P  P19  1  0.214354  0.256515  0.000000  1
  P  P20  1  0.333333  0.666667  0.000000  1
