# generated using pymatgen
data_YbY3TcRu7
_symmetry_space_group_name_H-M   'P 1'
_cell_length_a   5.27393638
_cell_length_b   5.44950551
_cell_length_c   8.80408804
_cell_angle_alpha   89.99999758
_cell_angle_beta   89.92117236
_cell_angle_gamma   121.10748303
_symmetry_Int_Tables_number   1
_chemical_formula_structural   YbY3TcRu7
_chemical_formula_sum   'Yb1 Y3 Tc1 Ru7'
_cell_volume   216.64607618
_cell_formula_units_Z   1
loop_
 _symmetry_equiv_pos_site_id
 _symmetry_equiv_pos_as_xyz
  1  'x, y, z'
loop_
 _atom_site_type_symbol
 _atom_site_label
 _atom_site_symmetry_multiplicity
 _atom_site_fract_x
 _atom_site_fract_y
 _atom_site_fract_z
 _atom_site_occupancy
  Yb  Yb0  1  0.325148  0.662575  0.433967  1
  Y  Y1  1  0.653367  0.326683  0.560679  1
  Y  Y2  1  0.654908  0.327454  0.933884  1
  Y  Y3  1  0.327049  0.663525  0.074047  1
  Tc  Tc4  1  0.684246  0.842123  0.748234  1
  Ru  Ru5  1  0.972373  0.986186  0.500001  1
  Ru  Ru6  1  0.973956  0.986978  0.998433  1
  Ru  Ru7  1  0.837710  0.164791  0.250183  1
  Ru  Ru8  1  0.837710  0.672919  0.250183  1
  Ru  Ru9  1  0.368751  0.184375  0.249103  1
  Ru  Ru10  1  0.182392  0.823053  0.750643  1
  Ru  Ru11  1  0.182392  0.359339  0.750643  1
