# generated using pymatgen
data_Li8Pr7DyBi8
_symmetry_space_group_name_H-M   'P 1'
_cell_length_a   9.84952000
_cell_length_b   9.84951904
_cell_length_c   7.50010500
_cell_angle_alpha   90.00000000
_cell_angle_beta   90.00000000
_cell_angle_gamma   119.99999652
_symmetry_Int_Tables_number   1
_chemical_formula_structural   Li8Pr7DyBi8
_chemical_formula_sum   'Li8 Pr7 Dy1 Bi8'
_cell_volume   630.12698814
_cell_formula_units_Z   1
loop_
 _symmetry_equiv_pos_site_id
 _symmetry_equiv_pos_as_xyz
  1  'x, y, z'
loop_
 _atom_site_type_symbol
 _atom_site_label
 _atom_site_symmetry_multiplicity
 _atom_site_fract_x
 _atom_site_fract_y
 _atom_site_fract_z
 _atom_site_occupancy
  Li  Li0  1  0.166836  0.833164  0.290531  1
  Li  Li1  1  0.666328  0.833164  0.290531  1
  Li  Li2  1  0.166836  0.333672  0.290531  1
  Li  Li3  1  0.834497  0.165503  0.801059  1
  Li  Li4  1  0.331007  0.165503  0.801059  1
  Li  Li5  1  0.834497  0.668993  0.801059  1
  Li  Li6  1  0.333333  0.666667  0.691246  1
  Li  Li7  1  0.666667  0.333333  0.199748  1
  Pr  Pr8  1  0.512886  0.487114  0.508890  1
  Pr  Pr9  1  0.974229  0.487114  0.508890  1
  Pr  Pr10  1  0.512886  0.025771  0.508890  1
  Pr  Pr11  1  0.488833  0.511167  0.008173  1
  Pr  Pr12  1  0.022334  0.511167  0.008173  1
  Pr  Pr13  1  0.488833  0.977666  0.008173  1
  Pr  Pr14  1  0.000000  0.000000  0.516958  1
  Dy  Dy15  1  0.000000  0.000000  0.018102  1
  Bi  Bi16  1  0.165851  0.834149  0.752859  1
  Bi  Bi17  1  0.668298  0.834149  0.752859  1
  Bi  Bi18  1  0.165851  0.331702  0.752859  1
  Bi  Bi19  1  0.835191  0.164809  0.244853  1
  Bi  Bi20  1  0.329617  0.164809  0.244853  1
  Bi  Bi21  1  0.835191  0.670383  0.244853  1
  Bi  Bi22  1  0.333333  0.666667  0.281742  1
  Bi  Bi23  1  0.666667  0.333333  0.783092  1
