# generated using pymatgen
data_Y4Er4Tc(B8Ru)3
_symmetry_space_group_name_H-M   'P 1'
_cell_length_a   3.65764400
_cell_length_b   9.12342459
_cell_length_c   11.51747100
_cell_angle_alpha   89.91287111
_cell_angle_beta   90.00000000
_cell_angle_gamma   90.00000000
_symmetry_Int_Tables_number   1
_chemical_formula_structural   Y4Er4Tc(B8Ru)3
_chemical_formula_sum   'Y4 Er4 Tc1 B24 Ru3'
_cell_volume   384.34031793
_cell_formula_units_Z   1
loop_
 _symmetry_equiv_pos_site_id
 _symmetry_equiv_pos_as_xyz
  1  'x, y, z'
loop_
 _atom_site_type_symbol
 _atom_site_label
 _atom_site_symmetry_multiplicity
 _atom_site_fract_x
 _atom_site_fract_y
 _atom_site_fract_z
 _atom_site_occupancy
  Y  Y0  1  0.000000  0.323722  0.413290  1
  Y  Y1  1  0.000000  0.677599  0.583469  1
  Y  Y2  1  0.000000  0.819798  0.087984  1
  Y  Y3  1  0.000000  0.177534  0.915037  1
  Er  Er4  1  0.000000  0.943131  0.372235  1
  Er  Er5  1  0.000000  0.057576  0.628382  1
  Er  Er6  1  0.000000  0.443691  0.128223  1
  Er  Er7  1  0.000000  0.557042  0.871241  1
  Tc  Tc8  1  0.000000  0.637702  0.320739  1
  B  B9  1  0.500000  0.553098  0.432899  1
  B  B10  1  0.500000  0.446322  0.567603  1
  B  B11  1  0.500000  0.053670  0.067357  1
  B  B12  1  0.500000  0.945907  0.933035  1
  B  B13  1  0.500000  0.748635  0.419068  1
  B  B14  1  0.500000  0.251834  0.580906  1
  B  B15  1  0.500000  0.248268  0.080609  1
  B  B16  1  0.500000  0.751379  0.919244  1
  B  B17  1  0.500000  0.791177  0.266092  1
  B  B18  1  0.500000  0.209446  0.733987  1
  B  B19  1  0.500000  0.290546  0.233133  1
  B  B20  1  0.500000  0.709823  0.766039  1
  B  B21  1  0.500000  0.630631  0.185543  1
  B  B22  1  0.500000  0.369015  0.814842  1
  B  B23  1  0.500000  0.130865  0.314318  1
  B  B24  1  0.500000  0.869686  0.685293  1
  B  B25  1  0.500000  0.982845  0.212885  1
  B  B26  1  0.500000  0.017102  0.787665  1
  B  B27  1  0.500000  0.482047  0.287079  1
  B  B28  1  0.500000  0.516950  0.712801  1
  B  B29  1  0.500000  0.605700  0.028666  1
  B  B30  1  0.500000  0.393615  0.970247  1
  B  B31  1  0.500000  0.106700  0.470889  1
  B  B32  1  0.500000  0.895050  0.529764  1
  Ru  Ru33  1  0.000000  0.361948  0.679845  1
  Ru  Ru34  1  0.000000  0.137578  0.178764  1
  Ru  Ru35  1  0.000000  0.862370  0.820827  1
