# generated using pymatgen
data_Ho20Ir11Os
_symmetry_space_group_name_H-M   'P 1'
_cell_length_a   10.82860500
_cell_length_b   10.82860500
_cell_length_c   6.37517200
_cell_angle_alpha   90.00000000
_cell_angle_beta   90.00000000
_cell_angle_gamma   90.00000000
_symmetry_Int_Tables_number   1
_chemical_formula_structural   Ho20Ir11Os
_chemical_formula_sum   'Ho20 Ir11 Os1'
_cell_volume   747.54429331
_cell_formula_units_Z   1
loop_
 _symmetry_equiv_pos_site_id
 _symmetry_equiv_pos_as_xyz
  1  'x, y, z'
loop_
 _atom_site_type_symbol
 _atom_site_label
 _atom_site_symmetry_multiplicity
 _atom_site_fract_x
 _atom_site_fract_y
 _atom_site_fract_z
 _atom_site_occupancy
  Ho  Ho0  1  0.292404  0.087208  0.376290  1
  Ho  Ho1  1  0.292647  0.912864  0.878951  1
  Ho  Ho2  1  0.707353  0.087136  0.878951  1
  Ho  Ho3  1  0.707596  0.912792  0.376290  1
  Ho  Ho4  1  0.587136  0.792647  0.878951  1
  Ho  Ho5  1  0.587208  0.207596  0.376290  1
  Ho  Ho6  1  0.412792  0.792404  0.376290  1
  Ho  Ho7  1  0.412864  0.207353  0.878951  1
  Ho  Ho8  1  0.208946  0.412109  0.621968  1
  Ho  Ho9  1  0.208928  0.587829  0.121925  1
  Ho  Ho10  1  0.791072  0.412171  0.121925  1
  Ho  Ho11  1  0.791054  0.587891  0.621968  1
  Ho  Ho12  1  0.912171  0.708928  0.121925  1
  Ho  Ho13  1  0.912109  0.291054  0.621968  1
  Ho  Ho14  1  0.087891  0.708946  0.621968  1
  Ho  Ho15  1  0.087829  0.291072  0.121925  1
  Ho  Ho16  1  0.000000  0.000000  0.499793  1
  Ho  Ho17  1  0.000000  0.000000  0.999811  1
  Ho  Ho18  1  0.500000  0.500000  0.999811  1
  Ho  Ho19  1  0.500000  0.500000  0.499793  1
  Ir  Ir20  1  0.847095  0.153832  0.250396  1
  Ir  Ir21  1  0.847209  0.846312  0.750074  1
  Ir  Ir22  1  0.152791  0.153688  0.750074  1
  Ir  Ir23  1  0.152905  0.846168  0.250396  1
  Ir  Ir24  1  0.653688  0.347209  0.750074  1
  Ir  Ir25  1  0.653832  0.652905  0.250396  1
  Ir  Ir26  1  0.346168  0.347095  0.250396  1
  Ir  Ir27  1  0.346312  0.652791  0.750074  1
  Ir  Ir28  1  0.500000  0.000000  0.621185  1
  Ir  Ir29  1  0.000000  0.500000  0.879447  1
  Ir  Ir30  1  0.000000  0.500000  0.379609  1
  Os  Os31  1  0.500000  0.000000  0.122131  1
