# generated using pymatgen
data_TbTm2Ga5Co
_symmetry_space_group_name_H-M   'P 1'
_cell_length_a   6.84584400
_cell_length_b   6.88019031
_cell_length_c   4.20032100
_cell_angle_alpha   90.00000000
_cell_angle_beta   90.00000000
_cell_angle_gamma   119.83501059
_symmetry_Int_Tables_number   1
_chemical_formula_structural   TbTm2Ga5Co
_chemical_formula_sum   'Tb1 Tm2 Ga5 Co1'
_cell_volume   171.61695732
_cell_formula_units_Z   1
loop_
 _symmetry_equiv_pos_site_id
 _symmetry_equiv_pos_as_xyz
  1  'x, y, z'
loop_
 _atom_site_type_symbol
 _atom_site_label
 _atom_site_symmetry_multiplicity
 _atom_site_fract_x
 _atom_site_fract_y
 _atom_site_fract_z
 _atom_site_occupancy
  Tb  Tb0  1  0.596510  0.000000  0.000000  1
  Tm  Tm1  1  0.999239  0.599578  0.000000  1
  Tm  Tm2  1  0.399660  0.400422  0.000000  1
  Ga  Ga3  1  0.230644  0.000000  0.500000  1
  Ga  Ga4  1  0.000493  0.230805  0.500000  1
  Ga  Ga5  1  0.769688  0.769195  0.500000  1
  Ga  Ga6  1  0.331688  0.663693  0.500000  1
  Ga  Ga7  1  0.667997  0.336307  0.500000  1
  Co  Co8  1  0.004081  0.000000  0.000000  1
