# generated using pymatgen
data_CrFe4Ge(Mo3N)2
_symmetry_space_group_name_H-M   'P 1'
_cell_length_a   7.90187369
_cell_length_b   7.89977333
_cell_length_c   7.89977099
_cell_angle_alpha   59.88103315
_cell_angle_beta   59.99120700
_cell_angle_gamma   59.99121111
_symmetry_Int_Tables_number   1
_chemical_formula_structural   CrFe4Ge(Mo3N)2
_chemical_formula_sum   'Cr2 Fe8 Ge2 Mo12 N4'
_cell_volume   348.33299048
_cell_formula_units_Z   2
loop_
 _symmetry_equiv_pos_site_id
 _symmetry_equiv_pos_as_xyz
  1  'x, y, z'
loop_
 _atom_site_type_symbol
 _atom_site_label
 _atom_site_symmetry_multiplicity
 _atom_site_fract_x
 _atom_site_fract_y
 _atom_site_fract_z
 _atom_site_occupancy
  Cr  Cr0  1  0.125000  0.625000  0.625000  1
  Cr  Cr1  1  0.625000  0.625000  0.625000  1
  Fe  Fe2  1  0.743030  0.421818  0.421818  1
  Fe  Fe3  1  0.416240  0.744954  0.422566  1
  Fe  Fe4  1  0.416240  0.422566  0.744954  1
  Fe  Fe5  1  0.413333  0.421818  0.421818  1
  Fe  Fe6  1  0.506970  0.828182  0.828182  1
  Fe  Fe7  1  0.833760  0.505046  0.827434  1
  Fe  Fe8  1  0.833760  0.827434  0.505046  1
  Fe  Fe9  1  0.836667  0.828182  0.828182  1
  Ge  Ge10  1  0.625000  0.125000  0.625000  1
  Ge  Ge11  1  0.625000  0.625000  0.125000  1
  Mo  Mo12  1  0.806082  0.804371  0.196152  1
  Mo  Mo13  1  0.193395  0.196152  0.804371  1
  Mo  Mo14  1  0.806082  0.196152  0.804371  1
  Mo  Mo15  1  0.193395  0.804371  0.196152  1
  Mo  Mo16  1  0.198860  0.801140  0.801140  1
  Mo  Mo17  1  0.807855  0.192145  0.192145  1
  Mo  Mo18  1  0.443918  0.445629  0.053848  1
  Mo  Mo19  1  0.056605  0.053848  0.445629  1
  Mo  Mo20  1  0.443918  0.053848  0.445629  1
  Mo  Mo21  1  0.056605  0.445629  0.053848  1
  Mo  Mo22  1  0.051140  0.448860  0.448860  1
  Mo  Mo23  1  0.442145  0.057855  0.057855  1
  N  N24  1  0.625000  0.125000  0.125000  1
  N  N25  1  0.125000  0.625000  0.125000  1
  N  N26  1  0.125000  0.125000  0.625000  1
  N  N27  1  0.125000  0.125000  0.125000  1
