# generated using pymatgen
data_Nd4Ga3Ge
_symmetry_space_group_name_H-M   'P 1'
_cell_length_a   7.00058099
_cell_length_b   7.00058157
_cell_length_c   6.82125600
_cell_angle_alpha   89.72101618
_cell_angle_beta   90.27898384
_cell_angle_gamma   142.73983281
_symmetry_Int_Tables_number   1
_chemical_formula_structural   Nd4Ga3Ge
_chemical_formula_sum   'Nd4 Ga3 Ge1'
_cell_volume   202.39254353
_cell_formula_units_Z   1
loop_
 _symmetry_equiv_pos_site_id
 _symmetry_equiv_pos_as_xyz
  1  'x, y, z'
loop_
 _atom_site_type_symbol
 _atom_site_label
 _atom_site_symmetry_multiplicity
 _atom_site_fract_x
 _atom_site_fract_y
 _atom_site_fract_z
 _atom_site_occupancy
  Nd  Nd0  1  0.275279  0.724721  0.253258  1
  Nd  Nd1  1  0.724111  0.275889  0.746832  1
  Nd  Nd2  1  0.555570  0.444430  0.250218  1
  Nd  Nd3  1  0.445681  0.554319  0.751071  1
  Ga  Ga4  1  0.096479  0.903521  0.940344  1
  Ga  Ga5  1  0.903122  0.096878  0.059487  1
  Ga  Ga6  1  0.904052  0.095948  0.440710  1
  Ge  Ge7  1  0.095706  0.904294  0.558081  1
