# generated using pymatgen
data_Ho6Nb2Co16Si11P
_symmetry_space_group_name_H-M   'P 1'
_cell_length_a   3.75610200
_cell_length_b   10.84593297
_cell_length_c   12.44435520
_cell_angle_alpha   90.04945006
_cell_angle_beta   90.00000000
_cell_angle_gamma   90.00000000
_symmetry_Int_Tables_number   1
_chemical_formula_structural   Ho6Nb2Co16Si11P
_chemical_formula_sum   'Ho6 Nb2 Co16 Si11 P1'
_cell_volume   506.96331109
_cell_formula_units_Z   1
loop_
 _symmetry_equiv_pos_site_id
 _symmetry_equiv_pos_as_xyz
  1  'x, y, z'
loop_
 _atom_site_type_symbol
 _atom_site_label
 _atom_site_symmetry_multiplicity
 _atom_site_fract_x
 _atom_site_fract_y
 _atom_site_fract_z
 _atom_site_occupancy
  Ho  Ho0  1  0.000000  0.499134  0.531083  1
  Ho  Ho1  1  0.500000  0.000687  0.468197  1
  Ho  Ho2  1  0.500000  0.823669  0.205029  1
  Ho  Ho3  1  0.500000  0.180122  0.203191  1
  Ho  Ho4  1  0.000000  0.675911  0.795779  1
  Ho  Ho5  1  0.000000  0.322729  0.794033  1
  Nb  Nb6  1  0.500000  0.497635  0.151339  1
  Nb  Nb7  1  0.000000  0.000121  0.849079  1
  Co  Co8  1  0.000000  0.496706  0.989243  1
  Co  Co9  1  0.500000  0.001474  0.013305  1
  Co  Co10  1  0.500000  0.300666  0.430581  1
  Co  Co11  1  0.500000  0.699311  0.432084  1
  Co  Co12  1  0.000000  0.199821  0.566951  1
  Co  Co13  1  0.000000  0.800519  0.568380  1
  Co  Co14  1  0.500000  0.882734  0.705396  1
  Co  Co15  1  0.500000  0.118121  0.704598  1
  Co  Co16  1  0.000000  0.617036  0.295346  1
  Co  Co17  1  0.000000  0.381128  0.291834  1
  Co  Co18  1  0.500000  0.330830  0.998165  1
  Co  Co19  1  0.500000  0.667326  0.997643  1
  Co  Co20  1  0.000000  0.172100  0.005543  1
  Co  Co21  1  0.000000  0.831167  0.003719  1
  Co  Co22  1  0.500000  0.499876  0.699612  1
  Co  Co23  1  0.000000  0.000234  0.300406  1
  Si  Si24  1  0.500000  0.303311  0.614097  1
  Si  Si25  1  0.500000  0.696551  0.615396  1
  Si  Si26  1  0.000000  0.196696  0.383923  1
  Si  Si27  1  0.000000  0.803336  0.385126  1
  Si  Si28  1  0.500000  0.499234  0.886527  1
  Si  Si29  1  0.000000  0.000508  0.113754  1
  Si  Si30  1  0.500000  0.840017  0.895127  1
  Si  Si31  1  0.500000  0.160141  0.893792  1
  Si  Si32  1  0.000000  0.659518  0.106585  1
  Si  Si33  1  0.500000  0.499896  0.354121  1
  Si  Si34  1  0.000000  0.000777  0.645337  1
  P  P35  1  0.000000  0.340960  0.105680  1
