# generated using pymatgen
data_Tm3TeP2
_symmetry_space_group_name_H-M   'P 1'
_cell_length_a   4.02529000
_cell_length_b   10.08415074
_cell_length_c   6.94378900
_cell_angle_alpha   89.91258032
_cell_angle_beta   90.00000000
_cell_angle_gamma   90.00000000
_symmetry_Int_Tables_number   1
_chemical_formula_structural   Tm3TeP2
_chemical_formula_sum   'Tm6 Te2 P4'
_cell_volume   281.85939361
_cell_formula_units_Z   2
loop_
 _symmetry_equiv_pos_site_id
 _symmetry_equiv_pos_as_xyz
  1  'x, y, z'
loop_
 _atom_site_type_symbol
 _atom_site_label
 _atom_site_symmetry_multiplicity
 _atom_site_fract_x
 _atom_site_fract_y
 _atom_site_fract_z
 _atom_site_occupancy
  Tm  Tm0  1  0.250000  0.797841  0.915755  1
  Tm  Tm1  1  0.750000  0.202157  0.084247  1
  Tm  Tm2  1  0.750000  0.796861  0.417780  1
  Tm  Tm3  1  0.250000  0.203138  0.582206  1
  Tm  Tm4  1  0.250000  0.500383  0.248904  1
  Tm  Tm5  1  0.750000  0.499616  0.751093  1
  Te  Te6  1  0.750000  0.000798  0.749618  1
  Te  Te7  1  0.250000  0.999206  0.250396  1
  P  P8  1  0.250000  0.655616  0.584003  1
  P  P9  1  0.750000  0.344373  0.416003  1
  P  P10  1  0.750000  0.657308  0.083543  1
  P  P11  1  0.250000  0.342702  0.916450  1
