# generated using pymatgen
data_Lu3ScZn2Pt3
_symmetry_space_group_name_H-M   'P 1'
_cell_length_a   7.15291500
_cell_length_b   7.24978393
_cell_length_c   3.96839200
_cell_angle_alpha   90.00000000
_cell_angle_beta   90.00000000
_cell_angle_gamma   119.55897189
_symmetry_Int_Tables_number   1
_chemical_formula_structural   Lu3ScZn2Pt3
_chemical_formula_sum   'Lu3 Sc1 Zn2 Pt3'
_cell_volume   179.00545473
_cell_formula_units_Z   1
loop_
 _symmetry_equiv_pos_site_id
 _symmetry_equiv_pos_as_xyz
  1  'x, y, z'
loop_
 _atom_site_type_symbol
 _atom_site_label
 _atom_site_symmetry_multiplicity
 _atom_site_fract_x
 _atom_site_fract_y
 _atom_site_fract_z
 _atom_site_occupancy
  Lu  Lu0  1  0.614452  0.000000  0.000000  1
  Lu  Lu1  1  0.415026  0.428638  0.000000  1
  Lu  Lu2  1  0.986387  0.571361  0.000000  1
  Sc  Sc3  1  0.239197  0.000000  0.499999  1
  Zn  Zn4  1  0.002819  0.255684  0.499999  1
  Zn  Zn5  1  0.747134  0.744316  0.499999  1
  Pt  Pt6  1  0.001835  0.000000  0.000000  1
  Pt  Pt7  1  0.660035  0.326919  0.499999  1
  Pt  Pt8  1  0.333117  0.673082  0.499999  1
