# generated using pymatgen
data_SmDy(Tm4Bi3)2
_symmetry_space_group_name_H-M   'P 1'
_cell_length_a   8.23826400
_cell_length_b   9.45294900
_cell_length_c   11.97723100
_cell_angle_alpha   90.00000000
_cell_angle_beta   90.00000000
_cell_angle_gamma   90.00000000
_symmetry_Int_Tables_number   1
_chemical_formula_structural   SmDy(Tm4Bi3)2
_chemical_formula_sum   'Sm2 Dy2 Tm16 Bi12'
_cell_volume   932.73751716
_cell_formula_units_Z   2
loop_
 _symmetry_equiv_pos_site_id
 _symmetry_equiv_pos_as_xyz
  1  'x, y, z'
loop_
 _atom_site_type_symbol
 _atom_site_label
 _atom_site_symmetry_multiplicity
 _atom_site_fract_x
 _atom_site_fract_y
 _atom_site_fract_z
 _atom_site_occupancy
  Sm  Sm0  1  0.313174  0.250000  0.218852  1
  Sm  Sm1  1  0.813174  0.250000  0.281148  1
  Dy  Dy2  1  0.687623  0.750000  0.782123  1
  Dy  Dy3  1  0.187623  0.750000  0.717877  1
  Tm  Tm4  1  0.352551  0.750000  0.217135  1
  Tm  Tm5  1  0.852551  0.750000  0.282865  1
  Tm  Tm6  1  0.647244  0.250000  0.782451  1
  Tm  Tm7  1  0.147244  0.250000  0.717549  1
  Tm  Tm8  1  0.692302  0.566380  0.059602  1
  Tm  Tm9  1  0.192302  0.933620  0.440398  1
  Tm  Tm10  1  0.307481  0.066283  0.939903  1
  Tm  Tm11  1  0.807481  0.433717  0.560097  1
  Tm  Tm12  1  0.307481  0.433717  0.939903  1
  Tm  Tm13  1  0.807481  0.066283  0.560097  1
  Tm  Tm14  1  0.692302  0.933620  0.059602  1
  Tm  Tm15  1  0.192302  0.566380  0.440398  1
  Tm  Tm16  1  0.476298  0.250000  0.489382  1
  Tm  Tm17  1  0.976298  0.250000  0.010618  1
  Tm  Tm18  1  0.523692  0.750000  0.511590  1
  Tm  Tm19  1  0.023692  0.750000  0.988410  1
  Bi  Bi20  1  0.404991  0.750000  0.958424  1
  Bi  Bi21  1  0.904991  0.750000  0.541576  1
  Bi  Bi22  1  0.595644  0.250000  0.039585  1
  Bi  Bi23  1  0.095644  0.250000  0.460415  1
  Bi  Bi24  1  0.564881  0.992568  0.326610  1
  Bi  Bi25  1  0.064881  0.507432  0.173390  1
  Bi  Bi26  1  0.434728  0.494720  0.674236  1
  Bi  Bi27  1  0.934728  0.005280  0.825764  1
  Bi  Bi28  1  0.434728  0.005280  0.674236  1
  Bi  Bi29  1  0.934728  0.494720  0.825764  1
  Bi  Bi30  1  0.564881  0.507432  0.326610  1
  Bi  Bi31  1  0.064881  0.992568  0.173390  1
