# generated using pymatgen
data_Sc6Al11Ga3(Si5Os3)2
_symmetry_space_group_name_H-M   'P 1'
_cell_length_a   8.49182768
_cell_length_b   8.49182846
_cell_length_c   9.06529389
_cell_angle_alpha   90.04410632
_cell_angle_beta   89.95589562
_cell_angle_gamma   120.31974007
_symmetry_Int_Tables_number   1
_chemical_formula_structural   Sc6Al11Ga3(Si5Os3)2
_chemical_formula_sum   'Sc6 Al11 Ga3 Si10 Os6'
_cell_volume   564.29530845
_cell_formula_units_Z   1
loop_
 _symmetry_equiv_pos_site_id
 _symmetry_equiv_pos_as_xyz
  1  'x, y, z'
loop_
 _atom_site_type_symbol
 _atom_site_label
 _atom_site_symmetry_multiplicity
 _atom_site_fract_x
 _atom_site_fract_y
 _atom_site_fract_z
 _atom_site_occupancy
  Sc  Sc0  1  0.198811  0.801189  0.247586  1
  Sc  Sc1  1  0.197217  0.395032  0.249179  1
  Sc  Sc2  1  0.604968  0.802783  0.249179  1
  Sc  Sc3  1  0.802315  0.197685  0.750857  1
  Sc  Sc4  1  0.809558  0.606361  0.752020  1
  Sc  Sc5  1  0.393639  0.190442  0.752020  1
  Al  Al6  1  0.156423  0.312942  0.919621  1
  Al  Al7  1  0.687058  0.843577  0.919621  1
  Al  Al8  1  0.841621  0.158379  0.081118  1
  Al  Al9  1  0.840733  0.681524  0.084510  1
  Al  Al10  1  0.318476  0.159267  0.084510  1
  Al  Al11  1  0.841941  0.158059  0.420589  1
  Al  Al12  1  0.842363  0.684094  0.419332  1
  Al  Al13  1  0.315906  0.157637  0.419332  1
  Al  Al14  1  0.158680  0.841320  0.578962  1
  Al  Al15  1  0.159719  0.320612  0.579747  1
  Al  Al16  1  0.679388  0.840281  0.579747  1
  Ga  Ga17  1  0.145357  0.854643  0.921440  1
  Ga  Ga18  1  0.000005  0.999995  0.255858  1
  Ga  Ga19  1  0.996668  0.003332  0.726254  1
  Si  Si20  1  0.565931  0.434069  0.250952  1
  Si  Si21  1  0.566610  0.131977  0.250735  1
  Si  Si22  1  0.868023  0.433390  0.250735  1
  Si  Si23  1  0.436238  0.563762  0.750637  1
  Si  Si24  1  0.433228  0.864523  0.751861  1
  Si  Si25  1  0.135477  0.566772  0.751861  1
  Si  Si26  1  0.333362  0.666638  0.450280  1
  Si  Si27  1  0.666295  0.333705  0.549962  1
  Si  Si28  1  0.667205  0.332795  0.952079  1
  Si  Si29  1  0.334203  0.665797  0.045672  1
  Os  Os30  1  0.500309  0.499691  0.500959  1
  Os  Os31  1  0.499587  0.000158  0.500957  1
  Os  Os32  1  0.999842  0.500413  0.500957  1
  Os  Os33  1  0.500961  0.499039  0.999287  1
  Os  Os34  1  0.500977  0.999094  0.000792  1
  Os  Os35  1  0.000906  0.499023  0.000792  1
