# generated using pymatgen
data_Ca3Ga2Ir7
_symmetry_space_group_name_H-M   'P 1'
_cell_length_a   8.82111433
_cell_length_b   8.82111533
_cell_length_c   8.82111450
_cell_angle_alpha   36.23511864
_cell_angle_beta   36.23512003
_cell_angle_gamma   36.23511579
_symmetry_Int_Tables_number   1
_chemical_formula_structural   Ca3Ga2Ir7
_chemical_formula_sum   'Ca3 Ga2 Ir7'
_cell_volume   214.59372908
_cell_formula_units_Z   1
loop_
 _symmetry_equiv_pos_site_id
 _symmetry_equiv_pos_as_xyz
  1  'x, y, z'
loop_
 _atom_site_type_symbol
 _atom_site_label
 _atom_site_symmetry_multiplicity
 _atom_site_fract_x
 _atom_site_fract_y
 _atom_site_fract_z
 _atom_site_occupancy
  Ca  Ca0  1  0.359975  0.359975  0.359975  1
  Ca  Ca1  1  0.500000  0.500000  0.500000  1
  Ca  Ca2  1  0.640025  0.640025  0.640025  1
  Ga  Ga3  1  0.163691  0.163691  0.163691  1
  Ga  Ga4  1  0.836309  0.836309  0.836309  1
  Ir  Ir5  1  0.000000  0.000000  0.000000  1
  Ir  Ir6  1  0.573146  0.086992  0.086992  1
  Ir  Ir7  1  0.086992  0.573146  0.086992  1
  Ir  Ir8  1  0.913008  0.913008  0.426854  1
  Ir  Ir9  1  0.086992  0.086992  0.573146  1
  Ir  Ir10  1  0.913008  0.426854  0.913008  1
  Ir  Ir11  1  0.426854  0.913008  0.913008  1
