# generated using pymatgen
data_Dy5P12Ir10Ru8Rh
_symmetry_space_group_name_H-M   'P 1'
_cell_length_a   12.62717000
_cell_length_b   12.59671803
_cell_length_c   3.97153800
_cell_angle_alpha   90.00000000
_cell_angle_beta   90.00000000
_cell_angle_gamma   120.04585551
_symmetry_Int_Tables_number   1
_chemical_formula_structural   Dy5P12Ir10Ru8Rh
_chemical_formula_sum   'Dy5 P12 Ir10 Ru8 Rh1'
_cell_volume   546.82949186
_cell_formula_units_Z   1
loop_
 _symmetry_equiv_pos_site_id
 _symmetry_equiv_pos_as_xyz
  1  'x, y, z'
loop_
 _atom_site_type_symbol
 _atom_site_label
 _atom_site_symmetry_multiplicity
 _atom_site_fract_x
 _atom_site_fract_y
 _atom_site_fract_z
 _atom_site_occupancy
  Dy  Dy0  1  0.666950  0.331427  0.000000  1
  Dy  Dy1  1  0.334780  0.669063  0.000000  1
  Dy  Dy2  1  0.813831  0.000998  0.500000  1
  Dy  Dy3  1  0.183112  0.184897  0.500000  1
  Dy  Dy4  1  0.999288  0.814818  0.500000  1
  P  P5  1  0.634136  0.998991  0.000000  1
  P  P6  1  0.363406  0.363695  0.000000  1
  P  P7  1  0.999975  0.635579  0.000000  1
  P  P8  1  0.689229  0.518186  0.500000  1
  P  P9  1  0.830268  0.307927  0.500000  1
  P  P10  1  0.317205  0.834182  0.500000  1
  P  P11  1  0.519405  0.691287  0.500000  1
  P  P12  1  0.179015  0.000019  0.000000  1
  P  P13  1  0.819013  0.818850  0.000000  1
  P  P14  1  0.996686  0.181231  0.000000  1
  P  P15  1  0.480053  0.167338  0.500000  1
  P  P16  1  0.169863  0.482349  0.500000  1
  Ir  Ir17  1  0.624471  0.803797  0.000000  1
  Ir  Ir18  1  0.182945  0.376639  0.000000  1
  Ir  Ir19  1  0.374493  0.181257  0.000000  1
  Ir  Ir20  1  0.192251  0.819098  0.000000  1
  Ir  Ir21  1  0.804943  0.622174  0.000000  1
  Ir  Ir22  1  0.491857  0.360195  0.500000  1
  Ir  Ir23  1  0.637125  0.129276  0.500000  1
  Ir  Ir24  1  0.132821  0.641411  0.500000  1
  Ir  Ir25  1  0.362393  0.492392  0.500000  1
  Ir  Ir26  1  0.998881  0.000399  0.000000  1
  Ru  Ru27  1  0.511675  0.871692  0.500000  1
  Ru  Ru28  1  0.712158  0.710963  0.500000  1
  Ru  Ru29  1  0.002325  0.289213  0.500000  1
  Ru  Ru30  1  0.450397  0.998799  0.000000  1
  Ru  Ru31  1  0.547146  0.544334  0.000000  1
  Ru  Ru32  1  0.002054  0.454159  0.000000  1
  Ru  Ru33  1  0.818338  0.195794  0.000000  1
  Ru  Ru34  1  0.286427  0.999821  0.500000  1
  Rh  Rh35  1  0.871079  0.507746  0.500000  1
