# generated using pymatgen
data_PuZr3(NiAs)4
_symmetry_space_group_name_H-M   'P 1'
_cell_length_a   3.97763100
_cell_length_b   3.97762996
_cell_length_c   14.47054800
_cell_angle_alpha   90.00000000
_cell_angle_beta   90.00000000
_cell_angle_gamma   120.00001699
_symmetry_Int_Tables_number   1
_chemical_formula_structural   PuZr3(NiAs)4
_chemical_formula_sum   'Pu1 Zr3 Ni4 As4'
_cell_volume   198.27337766
_cell_formula_units_Z   1
loop_
 _symmetry_equiv_pos_site_id
 _symmetry_equiv_pos_as_xyz
  1  'x, y, z'
loop_
 _atom_site_type_symbol
 _atom_site_label
 _atom_site_symmetry_multiplicity
 _atom_site_fract_x
 _atom_site_fract_y
 _atom_site_fract_z
 _atom_site_occupancy
  Pu  Pu0  1  0.000000  0.000000  0.500000  1
  Zr  Zr1  1  0.000000  0.000000  0.244653  1
  Zr  Zr2  1  0.000000  0.000000  0.755347  1
  Zr  Zr3  1  0.000000  0.000000  0.000000  1
  Ni  Ni4  1  0.333333  0.666667  0.144750  1
  Ni  Ni5  1  0.666667  0.333333  0.855250  1
  Ni  Ni6  1  0.666667  0.333333  0.664641  1
  Ni  Ni7  1  0.333333  0.666667  0.335359  1
  As  As8  1  0.333333  0.666667  0.624736  1
  As  As9  1  0.666667  0.333333  0.375264  1
  As  As10  1  0.666667  0.333333  0.113428  1
  As  As11  1  0.333333  0.666667  0.886572  1
