# generated using pymatgen
data_Er16In4Pd3Ru
_symmetry_space_group_name_H-M   'P 1'
_cell_length_a   9.64849416
_cell_length_b   9.64849318
_cell_length_c   9.64849357
_cell_angle_alpha   59.71946433
_cell_angle_beta   59.71946472
_cell_angle_gamma   59.71946603
_symmetry_Int_Tables_number   1
_chemical_formula_structural   Er16In4Pd3Ru
_chemical_formula_sum   'Er16 In4 Pd3 Ru1'
_cell_volume   631.08456891
_cell_formula_units_Z   1
loop_
 _symmetry_equiv_pos_site_id
 _symmetry_equiv_pos_as_xyz
  1  'x, y, z'
loop_
 _atom_site_type_symbol
 _atom_site_label
 _atom_site_symmetry_multiplicity
 _atom_site_fract_x
 _atom_site_fract_y
 _atom_site_fract_z
 _atom_site_occupancy
  Er  Er0  1  0.353103  0.353103  0.353103  1
  Er  Er1  1  0.349464  0.349464  0.945324  1
  Er  Er2  1  0.349464  0.945324  0.349464  1
  Er  Er3  1  0.945324  0.349464  0.349464  1
  Er  Er4  1  0.817089  0.188343  0.188343  1
  Er  Er5  1  0.189627  0.810468  0.810468  1
  Er  Er6  1  0.188343  0.817089  0.188343  1
  Er  Er7  1  0.810468  0.189627  0.810468  1
  Er  Er8  1  0.188343  0.188343  0.817089  1
  Er  Er9  1  0.810468  0.810468  0.189627  1
  Er  Er10  1  0.934233  0.564035  0.564035  1
  Er  Er11  1  0.558735  0.938007  0.938007  1
  Er  Er12  1  0.564035  0.934233  0.564035  1
  Er  Er13  1  0.938007  0.558735  0.938007  1
  Er  Er14  1  0.564035  0.564035  0.934233  1
  Er  Er15  1  0.938007  0.938007  0.558735  1
  In  In16  1  0.583867  0.583867  0.583867  1
  In  In17  1  0.583242  0.583242  0.249838  1
  In  In18  1  0.583242  0.249838  0.583242  1
  In  In19  1  0.249838  0.583242  0.583242  1
  Pd  Pd20  1  0.144461  0.144461  0.568595  1
  Pd  Pd21  1  0.144461  0.568595  0.144461  1
  Pd  Pd22  1  0.568595  0.144461  0.144461  1
  Ru  Ru23  1  0.143544  0.143544  0.143544  1
