# generated using pymatgen
data_La4YHo5Sn8
_symmetry_space_group_name_H-M   'P 1'
_cell_length_a   8.25172900
_cell_length_b   8.40967200
_cell_length_c   15.89056000
_cell_angle_alpha   90.00000000
_cell_angle_beta   90.00000000
_cell_angle_gamma   90.00000000
_symmetry_Int_Tables_number   1
_chemical_formula_structural   La4YHo5Sn8
_chemical_formula_sum   'La8 Y2 Ho10 Sn16'
_cell_volume   1102.71483322
_cell_formula_units_Z   2
loop_
 _symmetry_equiv_pos_site_id
 _symmetry_equiv_pos_as_xyz
  1  'x, y, z'
loop_
 _atom_site_type_symbol
 _atom_site_label
 _atom_site_symmetry_multiplicity
 _atom_site_fract_x
 _atom_site_fract_y
 _atom_site_fract_z
 _atom_site_occupancy
  La  La0  1  0.517656  0.321006  0.903096  1
  La  La1  1  0.017656  0.178994  0.596904  1
  La  La2  1  0.482205  0.678911  0.403101  1
  La  La3  1  0.982205  0.821089  0.096899  1
  La  La4  1  0.482205  0.678911  0.096899  1
  La  La5  1  0.982205  0.821089  0.403101  1
  La  La6  1  0.517656  0.321006  0.596904  1
  La  La7  1  0.017656  0.178994  0.903096  1
  Y  Y8  1  0.804281  0.495495  0.250000  1
  Y  Y9  1  0.304281  0.004505  0.250000  1
  Ho  Ho10  1  0.362882  0.836960  0.876716  1
  Ho  Ho11  1  0.862882  0.663040  0.623284  1
  Ho  Ho12  1  0.637258  0.162876  0.376762  1
  Ho  Ho13  1  0.137258  0.337124  0.123238  1
  Ho  Ho14  1  0.637258  0.162876  0.123238  1
  Ho  Ho15  1  0.137258  0.337124  0.376762  1
  Ho  Ho16  1  0.362882  0.836960  0.623284  1
  Ho  Ho17  1  0.862882  0.663040  0.876716  1
  Ho  Ho18  1  0.195817  0.504609  0.750000  1
  Ho  Ho19  1  0.695817  0.995391  0.750000  1
  Sn  Sn20  1  0.302156  0.040701  0.042746  1
  Sn  Sn21  1  0.802156  0.459299  0.457254  1
  Sn  Sn22  1  0.697822  0.959343  0.542769  1
  Sn  Sn23  1  0.197822  0.540657  0.957231  1
  Sn  Sn24  1  0.697822  0.959343  0.957231  1
  Sn  Sn25  1  0.197822  0.540657  0.542769  1
  Sn  Sn26  1  0.302156  0.040701  0.457254  1
  Sn  Sn27  1  0.802156  0.459299  0.042746  1
  Sn  Sn28  1  0.560824  0.625417  0.750000  1
  Sn  Sn29  1  0.060824  0.874583  0.750000  1
  Sn  Sn30  1  0.439079  0.374804  0.250000  1
  Sn  Sn31  1  0.939079  0.125196  0.250000  1
  Sn  Sn32  1  0.325828  0.141995  0.750000  1
  Sn  Sn33  1  0.825828  0.358005  0.750000  1
  Sn  Sn34  1  0.674210  0.858146  0.250000  1
  Sn  Sn35  1  0.174210  0.641854  0.250000  1
