# generated using pymatgen
data_YSc9Al4(SnC4)2
_symmetry_space_group_name_H-M   'P 1'
_cell_length_a   10.48799125
_cell_length_b   10.45453414
_cell_length_c   3.35254500
_cell_angle_alpha   90.00000000
_cell_angle_beta   90.00000000
_cell_angle_gamma   89.65264911
_symmetry_Int_Tables_number   1
_chemical_formula_structural   YSc9Al4(SnC4)2
_chemical_formula_sum   'Y1 Sc9 Al4 Sn2 C8'
_cell_volume   367.58995664
_cell_formula_units_Z   1
loop_
 _symmetry_equiv_pos_site_id
 _symmetry_equiv_pos_as_xyz
  1  'x, y, z'
loop_
 _atom_site_type_symbol
 _atom_site_label
 _atom_site_symmetry_multiplicity
 _atom_site_fract_x
 _atom_site_fract_y
 _atom_site_fract_z
 _atom_site_occupancy
  Y  Y0  1  0.768712  0.948868  0.500000  1
  Sc  Sc1  1  0.544536  0.739294  0.500000  1
  Sc  Sc2  1  0.449198  0.260203  0.500000  1
  Sc  Sc3  1  0.047573  0.756987  0.500000  1
  Sc  Sc4  1  0.951091  0.242379  0.500000  1
  Sc  Sc5  1  0.257388  0.549289  0.500000  1
  Sc  Sc6  1  0.742565  0.450876  0.500000  1
  Sc  Sc7  1  0.246169  0.050724  0.500000  1
  Sc  Sc8  1  0.500270  0.000406  0.000000  1
  Sc  Sc9  1  0.000228  0.499259  0.000000  1
  Al  Al10  1  0.697988  0.208675  0.000000  1
  Al  Al11  1  0.294692  0.799711  0.000000  1
  Al  Al12  1  0.201893  0.296949  0.000000  1
  Al  Al13  1  0.791990  0.694853  0.000000  1
  Sn  Sn14  1  0.499915  0.498890  0.000000  1
  Sn  Sn15  1  0.015719  0.003473  0.000000  1
  C  C16  1  0.621058  0.128969  0.500000  1
  C  C17  1  0.374583  0.875621  0.500000  1
  C  C18  1  0.123877  0.376179  0.500000  1
  C  C19  1  0.875495  0.623418  0.500000  1
  C  C20  1  0.158956  0.659694  0.000000  1
  C  C21  1  0.840484  0.341316  0.000000  1
  C  C22  1  0.653509  0.833022  0.000000  1
  C  C23  1  0.342111  0.160938  0.000000  1
