# generated using pymatgen
data_CaTh2NiSn3Rh2
_symmetry_space_group_name_H-M   'P 1'
_cell_length_a   7.58780339
_cell_length_b   7.58780255
_cell_length_c   4.03885200
_cell_angle_alpha   90.00000000
_cell_angle_beta   90.00000000
_cell_angle_gamma   120.91910522
_symmetry_Int_Tables_number   1
_chemical_formula_structural   CaTh2NiSn3Rh2
_chemical_formula_sum   'Ca1 Th2 Ni1 Sn3 Rh2'
_cell_volume   199.49107334
_cell_formula_units_Z   1
loop_
 _symmetry_equiv_pos_site_id
 _symmetry_equiv_pos_as_xyz
  1  'x, y, z'
loop_
 _atom_site_type_symbol
 _atom_site_label
 _atom_site_symmetry_multiplicity
 _atom_site_fract_x
 _atom_site_fract_y
 _atom_site_fract_z
 _atom_site_occupancy
  Ca  Ca0  1  0.407717  0.407717  0.500000  1
  Th  Th1  1  0.585292  0.999673  0.500000  1
  Th  Th2  1  0.999673  0.585292  0.500000  1
  Ni  Ni3  1  0.986742  0.986742  0.500000  1
  Sn  Sn4  1  0.744064  0.744064  0.000000  1
  Sn  Sn5  1  0.246412  0.011275  0.000000  1
  Sn  Sn6  1  0.011275  0.246412  0.000000  1
  Rh  Rh7  1  0.688132  0.330694  0.000000  1
  Rh  Rh8  1  0.330694  0.688132  0.000000  1
