# generated using pymatgen
data_Ho3Lu5In3Rh
_symmetry_space_group_name_H-M   'P 1'
_cell_length_a   10.26320200
_cell_length_b   10.26320230
_cell_length_c   6.94140100
_cell_angle_alpha   90.00000000
_cell_angle_beta   90.00000000
_cell_angle_gamma   119.99999904
_symmetry_Int_Tables_number   1
_chemical_formula_structural   Ho3Lu5In3Rh
_chemical_formula_sum   'Ho6 Lu10 In6 Rh2'
_cell_volume   633.20383432
_cell_formula_units_Z   2
loop_
 _symmetry_equiv_pos_site_id
 _symmetry_equiv_pos_as_xyz
  1  'x, y, z'
loop_
 _atom_site_type_symbol
 _atom_site_label
 _atom_site_symmetry_multiplicity
 _atom_site_fract_x
 _atom_site_fract_y
 _atom_site_fract_z
 _atom_site_occupancy
  Ho  Ho0  1  0.531817  0.063634  0.524352  1
  Ho  Ho1  1  0.936366  0.468183  0.524352  1
  Ho  Ho2  1  0.531817  0.468183  0.524352  1
  Ho  Ho3  1  0.468183  0.936366  0.024352  1
  Ho  Ho4  1  0.063634  0.531817  0.024352  1
  Ho  Ho5  1  0.468183  0.531817  0.024352  1
  Lu  Lu6  1  0.176756  0.353511  0.728845  1
  Lu  Lu7  1  0.646489  0.823244  0.728845  1
  Lu  Lu8  1  0.176756  0.823244  0.728845  1
  Lu  Lu9  1  0.823244  0.646489  0.228845  1
  Lu  Lu10  1  0.353511  0.176756  0.228845  1
  Lu  Lu11  1  0.823244  0.176756  0.228845  1
  Lu  Lu12  1  0.666667  0.333333  0.904774  1
  Lu  Lu13  1  0.333333  0.666667  0.404774  1
  Lu  Lu14  1  0.000000  0.000000  0.507221  1
  Lu  Lu15  1  0.000000  0.000000  0.007221  1
  In  In16  1  0.837494  0.674989  0.770369  1
  In  In17  1  0.325011  0.162506  0.770369  1
  In  In18  1  0.837494  0.162506  0.770369  1
  In  In19  1  0.162506  0.325011  0.270369  1
  In  In20  1  0.674989  0.837494  0.270369  1
  In  In21  1  0.162506  0.837494  0.270369  1
  Rh  Rh22  1  0.666667  0.333333  0.295147  1
  Rh  Rh23  1  0.333333  0.666667  0.795147  1
