# generated using pymatgen
data_Dy3Ho7(CoRu)2
_symmetry_space_group_name_H-M   'P 1'
_cell_length_a   6.29364640
_cell_length_b   7.10152158
_cell_length_c   8.47485861
_cell_angle_alpha   96.61854772
_cell_angle_beta   111.64879744
_cell_angle_gamma   90.05311068
_symmetry_Int_Tables_number   1
_chemical_formula_structural   Dy3Ho7(CoRu)2
_chemical_formula_sum   'Dy3 Ho7 Co2 Ru2'
_cell_volume   349.32743333
_cell_formula_units_Z   1
loop_
 _symmetry_equiv_pos_site_id
 _symmetry_equiv_pos_as_xyz
  1  'x, y, z'
loop_
 _atom_site_type_symbol
 _atom_site_label
 _atom_site_symmetry_multiplicity
 _atom_site_fract_x
 _atom_site_fract_y
 _atom_site_fract_z
 _atom_site_occupancy
  Dy  Dy0  1  0.978089  0.911423  0.190427  1
  Dy  Dy1  1  0.788293  0.588730  0.810502  1
  Dy  Dy2  1  0.012918  0.082826  0.813807  1
  Ho  Ho3  1  0.198999  0.416592  0.186166  1
  Ho  Ho4  1  0.647871  0.811228  0.432014  1
  Ho  Ho5  1  0.215016  0.689227  0.567081  1
  Ho  Ho6  1  0.358448  0.182456  0.566369  1
  Ho  Ho7  1  0.792086  0.317747  0.433527  1
  Ho  Ho8  1  0.426779  0.749701  0.999847  1
  Ho  Ho9  1  0.577623  0.249837  0.999891  1
  Co  Co10  1  0.825972  0.576295  0.223347  1
  Co  Co11  1  0.602596  0.923200  0.777300  1
  Ru  Ru12  1  0.177155  0.427709  0.778421  1
  Ru  Ru13  1  0.398156  0.073028  0.221299  1
