# generated using pymatgen
data_CaCe3As3O4
_symmetry_space_group_name_H-M   'P 1'
_cell_length_a   6.78157206
_cell_length_b   6.78157154
_cell_length_c   7.99498608
_cell_angle_alpha   90.01526461
_cell_angle_beta   89.98473370
_cell_angle_gamma   145.61863608
_symmetry_Int_Tables_number   1
_chemical_formula_structural   CaCe3As3O4
_chemical_formula_sum   'Ca1 Ce3 As3 O4'
_cell_volume   207.63240374
_cell_formula_units_Z   1
loop_
 _symmetry_equiv_pos_site_id
 _symmetry_equiv_pos_as_xyz
  1  'x, y, z'
loop_
 _atom_site_type_symbol
 _atom_site_label
 _atom_site_symmetry_multiplicity
 _atom_site_fract_x
 _atom_site_fract_y
 _atom_site_fract_z
 _atom_site_occupancy
  Ca  Ca0  1  0.999086  0.000914  0.999932  1
  Ce  Ce1  1  0.316102  0.683898  0.235865  1
  Ce  Ce2  1  0.992001  0.007999  0.499975  1
  Ce  Ce3  1  0.316103  0.683897  0.764227  1
  As  As4  1  0.641518  0.358482  0.674404  1
  As  As5  1  0.641502  0.358498  0.325643  1
  As  As6  1  0.683314  0.316686  0.999979  1
  O  O7  1  0.404430  0.595570  0.999874  1
  O  O8  1  0.905793  0.094207  0.744003  1
  O  O9  1  0.905880  0.094120  0.256003  1
  O  O10  1  0.392163  0.607837  0.500094  1
