# generated using pymatgen
data_Lu4Al3B16Os
_symmetry_space_group_name_H-M   'P 1'
_cell_length_a   3.50659500
_cell_length_b   5.91018596
_cell_length_c   11.43570101
_cell_angle_alpha   90.25796565
_cell_angle_beta   90.00000000
_cell_angle_gamma   90.00000000
_symmetry_Int_Tables_number   1
_chemical_formula_structural   Lu4Al3B16Os
_chemical_formula_sum   'Lu4 Al3 B16 Os1'
_cell_volume   236.99825330
_cell_formula_units_Z   1
loop_
 _symmetry_equiv_pos_site_id
 _symmetry_equiv_pos_as_xyz
  1  'x, y, z'
loop_
 _atom_site_type_symbol
 _atom_site_label
 _atom_site_symmetry_multiplicity
 _atom_site_fract_x
 _atom_site_fract_y
 _atom_site_fract_z
 _atom_site_occupancy
  Lu  Lu0  1  0.000000  0.371287  0.652738  1
  Lu  Lu1  1  0.000000  0.627754  0.347387  1
  Lu  Lu2  1  0.000000  0.873699  0.849218  1
  Lu  Lu3  1  0.000000  0.127553  0.147914  1
  Al  Al4  1  0.000000  0.639980  0.088142  1
  Al  Al5  1  0.000000  0.860764  0.593069  1
  Al  Al6  1  0.000000  0.137673  0.410335  1
  B  B7  1  0.500000  0.026920  0.692920  1
  B  B8  1  0.500000  0.974107  0.306107  1
  B  B9  1  0.500000  0.521449  0.806973  1
  B  B10  1  0.500000  0.475446  0.193610  1
  B  B11  1  0.500000  0.114927  0.547003  1
  B  B12  1  0.500000  0.885177  0.452135  1
  B  B13  1  0.500000  0.613684  0.950458  1
  B  B14  1  0.500000  0.382398  0.046623  1
  B  B15  1  0.500000  0.290309  0.312718  1
  B  B16  1  0.500000  0.707040  0.686576  1
  B  B17  1  0.500000  0.790702  0.187945  1
  B  B18  1  0.500000  0.211506  0.814363  1
  B  B19  1  0.500000  0.366577  0.468799  1
  B  B20  1  0.500000  0.631958  0.529779  1
  B  B21  1  0.500000  0.865728  0.031148  1
  B  B22  1  0.500000  0.133201  0.967787  1
  Os  Os23  1  0.000000  0.370162  0.916252  1
