# generated using pymatgen
data_Dy8Re9Si16Tc3
_symmetry_space_group_name_H-M   'P 1'
_cell_length_a   6.77276429
_cell_length_b   6.77276399
_cell_length_c   12.81489601
_cell_angle_alpha   89.98184199
_cell_angle_beta   89.98184584
_cell_angle_gamma   90.02672786
_symmetry_Int_Tables_number   1
_chemical_formula_structural   Dy8Re9Si16Tc3
_chemical_formula_sum   'Dy8 Re9 Si16 Tc3'
_cell_volume   587.82343839
_cell_formula_units_Z   1
loop_
 _symmetry_equiv_pos_site_id
 _symmetry_equiv_pos_as_xyz
  1  'x, y, z'
loop_
 _atom_site_type_symbol
 _atom_site_label
 _atom_site_symmetry_multiplicity
 _atom_site_fract_x
 _atom_site_fract_y
 _atom_site_fract_z
 _atom_site_occupancy
  Dy  Dy0  1  0.006726  0.662599  0.031392  1
  Dy  Dy1  1  0.992969  0.337415  0.531423  1
  Dy  Dy2  1  0.337401  0.993274  0.468608  1
  Dy  Dy3  1  0.162285  0.493284  0.781118  1
  Dy  Dy4  1  0.837528  0.506793  0.281363  1
  Dy  Dy5  1  0.493207  0.162472  0.218637  1
  Dy  Dy6  1  0.506716  0.837715  0.718882  1
  Dy  Dy7  1  0.662585  0.007031  0.968577  1
  Re  Re8  1  0.017462  0.813777  0.631151  1
  Re  Re9  1  0.982395  0.185997  0.131282  1
  Re  Re10  1  0.814003  0.017605  0.368718  1
  Re  Re11  1  0.314636  0.482887  0.381115  1
  Re  Re12  1  0.686396  0.517352  0.881482  1
  Re  Re13  1  0.482648  0.313604  0.618518  1
  Re  Re14  1  0.517113  0.685364  0.118885  1
  Re  Re15  1  0.186223  0.982538  0.868849  1
  Re  Re16  1  0.835505  0.164495  0.750000  1
  Si  Si17  1  0.017593  0.727641  0.439168  1
  Si  Si18  1  0.614796  0.304465  0.434880  1
  Si  Si19  1  0.385519  0.695412  0.935081  1
  Si  Si20  1  0.195686  0.114650  0.684597  1
  Si  Si21  1  0.304588  0.614481  0.564919  1
  Si  Si22  1  0.695535  0.385204  0.065120  1
  Si  Si23  1  0.804531  0.885185  0.184942  1
  Si  Si24  1  0.114815  0.195469  0.315058  1
  Si  Si25  1  0.982250  0.272782  0.939079  1
  Si  Si26  1  0.727218  0.017750  0.560921  1
  Si  Si27  1  0.226993  0.482009  0.189199  1
  Si  Si28  1  0.772065  0.518360  0.688981  1
  Si  Si29  1  0.481640  0.227935  0.811019  1
  Si  Si30  1  0.517991  0.773007  0.310801  1
  Si  Si31  1  0.272359  0.982407  0.060832  1
  Si  Si32  1  0.885350  0.804314  0.815403  1
  Tc  Tc33  1  0.664959  0.664399  0.500426  1
  Tc  Tc34  1  0.164714  0.835286  0.250000  1
  Tc  Tc35  1  0.335601  0.335041  0.999574  1
