# generated using pymatgen
data_Tb3Y6Ho(CoSb2)2
_symmetry_space_group_name_H-M   'P 1'
_cell_length_a   7.94759900
_cell_length_b   8.74146859
_cell_length_c   12.25606083
_cell_angle_alpha   90.04218173
_cell_angle_beta   90.00000000
_cell_angle_gamma   90.00000000
_symmetry_Int_Tables_number   1
_chemical_formula_structural   Tb3Y6Ho(CoSb2)2
_chemical_formula_sum   'Tb6 Y12 Ho2 Co4 Sb8'
_cell_volume   851.47350375
_cell_formula_units_Z   2
loop_
 _symmetry_equiv_pos_site_id
 _symmetry_equiv_pos_as_xyz
  1  'x, y, z'
loop_
 _atom_site_type_symbol
 _atom_site_label
 _atom_site_symmetry_multiplicity
 _atom_site_fract_x
 _atom_site_fract_y
 _atom_site_fract_z
 _atom_site_occupancy
  Tb  Tb0  1  0.178876  0.465817  0.935212  1
  Tb  Tb1  1  0.678876  0.534183  0.564788  1
  Tb  Tb2  1  0.178340  0.034116  0.935291  1
  Tb  Tb3  1  0.678340  0.965884  0.564709  1
  Tb  Tb4  1  0.821122  0.534711  0.064978  1
  Tb  Tb5  1  0.321122  0.465289  0.435022  1
  Y  Y6  1  0.154795  0.750379  0.203766  1
  Y  Y7  1  0.654795  0.249621  0.296234  1
  Y  Y8  1  0.844863  0.249771  0.796383  1
  Y  Y9  1  0.344863  0.750229  0.703617  1
  Y  Y10  1  0.457546  0.750249  0.998580  1
  Y  Y11  1  0.957546  0.249751  0.501420  1
  Y  Y12  1  0.543594  0.249611  0.001522  1
  Y  Y13  1  0.043594  0.750389  0.498478  1
  Y  Y14  1  0.622885  0.750297  0.304700  1
  Y  Y15  1  0.122885  0.249703  0.195300  1
  Y  Y16  1  0.376407  0.249532  0.695108  1
  Y  Y17  1  0.876407  0.750468  0.804892  1
  Ho  Ho18  1  0.822940  0.965190  0.064951  1
  Ho  Ho19  1  0.322940  0.034810  0.435049  1
  Co  Co20  1  0.434931  0.750400  0.489872  1
  Co  Co21  1  0.934931  0.249600  0.010128  1
  Co  Co22  1  0.563544  0.249356  0.509897  1
  Co  Co23  1  0.063544  0.750644  0.990103  1
  Sb  Sb24  1  0.928444  0.991618  0.326709  1
  Sb  Sb25  1  0.428444  0.008382  0.173291  1
  Sb  Sb26  1  0.072036  0.491546  0.673274  1
  Sb  Sb27  1  0.572036  0.508454  0.826726  1
  Sb  Sb28  1  0.071831  0.008456  0.673206  1
  Sb  Sb29  1  0.571831  0.991544  0.826794  1
  Sb  Sb30  1  0.927847  0.508482  0.326864  1
  Sb  Sb31  1  0.427847  0.491518  0.173136  1
