# generated using pymatgen
data_TbThAl3Cu7
_symmetry_space_group_name_H-M   'P 1'
_cell_length_a   4.17467300
_cell_length_b   5.12687367
_cell_length_c   8.93278407
_cell_angle_alpha   89.15851772
_cell_angle_beta   90.00000000
_cell_angle_gamma   90.00000000
_symmetry_Int_Tables_number   1
_chemical_formula_structural   TbThAl3Cu7
_chemical_formula_sum   'Tb1 Th1 Al3 Cu7'
_cell_volume   191.16794684
_cell_formula_units_Z   1
loop_
 _symmetry_equiv_pos_site_id
 _symmetry_equiv_pos_as_xyz
  1  'x, y, z'
loop_
 _atom_site_type_symbol
 _atom_site_label
 _atom_site_symmetry_multiplicity
 _atom_site_fract_x
 _atom_site_fract_y
 _atom_site_fract_z
 _atom_site_occupancy
  Tb  Tb0  1  0.000000  0.247130  0.749814  1
  Th  Th1  1  0.000000  0.752789  0.252744  1
  Al  Al2  1  0.500000  0.735960  0.743880  1
  Al  Al3  1  0.500000  0.258016  0.254341  1
  Al  Al4  1  0.500000  0.002429  0.998237  1
  Cu  Cu5  1  0.000000  0.256110  0.078215  1
  Cu  Cu6  1  0.000000  0.749223  0.586795  1
  Cu  Cu7  1  0.000000  0.747286  0.911258  1
  Cu  Cu8  1  0.000000  0.249968  0.423051  1
  Cu  Cu9  1  0.500000  0.497798  0.500773  1
  Cu  Cu10  1  0.500000  0.502510  0.999734  1
  Cu  Cu11  1  0.500000  0.000781  0.501158  1
