# generated using pymatgen
data_Er3Tm3(CoSn6)2
_symmetry_space_group_name_H-M   'P 1'
_cell_length_a   8.43508224
_cell_length_b   8.43508193
_cell_length_c   13.07614113
_cell_angle_alpha   90.02511949
_cell_angle_beta   89.97488769
_cell_angle_gamma   148.79227911
_symmetry_Int_Tables_number   1
_chemical_formula_structural   Er3Tm3(CoSn6)2
_chemical_formula_sum   'Er3 Tm3 Co2 Sn12'
_cell_volume   482.06677870
_cell_formula_units_Z   1
loop_
 _symmetry_equiv_pos_site_id
 _symmetry_equiv_pos_as_xyz
  1  'x, y, z'
loop_
 _atom_site_type_symbol
 _atom_site_label
 _atom_site_symmetry_multiplicity
 _atom_site_fract_x
 _atom_site_fract_y
 _atom_site_fract_z
 _atom_site_occupancy
  Er  Er0  1  0.101248  0.898752  0.594394  1
  Er  Er1  1  0.101070  0.898930  0.905764  1
  Er  Er2  1  0.898918  0.101082  0.405674  1
  Tm  Tm3  1  0.898492  0.101508  0.094560  1
  Tm  Tm4  1  0.900340  0.099660  0.750238  1
  Tm  Tm5  1  0.099683  0.900317  0.249700  1
  Co  Co6  1  0.300704  0.699296  0.249796  1
  Co  Co7  1  0.699433  0.300567  0.750079  1
  Sn  Sn8  1  0.755984  0.244016  0.571911  1
  Sn  Sn9  1  0.427023  0.572977  0.575230  1
  Sn  Sn10  1  0.572931  0.427069  0.424797  1
  Sn  Sn11  1  0.733318  0.266682  0.249971  1
  Sn  Sn12  1  0.266786  0.733214  0.749877  1
  Sn  Sn13  1  0.244216  0.755784  0.071741  1
  Sn  Sn14  1  0.244123  0.755877  0.427953  1
  Sn  Sn15  1  0.573004  0.426996  0.074911  1
  Sn  Sn16  1  0.454715  0.545285  0.249583  1
  Sn  Sn17  1  0.545243  0.454757  0.750204  1
  Sn  Sn18  1  0.756109  0.243891  0.928215  1
  Sn  Sn19  1  0.426660  0.573340  0.925403  1
