# generated using pymatgen
data_Tb3YbAl2(CdPd2)2
_symmetry_space_group_name_H-M   'P 1'
_cell_length_a   4.25493200
_cell_length_b   7.19650090
_cell_length_c   8.32487218
_cell_angle_alpha   87.93494507
_cell_angle_beta   90.00000000
_cell_angle_gamma   90.00000000
_symmetry_Int_Tables_number   1
_chemical_formula_structural   Tb3YbAl2(CdPd2)2
_chemical_formula_sum   'Tb3 Yb1 Al2 Cd2 Pd4'
_cell_volume   254.74721273
_cell_formula_units_Z   1
loop_
 _symmetry_equiv_pos_site_id
 _symmetry_equiv_pos_as_xyz
  1  'x, y, z'
loop_
 _atom_site_type_symbol
 _atom_site_label
 _atom_site_symmetry_multiplicity
 _atom_site_fract_x
 _atom_site_fract_y
 _atom_site_fract_z
 _atom_site_occupancy
  Tb  Tb0  1  0.750000  0.456912  0.178682  1
  Tb  Tb1  1  0.250000  0.039783  0.684963  1
  Tb  Tb2  1  0.750000  0.959692  0.314256  1
  Yb  Yb3  1  0.250000  0.539167  0.818349  1
  Al  Al4  1  0.250000  0.135915  0.060041  1
  Al  Al5  1  0.750000  0.863176  0.941377  1
  Cd  Cd6  1  0.250000  0.638546  0.435716  1
  Cd  Cd7  1  0.750000  0.361691  0.565806  1
  Pd  Pd8  1  0.750000  0.762451  0.644422  1
  Pd  Pd9  1  0.250000  0.242563  0.355070  1
  Pd  Pd10  1  0.750000  0.226384  0.896124  1
  Pd  Pd11  1  0.250000  0.773719  0.105193  1
