# generated using pymatgen
data_Hf4P4IrRu3
_symmetry_space_group_name_H-M   'P 1'
_cell_length_a   3.85789100
_cell_length_b   6.43310985
_cell_length_c   7.34783815
_cell_angle_alpha   89.81972875
_cell_angle_beta   90.00000000
_cell_angle_gamma   90.00000000
_symmetry_Int_Tables_number   1
_chemical_formula_structural   Hf4P4IrRu3
_chemical_formula_sum   'Hf4 P4 Ir1 Ru3'
_cell_volume   182.35948313
_cell_formula_units_Z   1
loop_
 _symmetry_equiv_pos_site_id
 _symmetry_equiv_pos_as_xyz
  1  'x, y, z'
loop_
 _atom_site_type_symbol
 _atom_site_label
 _atom_site_symmetry_multiplicity
 _atom_site_fract_x
 _atom_site_fract_y
 _atom_site_fract_z
 _atom_site_occupancy
  Hf  Hf0  1  0.750000  0.524411  0.320965  1
  Hf  Hf1  1  0.250000  0.975971  0.820459  1
  Hf  Hf2  1  0.750000  0.022188  0.178404  1
  Hf  Hf3  1  0.250000  0.479479  0.678938  1
  P  P4  1  0.250000  0.732884  0.122397  1
  P  P5  1  0.250000  0.228106  0.382366  1
  P  P6  1  0.750000  0.270046  0.872138  1
  P  P7  1  0.750000  0.772587  0.622393  1
  Ir  Ir8  1  0.250000  0.344294  0.062791  1
  Ru  Ru9  1  0.250000  0.846755  0.439515  1
  Ru  Ru10  1  0.750000  0.153118  0.558896  1
  Ru  Ru11  1  0.750000  0.650162  0.940737  1
