# generated using pymatgen
data_Ho4Al3Si7Ir6
_symmetry_space_group_name_H-M   'P 1'
_cell_length_a   8.18993258
_cell_length_b   8.37946011
_cell_length_c   8.18993400
_cell_angle_alpha   107.38368917
_cell_angle_beta   84.84643722
_cell_angle_gamma   140.03229068
_symmetry_Int_Tables_number   1
_chemical_formula_structural   Ho4Al3Si7Ir6
_chemical_formula_sum   'Ho4 Al3 Si7 Ir6'
_cell_volume   335.55304178
_cell_formula_units_Z   1
loop_
 _symmetry_equiv_pos_site_id
 _symmetry_equiv_pos_as_xyz
  1  'x, y, z'
loop_
 _atom_site_type_symbol
 _atom_site_label
 _atom_site_symmetry_multiplicity
 _atom_site_fract_x
 _atom_site_fract_y
 _atom_site_fract_z
 _atom_site_occupancy
  Ho  Ho0  1  0.872335  0.238680  0.097562  1
  Ho  Ho1  1  0.122419  0.758022  0.902958  1
  Ho  Ho2  1  0.644935  0.741977  0.364397  1
  Ho  Ho3  1  0.358882  0.261319  0.633656  1
  Al  Al4  1  0.023706  0.750000  0.273705  1
  Al  Al5  1  0.461175  0.750000  0.711174  1
  Al  Al6  1  0.976379  0.250001  0.726378  1
  Si  Si7  1  0.538543  0.250001  0.288542  1
  Si  Si8  1  0.766267  0.750000  0.016267  1
  Si  Si9  1  0.236315  0.250001  0.986314  1
  Si  Si10  1  0.597224  0.159992  0.761477  1
  Si  Si11  1  0.396674  0.836182  0.234980  1
  Si  Si12  1  0.898795  0.663817  0.560492  1
  Si  Si13  1  0.101485  0.340009  0.437232  1
  Ir  Ir14  1  0.742466  0.250001  0.492466  1
  Ir  Ir15  1  0.837309  0.866660  0.762429  1
  Ir  Ir16  1  0.174197  0.138928  0.242592  1
  Ir  Ir17  1  0.251466  0.750000  0.501464  1
  Ir  Ir18  1  0.603663  0.361071  0.035268  1
  Ir  Ir19  1  0.395769  0.633339  0.970649  1
