# generated using pymatgen
data_Ho7PaAlPd24
_symmetry_space_group_name_H-M   'P 1'
_cell_length_a   8.30626530
_cell_length_b   8.30626542
_cell_length_c   8.30626600
_cell_angle_alpha   89.84271391
_cell_angle_beta   89.84271391
_cell_angle_gamma   89.84271729
_symmetry_Int_Tables_number   1
_chemical_formula_structural   Ho7PaAlPd24
_chemical_formula_sum   'Ho7 Pa1 Al1 Pd24'
_cell_volume   573.07641769
_cell_formula_units_Z   1
loop_
 _symmetry_equiv_pos_site_id
 _symmetry_equiv_pos_as_xyz
  1  'x, y, z'
loop_
 _atom_site_type_symbol
 _atom_site_label
 _atom_site_symmetry_multiplicity
 _atom_site_fract_x
 _atom_site_fract_y
 _atom_site_fract_z
 _atom_site_occupancy
  Ho  Ho0  1  0.747103  0.747104  0.747103  1
  Ho  Ho1  1  0.747677  0.747677  0.252280  1
  Ho  Ho2  1  0.747681  0.252279  0.747678  1
  Ho  Ho3  1  0.252466  0.252465  0.748733  1
  Ho  Ho4  1  0.252463  0.748731  0.252463  1
  Ho  Ho5  1  0.252280  0.747678  0.747677  1
  Ho  Ho6  1  0.748732  0.252465  0.252467  1
  Pa  Pa7  1  0.254801  0.254795  0.254803  1
  Al  Al8  1  0.997932  0.997929  0.997933  1
  Pd  Pd9  1  0.259164  0.497453  0.004461  1
  Pd  Pd10  1  0.741009  0.499024  0.000219  1
  Pd  Pd11  1  0.004458  0.259168  0.497457  1
  Pd  Pd12  1  0.497454  0.259167  0.004456  1
  Pd  Pd13  1  0.000216  0.741008  0.499022  1
  Pd  Pd14  1  0.499023  0.741007  0.000219  1
  Pd  Pd15  1  0.497451  0.004460  0.259164  1
  Pd  Pd16  1  0.259165  0.004459  0.497452  1
  Pd  Pd17  1  0.499026  0.000219  0.741009  1
  Pd  Pd18  1  0.741010  0.000218  0.499026  1
  Pd  Pd19  1  0.004461  0.497451  0.259163  1
  Pd  Pd20  1  0.000220  0.499022  0.741010  1
  Pd  Pd21  1  0.253070  0.497264  0.497264  1
  Pd  Pd22  1  0.747508  0.499407  0.499407  1
  Pd  Pd23  1  0.497259  0.253073  0.497261  1
  Pd  Pd24  1  0.499408  0.747508  0.499406  1
  Pd  Pd25  1  0.497267  0.497266  0.253068  1
  Pd  Pd26  1  0.499407  0.499405  0.747510  1
  Pd  Pd27  1  0.286425  0.002514  0.002504  1
  Pd  Pd28  1  0.711305  0.999772  0.999772  1
  Pd  Pd29  1  0.002509  0.286424  0.002507  1
  Pd  Pd30  1  0.999770  0.711301  0.999771  1
  Pd  Pd31  1  0.002506  0.002511  0.286425  1
  Pd  Pd32  1  0.999770  0.999772  0.711306  1
