# generated using pymatgen
data_PrEr2Pa(Al3Rh)6
_symmetry_space_group_name_H-M   'P 1'
_cell_length_a   7.59286868
_cell_length_b   7.57900203
_cell_length_c   9.44917900
_cell_angle_alpha   90.00000000
_cell_angle_beta   90.00000000
_cell_angle_gamma   119.46273228
_symmetry_Int_Tables_number   1
_chemical_formula_structural   PrEr2Pa(Al3Rh)6
_chemical_formula_sum   'Pr1 Er2 Pa1 Al18 Rh6'
_cell_volume   473.44383357
_cell_formula_units_Z   1
loop_
 _symmetry_equiv_pos_site_id
 _symmetry_equiv_pos_as_xyz
  1  'x, y, z'
loop_
 _atom_site_type_symbol
 _atom_site_label
 _atom_site_symmetry_multiplicity
 _atom_site_fract_x
 _atom_site_fract_y
 _atom_site_fract_z
 _atom_site_occupancy
  Pr  Pr0  1  0.672095  0.994549  0.750000  1
  Er  Er1  1  0.005675  0.328562  0.250000  1
  Er  Er2  1  0.327813  0.004168  0.250000  1
  Pa  Pa3  1  0.995666  0.671679  0.750000  1
  Al  Al4  1  0.134213  0.130605  0.750000  1
  Al  Al5  1  0.874485  0.874774  0.250000  1
  Al  Al6  1  0.002858  0.335210  0.572172  1
  Al  Al7  1  0.999681  0.664214  0.420071  1
  Al  Al8  1  0.999681  0.664214  0.079929  1
  Al  Al9  1  0.336248  0.003306  0.927612  1
  Al  Al10  1  0.002858  0.335210  0.927828  1
  Al  Al11  1  0.664530  0.000633  0.080415  1
  Al  Al12  1  0.664530  0.000633  0.419585  1
  Al  Al13  1  0.336248  0.003306  0.572388  1
  Al  Al14  1  0.332071  0.332035  0.056376  1
  Al  Al15  1  0.664050  0.664519  0.954473  1
  Al  Al16  1  0.664050  0.664519  0.545527  1
  Al  Al17  1  0.332071  0.332035  0.443624  1
  Al  Al18  1  0.335904  0.545360  0.750000  1
  Al  Al19  1  0.658982  0.447441  0.250000  1
  Al  Al20  1  0.548563  0.345046  0.750000  1
  Al  Al21  1  0.448296  0.659356  0.250000  1
  Rh  Rh22  1  0.673299  0.329675  0.500398  1
  Rh  Rh23  1  0.325731  0.671452  0.500340  1
  Rh  Rh24  1  0.325731  0.671452  0.999660  1
  Rh  Rh25  1  0.673299  0.329675  0.999602  1
  Rh  Rh26  1  0.000685  0.998188  0.500863  1
  Rh  Rh27  1  0.000685  0.998188  0.999137  1
