# generated using pymatgen
data_NaNdMoN3
_symmetry_space_group_name_H-M   'P 1'
_cell_length_a   6.15636408
_cell_length_b   6.15636394
_cell_length_c   12.19425674
_cell_angle_alpha   90.12419894
_cell_angle_beta   90.12420419
_cell_angle_gamma   122.07175671
_symmetry_Int_Tables_number   1
_chemical_formula_structural   NaNdMoN3
_chemical_formula_sum   'Na4 Nd4 Mo4 N12'
_cell_volume   391.63338296
_cell_formula_units_Z   4
loop_
 _symmetry_equiv_pos_site_id
 _symmetry_equiv_pos_as_xyz
  1  'x, y, z'
loop_
 _atom_site_type_symbol
 _atom_site_label
 _atom_site_symmetry_multiplicity
 _atom_site_fract_x
 _atom_site_fract_y
 _atom_site_fract_z
 _atom_site_occupancy
  Na  Na0  1  0.567529  0.986207  0.869462  1
  Na  Na1  1  0.013793  0.432471  0.630538  1
  Na  Na2  1  0.432471  0.013793  0.130538  1
  Na  Na3  1  0.986207  0.567529  0.369462  1
  Nd  Nd4  1  0.310939  0.099254  0.590565  1
  Nd  Nd5  1  0.900746  0.689061  0.909435  1
  Nd  Nd6  1  0.689061  0.900746  0.409435  1
  Nd  Nd7  1  0.099254  0.310939  0.090565  1
  Mo  Mo8  1  0.721293  0.743183  0.657995  1
  Mo  Mo9  1  0.256817  0.278707  0.842005  1
  Mo  Mo10  1  0.278707  0.256817  0.342005  1
  Mo  Mo11  1  0.743183  0.721293  0.157995  1
  N  N12  1  0.569247  0.430753  0.750000  1
  N  N13  1  0.430753  0.569247  0.250000  1
  N  N14  1  0.517922  0.862121  0.609763  1
  N  N15  1  0.137879  0.482078  0.890237  1
  N  N16  1  0.482078  0.137879  0.390237  1
  N  N17  1  0.862121  0.517922  0.109763  1
  N  N18  1  0.713716  0.880207  0.034575  1
  N  N19  1  0.119793  0.286284  0.465425  1
  N  N20  1  0.286284  0.119793  0.965425  1
  N  N21  1  0.880207  0.713716  0.534575  1
  N  N22  1  0.003552  0.996448  0.750000  1
  N  N23  1  0.996448  0.003552  0.250000  1
