# generated using pymatgen
data_Pr2Lu3Sn4
_symmetry_space_group_name_H-M   'P 1'
_cell_length_a   8.03066400
_cell_length_b   8.24261300
_cell_length_c   15.46586100
_cell_angle_alpha   90.00000000
_cell_angle_beta   90.00000000
_cell_angle_gamma   90.00000000
_symmetry_Int_Tables_number   1
_chemical_formula_structural   Pr2Lu3Sn4
_chemical_formula_sum   'Pr8 Lu12 Sn16'
_cell_volume   1023.74187481
_cell_formula_units_Z   4
loop_
 _symmetry_equiv_pos_site_id
 _symmetry_equiv_pos_as_xyz
  1  'x, y, z'
loop_
 _atom_site_type_symbol
 _atom_site_label
 _atom_site_symmetry_multiplicity
 _atom_site_fract_x
 _atom_site_fract_y
 _atom_site_fract_z
 _atom_site_occupancy
  Pr  Pr0  1  0.510036  0.324555  0.903930  1
  Pr  Pr1  1  0.010036  0.175445  0.596070  1
  Pr  Pr2  1  0.489964  0.675445  0.403930  1
  Pr  Pr3  1  0.989964  0.824555  0.096070  1
  Pr  Pr4  1  0.489964  0.675445  0.096070  1
  Pr  Pr5  1  0.989964  0.824555  0.403930  1
  Pr  Pr6  1  0.510036  0.324555  0.596070  1
  Pr  Pr7  1  0.010036  0.175445  0.903930  1
  Lu  Lu8  1  0.349351  0.835823  0.874931  1
  Lu  Lu9  1  0.849351  0.664177  0.625069  1
  Lu  Lu10  1  0.650649  0.164177  0.374931  1
  Lu  Lu11  1  0.150649  0.335823  0.125069  1
  Lu  Lu12  1  0.650649  0.164177  0.125069  1
  Lu  Lu13  1  0.150649  0.335823  0.374931  1
  Lu  Lu14  1  0.349351  0.835823  0.625069  1
  Lu  Lu15  1  0.849351  0.664177  0.874931  1
  Lu  Lu16  1  0.181948  0.503459  0.750000  1
  Lu  Lu17  1  0.681948  0.996541  0.750000  1
  Lu  Lu18  1  0.818052  0.496541  0.250000  1
  Lu  Lu19  1  0.318052  0.003459  0.250000  1
  Sn  Sn20  1  0.314274  0.042063  0.042032  1
  Sn  Sn21  1  0.814274  0.457937  0.457968  1
  Sn  Sn22  1  0.685726  0.957937  0.542032  1
  Sn  Sn23  1  0.185726  0.542063  0.957968  1
  Sn  Sn24  1  0.685726  0.957937  0.957968  1
  Sn  Sn25  1  0.185726  0.542063  0.542032  1
  Sn  Sn26  1  0.314274  0.042063  0.457968  1
  Sn  Sn27  1  0.814274  0.457937  0.042032  1
  Sn  Sn28  1  0.546028  0.626434  0.750000  1
  Sn  Sn29  1  0.046028  0.873566  0.750000  1
  Sn  Sn30  1  0.453972  0.373566  0.250000  1
  Sn  Sn31  1  0.953972  0.126434  0.250000  1
  Sn  Sn32  1  0.317230  0.143660  0.750000  1
  Sn  Sn33  1  0.817230  0.356340  0.750000  1
  Sn  Sn34  1  0.682770  0.856340  0.250000  1
  Sn  Sn35  1  0.182770  0.643660  0.250000  1
