# generated using pymatgen
data_HfZr3In5Co2
_symmetry_space_group_name_H-M   'P 1'
_cell_length_a   3.29040500
_cell_length_b   7.54928212
_cell_length_c   9.12005731
_cell_angle_alpha   85.35786836
_cell_angle_beta   90.00000000
_cell_angle_gamma   90.00000000
_symmetry_Int_Tables_number   1
_chemical_formula_structural   HfZr3In5Co2
_chemical_formula_sum   'Hf1 Zr3 In5 Co2'
_cell_volume   225.80086080
_cell_formula_units_Z   1
loop_
 _symmetry_equiv_pos_site_id
 _symmetry_equiv_pos_as_xyz
  1  'x, y, z'
loop_
 _atom_site_type_symbol
 _atom_site_label
 _atom_site_symmetry_multiplicity
 _atom_site_fract_x
 _atom_site_fract_y
 _atom_site_fract_z
 _atom_site_occupancy
  Hf  Hf0  1  0.500000  0.802871  0.440854  1
  Zr  Zr1  1  0.500000  0.183104  0.158610  1
  Zr  Zr2  1  0.500000  0.200643  0.559822  1
  Zr  Zr3  1  0.500000  0.815665  0.841081  1
  In  In4  1  0.000000  0.540965  0.666734  1
  In  In5  1  0.000000  0.158134  0.857930  1
  In  In6  1  0.000000  0.500149  0.000351  1
  In  In7  1  0.000000  0.841245  0.142478  1
  In  In8  1  0.000000  0.460736  0.332881  1
  Co  Co9  1  0.000000  0.074380  0.365980  1
  Co  Co10  1  0.000000  0.922109  0.633278  1
