# generated using pymatgen
data_Er3LuGa7Ag5
_symmetry_space_group_name_H-M   'P 1'
_cell_length_a   4.33315000
_cell_length_b   6.99412049
_cell_length_c   10.29988600
_cell_angle_alpha   90.02147940
_cell_angle_beta   90.00000000
_cell_angle_gamma   90.00000000
_symmetry_Int_Tables_number   1
_chemical_formula_structural   Er3LuGa7Ag5
_chemical_formula_sum   'Er3 Lu1 Ga7 Ag5'
_cell_volume   312.15422715
_cell_formula_units_Z   1
loop_
 _symmetry_equiv_pos_site_id
 _symmetry_equiv_pos_as_xyz
  1  'x, y, z'
loop_
 _atom_site_type_symbol
 _atom_site_label
 _atom_site_symmetry_multiplicity
 _atom_site_fract_x
 _atom_site_fract_y
 _atom_site_fract_z
 _atom_site_occupancy
  Er  Er0  1  0.500000  0.780422  0.173650  1
  Er  Er1  1  0.500000  0.275798  0.327017  1
  Er  Er2  1  0.000000  0.217160  0.827901  1
  Lu  Lu3  1  0.000000  0.725304  0.670086  1
  Ga  Ga4  1  0.500000  0.924378  0.845487  1
  Ga  Ga5  1  0.500000  0.429002  0.656804  1
  Ga  Ga6  1  0.000000  0.075313  0.153536  1
  Ga  Ga7  1  0.000000  0.573191  0.343614  1
  Ga  Ga8  1  0.500000  0.201650  0.034977  1
  Ga  Ga9  1  0.000000  0.301903  0.534759  1
  Ga  Ga10  1  0.000000  0.795113  0.963608  1
  Ag  Ag11  1  0.500000  0.542537  0.904192  1
  Ag  Ag12  1  0.500000  0.047926  0.600967  1
  Ag  Ag13  1  0.000000  0.455794  0.096400  1
  Ag  Ag14  1  0.000000  0.959443  0.402314  1
  Ag  Ag15  1  0.500000  0.695068  0.464688  1
