# generated using pymatgen
data_Yb3(Co4B3)2
_symmetry_space_group_name_H-M   'P 1'
_cell_length_a   9.24043015
_cell_length_b   8.43967949
_cell_length_c   5.21148658
_cell_angle_alpha   81.50001690
_cell_angle_beta   64.59670624
_cell_angle_gamma   33.90328321
_symmetry_Int_Tables_number   1
_chemical_formula_structural   Yb3(Co4B3)2
_chemical_formula_sum   'Yb3 Co8 B6'
_cell_volume   186.47322705
_cell_formula_units_Z   1
loop_
 _symmetry_equiv_pos_site_id
 _symmetry_equiv_pos_as_xyz
  1  'x, y, z'
loop_
 _atom_site_type_symbol
 _atom_site_label
 _atom_site_symmetry_multiplicity
 _atom_site_fract_x
 _atom_site_fract_y
 _atom_site_fract_z
 _atom_site_occupancy
  Yb  Yb0  1  0.681112  0.681112  0.318888  1
  Yb  Yb1  1  0.500000  0.500000  0.500000  1
  Yb  Yb2  1  0.318888  0.318888  0.681112  1
  Co  Co3  1  0.586110  0.586110  0.913890  1
  Co  Co4  1  0.083589  0.083589  0.916411  1
  Co  Co5  1  0.086110  0.086110  0.413890  1
  Co  Co6  1  0.250000  0.250000  0.250000  1
  Co  Co7  1  0.913890  0.913890  0.586110  1
  Co  Co8  1  0.413890  0.413890  0.086110  1
  Co  Co9  1  0.750000  0.750000  0.750000  1
  Co  Co10  1  0.916411  0.916411  0.083589  1
  B  B11  1  0.011987  0.329091  0.670909  1
  B  B12  1  0.988013  0.670909  0.329091  1
  B  B13  1  0.833275  0.166725  0.833275  1
  B  B14  1  0.329091  0.011987  0.988013  1
  B  B15  1  0.670909  0.988013  0.011987  1
  B  B16  1  0.166725  0.833275  0.166725  1
