# generated using pymatgen
data_Pr11NdRh3AuBr12
_symmetry_space_group_name_H-M   'P 1'
_cell_length_a   10.63486483
_cell_length_b   10.63083130
_cell_length_c   10.63416220
_cell_angle_alpha   109.86505086
_cell_angle_beta   109.71813132
_cell_angle_gamma   109.93580137
_symmetry_Int_Tables_number   1
_chemical_formula_structural   Pr11NdRh3AuBr12
_chemical_formula_sum   'Pr11 Nd1 Rh3 Au1 Br12'
_cell_volume   912.66310604
_cell_formula_units_Z   1
loop_
 _symmetry_equiv_pos_site_id
 _symmetry_equiv_pos_as_xyz
  1  'x, y, z'
loop_
 _atom_site_type_symbol
 _atom_site_label
 _atom_site_symmetry_multiplicity
 _atom_site_fract_x
 _atom_site_fract_y
 _atom_site_fract_z
 _atom_site_occupancy
  Pr  Pr0  1  0.750033  0.233799  0.266147  1
  Pr  Pr1  1  0.750043  0.013806  0.486316  1
  Pr  Pr2  1  0.231832  0.473076  0.492764  1
  Pr  Pr3  1  0.266401  0.749596  0.233713  1
  Pr  Pr4  1  0.027311  0.268473  0.007280  1
  Pr  Pr5  1  0.007085  0.026976  0.268249  1
  Pr  Pr6  1  0.485987  0.749566  0.013668  1
  Pr  Pr7  1  0.492840  0.231766  0.473112  1
  Pr  Pr8  1  0.013650  0.486170  0.749807  1
  Pr  Pr9  1  0.268501  0.007471  0.027039  1
  Pr  Pr10  1  0.233916  0.266453  0.750445  1
  Nd  Nd11  1  0.471982  0.492382  0.231130  1
  Rh  Rh12  1  0.501446  0.998514  0.249951  1
  Rh  Rh13  1  0.998408  0.250019  0.501609  1
  Rh  Rh14  1  0.250873  0.501584  0.999255  1
  Au  Au15  1  0.251079  0.250958  0.250115  1
  Br  Br16  1  0.249876  0.756280  0.743698  1
  Br  Br17  1  0.508321  0.502846  0.752931  1
  Br  Br18  1  0.991743  0.747157  0.997170  1
  Br  Br19  1  0.743740  0.250079  0.756269  1
  Br  Br20  1  0.997089  0.991685  0.747155  1
  Br  Br21  1  0.250028  0.997097  0.502915  1
  Br  Br22  1  0.752220  0.508284  0.502127  1
  Br  Br23  1  0.503103  0.251074  0.998068  1
  Br  Br24  1  0.755370  0.742845  0.250036  1
  Br  Br25  1  0.747029  0.997119  0.991672  1
  Br  Br26  1  0.996962  0.502935  0.249868  1
  Br  Br27  1  0.503128  0.751987  0.507492  1
