# generated using pymatgen
data_K(EuB8)3
_symmetry_space_group_name_H-M   'P 1'
_cell_length_a   4.17288900
_cell_length_b   4.17288900
_cell_length_c   16.70643600
_cell_angle_alpha   90.00000000
_cell_angle_beta   90.00000000
_cell_angle_gamma   90.00000000
_symmetry_Int_Tables_number   1
_chemical_formula_structural   K(EuB8)3
_chemical_formula_sum   'K1 Eu3 B24'
_cell_volume   290.90921361
_cell_formula_units_Z   1
loop_
 _symmetry_equiv_pos_site_id
 _symmetry_equiv_pos_as_xyz
  1  'x, y, z'
loop_
 _atom_site_type_symbol
 _atom_site_label
 _atom_site_symmetry_multiplicity
 _atom_site_fract_x
 _atom_site_fract_y
 _atom_site_fract_z
 _atom_site_occupancy
  K  K0  1  0.000000  0.000000  0.000000  1
  Eu  Eu1  1  0.000000  0.000000  0.243397  1
  Eu  Eu2  1  0.000000  0.000000  0.500000  1
  Eu  Eu3  1  0.000000  0.000000  0.756603  1
  B  B4  1  0.201676  0.500000  0.126524  1
  B  B5  1  0.201304  0.500000  0.375260  1
  B  B6  1  0.201304  0.500000  0.624740  1
  B  B7  1  0.201676  0.500000  0.873476  1
  B  B8  1  0.500000  0.500000  0.200921  1
  B  B9  1  0.500000  0.500000  0.449795  1
  B  B10  1  0.500000  0.500000  0.699143  1
  B  B11  1  0.500000  0.500000  0.948729  1
  B  B12  1  0.500000  0.201676  0.126524  1
  B  B13  1  0.500000  0.201304  0.375260  1
  B  B14  1  0.500000  0.201304  0.624740  1
  B  B15  1  0.500000  0.201676  0.873476  1
  B  B16  1  0.500000  0.500000  0.051271  1
  B  B17  1  0.500000  0.500000  0.300857  1
  B  B18  1  0.500000  0.500000  0.550205  1
  B  B19  1  0.500000  0.500000  0.799079  1
  B  B20  1  0.500000  0.798324  0.126524  1
  B  B21  1  0.500000  0.798696  0.375260  1
  B  B22  1  0.500000  0.798696  0.624740  1
  B  B23  1  0.500000  0.798324  0.873476  1
  B  B24  1  0.798324  0.500000  0.126524  1
  B  B25  1  0.798696  0.500000  0.375260  1
  B  B26  1  0.798696  0.500000  0.624740  1
  B  B27  1  0.798324  0.500000  0.873476  1
