# generated using pymatgen
data_Ho3Co3Si7
_symmetry_space_group_name_H-M   'P 1'
_cell_length_a   12.82551195
_cell_length_b   12.82551156
_cell_length_c   3.99766200
_cell_angle_alpha   90.00000000
_cell_angle_beta   90.00000000
_cell_angle_gamma   161.71373061
_symmetry_Int_Tables_number   1
_chemical_formula_structural   Ho3Co3Si7
_chemical_formula_sum   'Ho3 Co3 Si7'
_cell_volume   206.32880743
_cell_formula_units_Z   1
loop_
 _symmetry_equiv_pos_site_id
 _symmetry_equiv_pos_as_xyz
  1  'x, y, z'
loop_
 _atom_site_type_symbol
 _atom_site_label
 _atom_site_symmetry_multiplicity
 _atom_site_fract_x
 _atom_site_fract_y
 _atom_site_fract_z
 _atom_site_occupancy
  Ho  Ho0  1  0.003236  0.996764  0.000000  1
  Ho  Ho1  1  0.687196  0.312804  0.500000  1
  Ho  Ho2  1  0.317171  0.682829  0.500000  1
  Co  Co3  1  0.863908  0.136092  0.000000  1
  Co  Co4  1  0.135422  0.864578  0.000000  1
  Co  Co5  1  0.450828  0.549172  0.500000  1
  Si  Si6  1  0.595308  0.404692  0.000000  1
  Si  Si7  1  0.407616  0.592384  0.000000  1
  Si  Si8  1  0.775301  0.224699  0.000000  1
  Si  Si9  1  0.226245  0.773755  0.000000  1
  Si  Si10  1  0.907900  0.092100  0.500000  1
  Si  Si11  1  0.093707  0.906293  0.500000  1
  Si  Si12  1  0.536163  0.463837  0.500000  1
