# generated using pymatgen
data_Th2Al18NiPd5
_symmetry_space_group_name_H-M   'P 1'
_cell_length_a   10.37327835
_cell_length_b   10.38014810
_cell_length_c   10.36577115
_cell_angle_alpha   42.57635299
_cell_angle_beta   42.56092651
_cell_angle_gamma   42.57237301
_symmetry_Int_Tables_number   1
_chemical_formula_structural   Th2Al18NiPd5
_chemical_formula_sum   'Th2 Al18 Ni1 Pd5'
_cell_volume   462.57631558
_cell_formula_units_Z   1
loop_
 _symmetry_equiv_pos_site_id
 _symmetry_equiv_pos_as_xyz
  1  'x, y, z'
loop_
 _atom_site_type_symbol
 _atom_site_label
 _atom_site_symmetry_multiplicity
 _atom_site_fract_x
 _atom_site_fract_y
 _atom_site_fract_z
 _atom_site_occupancy
  Th  Th0  1  0.167432  0.167091  0.167531  1
  Th  Th1  1  0.833396  0.833765  0.834277  1
  Al  Al2  1  0.047480  0.050215  0.048776  1
  Al  Al3  1  0.699691  0.499217  0.300494  1
  Al  Al4  1  0.663644  0.332133  0.996273  1
  Al  Al5  1  0.108191  0.432062  0.757053  1
  Al  Al6  1  0.432275  0.756941  0.107593  1
  Al  Al7  1  0.384383  0.382699  0.381895  1
  Al  Al8  1  0.335309  0.000095  0.664849  1
  Al  Al9  1  0.615770  0.612831  0.619573  1
  Al  Al10  1  0.251717  0.560930  0.893060  1
  Al  Al11  1  0.568985  0.902025  0.235269  1
  Al  Al12  1  0.502373  0.298643  0.705873  1
  Al  Al13  1  0.756664  0.108517  0.432233  1
  Al  Al14  1  0.944231  0.956111  0.950542  1
  Al  Al15  1  0.301014  0.698799  0.500612  1
  Al  Al16  1  0.000364  0.665165  0.334150  1
  Al  Al17  1  0.714500  0.714198  0.716584  1
  Al  Al18  1  0.289572  0.283963  0.278493  1
  Al  Al19  1  0.885257  0.243902  0.576548  1
  Ni  Ni20  1  0.581140  0.239406  0.922974  1
  Pd  Pd21  1  0.239040  0.923822  0.581079  1
  Pd  Pd22  1  0.923389  0.581324  0.238919  1
  Pd  Pd23  1  0.758989  0.417656  0.075924  1
  Pd  Pd24  1  0.076153  0.760953  0.418780  1
  Pd  Pd25  1  0.419043  0.077539  0.760646  1
