# generated using pymatgen
data_Ti4CuSi2Rh9
_symmetry_space_group_name_H-M   'P 1'
_cell_length_a   3.97558600
_cell_length_b   5.37120123
_cell_length_c   10.50020036
_cell_angle_alpha   91.60622619
_cell_angle_beta   90.00000000
_cell_angle_gamma   90.00000000
_symmetry_Int_Tables_number   1
_chemical_formula_structural   Ti4CuSi2Rh9
_chemical_formula_sum   'Ti4 Cu1 Si2 Rh9'
_cell_volume   224.12973790
_cell_formula_units_Z   1
loop_
 _symmetry_equiv_pos_site_id
 _symmetry_equiv_pos_as_xyz
  1  'x, y, z'
loop_
 _atom_site_type_symbol
 _atom_site_label
 _atom_site_symmetry_multiplicity
 _atom_site_fract_x
 _atom_site_fract_y
 _atom_site_fract_z
 _atom_site_occupancy
  Ti  Ti0  1  0.500000  0.348233  0.139694  1
  Ti  Ti1  1  0.500000  0.678676  0.857475  1
  Ti  Ti2  1  0.500000  0.815871  0.362787  1
  Ti  Ti3  1  0.500000  0.166988  0.641930  1
  Cu  Cu4  1  0.000000  0.076496  0.245838  1
  Si  Si5  1  0.000000  0.007189  0.997488  1
  Si  Si6  1  0.000000  0.483364  0.499917  1
  Rh  Rh7  1  0.000000  0.982977  0.495735  1
  Rh  Rh8  1  0.000000  0.512054  0.001024  1
  Rh  Rh9  1  0.000000  0.917740  0.760661  1
  Rh  Rh10  1  0.000000  0.580293  0.260347  1
  Rh  Rh11  1  0.000000  0.416114  0.737197  1
  Rh  Rh12  1  0.500000  0.303021  0.390009  1
  Rh  Rh13  1  0.500000  0.676572  0.604159  1
  Rh  Rh14  1  0.500000  0.842843  0.110165  1
  Rh  Rh15  1  0.500000  0.191569  0.895575  1
