# generated using pymatgen
data_Zr4Co8GeP5
_symmetry_space_group_name_H-M   'P 1'
_cell_length_a   12.22484802
_cell_length_b   12.22253268
_cell_length_c   3.67149900
_cell_angle_alpha   90.00000000
_cell_angle_beta   90.00000000
_cell_angle_gamma   119.99373115
_symmetry_Int_Tables_number   1
_chemical_formula_structural   Zr4Co8GeP5
_chemical_formula_sum   'Zr8 Co16 Ge2 P10'
_cell_volume   475.12310690
_cell_formula_units_Z   2
loop_
 _symmetry_equiv_pos_site_id
 _symmetry_equiv_pos_as_xyz
  1  'x, y, z'
loop_
 _atom_site_type_symbol
 _atom_site_label
 _atom_site_symmetry_multiplicity
 _atom_site_fract_x
 _atom_site_fract_y
 _atom_site_fract_z
 _atom_site_occupancy
  Zr  Zr0  1  0.441363  0.443089  0.000000  1
  Zr  Zr1  1  0.558637  0.001726  0.000000  1
  Zr  Zr2  1  0.000000  0.553233  0.000000  1
  Zr  Zr3  1  0.667138  0.333965  0.000000  1
  Zr  Zr4  1  0.332862  0.666827  0.000000  1
  Zr  Zr5  1  0.830212  0.829849  0.500000  1
  Zr  Zr6  1  0.169788  0.999636  0.500000  1
  Zr  Zr7  1  0.000000  0.176142  0.500000  1
  Co  Co8  1  0.191908  0.370344  0.000000  1
  Co  Co9  1  0.171879  0.797997  0.000000  1
  Co  Co10  1  0.828121  0.626118  0.000000  1
  Co  Co11  1  0.808092  0.178437  0.000000  1
  Co  Co12  1  0.372264  0.201065  0.000000  1
  Co  Co13  1  0.125804  0.479010  0.500000  1
  Co  Co14  1  0.355615  0.868550  0.500000  1
  Co  Co15  1  0.512204  0.644312  0.500000  1
  Co  Co16  1  0.644385  0.512935  0.500000  1
  Co  Co17  1  0.874196  0.353208  0.500000  1
  Co  Co18  1  0.487796  0.132109  0.500000  1
  Co  Co19  1  0.000000  0.000183  0.000000  1
  Co  Co20  1  0.724658  0.003242  0.500000  1
  Co  Co21  1  0.000000  0.721461  0.500000  1
  Co  Co22  1  0.627736  0.828801  0.000000  1
  Co  Co23  1  0.275342  0.278583  0.500000  1
  Ge  Ge24  1  0.656719  0.656370  0.000000  1
  Ge  Ge25  1  0.343281  0.999651  0.000000  1
  P  P26  1  0.000000  0.344162  0.000000  1
  P  P27  1  0.481166  0.308204  0.500000  1
  P  P28  1  0.693508  0.174684  0.500000  1
  P  P29  1  0.826898  0.517822  0.500000  1
  P  P30  1  0.518834  0.827038  0.500000  1
  P  P31  1  0.173102  0.690925  0.500000  1
  P  P32  1  0.825196  0.000281  0.000000  1
  P  P33  1  0.000000  0.823786  0.000000  1
  P  P34  1  0.306492  0.481176  0.500000  1
  P  P35  1  0.174804  0.175084  0.000000  1
