# generated using pymatgen
data_Ho7Lu3(SiPb3)2
_symmetry_space_group_name_H-M   'P 1'
_cell_length_a   9.23871100
_cell_length_b   9.23870952
_cell_length_c   6.47521500
_cell_angle_alpha   90.00000000
_cell_angle_beta   90.00000000
_cell_angle_gamma   120.00000173
_symmetry_Int_Tables_number   1
_chemical_formula_structural   Ho7Lu3(SiPb3)2
_chemical_formula_sum   'Ho7 Lu3 Si2 Pb6'
_cell_volume   478.63837065
_cell_formula_units_Z   1
loop_
 _symmetry_equiv_pos_site_id
 _symmetry_equiv_pos_as_xyz
  1  'x, y, z'
loop_
 _atom_site_type_symbol
 _atom_site_label
 _atom_site_symmetry_multiplicity
 _atom_site_fract_x
 _atom_site_fract_y
 _atom_site_fract_z
 _atom_site_occupancy
  Ho  Ho0  1  0.249423  0.000177  0.749754  1
  Ho  Ho1  1  0.750754  0.000177  0.250246  1
  Ho  Ho2  1  0.999823  0.249246  0.749754  1
  Ho  Ho3  1  0.999823  0.750577  0.250246  1
  Ho  Ho4  1  0.750754  0.750577  0.749754  1
  Ho  Ho5  1  0.249423  0.249246  0.250246  1
  Ho  Ho6  1  0.333333  0.666667  0.500000  1
  Lu  Lu7  1  0.666667  0.333333  0.500000  1
  Lu  Lu8  1  0.666667  0.333333  0.000000  1
  Lu  Lu9  1  0.333333  0.666667  0.000000  1
  Si  Si10  1  0.000000  0.000000  0.500000  1
  Si  Si11  1  0.000000  0.000000  0.000000  1
  Pb  Pb12  1  0.605035  0.000417  0.750124  1
  Pb  Pb13  1  0.395381  0.000417  0.249876  1
  Pb  Pb14  1  0.999583  0.604619  0.750124  1
  Pb  Pb15  1  0.999583  0.394965  0.249876  1
  Pb  Pb16  1  0.395381  0.394965  0.750124  1
  Pb  Pb17  1  0.605035  0.604619  0.249876  1
