# generated using pymatgen
data_Er5P12Ir(OsRh5)3
_symmetry_space_group_name_H-M   'P 1'
_cell_length_a   12.67530900
_cell_length_b   12.67530873
_cell_length_c   3.93374300
_cell_angle_alpha   90.00000000
_cell_angle_beta   90.00000000
_cell_angle_gamma   120.00000330
_symmetry_Int_Tables_number   1
_chemical_formula_structural   Er5P12Ir(OsRh5)3
_chemical_formula_sum   'Er5 P12 Ir1 Os3 Rh15'
_cell_volume   547.33560692
_cell_formula_units_Z   1
loop_
 _symmetry_equiv_pos_site_id
 _symmetry_equiv_pos_as_xyz
  1  'x, y, z'
loop_
 _atom_site_type_symbol
 _atom_site_label
 _atom_site_symmetry_multiplicity
 _atom_site_fract_x
 _atom_site_fract_y
 _atom_site_fract_z
 _atom_site_occupancy
  Er  Er0  1  0.666667  0.333333  0.000000  1
  Er  Er1  1  0.333333  0.666667  0.000000  1
  Er  Er2  1  0.816515  0.816515  0.500000  1
  Er  Er3  1  0.183485  0.000000  0.500000  1
  Er  Er4  1  0.000000  0.183485  0.500000  1
  P  P5  1  0.686721  0.168404  0.500000  1
  P  P6  1  0.831596  0.518316  0.500000  1
  P  P7  1  0.481684  0.313279  0.500000  1
  P  P8  1  0.168404  0.686721  0.500000  1
  P  P9  1  0.518316  0.831596  0.500000  1
  P  P10  1  0.313279  0.481684  0.500000  1
  P  P11  1  0.637058  0.637058  0.000000  1
  P  P12  1  0.362942  0.000000  0.000000  1
  P  P13  1  0.000000  0.362942  0.000000  1
  P  P14  1  0.181449  0.181449  0.000000  1
  P  P15  1  0.818551  0.000000  0.000000  1
  P  P16  1  0.000000  0.818551  0.000000  1
  Ir  Ir17  1  0.000000  0.000000  0.000000  1
  Os  Os18  1  0.284572  0.284572  0.500000  1
  Os  Os19  1  0.715428  0.000000  0.500000  1
  Os  Os20  1  0.000000  0.715428  0.500000  1
  Rh  Rh21  1  0.805073  0.182338  0.000000  1
  Rh  Rh22  1  0.817662  0.622735  0.000000  1
  Rh  Rh23  1  0.377265  0.194927  0.000000  1
  Rh  Rh24  1  0.182338  0.805073  0.000000  1
  Rh  Rh25  1  0.622735  0.817662  0.000000  1
  Rh  Rh26  1  0.194927  0.377265  0.000000  1
  Rh  Rh27  1  0.453612  0.453612  0.000000  1
  Rh  Rh28  1  0.546388  0.000000  0.000000  1
  Rh  Rh29  1  0.000000  0.546388  0.000000  1
  Rh  Rh30  1  0.868684  0.359324  0.500000  1
  Rh  Rh31  1  0.640676  0.509361  0.500000  1
  Rh  Rh32  1  0.490639  0.131316  0.500000  1
  Rh  Rh33  1  0.359324  0.868684  0.500000  1
  Rh  Rh34  1  0.509361  0.640676  0.500000  1
  Rh  Rh35  1  0.131316  0.490639  0.500000  1
