# generated using pymatgen
data_Zr6Al16CoPd6
_symmetry_space_group_name_H-M   'P 1'
_cell_length_a   8.75335542
_cell_length_b   8.75335574
_cell_length_c   8.75335500
_cell_angle_alpha   59.99999900
_cell_angle_beta   59.99999783
_cell_angle_gamma   59.99999973
_symmetry_Int_Tables_number   1
_chemical_formula_structural   Zr6Al16CoPd6
_chemical_formula_sum   'Zr6 Al16 Co1 Pd6'
_cell_volume   474.25145772
_cell_formula_units_Z   1
loop_
 _symmetry_equiv_pos_site_id
 _symmetry_equiv_pos_as_xyz
  1  'x, y, z'
loop_
 _atom_site_type_symbol
 _atom_site_label
 _atom_site_symmetry_multiplicity
 _atom_site_fract_x
 _atom_site_fract_y
 _atom_site_fract_z
 _atom_site_occupancy
  Zr  Zr0  1  0.687306  0.312694  0.312694  1
  Zr  Zr1  1  0.687306  0.312694  0.687306  1
  Zr  Zr2  1  0.687306  0.687306  0.312694  1
  Zr  Zr3  1  0.312694  0.687306  0.687306  1
  Zr  Zr4  1  0.312694  0.687306  0.312694  1
  Zr  Zr5  1  0.312694  0.312694  0.687306  1
  Al  Al6  1  0.650757  0.116415  0.116415  1
  Al  Al7  1  0.116415  0.650757  0.116415  1
  Al  Al8  1  0.116415  0.116415  0.650757  1
  Al  Al9  1  0.116415  0.116415  0.116415  1
  Al  Al10  1  0.349243  0.883585  0.883585  1
  Al  Al11  1  0.883585  0.349243  0.883585  1
  Al  Al12  1  0.883585  0.883585  0.349243  1
  Al  Al13  1  0.883585  0.883585  0.883585  1
  Al  Al14  1  0.998685  0.333772  0.333772  1
  Al  Al15  1  0.333772  0.998685  0.333772  1
  Al  Al16  1  0.333772  0.333772  0.998685  1
  Al  Al17  1  0.333772  0.333772  0.333772  1
  Al  Al18  1  0.001315  0.666228  0.666228  1
  Al  Al19  1  0.666228  0.001315  0.666228  1
  Al  Al20  1  0.666228  0.666228  0.001315  1
  Al  Al21  1  0.666228  0.666228  0.666228  1
  Co  Co22  1  0.000000  0.000000  0.000000  1
  Pd  Pd23  1  0.500000  0.000000  0.000000  1
  Pd  Pd24  1  0.500000  0.000000  0.500000  1
  Pd  Pd25  1  0.500000  0.500000  0.000000  1
  Pd  Pd26  1  0.000000  0.500000  0.500000  1
  Pd  Pd27  1  0.000000  0.500000  0.000000  1
  Pd  Pd28  1  0.000000  0.000000  0.500000  1
