# generated using pymatgen
data_CsIrOF4
_symmetry_space_group_name_H-M   'P 1'
_cell_length_a   6.84924600
_cell_length_b   5.28924855
_cell_length_c   15.27402407
_cell_angle_alpha   81.90514769
_cell_angle_beta   90.00000000
_cell_angle_gamma   90.00000000
_symmetry_Int_Tables_number   1
_chemical_formula_structural   CsIrOF4
_chemical_formula_sum   'Cs4 Ir4 O4 F16'
_cell_volume   547.82435330
_cell_formula_units_Z   4
loop_
 _symmetry_equiv_pos_site_id
 _symmetry_equiv_pos_as_xyz
  1  'x, y, z'
loop_
 _atom_site_type_symbol
 _atom_site_label
 _atom_site_symmetry_multiplicity
 _atom_site_fract_x
 _atom_site_fract_y
 _atom_site_fract_z
 _atom_site_occupancy
  Cs  Cs0  1  0.119260  0.408004  0.657286  1
  Cs  Cs1  1  0.380740  0.408004  0.157286  1
  Cs  Cs2  1  0.619260  0.591996  0.842714  1
  Cs  Cs3  1  0.880740  0.591996  0.342714  1
  Ir  Ir4  1  0.113665  0.971098  0.916173  1
  Ir  Ir5  1  0.613665  0.028902  0.583827  1
  Ir  Ir6  1  0.886335  0.028902  0.083827  1
  Ir  Ir7  1  0.386335  0.971098  0.416173  1
  O  O8  1  0.079774  0.189055  0.004646  1
  O  O9  1  0.579774  0.810945  0.495354  1
  O  O10  1  0.420226  0.189055  0.504646  1
  O  O11  1  0.920226  0.810945  0.995354  1
  F  F12  1  0.671754  0.215490  0.020973  1
  F  F13  1  0.687613  0.831362  0.156352  1
  F  F14  1  0.312387  0.168638  0.843648  1
  F  F15  1  0.582369  0.148356  0.337326  1
  F  F16  1  0.082369  0.851644  0.162674  1
  F  F17  1  0.122213  0.719561  0.833974  1
  F  F18  1  0.377787  0.719561  0.333974  1
  F  F19  1  0.187613  0.168638  0.343648  1
  F  F20  1  0.171754  0.784510  0.479027  1
  F  F21  1  0.328246  0.784510  0.979027  1
  F  F22  1  0.877787  0.280439  0.166026  1
  F  F23  1  0.417631  0.851644  0.662674  1
  F  F24  1  0.917631  0.148356  0.837326  1
  F  F25  1  0.828246  0.215490  0.520973  1
  F  F26  1  0.622213  0.280439  0.666026  1
  F  F27  1  0.812387  0.831362  0.656352  1
