# generated using pymatgen
data_Na2Mn2CrNi9As7
_symmetry_space_group_name_H-M   'P 1'
_cell_length_a   9.50730145
_cell_length_b   9.51145251
_cell_length_c   3.77853200
_cell_angle_alpha   90.00000000
_cell_angle_beta   90.00000000
_cell_angle_gamma   120.17866208
_symmetry_Int_Tables_number   1
_chemical_formula_structural   Na2Mn2CrNi9As7
_chemical_formula_sum   'Na2 Mn2 Cr1 Ni9 As7'
_cell_volume   295.37460774
_cell_formula_units_Z   1
loop_
 _symmetry_equiv_pos_site_id
 _symmetry_equiv_pos_as_xyz
  1  'x, y, z'
loop_
 _atom_site_type_symbol
 _atom_site_label
 _atom_site_symmetry_multiplicity
 _atom_site_fract_x
 _atom_site_fract_y
 _atom_site_fract_z
 _atom_site_occupancy
  Na  Na0  1  0.333341  0.666754  0.000000  1
  Na  Na1  1  0.666242  0.332977  0.500000  1
  Mn  Mn2  1  0.876677  0.096969  0.500000  1
  Mn  Mn3  1  0.902705  0.779619  0.500000  1
  Cr  Cr4  1  0.218793  0.123246  0.500000  1
  Ni  Ni5  1  0.121357  0.281061  0.000000  1
  Ni  Ni6  1  0.720659  0.841514  0.000000  1
  Ni  Ni7  1  0.158303  0.878255  0.000000  1
  Ni  Ni8  1  0.429409  0.374223  0.000000  1
  Ni  Ni9  1  0.624520  0.054452  0.000000  1
  Ni  Ni10  1  0.944993  0.569786  0.000000  1
  Ni  Ni11  1  0.047904  0.429280  0.500000  1
  Ni  Ni12  1  0.571077  0.618361  0.500000  1
  Ni  Ni13  1  0.382430  0.952338  0.500000  1
  As  As14  1  0.293743  0.413062  0.500000  1
  As  As15  1  0.586943  0.880585  0.500000  1
  As  As16  1  0.119454  0.706664  0.500000  1
  As  As17  1  0.414084  0.120207  0.000000  1
  As  As18  1  0.879618  0.294969  0.000000  1
  As  As19  1  0.705814  0.584812  0.000000  1
  As  As20  1  0.001933  0.000870  0.000000  1
