# generated using pymatgen
data_SmEr5U4O20
_symmetry_space_group_name_H-M   'P 1'
_cell_length_a   6.63317301
_cell_length_b   7.48268522
_cell_length_c   8.39922530
_cell_angle_alpha   100.76075472
_cell_angle_beta   97.77990113
_cell_angle_gamma   107.32743507
_symmetry_Int_Tables_number   1
_chemical_formula_structural   SmEr5U4O20
_chemical_formula_sum   'Sm1 Er5 U4 O20'
_cell_volume   382.77748063
_cell_formula_units_Z   1
loop_
 _symmetry_equiv_pos_site_id
 _symmetry_equiv_pos_as_xyz
  1  'x, y, z'
loop_
 _atom_site_type_symbol
 _atom_site_label
 _atom_site_symmetry_multiplicity
 _atom_site_fract_x
 _atom_site_fract_y
 _atom_site_fract_z
 _atom_site_occupancy
  Sm  Sm0  1  0.000000  0.500000  0.500000  1
  Er  Er1  1  0.615257  0.705144  0.699791  1
  Er  Er2  1  0.384743  0.294856  0.300209  1
  Er  Er3  1  0.197363  0.897450  0.892551  1
  Er  Er4  1  0.802637  0.102550  0.107449  1
  Er  Er5  1  0.000000  0.000000  0.500000  1
  U  U6  1  0.403285  0.805464  0.301792  1
  U  U7  1  0.199250  0.399510  0.900233  1
  U  U8  1  0.800750  0.600490  0.099767  1
  U  U9  1  0.596715  0.194536  0.698208  1
  O  O10  1  0.439599  0.530533  0.138125  1
  O  O11  1  0.554765  0.985382  0.842144  1
  O  O12  1  0.267477  0.142202  0.744975  1
  O  O13  1  0.364747  0.593465  0.442083  1
  O  O14  1  0.054384  0.732400  0.332578  1
  O  O15  1  0.445235  0.014618  0.157856  1
  O  O16  1  0.149768  0.181712  0.032672  1
  O  O17  1  0.560401  0.469467  0.861875  1
  O  O18  1  0.853904  0.335226  0.951135  1
  O  O19  1  0.260748  0.610216  0.762263  1
  O  O20  1  0.952751  0.778655  0.656059  1
  O  O21  1  0.353410  0.063598  0.453262  1
  O  O22  1  0.646590  0.936402  0.546738  1
  O  O23  1  0.047249  0.221345  0.343941  1
  O  O24  1  0.739252  0.389784  0.237737  1
  O  O25  1  0.146096  0.664774  0.048865  1
  O  O26  1  0.850232  0.818288  0.967328  1
  O  O27  1  0.945616  0.267600  0.667422  1
  O  O28  1  0.635253  0.406535  0.557917  1
  O  O29  1  0.732523  0.857798  0.255025  1
