# generated using pymatgen
data_Rb2Fe2Sb2O7
_symmetry_space_group_name_H-M   'P 1'
_cell_length_a   5.96759700
_cell_length_b   5.96759623
_cell_length_c   8.70757100
_cell_angle_alpha   89.99997571
_cell_angle_beta   90.00000658
_cell_angle_gamma   119.99999873
_symmetry_Int_Tables_number   1
_chemical_formula_structural   Rb2Fe2Sb2O7
_chemical_formula_sum   'Rb2 Fe2 Sb2 O7'
_cell_volume   268.55087971
_cell_formula_units_Z   1
loop_
 _symmetry_equiv_pos_site_id
 _symmetry_equiv_pos_as_xyz
  1  'x, y, z'
loop_
 _atom_site_type_symbol
 _atom_site_label
 _atom_site_symmetry_multiplicity
 _atom_site_fract_x
 _atom_site_fract_y
 _atom_site_fract_z
 _atom_site_occupancy
  Rb  Rb0  1  0.333333  0.666666  0.098389  1
  Rb  Rb1  1  0.666666  0.333333  0.901611  1
  Fe  Fe2  1  0.000000  0.000000  0.287236  1
  Fe  Fe3  1  0.999999  0.000000  0.712763  1
  Sb  Sb4  1  0.666666  0.333333  0.332646  1
  Sb  Sb5  1  0.333333  0.666666  0.667354  1
  O  O6  1  0.346349  0.173176  0.208369  1
  O  O7  1  0.826825  0.173176  0.208369  1
  O  O8  1  0.826825  0.653652  0.208369  1
  O  O9  1  0.000000  0.000000  0.500000  1
  O  O10  1  0.173175  0.346348  0.791630  1
  O  O11  1  0.173175  0.826825  0.791630  1
  O  O12  1  0.653651  0.826825  0.791630  1
