# generated using pymatgen
data_Dy2Lu8Si5P
_symmetry_space_group_name_H-M   'P 1'
_cell_length_a   8.24796868
_cell_length_b   8.26928460
_cell_length_c   6.14778800
_cell_angle_alpha   90.00000000
_cell_angle_beta   90.00000000
_cell_angle_gamma   120.02285154
_symmetry_Int_Tables_number   1
_chemical_formula_structural   Dy2Lu8Si5P
_chemical_formula_sum   'Dy2 Lu8 Si5 P1'
_cell_volume   363.04829966
_cell_formula_units_Z   1
loop_
 _symmetry_equiv_pos_site_id
 _symmetry_equiv_pos_as_xyz
  1  'x, y, z'
loop_
 _atom_site_type_symbol
 _atom_site_label
 _atom_site_symmetry_multiplicity
 _atom_site_fract_x
 _atom_site_fract_y
 _atom_site_fract_z
 _atom_site_occupancy
  Dy  Dy0  1  0.754865  0.000029  0.750000  1
  Dy  Dy1  1  0.243782  0.242979  0.750000  1
  Lu  Lu2  1  0.000830  0.756171  0.750000  1
  Lu  Lu3  1  0.001088  0.244870  0.250000  1
  Lu  Lu4  1  0.757537  0.756009  0.250000  1
  Lu  Lu5  1  0.243141  0.999533  0.250000  1
  Lu  Lu6  1  0.666590  0.332865  0.000024  1
  Lu  Lu7  1  0.333437  0.667613  0.500081  1
  Lu  Lu8  1  0.333437  0.667613  0.999919  1
  Lu  Lu9  1  0.666590  0.332865  0.499976  1
  Si  Si10  1  0.394516  0.393569  0.250000  1
  Si  Si11  1  0.000899  0.606008  0.250000  1
  Si  Si12  1  0.000164  0.397144  0.750000  1
  Si  Si13  1  0.607146  0.605381  0.750000  1
  Si  Si14  1  0.607128  0.999887  0.250000  1
  P  P15  1  0.388850  0.997464  0.750000  1
