# generated using pymatgen
data_TbHo9(Tl3Br)2
_symmetry_space_group_name_H-M   'P 1'
_cell_length_a   9.16578900
_cell_length_b   9.16578919
_cell_length_c   6.74398700
_cell_angle_alpha   90.00000000
_cell_angle_beta   90.00000000
_cell_angle_gamma   120.01379044
_symmetry_Int_Tables_number   1
_chemical_formula_structural   TbHo9(Tl3Br)2
_chemical_formula_sum   'Tb1 Ho9 Tl6 Br2'
_cell_volume   490.59905654
_cell_formula_units_Z   1
loop_
 _symmetry_equiv_pos_site_id
 _symmetry_equiv_pos_as_xyz
  1  'x, y, z'
loop_
 _atom_site_type_symbol
 _atom_site_label
 _atom_site_symmetry_multiplicity
 _atom_site_fract_x
 _atom_site_fract_y
 _atom_site_fract_z
 _atom_site_occupancy
  Tb  Tb0  1  0.733878  0.733878  0.250000  1
  Ho  Ho1  1  0.000038  0.733610  0.750000  1
  Ho  Ho2  1  0.733610  0.000038  0.750000  1
  Ho  Ho3  1  0.333136  0.666583  0.500082  1
  Ho  Ho4  1  0.266575  0.266575  0.750000  1
  Ho  Ho5  1  0.999988  0.266322  0.250000  1
  Ho  Ho6  1  0.666583  0.333136  0.500082  1
  Ho  Ho7  1  0.266322  0.999988  0.250000  1
  Ho  Ho8  1  0.333136  0.666583  0.999918  1
  Ho  Ho9  1  0.666583  0.333136  0.999918  1
  Tl  Tl10  1  0.392806  0.999918  0.750000  1
  Tl  Tl11  1  0.000504  0.606996  0.250000  1
  Tl  Tl12  1  0.606996  0.000504  0.250000  1
  Tl  Tl13  1  0.999918  0.392806  0.750000  1
  Tl  Tl14  1  0.392425  0.392425  0.250000  1
  Tl  Tl15  1  0.607017  0.607017  0.750000  1
  Br  Br16  1  0.000243  0.000243  0.500176  1
  Br  Br17  1  0.000243  0.000243  0.999824  1
