# generated using pymatgen
data_Y3Lu17(SiBi2)4
_symmetry_space_group_name_H-M   'P 1'
_cell_length_a   11.90804649
_cell_length_b   9.03509600
_cell_length_c   7.91615400
_cell_angle_alpha   90.00000000
_cell_angle_beta   89.94255787
_cell_angle_gamma   90.00000000
_symmetry_Int_Tables_number   1
_chemical_formula_structural   Y3Lu17(SiBi2)4
_chemical_formula_sum   'Y3 Lu17 Si4 Bi8'
_cell_volume   851.70129759
_cell_formula_units_Z   1
loop_
 _symmetry_equiv_pos_site_id
 _symmetry_equiv_pos_as_xyz
  1  'x, y, z'
loop_
 _atom_site_type_symbol
 _atom_site_label
 _atom_site_symmetry_multiplicity
 _atom_site_fract_x
 _atom_site_fract_y
 _atom_site_fract_z
 _atom_site_occupancy
  Y  Y0  1  0.294862  0.250000  0.364332  1
  Y  Y1  1  0.205205  0.750000  0.864482  1
  Y  Y2  1  0.705299  0.750000  0.635185  1
  Lu  Lu3  1  0.564299  0.054479  0.319697  1
  Lu  Lu4  1  0.062830  0.445902  0.180083  1
  Lu  Lu5  1  0.436524  0.553737  0.679905  1
  Lu  Lu6  1  0.936459  0.946091  0.819964  1
  Lu  Lu7  1  0.436524  0.946263  0.679905  1
  Lu  Lu8  1  0.936459  0.553909  0.819964  1
  Lu  Lu9  1  0.564299  0.445521  0.319697  1
  Lu  Lu10  1  0.062830  0.054098  0.180083  1
  Lu  Lu11  1  0.711800  0.250000  0.661747  1
  Lu  Lu12  1  0.210663  0.250000  0.839567  1
  Lu  Lu13  1  0.288502  0.750000  0.338790  1
  Lu  Lu14  1  0.788345  0.750000  0.161446  1
  Lu  Lu15  1  0.501680  0.250000  0.959548  1
  Lu  Lu16  1  0.000738  0.250000  0.540967  1
  Lu  Lu17  1  0.499374  0.750000  0.040963  1
  Lu  Lu18  1  0.998766  0.750000  0.458975  1
  Lu  Lu19  1  0.794939  0.250000  0.135822  1
  Si  Si20  1  0.979112  0.250000  0.913726  1
  Si  Si21  1  0.481810  0.250000  0.587398  1
  Si  Si22  1  0.018416  0.750000  0.087646  1
  Si  Si23  1  0.518611  0.750000  0.412062  1
  Bi  Bi24  1  0.827239  0.011767  0.428788  1
  Bi  Bi25  1  0.327233  0.489250  0.069129  1
  Bi  Bi26  1  0.172592  0.510383  0.569324  1
  Bi  Bi27  1  0.673762  0.990513  0.931782  1
  Bi  Bi28  1  0.172592  0.989617  0.569324  1
  Bi  Bi29  1  0.673762  0.509487  0.931782  1
  Bi  Bi30  1  0.827239  0.488233  0.428788  1
  Bi  Bi31  1  0.327233  0.010750  0.069129  1
