# generated using pymatgen
data_Tb3Dy(AuO3)4
_symmetry_space_group_name_H-M   'P 1'
_cell_length_a   3.85401503
_cell_length_b   12.92885412
_cell_length_c   5.59843500
_cell_angle_alpha   90.00000000
_cell_angle_beta   90.00000000
_cell_angle_gamma   89.98464445
_symmetry_Int_Tables_number   1
_chemical_formula_structural   Tb3Dy(AuO3)4
_chemical_formula_sum   'Tb3 Dy1 Au4 O12'
_cell_volume   278.95879877
_cell_formula_units_Z   1
loop_
 _symmetry_equiv_pos_site_id
 _symmetry_equiv_pos_as_xyz
  1  'x, y, z'
loop_
 _atom_site_type_symbol
 _atom_site_label
 _atom_site_symmetry_multiplicity
 _atom_site_fract_x
 _atom_site_fract_y
 _atom_site_fract_z
 _atom_site_occupancy
  Tb  Tb0  1  0.762547  0.074930  0.249999  1
  Tb  Tb1  1  0.237485  0.575460  0.249999  1
  Tb  Tb2  1  0.762336  0.424723  0.750000  1
  Dy  Dy3  1  0.237219  0.925018  0.750000  1
  Au  Au4  1  0.441301  0.330537  0.249999  1
  Au  Au5  1  0.559290  0.830886  0.249999  1
  Au  Au6  1  0.441349  0.169074  0.750000  1
  Au  Au7  1  0.558725  0.669683  0.750000  1
  O  O8  1  0.706074  0.249817  0.999978  1
  O  O9  1  0.293933  0.750584  0.999535  1
  O  O10  1  0.244269  0.074091  0.000158  1
  O  O11  1  0.755597  0.574857  0.000731  1
  O  O12  1  0.244269  0.074091  0.499843  1
  O  O13  1  0.755597  0.574857  0.499270  1
  O  O14  1  0.706074  0.249817  0.500022  1
  O  O15  1  0.293933  0.750584  0.500465  1
  O  O16  1  0.244255  0.425298  0.500642  1
  O  O17  1  0.755743  0.925197  0.502120  1
  O  O18  1  0.244255  0.425298  0.999357  1
  O  O19  1  0.755743  0.925197  0.997879  1
