# generated using pymatgen
data_CrReTcSe4
_symmetry_space_group_name_H-M   'P 1'
_cell_length_a   6.65787460
_cell_length_b   6.63512034
_cell_length_c   6.63792256
_cell_angle_alpha   93.44708389
_cell_angle_beta   93.58113769
_cell_angle_gamma   93.54792663
_symmetry_Int_Tables_number   1
_chemical_formula_structural   CrReTcSe4
_chemical_formula_sum   'Cr2 Re2 Tc2 Se8'
_cell_volume   291.49867372
_cell_formula_units_Z   2
loop_
 _symmetry_equiv_pos_site_id
 _symmetry_equiv_pos_as_xyz
  1  'x, y, z'
loop_
 _atom_site_type_symbol
 _atom_site_label
 _atom_site_symmetry_multiplicity
 _atom_site_fract_x
 _atom_site_fract_y
 _atom_site_fract_z
 _atom_site_occupancy
  Cr  Cr0  1  0.245150  0.545502  0.416720  1
  Cr  Cr1  1  0.415012  0.245622  0.545263  1
  Re  Re2  1  0.587034  0.763752  0.451642  1
  Re  Re3  1  0.451475  0.586751  0.762646  1
  Tc  Tc4  1  0.545500  0.412791  0.236412  1
  Tc  Tc5  1  0.765033  0.451456  0.588025  1
  Se  Se6  1  0.363846  0.727882  0.127450  1
  Se  Se7  1  0.129836  0.368060  0.722226  1
  Se  Se8  1  0.727399  0.124858  0.371733  1
  Se  Se9  1  0.618640  0.264465  0.869769  1
  Se  Se10  1  0.879976  0.624469  0.272848  1
  Se  Se11  1  0.269848  0.874870  0.617591  1
  Se  Se12  1  0.213255  0.221247  0.228309  1
  Se  Se13  1  0.787997  0.788277  0.789369  1
