# generated using pymatgen
data_TaMn(P2O7)2
_symmetry_space_group_name_H-M   'P 1'
_cell_length_a   4.92424950
_cell_length_b   8.30523909
_cell_length_c   7.14839618
_cell_angle_alpha   92.71746723
_cell_angle_beta   106.68217938
_cell_angle_gamma   88.95700131
_symmetry_Int_Tables_number   1
_chemical_formula_structural   TaMn(P2O7)2
_chemical_formula_sum   'Ta1 Mn1 P4 O14'
_cell_volume   279.72590121
_cell_formula_units_Z   1
loop_
 _symmetry_equiv_pos_site_id
 _symmetry_equiv_pos_as_xyz
  1  'x, y, z'
loop_
 _atom_site_type_symbol
 _atom_site_label
 _atom_site_symmetry_multiplicity
 _atom_site_fract_x
 _atom_site_fract_y
 _atom_site_fract_z
 _atom_site_occupancy
  Ta  Ta0  1  0.207017  0.505039  0.724258  1
  Mn  Mn1  1  0.790380  0.004712  0.271148  1
  P  P2  1  0.393984  0.179157  0.503099  1
  P  P3  1  0.243027  0.777989  0.115207  1
  P  P4  1  0.765380  0.269358  0.893144  1
  P  P5  1  0.606133  0.698224  0.494243  1
  O  O6  1  0.010688  0.335087  0.822084  1
  O  O7  1  0.171787  0.665178  0.927241  1
  O  O8  1  0.158629  0.056556  0.459506  1
  O  O9  1  0.275042  0.353401  0.520198  1
  O  O10  1  0.408968  0.671511  0.624757  1
  O  O11  1  0.565746  0.417294  0.897755  1
  O  O12  1  0.587142  0.146951  0.723287  1
  O  O13  1  0.417819  0.652478  0.274090  1
  O  O14  1  0.428972  0.917486  0.100024  1
  O  O15  1  0.584851  0.178660  0.369418  1
  O  O16  1  0.720196  0.864275  0.507355  1
  O  O17  1  0.838302  0.565034  0.540511  1
  O  O18  1  0.862756  0.181379  0.076255  1
  O  O19  1  0.968484  0.823792  0.161023  1
