# generated using pymatgen
data_CsLaCd(H6Ir)2
_symmetry_space_group_name_H-M   'P 1'
_cell_length_a   5.06818000
_cell_length_b   5.06818119
_cell_length_c   9.88825000
_cell_angle_alpha   90.00000000
_cell_angle_beta   90.00000000
_cell_angle_gamma   119.99999226
_symmetry_Int_Tables_number   1
_chemical_formula_structural   CsLaCd(H6Ir)2
_chemical_formula_sum   'Cs1 La1 Cd1 H12 Ir2'
_cell_volume   219.96534624
_cell_formula_units_Z   1
loop_
 _symmetry_equiv_pos_site_id
 _symmetry_equiv_pos_as_xyz
  1  'x, y, z'
loop_
 _atom_site_type_symbol
 _atom_site_label
 _atom_site_symmetry_multiplicity
 _atom_site_fract_x
 _atom_site_fract_y
 _atom_site_fract_z
 _atom_site_occupancy
  Cs  Cs0  1  0.000000  0.000000  0.000729  1
  La  La1  1  0.333333  0.666667  0.617619  1
  Cd  Cd2  1  0.666667  0.333333  0.320446  1
  H  H3  1  0.173637  0.826363  0.391032  1
  H  H4  1  0.652725  0.826363  0.391032  1
  H  H5  1  0.173637  0.347275  0.391032  1
  H  H6  1  0.827238  0.172762  0.620831  1
  H  H7  1  0.345525  0.172762  0.620831  1
  H  H8  1  0.827238  0.654475  0.620831  1
  H  H9  1  0.516303  0.032606  0.819041  1
  H  H10  1  0.516303  0.483697  0.819041  1
  H  H11  1  0.967394  0.483697  0.819041  1
  H  H12  1  0.475456  0.950914  0.184549  1
  H  H13  1  0.475456  0.524544  0.184549  1
  H  H14  1  0.049086  0.524544  0.184549  1
  Ir  Ir15  1  0.666667  0.333333  0.715303  1
  Ir  Ir16  1  0.333333  0.666667  0.299549  1
