# generated using pymatgen
data_Dy3(In2Ni)2
_symmetry_space_group_name_H-M   'P 1'
_cell_length_a   7.83832900
_cell_length_b   7.83832835
_cell_length_c   3.70350900
_cell_angle_alpha   90.00000000
_cell_angle_beta   90.00000000
_cell_angle_gamma   120.00000696
_symmetry_Int_Tables_number   1
_chemical_formula_structural   Dy3(In2Ni)2
_chemical_formula_sum   'Dy3 In4 Ni2'
_cell_volume   197.05658231
_cell_formula_units_Z   1
loop_
 _symmetry_equiv_pos_site_id
 _symmetry_equiv_pos_as_xyz
  1  'x, y, z'
loop_
 _atom_site_type_symbol
 _atom_site_label
 _atom_site_symmetry_multiplicity
 _atom_site_fract_x
 _atom_site_fract_y
 _atom_site_fract_z
 _atom_site_occupancy
  Dy  Dy0  1  0.048640  0.296907  0.500000  1
  Dy  Dy1  1  0.703093  0.751732  0.500000  1
  Dy  Dy2  1  0.248268  0.951360  0.500000  1
  In  In3  1  0.664297  0.082044  0.000000  1
  In  In4  1  0.917956  0.582255  0.000000  1
  In  In5  1  0.417745  0.335703  0.000000  1
  In  In6  1  0.333333  0.666667  0.000000  1
  Ni  Ni7  1  0.666667  0.333333  0.500000  1
  Ni  Ni8  1  0.000000  0.000000  0.000000  1
