# generated using pymatgen
data_Zr3VFe2(CoP)6
_symmetry_space_group_name_H-M   'P 1'
_cell_length_a   11.94949071
_cell_length_b   11.95009530
_cell_length_c   3.64236500
_cell_angle_alpha   90.00000000
_cell_angle_beta   90.00000000
_cell_angle_gamma   120.00167520
_symmetry_Int_Tables_number   1
_chemical_formula_structural   Zr3VFe2(CoP)6
_chemical_formula_sum   'Zr6 V2 Fe4 Co12 P12'
_cell_volume   450.43022933
_cell_formula_units_Z   2
loop_
 _symmetry_equiv_pos_site_id
 _symmetry_equiv_pos_as_xyz
  1  'x, y, z'
loop_
 _atom_site_type_symbol
 _atom_site_label
 _atom_site_symmetry_multiplicity
 _atom_site_fract_x
 _atom_site_fract_y
 _atom_site_fract_z
 _atom_site_occupancy
  Zr  Zr0  1  0.000000  0.556371  0.000000  1
  Zr  Zr1  1  0.665969  0.333488  0.000000  1
  Zr  Zr2  1  0.334031  0.667519  0.000000  1
  Zr  Zr3  1  0.814887  0.814880  0.500000  1
  Zr  Zr4  1  0.185113  0.999994  0.500000  1
  Zr  Zr5  1  0.000000  0.180274  0.500000  1
  V  V6  1  0.442941  0.444371  0.000000  1
  V  V7  1  0.557059  0.001430  0.000000  1
  Fe  Fe8  1  0.200740  0.373141  0.000000  1
  Fe  Fe9  1  0.183098  0.809149  0.000000  1
  Fe  Fe10  1  0.816902  0.626051  0.000000  1
  Fe  Fe11  1  0.799260  0.172401  0.000000  1
  Co  Co12  1  0.376909  0.198623  0.000000  1
  Co  Co13  1  0.129540  0.480858  0.500000  1
  Co  Co14  1  0.361062  0.879272  0.500000  1
  Co  Co15  1  0.515189  0.645061  0.500000  1
  Co  Co16  1  0.638938  0.518211  0.500000  1
  Co  Co17  1  0.870460  0.351317  0.500000  1
  Co  Co18  1  0.484811  0.129872  0.500000  1
  Co  Co19  1  0.000000  0.999642  0.000000  1
  Co  Co20  1  0.716857  0.996241  0.500000  1
  Co  Co21  1  0.000000  0.723305  0.500000  1
  Co  Co22  1  0.623091  0.821714  0.000000  1
  Co  Co23  1  0.283143  0.279383  0.500000  1
  P  P24  1  0.639407  0.641809  0.000000  1
  P  P25  1  0.360593  0.002402  0.000000  1
  P  P26  1  0.000000  0.345042  0.000000  1
  P  P27  1  0.482309  0.316594  0.500000  1
  P  P28  1  0.685941  0.165579  0.500000  1
  P  P29  1  0.823946  0.518802  0.500000  1
  P  P30  1  0.517691  0.834284  0.500000  1
  P  P31  1  0.176054  0.694856  0.500000  1
  P  P32  1  0.822822  0.999054  0.000000  1
  P  P33  1  0.000000  0.823135  0.000000  1
  P  P34  1  0.314059  0.479638  0.500000  1
  P  P35  1  0.177178  0.176232  0.000000  1
