# generated using pymatgen
data_Y4Lu4Mn(B8Os)3
_symmetry_space_group_name_H-M   'P 1'
_cell_length_a   3.60178900
_cell_length_b   9.07627611
_cell_length_c   11.46833723
_cell_angle_alpha   90.01678141
_cell_angle_beta   90.00000000
_cell_angle_gamma   90.00000000
_symmetry_Int_Tables_number   1
_chemical_formula_structural   Y4Lu4Mn(B8Os)3
_chemical_formula_sum   'Y4 Lu4 Mn1 B24 Os3'
_cell_volume   374.90946324
_cell_formula_units_Z   1
loop_
 _symmetry_equiv_pos_site_id
 _symmetry_equiv_pos_as_xyz
  1  'x, y, z'
loop_
 _atom_site_type_symbol
 _atom_site_label
 _atom_site_symmetry_multiplicity
 _atom_site_fract_x
 _atom_site_fract_y
 _atom_site_fract_z
 _atom_site_occupancy
  Y  Y0  1  0.000000  0.324536  0.412495  1
  Y  Y1  1  0.000000  0.677586  0.582113  1
  Y  Y2  1  0.000000  0.819168  0.088695  1
  Y  Y3  1  0.000000  0.178955  0.914922  1
  Lu  Lu4  1  0.000000  0.939711  0.371786  1
  Lu  Lu5  1  0.000000  0.056591  0.626672  1
  Lu  Lu6  1  0.000000  0.446184  0.130392  1
  Lu  Lu7  1  0.000000  0.556791  0.872719  1
  Mn  Mn8  1  0.000000  0.638116  0.320083  1
  B  B9  1  0.500000  0.554555  0.430941  1
  B  B10  1  0.500000  0.446430  0.566721  1
  B  B11  1  0.500000  0.054043  0.067792  1
  B  B12  1  0.500000  0.946271  0.932855  1
  B  B13  1  0.500000  0.747288  0.417015  1
  B  B14  1  0.500000  0.250559  0.580443  1
  B  B15  1  0.500000  0.250358  0.081768  1
  B  B16  1  0.500000  0.750649  0.919260  1
  B  B17  1  0.500000  0.789377  0.266817  1
  B  B18  1  0.500000  0.208600  0.733646  1
  B  B19  1  0.500000  0.292075  0.234168  1
  B  B20  1  0.500000  0.708567  0.766025  1
  B  B21  1  0.500000  0.630436  0.186926  1
  B  B22  1  0.500000  0.369893  0.815120  1
  B  B23  1  0.500000  0.129710  0.314941  1
  B  B24  1  0.500000  0.869606  0.684545  1
  B  B25  1  0.500000  0.981520  0.213706  1
  B  B26  1  0.500000  0.017936  0.786520  1
  B  B27  1  0.500000  0.484759  0.287467  1
  B  B28  1  0.500000  0.517990  0.713255  1
  B  B29  1  0.500000  0.603538  0.029051  1
  B  B30  1  0.500000  0.397300  0.972149  1
  B  B31  1  0.500000  0.102847  0.471030  1
  B  B32  1  0.500000  0.896217  0.528020  1
  Os  Os33  1  0.000000  0.361514  0.680140  1
  Os  Os34  1  0.000000  0.138268  0.179494  1
  Os  Os35  1  0.000000  0.862056  0.820309  1
