# generated using pymatgen
data_Nd3Sm(BiO4)4
_symmetry_space_group_name_H-M   'P 1'
_cell_length_a   5.66208277
_cell_length_b   7.95781156
_cell_length_c   7.98476194
_cell_angle_alpha   82.33491833
_cell_angle_beta   90.01166751
_cell_angle_gamma   90.15235521
_symmetry_Int_Tables_number   1
_chemical_formula_structural   Nd3Sm(BiO4)4
_chemical_formula_sum   'Nd3 Sm1 Bi4 O16'
_cell_volume   356.55973004
_cell_formula_units_Z   1
loop_
 _symmetry_equiv_pos_site_id
 _symmetry_equiv_pos_as_xyz
  1  'x, y, z'
loop_
 _atom_site_type_symbol
 _atom_site_label
 _atom_site_symmetry_multiplicity
 _atom_site_fract_x
 _atom_site_fract_y
 _atom_site_fract_z
 _atom_site_occupancy
  Nd  Nd0  1  0.268804  0.862726  0.891541  1
  Nd  Nd1  1  0.232117  0.864191  0.390290  1
  Nd  Nd2  1  0.766444  0.136772  0.609448  1
  Sm  Sm3  1  0.729760  0.137325  0.110233  1
  Bi  Bi4  1  0.771934  0.662015  0.685747  1
  Bi  Bi5  1  0.728594  0.661815  0.185540  1
  Bi  Bi6  1  0.271220  0.337793  0.815661  1
  Bi  Bi7  1  0.227677  0.337685  0.313337  1
  O  O8  1  0.101088  0.577412  0.814169  1
  O  O9  1  0.607485  0.673886  0.929833  1
  O  O10  1  0.397573  0.578119  0.312673  1
  O  O11  1  0.502679  0.840079  0.619302  1
  O  O12  1  0.892717  0.672928  0.430219  1
  O  O13  1  0.999873  0.838731  0.119692  1
  O  O14  1  0.991813  0.887989  0.667103  1
  O  O15  1  0.491032  0.112906  0.834510  1
  O  O16  1  0.512624  0.888972  0.167485  1
  O  O17  1  0.006496  0.112914  0.329104  1
  O  O18  1  0.997836  0.162502  0.884466  1
  O  O19  1  0.109474  0.322615  0.570572  1
  O  O20  1  0.498224  0.160096  0.378958  1
  O  O21  1  0.599509  0.423120  0.684958  1
  O  O22  1  0.396759  0.325461  0.070430  1
  O  O23  1  0.898266  0.421949  0.184727  1
