# generated using pymatgen
data_Yb8Er2Ir3Ru
_symmetry_space_group_name_H-M   'P 1'
_cell_length_a   6.45358427
_cell_length_b   7.32430846
_cell_length_c   8.46052609
_cell_angle_alpha   97.32552666
_cell_angle_beta   112.29692676
_cell_angle_gamma   90.05446455
_symmetry_Int_Tables_number   1
_chemical_formula_structural   Yb8Er2Ir3Ru
_chemical_formula_sum   'Yb8 Er2 Ir3 Ru1'
_cell_volume   366.46038253
_cell_formula_units_Z   1
loop_
 _symmetry_equiv_pos_site_id
 _symmetry_equiv_pos_as_xyz
  1  'x, y, z'
loop_
 _atom_site_type_symbol
 _atom_site_label
 _atom_site_symmetry_multiplicity
 _atom_site_fract_x
 _atom_site_fract_y
 _atom_site_fract_z
 _atom_site_occupancy
  Yb  Yb0  1  0.801735  0.579162  0.827639  1
  Yb  Yb1  1  0.970944  0.920986  0.171058  1
  Yb  Yb2  1  0.200707  0.421499  0.171787  1
  Yb  Yb3  1  0.030219  0.080065  0.827648  1
  Yb  Yb4  1  0.204266  0.678883  0.564230  1
  Yb  Yb5  1  0.641916  0.819067  0.438233  1
  Yb  Yb6  1  0.795595  0.317985  0.437085  1
  Yb  Yb7  1  0.358146  0.181811  0.562850  1
  Er  Er8  1  0.435216  0.748417  0.999247  1
  Er  Er9  1  0.562952  0.251626  0.998548  1
  Ir  Ir10  1  0.601463  0.927187  0.789032  1
  Ir  Ir11  1  0.810678  0.573369  0.211654  1
  Ir  Ir12  1  0.399271  0.071934  0.210983  1
  Ru  Ru13  1  0.186893  0.428011  0.790005  1
