# generated using pymatgen
data_Tb2Eu(Co3P2)3
_symmetry_space_group_name_H-M   'P 1'
_cell_length_a   10.57192300
_cell_length_b   3.72361200
_cell_length_c   12.22600500
_cell_angle_alpha   90.00000000
_cell_angle_beta   90.00000000
_cell_angle_gamma   90.00000000
_symmetry_Int_Tables_number   1
_chemical_formula_structural   Tb2Eu(Co3P2)3
_chemical_formula_sum   'Tb4 Eu2 Co18 P12'
_cell_volume   481.28572607
_cell_formula_units_Z   2
loop_
 _symmetry_equiv_pos_site_id
 _symmetry_equiv_pos_as_xyz
  1  'x, y, z'
loop_
 _atom_site_type_symbol
 _atom_site_label
 _atom_site_symmetry_multiplicity
 _atom_site_fract_x
 _atom_site_fract_y
 _atom_site_fract_z
 _atom_site_occupancy
  Tb  Tb0  1  0.067149  0.750001  0.204643  1
  Tb  Tb1  1  0.432851  0.750001  0.204643  1
  Tb  Tb2  1  0.567149  0.250001  0.795356  1
  Tb  Tb3  1  0.932851  0.250001  0.795356  1
  Eu  Eu4  1  0.250000  0.750001  0.476146  1
  Eu  Eu5  1  0.750000  0.250001  0.523854  1
  Co  Co6  1  0.083437  0.250001  0.005657  1
  Co  Co7  1  0.416564  0.250001  0.005657  1
  Co  Co8  1  0.250000  0.750001  0.013797  1
  Co  Co9  1  0.750000  0.750001  0.157520  1
  Co  Co10  1  0.629944  0.250001  0.288587  1
  Co  Co11  1  0.870056  0.250001  0.288587  1
  Co  Co12  1  0.250000  0.250001  0.296128  1
  Co  Co13  1  0.546398  0.750001  0.429618  1
  Co  Co14  1  0.953602  0.750001  0.429618  1
  Co  Co15  1  0.046398  0.250001  0.570382  1
  Co  Co16  1  0.453602  0.250001  0.570382  1
  Co  Co17  1  0.750000  0.750001  0.703872  1
  Co  Co18  1  0.129944  0.750001  0.711413  1
  Co  Co19  1  0.370056  0.750001  0.711413  1
  Co  Co20  1  0.250000  0.250001  0.842480  1
  Co  Co21  1  0.750000  0.250001  0.986203  1
  Co  Co22  1  0.583436  0.750001  0.994342  1
  Co  Co23  1  0.916564  0.750001  0.994342  1
  P  P24  1  0.597551  0.250001  0.105651  1
  P  P25  1  0.902449  0.250001  0.105651  1
  P  P26  1  0.250000  0.250001  0.116785  1
  P  P27  1  0.750000  0.750001  0.340773  1
  P  P28  1  0.056958  0.250001  0.383466  1
  P  P29  1  0.443043  0.250001  0.383466  1
  P  P30  1  0.556957  0.750001  0.616534  1
  P  P31  1  0.943042  0.750001  0.616534  1
  P  P32  1  0.250000  0.250001  0.659227  1
  P  P33  1  0.750000  0.750001  0.883215  1
  P  P34  1  0.097551  0.750001  0.894348  1
  P  P35  1  0.402449  0.750001  0.894348  1
