# generated using pymatgen
data_V4Pd(RhSe6)2
_symmetry_space_group_name_H-M   'P 1'
_cell_length_a   7.24313420
_cell_length_b   7.24313486
_cell_length_c   19.29193100
_cell_angle_alpha   69.48569463
_cell_angle_beta   69.48569332
_cell_angle_gamma   27.03803057
_symmetry_Int_Tables_number   1
_chemical_formula_structural   V4Pd(RhSe6)2
_chemical_formula_sum   'V4 Pd1 Rh2 Se12'
_cell_volume   429.16410490
_cell_formula_units_Z   1
loop_
 _symmetry_equiv_pos_site_id
 _symmetry_equiv_pos_as_xyz
  1  'x, y, z'
loop_
 _atom_site_type_symbol
 _atom_site_label
 _atom_site_symmetry_multiplicity
 _atom_site_fract_x
 _atom_site_fract_y
 _atom_site_fract_z
 _atom_site_occupancy
  V  V0  1  0.746169  0.746169  0.592889  1
  V  V1  1  0.253831  0.253831  0.407111  1
  V  V2  1  0.625070  0.625070  0.845461  1
  V  V3  1  0.374930  0.374930  0.154539  1
  Pd  Pd4  1  0.000000  0.000000  0.000000  1
  Rh  Rh5  1  0.769030  0.769030  0.284511  1
  Rh  Rh6  1  0.230970  0.230970  0.715489  1
  Se  Se7  1  0.853985  0.853985  0.452609  1
  Se  Se8  1  0.016517  0.016517  0.122574  1
  Se  Se9  1  0.806885  0.806885  0.770848  1
  Se  Se10  1  0.398127  0.398127  0.285565  1
  Se  Se11  1  0.181090  0.181090  0.920923  1
  Se  Se12  1  0.601873  0.601873  0.714435  1
  Se  Se13  1  0.146015  0.146015  0.547391  1
  Se  Se14  1  0.818910  0.818910  0.079077  1
  Se  Se15  1  0.373128  0.373128  0.595354  1
  Se  Se16  1  0.983483  0.983483  0.877426  1
  Se  Se17  1  0.193115  0.193115  0.229152  1
  Se  Se18  1  0.626872  0.626872  0.404646  1
