# generated using pymatgen
data_ErCo3TcSn6
_symmetry_space_group_name_H-M   'P 1'
_cell_length_a   6.67071871
_cell_length_b   6.72901673
_cell_length_c   6.82213370
_cell_angle_alpha   120.10269076
_cell_angle_beta   119.86446181
_cell_angle_gamma   88.90752975
_symmetry_Int_Tables_number   1
_chemical_formula_structural   ErCo3TcSn6
_chemical_formula_sum   'Er1 Co3 Tc1 Sn6'
_cell_volume   218.61568190
_cell_formula_units_Z   1
loop_
 _symmetry_equiv_pos_site_id
 _symmetry_equiv_pos_as_xyz
  1  'x, y, z'
loop_
 _atom_site_type_symbol
 _atom_site_label
 _atom_site_symmetry_multiplicity
 _atom_site_fract_x
 _atom_site_fract_y
 _atom_site_fract_z
 _atom_site_occupancy
  Er  Er0  1  0.997391  0.013468  0.999897  1
  Co  Co1  1  0.264868  0.588849  0.999926  1
  Co  Co2  1  0.752360  0.751134  0.357269  1
  Co  Co3  1  0.395184  0.393894  0.642718  1
  Tc  Tc4  1  0.592784  0.259861  0.999893  1
  Sn  Sn5  1  0.886715  0.540942  0.000143  1
  Sn  Sn6  1  0.536541  0.870495  0.999883  1
  Sn  Sn7  1  0.467639  0.471465  0.359451  1
  Sn  Sn8  1  0.493292  0.993123  0.488725  1
  Sn  Sn9  1  0.005197  0.504539  0.511510  1
  Sn  Sn10  1  0.108031  0.112231  0.640585  1
