# generated using pymatgen
data_TbEr3Ga12Ru
_symmetry_space_group_name_H-M   'P 1'
_cell_length_a   7.46113981
_cell_length_b   7.42013395
_cell_length_c   7.46113967
_cell_angle_alpha   109.35992393
_cell_angle_beta   109.58228222
_cell_angle_gamma   109.35992607
_symmetry_Int_Tables_number   1
_chemical_formula_structural   TbEr3Ga12Ru
_chemical_formula_sum   'Tb1 Er3 Ga12 Ru1'
_cell_volume   318.41601465
_cell_formula_units_Z   1
loop_
 _symmetry_equiv_pos_site_id
 _symmetry_equiv_pos_as_xyz
  1  'x, y, z'
loop_
 _atom_site_type_symbol
 _atom_site_label
 _atom_site_symmetry_multiplicity
 _atom_site_fract_x
 _atom_site_fract_y
 _atom_site_fract_z
 _atom_site_occupancy
  Tb  Tb0  1  0.000000  0.500000  0.000000  1
  Er  Er1  1  0.000000  0.000000  0.500000  1
  Er  Er2  1  0.500000  0.000000  0.000000  1
  Er  Er3  1  0.500000  0.500000  0.500000  1
  Ga  Ga4  1  0.749083  0.249083  0.498168  1
  Ga  Ga5  1  0.749083  0.500000  0.250917  1
  Ga  Ga6  1  0.498168  0.249083  0.749083  1
  Ga  Ga7  1  0.250917  0.500000  0.749083  1
  Ga  Ga8  1  0.250917  0.750917  0.501832  1
  Ga  Ga9  1  0.501832  0.750917  0.250917  1
  Ga  Ga10  1  0.709249  0.710826  0.000000  1
  Ga  Ga11  1  0.290751  0.001577  0.290751  1
  Ga  Ga12  1  0.000000  0.289174  0.290751  1
  Ga  Ga13  1  0.290751  0.289174  0.000000  1
  Ga  Ga14  1  0.709249  0.998423  0.709249  1
  Ga  Ga15  1  0.000000  0.710826  0.709249  1
  Ru  Ru16  1  0.000000  0.000000  0.000000  1
