# generated using pymatgen
data_KRbDy3Ho3F20
_symmetry_space_group_name_H-M   'P 1'
_cell_length_a   8.24711376
_cell_length_b   8.25453862
_cell_length_c   8.26237973
_cell_angle_alpha   59.90909153
_cell_angle_beta   60.00057239
_cell_angle_gamma   60.09265106
_symmetry_Int_Tables_number   1
_chemical_formula_structural   KRbDy3Ho3F20
_chemical_formula_sum   'K1 Rb1 Dy3 Ho3 F20'
_cell_volume   397.73179638
_cell_formula_units_Z   1
loop_
 _symmetry_equiv_pos_site_id
 _symmetry_equiv_pos_as_xyz
  1  'x, y, z'
loop_
 _atom_site_type_symbol
 _atom_site_label
 _atom_site_symmetry_multiplicity
 _atom_site_fract_x
 _atom_site_fract_y
 _atom_site_fract_z
 _atom_site_occupancy
  K  K0  1  0.750143  0.749857  0.750143  1
  Rb  Rb1  1  0.250292  0.249708  0.250292  1
  Dy  Dy2  1  0.759508  0.240502  0.240611  1
  Dy  Dy3  1  0.240611  0.759379  0.759508  1
  Dy  Dy4  1  0.240485  0.759515  0.240485  1
  Ho  Ho5  1  0.759550  0.240450  0.759550  1
  Ho  Ho6  1  0.240437  0.240293  0.759739  1
  Ho  Ho7  1  0.759739  0.759530  0.240437  1
  F  F8  1  0.829153  0.499873  0.499758  1
  F  F9  1  0.170678  0.498824  0.500834  1
  F  F10  1  0.500834  0.829664  0.170678  1
  F  F11  1  0.499758  0.171215  0.829153  1
  F  F12  1  0.500847  0.829960  0.498726  1
  F  F13  1  0.170343  0.498844  0.829874  1
  F  F14  1  0.498726  0.170467  0.500847  1
  F  F15  1  0.829874  0.500939  0.170343  1
  F  F16  1  0.500866  0.498868  0.830125  1
  F  F17  1  0.499800  0.499923  0.169355  1
  F  F18  1  0.169355  0.830923  0.499800  1
  F  F19  1  0.830125  0.170141  0.500866  1
  F  F20  1  0.109500  0.109421  0.108030  1
  F  F21  1  0.886242  0.887436  0.887499  1
  F  F22  1  0.108386  0.109775  0.673540  1
  F  F23  1  0.108030  0.673050  0.109500  1
  F  F24  1  0.886531  0.886519  0.339152  1
  F  F25  1  0.887499  0.338822  0.886242  1
  F  F26  1  0.673540  0.108301  0.108386  1
  F  F27  1  0.339152  0.887797  0.886531  1
