# generated using pymatgen
data_Er16Lu4Ru5Pt7
_symmetry_space_group_name_H-M   'P 1'
_cell_length_a   11.03505605
_cell_length_b   11.03505644
_cell_length_c   6.33786300
_cell_angle_alpha   90.17256689
_cell_angle_beta   90.17256690
_cell_angle_gamma   90.18586271
_symmetry_Int_Tables_number   1
_chemical_formula_structural   Er16Lu4Ru5Pt7
_chemical_formula_sum   'Er16 Lu4 Ru5 Pt7'
_cell_volume   771.76612423
_cell_formula_units_Z   1
loop_
 _symmetry_equiv_pos_site_id
 _symmetry_equiv_pos_as_xyz
  1  'x, y, z'
loop_
 _atom_site_type_symbol
 _atom_site_label
 _atom_site_symmetry_multiplicity
 _atom_site_fract_x
 _atom_site_fract_y
 _atom_site_fract_z
 _atom_site_occupancy
  Er  Er0  1  0.296719  0.083885  0.372938  1
  Er  Er1  1  0.296526  0.910102  0.873191  1
  Er  Er2  1  0.702635  0.084142  0.872501  1
  Er  Er3  1  0.702537  0.914664  0.372333  1
  Er  Er4  1  0.580977  0.793597  0.871253  1
  Er  Er5  1  0.584582  0.203798  0.373985  1
  Er  Er6  1  0.412489  0.792784  0.377036  1
  Er  Er7  1  0.414358  0.201781  0.872984  1
  Er  Er8  1  0.206403  0.419023  0.628747  1
  Er  Er9  1  0.207216  0.587511  0.122964  1
  Er  Er10  1  0.796202  0.415418  0.126015  1
  Er  Er11  1  0.798219  0.585642  0.627016  1
  Er  Er12  1  0.916115  0.703281  0.127062  1
  Er  Er13  1  0.915858  0.297365  0.627499  1
  Er  Er14  1  0.089898  0.703474  0.626809  1
  Er  Er15  1  0.085336  0.297463  0.127667  1
  Lu  Lu16  1  0.999474  0.999694  0.500474  1
  Lu  Lu17  1  0.000306  0.000526  0.999526  1
  Lu  Lu18  1  0.497053  0.501258  0.998313  1
  Lu  Lu19  1  0.498742  0.502947  0.501687  1
  Ru  Ru20  1  0.349777  0.650223  0.750000  1
  Ru  Ru21  1  0.500020  0.000262  0.122365  1
  Ru  Ru22  1  0.499756  0.999934  0.620880  1
  Ru  Ru23  1  0.000066  0.500244  0.879120  1
  Ru  Ru24  1  0.999738  0.499980  0.377635  1
  Pt  Pt25  1  0.849797  0.150203  0.250000  1
  Pt  Pt26  1  0.848996  0.849951  0.750579  1
  Pt  Pt27  1  0.150049  0.151004  0.749421  1
  Pt  Pt28  1  0.149520  0.850480  0.250000  1
  Pt  Pt29  1  0.649956  0.350044  0.750000  1
  Pt  Pt30  1  0.651613  0.650936  0.250748  1
  Pt  Pt31  1  0.349064  0.348387  0.249252  1
