# generated using pymatgen
data_Tb6Tm4Sn5Bi
_symmetry_space_group_name_H-M   'P 1'
_cell_length_a   8.99043063
_cell_length_b   8.99042930
_cell_length_c   6.49002800
_cell_angle_alpha   90.00000000
_cell_angle_beta   90.00000000
_cell_angle_gamma   119.95549794
_symmetry_Int_Tables_number   1
_chemical_formula_structural   Tb6Tm4Sn5Bi
_chemical_formula_sum   'Tb6 Tm4 Sn5 Bi1'
_cell_volume   454.49876102
_cell_formula_units_Z   1
loop_
 _symmetry_equiv_pos_site_id
 _symmetry_equiv_pos_as_xyz
  1  'x, y, z'
loop_
 _atom_site_type_symbol
 _atom_site_label
 _atom_site_symmetry_multiplicity
 _atom_site_fract_x
 _atom_site_fract_y
 _atom_site_fract_z
 _atom_site_occupancy
  Tb  Tb0  1  0.763306  0.763306  0.750000  1
  Tb  Tb1  1  0.238350  0.994439  0.750000  1
  Tb  Tb2  1  0.994439  0.238350  0.750000  1
  Tb  Tb3  1  0.239211  0.239211  0.250000  1
  Tb  Tb4  1  0.759912  0.000506  0.250000  1
  Tb  Tb5  1  0.000506  0.759912  0.250000  1
  Tm  Tm6  1  0.670111  0.332606  0.001670  1
  Tm  Tm7  1  0.332606  0.670111  0.001670  1
  Tm  Tm8  1  0.332606  0.670111  0.498330  1
  Tm  Tm9  1  0.670111  0.332606  0.498330  1
  Sn  Sn10  1  0.602608  0.999357  0.750000  1
  Sn  Sn11  1  0.999357  0.602608  0.750000  1
  Sn  Sn12  1  0.604471  0.604471  0.250000  1
  Sn  Sn13  1  0.396470  0.001598  0.250000  1
  Sn  Sn14  1  0.001598  0.396470  0.250000  1
  Bi  Bi15  1  0.394339  0.394339  0.750000  1
