# generated using pymatgen
data_Y3LuCdCo
_symmetry_space_group_name_H-M   'P 1'
_cell_length_a   9.51616197
_cell_length_b   9.51616130
_cell_length_c   9.51616200
_cell_angle_alpha   59.99999756
_cell_angle_beta   59.99999988
_cell_angle_gamma   59.99999961
_symmetry_Int_Tables_number   1
_chemical_formula_structural   Y3LuCdCo
_chemical_formula_sum   'Y12 Lu4 Cd4 Co4'
_cell_volume   609.35508428
_cell_formula_units_Z   4
loop_
 _symmetry_equiv_pos_site_id
 _symmetry_equiv_pos_as_xyz
  1  'x, y, z'
loop_
 _atom_site_type_symbol
 _atom_site_label
 _atom_site_symmetry_multiplicity
 _atom_site_fract_x
 _atom_site_fract_y
 _atom_site_fract_z
 _atom_site_occupancy
  Y  Y0  1  0.809740  0.190260  0.190260  1
  Y  Y1  1  0.190260  0.809740  0.809740  1
  Y  Y2  1  0.190260  0.809740  0.190260  1
  Y  Y3  1  0.809740  0.190260  0.809740  1
  Y  Y4  1  0.190260  0.190260  0.809740  1
  Y  Y5  1  0.809740  0.809740  0.190260  1
  Y  Y6  1  0.940138  0.559862  0.559862  1
  Y  Y7  1  0.559862  0.940138  0.940138  1
  Y  Y8  1  0.559862  0.940138  0.559862  1
  Y  Y9  1  0.940138  0.559862  0.940138  1
  Y  Y10  1  0.559862  0.559862  0.940138  1
  Y  Y11  1  0.940138  0.940138  0.559862  1
  Lu  Lu12  1  0.343651  0.343651  0.343651  1
  Lu  Lu13  1  0.343651  0.343651  0.969045  1
  Lu  Lu14  1  0.343651  0.969045  0.343651  1
  Lu  Lu15  1  0.969045  0.343651  0.343651  1
  Cd  Cd16  1  0.580219  0.580219  0.580219  1
  Cd  Cd17  1  0.580219  0.580219  0.259344  1
  Cd  Cd18  1  0.580219  0.259344  0.580219  1
  Cd  Cd19  1  0.259344  0.580219  0.580219  1
  Co  Co20  1  0.142386  0.142386  0.142386  1
  Co  Co21  1  0.142386  0.142386  0.572841  1
  Co  Co22  1  0.142386  0.572841  0.142386  1
  Co  Co23  1  0.572841  0.142386  0.142386  1
