# generated using pymatgen
data_UTi2(AlFe2)3
_symmetry_space_group_name_H-M   'P 1'
_cell_length_a   4.21326401
_cell_length_b   6.00403803
_cell_length_c   12.42530004
_cell_angle_alpha   90.00895310
_cell_angle_beta   89.99965400
_cell_angle_gamma   89.99418882
_symmetry_Int_Tables_number   1
_chemical_formula_structural   UTi2(AlFe2)3
_chemical_formula_sum   'U2 Ti4 Al6 Fe12'
_cell_volume   314.31780596
_cell_formula_units_Z   2
loop_
 _symmetry_equiv_pos_site_id
 _symmetry_equiv_pos_as_xyz
  1  'x, y, z'
loop_
 _atom_site_type_symbol
 _atom_site_label
 _atom_site_symmetry_multiplicity
 _atom_site_fract_x
 _atom_site_fract_y
 _atom_site_fract_z
 _atom_site_occupancy
  U  U0  1  0.999998  0.999974  0.992817  1
  U  U1  1  0.500023  0.500022  0.173935  1
  Ti  Ti2  1  0.000016  0.999981  0.341700  1
  Ti  Ti3  1  0.499994  0.500011  0.505229  1
  Ti  Ti4  1  0.999979  0.000001  0.661538  1
  Ti  Ti5  1  0.499980  0.500009  0.824841  1
  Al  Al6  1  0.000004  0.500031  0.992055  1
  Al  Al7  1  0.500023  0.999967  0.174559  1
  Al  Al8  1  0.000016  0.500007  0.346272  1
  Al  Al9  1  0.499995  0.999988  0.502680  1
  Al  Al10  1  0.999976  0.500006  0.664121  1
  Al  Al11  1  0.499987  0.999993  0.820389  1
  Fe  Fe12  1  0.500186  0.264882  0.000742  1
  Fe  Fe13  1  0.499819  0.735132  0.000749  1
  Fe  Fe14  1  0.999843  0.234744  0.165761  1
  Fe  Fe15  1  0.000216  0.765240  0.165739  1
  Fe  Fe16  1  0.500047  0.254818  0.332140  1
  Fe  Fe17  1  0.499991  0.745191  0.332140  1
  Fe  Fe18  1  0.000000  0.247867  0.500248  1
  Fe  Fe19  1  0.999989  0.752142  0.500260  1
  Fe  Fe20  1  0.499970  0.252105  0.666423  1
  Fe  Fe21  1  0.499982  0.747896  0.666418  1
  Fe  Fe22  1  0.999953  0.245017  0.834624  1
  Fe  Fe23  1  0.000011  0.754976  0.834624  1
