# generated using pymatgen
data_NdEu3(SbO4)4
_symmetry_space_group_name_H-M   'P 1'
_cell_length_a   5.45355349
_cell_length_b   7.69735281
_cell_length_c   7.71906900
_cell_angle_alpha   80.38712732
_cell_angle_beta   89.86343060
_cell_angle_gamma   89.56936564
_symmetry_Int_Tables_number   1
_chemical_formula_structural   NdEu3(SbO4)4
_chemical_formula_sum   'Nd1 Eu3 Sb4 O16'
_cell_volume   319.47140891
_cell_formula_units_Z   1
loop_
 _symmetry_equiv_pos_site_id
 _symmetry_equiv_pos_as_xyz
  1  'x, y, z'
loop_
 _atom_site_type_symbol
 _atom_site_label
 _atom_site_symmetry_multiplicity
 _atom_site_fract_x
 _atom_site_fract_y
 _atom_site_fract_z
 _atom_site_occupancy
  Nd  Nd0  1  0.268745  0.357129  0.396213  1
  Eu  Eu1  1  0.225678  0.352568  0.896879  1
  Eu  Eu2  1  0.731585  0.642774  0.605151  1
  Eu  Eu3  1  0.772632  0.649119  0.102496  1
  Sb  Sb4  1  0.729618  0.163298  0.696590  1
  Sb  Sb5  1  0.232356  0.837145  0.804476  1
  Sb  Sb6  1  0.270305  0.836883  0.305132  1
  Sb  Sb7  1  0.766578  0.163433  0.193762  1
  O  O8  1  0.493995  0.329554  0.126428  1
  O  O9  1  0.006420  0.663241  0.371774  1
  O  O10  1  0.503512  0.668252  0.871012  1
  O  O11  1  0.993491  0.335023  0.631455  1
  O  O12  1  0.975284  0.381075  0.166928  1
  O  O13  1  0.488468  0.620385  0.330249  1
  O  O14  1  0.020399  0.620833  0.829946  1
  O  O15  1  0.513807  0.380609  0.672378  1
  O  O16  1  0.867056  0.165035  0.941661  1
  O  O17  1  0.367869  0.830269  0.558856  1
  O  O18  1  0.136939  0.828992  0.059619  1
  O  O19  1  0.635730  0.172879  0.440950  1
  O  O20  1  0.408380  0.063017  0.803376  1
  O  O21  1  0.911739  0.938331  0.694183  1
  O  O22  1  0.590484  0.937512  0.196715  1
  O  O23  1  0.088929  0.062645  0.303772  1
