# generated using pymatgen
data_CrFe5(AsO4)6
_symmetry_space_group_name_H-M   'P 1'
_cell_length_a   9.38275429
_cell_length_b   9.38093044
_cell_length_c   9.38275421
_cell_angle_alpha   138.59757131
_cell_angle_beta   108.64937522
_cell_angle_gamma   86.00170503
_symmetry_Int_Tables_number   1
_chemical_formula_structural   CrFe5(AsO4)6
_chemical_formula_sum   'Cr1 Fe5 As6 O24'
_cell_volume   498.06025198
_cell_formula_units_Z   1
loop_
 _symmetry_equiv_pos_site_id
 _symmetry_equiv_pos_as_xyz
  1  'x, y, z'
loop_
 _atom_site_type_symbol
 _atom_site_label
 _atom_site_symmetry_multiplicity
 _atom_site_fract_x
 _atom_site_fract_y
 _atom_site_fract_z
 _atom_site_occupancy
  Cr  Cr0  1  0.000000  0.500000  0.500000  1
  Fe  Fe1  1  0.500000  0.000000  0.500000  1
  Fe  Fe2  1  0.886108  0.885910  0.500304  1
  Fe  Fe3  1  0.614394  0.114090  0.000198  1
  Fe  Fe4  1  0.113892  0.114090  0.499696  1
  Fe  Fe5  1  0.385606  0.885910  0.999802  1
  As  As6  1  0.249520  0.819860  0.570340  1
  As  As7  1  0.750480  0.180140  0.429660  1
  As  As8  1  0.824123  0.324131  0.001107  1
  As  As9  1  0.676976  0.675869  0.499992  1
  As  As10  1  0.175877  0.675869  0.998893  1
  As  As11  1  0.323024  0.324131  0.500008  1
  O  O12  1  0.121725  0.977210  0.598936  1
  O  O13  1  0.378275  0.977210  0.855485  1
  O  O14  1  0.621725  0.022790  0.144515  1
  O  O15  1  0.878275  0.022790  0.401064  1
  O  O16  1  0.144251  0.579425  0.435174  1
  O  O17  1  0.355509  0.793083  0.437575  1
  O  O18  1  0.855749  0.420575  0.564826  1
  O  O19  1  0.644491  0.206917  0.562425  1
  O  O20  1  0.141706  0.403306  0.826696  1
  O  O21  1  0.358035  0.184813  0.261854  1
  O  O22  1  0.423391  0.596694  0.738401  1
  O  O23  1  0.077041  0.815187  0.173222  1
  O  O24  1  0.652028  0.805988  0.426092  1
  O  O25  1  0.848775  0.275145  0.156448  1
  O  O26  1  0.620104  0.194012  0.846039  1
  O  O27  1  0.881303  0.724855  0.573630  1
  O  O28  1  0.347972  0.194012  0.573908  1
  O  O29  1  0.151225  0.724855  0.843552  1
  O  O30  1  0.379896  0.805988  0.153961  1
  O  O31  1  0.118697  0.275145  0.426370  1
  O  O32  1  0.922959  0.184813  0.826778  1
  O  O33  1  0.576609  0.403306  0.261599  1
  O  O34  1  0.641965  0.815187  0.738146  1
  O  O35  1  0.858294  0.596694  0.173304  1
