# generated using pymatgen
data_Tm4MnAlRu6
_symmetry_space_group_name_H-M   'P 1'
_cell_length_a   5.42722432
_cell_length_b   5.15781792
_cell_length_c   8.80141800
_cell_angle_alpha   90.00000000
_cell_angle_beta   90.00000000
_cell_angle_gamma   121.65807636
_symmetry_Int_Tables_number   1
_chemical_formula_structural   Tm4MnAlRu6
_chemical_formula_sum   'Tm4 Mn1 Al1 Ru6'
_cell_volume   209.71315817
_cell_formula_units_Z   1
loop_
 _symmetry_equiv_pos_site_id
 _symmetry_equiv_pos_as_xyz
  1  'x, y, z'
loop_
 _atom_site_type_symbol
 _atom_site_label
 _atom_site_symmetry_multiplicity
 _atom_site_fract_x
 _atom_site_fract_y
 _atom_site_fract_z
 _atom_site_occupancy
  Tm  Tm0  1  0.671404  0.342583  0.568179  1
  Tm  Tm1  1  0.330763  0.661617  0.436365  1
  Tm  Tm2  1  0.330763  0.661617  0.063635  1
  Tm  Tm3  1  0.671404  0.342583  0.931821  1
  Mn  Mn4  1  0.154745  0.309117  0.750000  1
  Al  Al5  1  0.837314  0.674650  0.250000  1
  Ru  Ru6  1  0.007620  0.014623  0.503463  1
  Ru  Ru7  1  0.007620  0.014623  0.996537  1
  Ru  Ru8  1  0.178098  0.821462  0.750000  1
  Ru  Ru9  1  0.642535  0.821228  0.750000  1
  Ru  Ru10  1  0.818972  0.168101  0.250000  1
  Ru  Ru11  1  0.348760  0.167794  0.250000  1
