# generated using pymatgen
data_Hf8In4Cu7Ni
_symmetry_space_group_name_H-M   'P 1'
_cell_length_a   7.20447010
_cell_length_b   7.20447010
_cell_length_c   6.76136503
_cell_angle_alpha   90.04488536
_cell_angle_beta   89.95511464
_cell_angle_gamma   89.84559711
_symmetry_Int_Tables_number   1
_chemical_formula_structural   Hf8In4Cu7Ni
_chemical_formula_sum   'Hf8 In4 Cu7 Ni1'
_cell_volume   350.94303317
_cell_formula_units_Z   1
loop_
 _symmetry_equiv_pos_site_id
 _symmetry_equiv_pos_as_xyz
  1  'x, y, z'
loop_
 _atom_site_type_symbol
 _atom_site_label
 _atom_site_symmetry_multiplicity
 _atom_site_fract_x
 _atom_site_fract_y
 _atom_site_fract_z
 _atom_site_occupancy
  Hf  Hf0  1  0.186627  0.193286  0.996556  1
  Hf  Hf1  1  0.806714  0.813373  0.996556  1
  Hf  Hf2  1  0.307424  0.692576  0.499580  1
  Hf  Hf3  1  0.697896  0.302104  0.504524  1
  Hf  Hf4  1  0.656178  0.343822  0.995946  1
  Hf  Hf5  1  0.350025  0.649975  0.000985  1
  Hf  Hf6  1  0.846502  0.852176  0.505044  1
  Hf  Hf7  1  0.147824  0.153498  0.505044  1
  In  In8  1  0.496508  0.000390  0.249938  1
  In  In9  1  0.999610  0.503492  0.249938  1
  In  In10  1  0.000577  0.501570  0.751346  1
  In  In11  1  0.498430  0.999423  0.751346  1
  Cu  Cu12  1  0.379037  0.375068  0.294096  1
  Cu  Cu13  1  0.624932  0.620963  0.294096  1
  Cu  Cu14  1  0.121980  0.878020  0.206810  1
  Cu  Cu15  1  0.877071  0.122929  0.205934  1
  Cu  Cu16  1  0.623287  0.621609  0.704598  1
  Cu  Cu17  1  0.378391  0.376713  0.704598  1
  Cu  Cu18  1  0.124073  0.875927  0.796184  1
  Ni  Ni19  1  0.876914  0.123086  0.786884  1
