# generated using pymatgen
data_LaTb5(Ir2Rh)6
_symmetry_space_group_name_H-M   'P 1'
_cell_length_a   5.34459620
_cell_length_b   5.34463730
_cell_length_c   17.48015300
_cell_angle_alpha   90.00000000
_cell_angle_beta   90.00000000
_cell_angle_gamma   119.99930330
_symmetry_Int_Tables_number   1
_chemical_formula_structural   LaTb5(Ir2Rh)6
_chemical_formula_sum   'La1 Tb5 Ir12 Rh6'
_cell_volume   432.42624769
_cell_formula_units_Z   1
loop_
 _symmetry_equiv_pos_site_id
 _symmetry_equiv_pos_as_xyz
  1  'x, y, z'
loop_
 _atom_site_type_symbol
 _atom_site_label
 _atom_site_symmetry_multiplicity
 _atom_site_fract_x
 _atom_site_fract_y
 _atom_site_fract_z
 _atom_site_occupancy
  La  La0  1  0.666680  0.333323  0.250000  1
  Tb  Tb1  1  0.333319  0.666663  0.542100  1
  Tb  Tb2  1  0.666646  0.333329  0.040678  1
  Tb  Tb3  1  0.666646  0.333329  0.459322  1
  Tb  Tb4  1  0.333319  0.666663  0.957900  1
  Tb  Tb5  1  0.333347  0.666676  0.750000  1
  Ir  Ir6  1  0.167717  0.335456  0.125344  1
  Ir  Ir7  1  0.832440  0.664868  0.626616  1
  Ir  Ir8  1  0.664547  0.832282  0.125344  1
  Ir  Ir9  1  0.167726  0.832266  0.125337  1
  Ir  Ir10  1  0.832436  0.167572  0.626617  1
  Ir  Ir11  1  0.335165  0.167585  0.626610  1
  Ir  Ir12  1  0.832440  0.664868  0.873384  1
  Ir  Ir13  1  0.832436  0.167572  0.873383  1
  Ir  Ir14  1  0.335165  0.167585  0.873390  1
  Ir  Ir15  1  0.664547  0.832282  0.374656  1
  Ir  Ir16  1  0.167726  0.832266  0.374663  1
  Ir  Ir17  1  0.167717  0.335456  0.374656  1
  Rh  Rh18  1  0.000036  0.999958  0.250000  1
  Rh  Rh19  1  0.000017  0.000005  0.750000  1
  Rh  Rh20  1  0.333345  0.666683  0.250000  1
  Rh  Rh21  1  0.666655  0.333323  0.750000  1
  Rh  Rh22  1  0.999963  0.999994  0.999586  1
  Rh  Rh23  1  0.999963  0.999994  0.500414  1
