# generated using pymatgen
data_Pr4VSiN6
_symmetry_space_group_name_H-M   'P 1'
_cell_length_a   6.10893555
_cell_length_b   6.10893432
_cell_length_c   11.94359301
_cell_angle_alpha   88.78374220
_cell_angle_beta   88.78374537
_cell_angle_gamma   127.22034067
_symmetry_Int_Tables_number   1
_chemical_formula_structural   Pr4VSiN6
_chemical_formula_sum   'Pr8 V2 Si2 N12'
_cell_volume   354.53182967
_cell_formula_units_Z   2
loop_
 _symmetry_equiv_pos_site_id
 _symmetry_equiv_pos_as_xyz
  1  'x, y, z'
loop_
 _atom_site_type_symbol
 _atom_site_label
 _atom_site_symmetry_multiplicity
 _atom_site_fract_x
 _atom_site_fract_y
 _atom_site_fract_z
 _atom_site_occupancy
  Pr  Pr0  1  0.613963  0.829814  0.075954  1
  Pr  Pr1  1  0.480446  0.080424  0.352874  1
  Pr  Pr2  1  0.051042  0.443870  0.856715  1
  Pr  Pr3  1  0.556130  0.948958  0.643285  1
  Pr  Pr4  1  0.351380  0.128308  0.930566  1
  Pr  Pr5  1  0.871692  0.648620  0.569434  1
  Pr  Pr6  1  0.170186  0.386037  0.424046  1
  Pr  Pr7  1  0.919576  0.519554  0.147126  1
  V  V8  1  0.208234  0.203141  0.173240  1
  V  V9  1  0.796859  0.791766  0.326760  1
  Si  Si10  1  0.747459  0.751361  0.832961  1
  Si  Si11  1  0.248639  0.252541  0.667039  1
  N  N12  1  0.051075  0.948925  0.750000  1
  N  N13  1  0.873729  0.126271  0.250000  1
  N  N14  1  0.520607  0.479393  0.750000  1
  N  N15  1  0.503393  0.496607  0.250000  1
  N  N16  1  0.361374  0.019473  0.130320  1
  N  N17  1  0.980527  0.638626  0.369680  1
  N  N18  1  0.605439  0.929090  0.859935  1
  N  N19  1  0.070910  0.394561  0.640065  1
  N  N20  1  0.824146  0.629200  0.949055  1
  N  N21  1  0.669966  0.847571  0.462623  1
  N  N22  1  0.152429  0.330034  0.037377  1
  N  N23  1  0.370800  0.175854  0.550945  1
