# generated using pymatgen
data_Ce2Nd2Zn4Ir3Rh
_symmetry_space_group_name_H-M   'P 1'
_cell_length_a   3.93255100
_cell_length_b   7.45820207
_cell_length_c   16.44293174
_cell_angle_alpha   90.45062706
_cell_angle_beta   90.00000000
_cell_angle_gamma   90.00000000
_symmetry_Int_Tables_number   1
_chemical_formula_structural   Ce2Nd2Zn4Ir3Rh
_chemical_formula_sum   'Ce4 Nd4 Zn8 Ir6 Rh2'
_cell_volume   482.25232632
_cell_formula_units_Z   2
loop_
 _symmetry_equiv_pos_site_id
 _symmetry_equiv_pos_as_xyz
  1  'x, y, z'
loop_
 _atom_site_type_symbol
 _atom_site_label
 _atom_site_symmetry_multiplicity
 _atom_site_fract_x
 _atom_site_fract_y
 _atom_site_fract_z
 _atom_site_occupancy
  Ce  Ce0  1  0.250000  0.175111  0.939913  1
  Ce  Ce1  1  0.250000  0.672993  0.559013  1
  Ce  Ce2  1  0.750000  0.324973  0.440134  1
  Ce  Ce3  1  0.750000  0.946747  0.283773  1
  Nd  Nd4  1  0.750000  0.833487  0.060843  1
  Nd  Nd5  1  0.750000  0.448797  0.216818  1
  Nd  Nd6  1  0.250000  0.050067  0.714712  1
  Nd  Nd7  1  0.250000  0.549077  0.783945  1
  Zn  Zn8  1  0.750000  0.004852  0.560144  1
  Zn  Zn9  1  0.250000  0.615394  0.348903  1
  Zn  Zn10  1  0.750000  0.383615  0.650438  1
  Zn  Zn11  1  0.250000  0.504138  0.060344  1
  Zn  Zn12  1  0.750000  0.508202  0.939540  1
  Zn  Zn13  1  0.250000  0.994308  0.440484  1
  Zn  Zn14  1  0.250000  0.122440  0.151014  1
  Zn  Zn15  1  0.750000  0.882593  0.847155  1
  Ir  Ir16  1  0.750000  0.747364  0.438440  1
  Ir  Ir17  1  0.250000  0.230870  0.318329  1
  Ir  Ir18  1  0.750000  0.244835  0.823163  1
  Ir  Ir19  1  0.750000  0.745813  0.677403  1
  Ir  Ir20  1  0.250000  0.254649  0.559707  1
  Ir  Ir21  1  0.250000  0.756777  0.193179  1
  Rh  Rh22  1  0.750000  0.252812  0.058452  1
  Rh  Rh23  1  0.250000  0.750086  0.934154  1
