# generated using pymatgen
data_Cd2CuAg3O8
_symmetry_space_group_name_H-M   'P 1'
_cell_length_a   6.46481444
_cell_length_b   6.66416285
_cell_length_c   6.53772712
_cell_angle_alpha   126.21032405
_cell_angle_beta   126.04237848
_cell_angle_gamma   80.38354733
_symmetry_Int_Tables_number   1
_chemical_formula_structural   Cd2CuAg3O8
_chemical_formula_sum   'Cd2 Cu1 Ag3 O8'
_cell_volume   176.58266641
_cell_formula_units_Z   1
loop_
 _symmetry_equiv_pos_site_id
 _symmetry_equiv_pos_as_xyz
  1  'x, y, z'
loop_
 _atom_site_type_symbol
 _atom_site_label
 _atom_site_symmetry_multiplicity
 _atom_site_fract_x
 _atom_site_fract_y
 _atom_site_fract_z
 _atom_site_occupancy
  Cd  Cd0  1  0.751427  0.256052  0.504612  1
  Cd  Cd1  1  0.998573  0.993948  0.995388  1
  Cu  Cu2  1  0.375000  0.625000  0.250000  1
  Ag  Ag3  1  0.375000  0.625000  0.750000  1
  Ag  Ag4  1  0.875000  0.625000  0.250000  1
  Ag  Ag5  1  0.375000  0.125000  0.750000  1
  O  O6  1  0.167711  0.604236  0.884112  1
  O  O7  1  0.759924  0.292831  0.150897  1
  O  O8  1  0.346360  0.995668  0.950397  1
  O  O9  1  0.684434  0.833718  0.438199  1
  O  O10  1  0.065566  0.416282  0.061801  1
  O  O11  1  0.403640  0.254332  0.549603  1
  O  O12  1  0.990076  0.957169  0.349103  1
  O  O13  1  0.582289  0.645764  0.615888  1
