# generated using pymatgen
data_SmTh3PdPt11
_symmetry_space_group_name_H-M   'P 1'
_cell_length_a   5.96456318
_cell_length_b   5.96456616
_cell_length_c   9.80496900
_cell_angle_alpha   90.00167656
_cell_angle_beta   89.99840181
_cell_angle_gamma   120.07201249
_symmetry_Int_Tables_number   1
_chemical_formula_structural   SmTh3PdPt11
_chemical_formula_sum   'Sm1 Th3 Pd1 Pt11'
_cell_volume   301.86916833
_cell_formula_units_Z   1
loop_
 _symmetry_equiv_pos_site_id
 _symmetry_equiv_pos_as_xyz
  1  'x, y, z'
loop_
 _atom_site_type_symbol
 _atom_site_label
 _atom_site_symmetry_multiplicity
 _atom_site_fract_x
 _atom_site_fract_y
 _atom_site_fract_z
 _atom_site_occupancy
  Sm  Sm0  1  0.999855  0.000145  0.499840  1
  Th  Th1  1  0.999880  0.000121  0.000070  1
  Th  Th2  1  0.333184  0.666814  0.253033  1
  Th  Th3  1  0.667156  0.332845  0.746896  1
  Pd  Pd4  1  0.175009  0.824991  0.750684  1
  Pt  Pt5  1  0.499974  0.500027  0.500738  1
  Pt  Pt6  1  0.500221  0.000080  0.500353  1
  Pt  Pt7  1  0.999919  0.499776  0.500353  1
  Pt  Pt8  1  0.499985  0.500014  0.999351  1
  Pt  Pt9  1  0.500021  0.000118  0.999610  1
  Pt  Pt10  1  0.999883  0.499980  0.999610  1
  Pt  Pt11  1  0.824516  0.649008  0.249385  1
  Pt  Pt12  1  0.350993  0.175485  0.249385  1
  Pt  Pt13  1  0.825422  0.174578  0.249362  1
  Pt  Pt14  1  0.175671  0.351689  0.750664  1
  Pt  Pt15  1  0.648311  0.824328  0.750665  1
