# generated using pymatgen
data_Ac2CdO2
_symmetry_space_group_name_H-M   'P 1'
_cell_length_a   4.26659606
_cell_length_b   7.45682710
_cell_length_c   4.26841600
_cell_angle_alpha   73.32093401
_cell_angle_beta   90.00966882
_cell_angle_gamma   106.31231285
_symmetry_Int_Tables_number   1
_chemical_formula_structural   Ac2CdO2
_chemical_formula_sum   'Ac2 Cd1 O2'
_cell_volume   124.37177850
_cell_formula_units_Z   1
loop_
 _symmetry_equiv_pos_site_id
 _symmetry_equiv_pos_as_xyz
  1  'x, y, z'
loop_
 _atom_site_type_symbol
 _atom_site_label
 _atom_site_symmetry_multiplicity
 _atom_site_fract_x
 _atom_site_fract_y
 _atom_site_fract_z
 _atom_site_occupancy
  Ac  Ac0  1  0.660777  0.318485  0.342191  1
  Ac  Ac1  1  0.340659  0.685300  0.658336  1
  Cd  Cd2  1  0.004791  0.001609  0.997590  1
  O  O3  1  0.250563  0.501978  0.250175  1
  O  O4  1  0.750599  0.501677  0.750495  1
