# generated using pymatgen
data_Pr7Th(As2Au)8
_symmetry_space_group_name_H-M   'P 1'
_cell_length_a   5.86834900
_cell_length_b   5.89871087
_cell_length_c   20.66415441
_cell_angle_alpha   89.52843794
_cell_angle_beta   90.00067999
_cell_angle_gamma   89.99998083
_symmetry_Int_Tables_number   1
_chemical_formula_structural   Pr7Th(As2Au)8
_chemical_formula_sum   'Pr7 Th1 As16 Au8'
_cell_volume   715.27982001
_cell_formula_units_Z   1
loop_
 _symmetry_equiv_pos_site_id
 _symmetry_equiv_pos_as_xyz
  1  'x, y, z'
loop_
 _atom_site_type_symbol
 _atom_site_label
 _atom_site_symmetry_multiplicity
 _atom_site_fract_x
 _atom_site_fract_y
 _atom_site_fract_z
 _atom_site_occupancy
  Pr  Pr0  1  0.750007  0.008441  0.383616  1
  Pr  Pr1  1  0.750001  0.985607  0.879504  1
  Pr  Pr2  1  0.249995  0.013640  0.121189  1
  Pr  Pr3  1  0.750001  0.492876  0.611346  1
  Pr  Pr4  1  0.250004  0.508562  0.384026  1
  Pr  Pr5  1  0.249999  0.486780  0.883577  1
  Pr  Pr6  1  0.749991  0.513238  0.117463  1
  Th  Th7  1  0.250005  0.992222  0.620345  1
  As  As8  1  0.750002  0.992619  0.656013  1
  As  As9  1  0.250004  0.009302  0.340664  1
  As  As10  1  0.250003  0.987905  0.837441  1
  As  As11  1  0.749994  0.012243  0.161042  1
  As  As12  1  0.250004  0.492334  0.655138  1
  As  As13  1  0.750001  0.509487  0.343129  1
  As  As14  1  0.750000  0.487951  0.838987  1
  As  As15  1  0.249996  0.512099  0.160157  1
  As  As16  1  0.026295  0.222081  0.502205  1
  As  As17  1  0.476316  0.776306  0.501975  1
  As  As18  1  0.971439  0.221635  0.998454  1
  As  As19  1  0.470977  0.779062  0.000185  1
  As  As20  1  0.023696  0.776312  0.501976  1
  As  As21  1  0.473709  0.222082  0.502201  1
  As  As22  1  0.029021  0.779065  0.000184  1
  As  As23  1  0.528558  0.221621  0.998455  1
  Au  Au24  1  0.500339  0.730586  0.748571  1
  Au  Au25  1  0.999016  0.267814  0.251464  1
  Au  Au26  1  0.500992  0.267817  0.251466  1
  Au  Au27  1  0.999649  0.730586  0.748570  1
  Au  Au28  1  0.500911  0.234620  0.748805  1
  Au  Au29  1  0.999468  0.765238  0.251523  1
  Au  Au30  1  0.500523  0.765240  0.251520  1
  Au  Au31  1  0.999083  0.234628  0.748808  1
