# generated using pymatgen
data_Y8Zr11Si16Mo
_symmetry_space_group_name_H-M   'P 1'
_cell_length_a   7.10154828
_cell_length_b   7.28490730
_cell_length_c   13.92612400
_cell_angle_alpha   90.00000000
_cell_angle_beta   90.00000000
_cell_angle_gamma   90.06871784
_symmetry_Int_Tables_number   1
_chemical_formula_structural   Y8Zr11Si16Mo
_chemical_formula_sum   'Y8 Zr11 Si16 Mo1'
_cell_volume   720.45526527
_cell_formula_units_Z   1
loop_
 _symmetry_equiv_pos_site_id
 _symmetry_equiv_pos_as_xyz
  1  'x, y, z'
loop_
 _atom_site_type_symbol
 _atom_site_label
 _atom_site_symmetry_multiplicity
 _atom_site_fract_x
 _atom_site_fract_y
 _atom_site_fract_z
 _atom_site_occupancy
  Y  Y0  1  0.521353  0.674562  0.599522  1
  Y  Y1  1  0.017236  0.821144  0.900049  1
  Y  Y2  1  0.480614  0.323426  0.096163  1
  Y  Y3  1  0.981266  0.176994  0.404445  1
  Y  Y4  1  0.480614  0.323426  0.403837  1
  Y  Y5  1  0.981266  0.176994  0.095555  1
  Y  Y6  1  0.521353  0.674562  0.900478  1
  Y  Y7  1  0.017236  0.821144  0.599951  1
  Zr  Zr8  1  0.679617  0.178555  0.625874  1
  Zr  Zr9  1  0.174092  0.325774  0.873813  1
  Zr  Zr10  1  0.323849  0.823887  0.124293  1
  Zr  Zr11  1  0.824042  0.676858  0.376669  1
  Zr  Zr12  1  0.323849  0.823887  0.375707  1
  Zr  Zr13  1  0.824042  0.676858  0.123331  1
  Zr  Zr14  1  0.679617  0.178555  0.874126  1
  Zr  Zr15  1  0.174092  0.325774  0.626187  1
  Zr  Zr16  1  0.350413  0.002743  0.750000  1
  Zr  Zr17  1  0.148478  0.501448  0.250000  1
  Zr  Zr18  1  0.649615  0.997751  0.250000  1
  Si  Si19  1  0.650494  0.969099  0.459526  1
  Si  Si20  1  0.151754  0.532958  0.039688  1
  Si  Si21  1  0.348195  0.032195  0.958083  1
  Si  Si22  1  0.849670  0.469937  0.545205  1
  Si  Si23  1  0.348195  0.032195  0.541917  1
  Si  Si24  1  0.849670  0.469937  0.954795  1
  Si  Si25  1  0.650494  0.969099  0.040474  1
  Si  Si26  1  0.151754  0.532958  0.460312  1
  Si  Si27  1  0.479431  0.386735  0.750000  1
  Si  Si28  1  0.972960  0.117828  0.750000  1
  Si  Si29  1  0.525740  0.616983  0.250000  1
  Si  Si30  1  0.025773  0.881599  0.250000  1
  Si  Si31  1  0.725293  0.868620  0.750000  1
  Si  Si32  1  0.216386  0.625395  0.750000  1
  Si  Si33  1  0.274607  0.126648  0.250000  1
  Si  Si34  1  0.774822  0.372949  0.250000  1
  Mo  Mo35  1  0.852118  0.490523  0.750000  1
