# generated using pymatgen
data_TmTh7(WC2)4
_symmetry_space_group_name_H-M   'P 1'
_cell_length_a   5.35097100
_cell_length_b   6.78538884
_cell_length_c   10.20169700
_cell_angle_alpha   89.76755311
_cell_angle_beta   90.00000000
_cell_angle_gamma   90.00000000
_symmetry_Int_Tables_number   1
_chemical_formula_structural   TmTh7(WC2)4
_chemical_formula_sum   'Tm1 Th7 W4 C8'
_cell_volume   370.40443998
_cell_formula_units_Z   1
loop_
 _symmetry_equiv_pos_site_id
 _symmetry_equiv_pos_as_xyz
  1  'x, y, z'
loop_
 _atom_site_type_symbol
 _atom_site_label
 _atom_site_symmetry_multiplicity
 _atom_site_fract_x
 _atom_site_fract_y
 _atom_site_fract_z
 _atom_site_occupancy
  Tm  Tm0  1  0.750000  0.176074  0.944343  1
  Th  Th1  1  0.250000  0.464106  0.784031  1
  Th  Th2  1  0.750000  0.033552  0.275448  1
  Th  Th3  1  0.250000  0.967814  0.722480  1
  Th  Th4  1  0.750000  0.531518  0.218531  1
  Th  Th5  1  0.250000  0.818834  0.049675  1
  Th  Th6  1  0.750000  0.685507  0.551187  1
  Th  Th7  1  0.250000  0.312861  0.449162  1
  W  W8  1  0.250000  0.277703  0.131095  1
  W  W9  1  0.750000  0.224421  0.637599  1
  W  W10  1  0.250000  0.776978  0.365078  1
  W  W11  1  0.750000  0.724654  0.866962  1
  C  C12  1  0.250000  0.668115  0.554217  1
  C  C13  1  0.750000  0.834186  0.053392  1
  C  C14  1  0.250000  0.170619  0.944977  1
  C  C15  1  0.750000  0.332897  0.446851  1
  C  C16  1  0.250000  0.041386  0.256899  1
  C  C17  1  0.750000  0.456144  0.763417  1
  C  C18  1  0.250000  0.540327  0.240438  1
  C  C19  1  0.750000  0.962301  0.744217  1
