# generated using pymatgen
data_Tb2Yb2SiNi13
_symmetry_space_group_name_H-M   'P 1'
_cell_length_a   4.85350676
_cell_length_b   4.85350633
_cell_length_c   12.30285911
_cell_angle_alpha   78.62993429
_cell_angle_beta   78.62993305
_cell_angle_gamma   61.55807948
_symmetry_Int_Tables_number   1
_chemical_formula_structural   Tb2Yb2SiNi13
_chemical_formula_sum   'Tb2 Yb2 Si1 Ni13'
_cell_volume   248.03255330
_cell_formula_units_Z   1
loop_
 _symmetry_equiv_pos_site_id
 _symmetry_equiv_pos_as_xyz
  1  'x, y, z'
loop_
 _atom_site_type_symbol
 _atom_site_label
 _atom_site_symmetry_multiplicity
 _atom_site_fract_x
 _atom_site_fract_y
 _atom_site_fract_z
 _atom_site_occupancy
  Tb  Tb0  1  0.946168  0.946168  0.161535  1
  Tb  Tb1  1  0.053832  0.053832  0.838465  1
  Yb  Yb2  1  0.850701  0.850701  0.447748  1
  Yb  Yb3  1  0.149299  0.149299  0.552252  1
  Si  Si4  1  0.500000  0.500000  0.000000  1
  Ni  Ni5  1  0.500000  0.500000  0.500000  1
  Ni  Ni6  1  0.717329  0.717329  0.834641  1
  Ni  Ni7  1  0.282671  0.282671  0.165359  1
  Ni  Ni8  1  0.606193  0.606193  0.164711  1
  Ni  Ni9  1  0.393807  0.393807  0.835289  1
  Ni  Ni10  1  0.000000  0.500000  0.000000  1
  Ni  Ni11  1  0.500000  0.000000  0.000000  1
  Ni  Ni12  1  0.388240  0.388240  0.332831  1
  Ni  Ni13  1  0.890243  0.390497  0.329744  1
  Ni  Ni14  1  0.390497  0.890243  0.329744  1
  Ni  Ni15  1  0.611760  0.611760  0.667169  1
  Ni  Ni16  1  0.109757  0.609503  0.670256  1
  Ni  Ni17  1  0.609503  0.109757  0.670256  1
