# generated using pymatgen
data_Nd5Rh3
_symmetry_space_group_name_H-M   'P 1'
_cell_length_a   11.25264900
_cell_length_b   11.25264900
_cell_length_c   6.58541800
_cell_angle_alpha   90.00000000
_cell_angle_beta   90.00000000
_cell_angle_gamma   90.00000000
_symmetry_Int_Tables_number   1
_chemical_formula_structural   Nd5Rh3
_chemical_formula_sum   'Nd20 Rh12'
_cell_volume   833.85951921
_cell_formula_units_Z   4
loop_
 _symmetry_equiv_pos_site_id
 _symmetry_equiv_pos_as_xyz
  1  'x, y, z'
loop_
 _atom_site_type_symbol
 _atom_site_label
 _atom_site_symmetry_multiplicity
 _atom_site_fract_x
 _atom_site_fract_y
 _atom_site_fract_z
 _atom_site_occupancy
  Nd  Nd0  1  0.090937  0.291346  0.116739  1
  Nd  Nd1  1  0.791346  0.409063  0.116739  1
  Nd  Nd2  1  0.208654  0.590937  0.116739  1
  Nd  Nd3  1  0.909063  0.708654  0.116739  1
  Nd  Nd4  1  0.409063  0.791346  0.383261  1
  Nd  Nd5  1  0.590937  0.208654  0.383261  1
  Nd  Nd6  1  0.291346  0.090937  0.383261  1
  Nd  Nd7  1  0.708654  0.909063  0.383261  1
  Nd  Nd8  1  0.409063  0.208654  0.883261  1
  Nd  Nd9  1  0.708654  0.090937  0.883261  1
  Nd  Nd10  1  0.291346  0.909063  0.883261  1
  Nd  Nd11  1  0.590937  0.791346  0.883261  1
  Nd  Nd12  1  0.090937  0.708654  0.616739  1
  Nd  Nd13  1  0.909063  0.291346  0.616739  1
  Nd  Nd14  1  0.208654  0.409063  0.616739  1
  Nd  Nd15  1  0.791346  0.590937  0.616739  1
  Nd  Nd16  1  0.000000  0.000000  0.000000  1
  Nd  Nd17  1  0.500000  0.500000  0.000000  1
  Nd  Nd18  1  0.500000  0.500000  0.500000  1
  Nd  Nd19  1  0.000000  0.000000  0.500000  1
  Rh  Rh20  1  0.154015  0.845985  0.250000  1
  Rh  Rh21  1  0.345985  0.345985  0.250000  1
  Rh  Rh22  1  0.654015  0.654015  0.250000  1
  Rh  Rh23  1  0.845985  0.154015  0.250000  1
  Rh  Rh24  1  0.345985  0.654015  0.750000  1
  Rh  Rh25  1  0.154015  0.154015  0.750000  1
  Rh  Rh26  1  0.845985  0.845985  0.750000  1
  Rh  Rh27  1  0.654015  0.345985  0.750000  1
  Rh  Rh28  1  0.000000  0.500000  0.378086  1
  Rh  Rh29  1  0.500000  0.000000  0.121914  1
  Rh  Rh30  1  0.500000  0.000000  0.621914  1
  Rh  Rh31  1  0.000000  0.500000  0.878086  1
