# generated using pymatgen
data_Ac2HgO4
_symmetry_space_group_name_H-M   'P 1'
_cell_length_a   7.55171973
_cell_length_b   7.55171945
_cell_length_c   10.68815289
_cell_angle_alpha   62.04353225
_cell_angle_beta   62.04353203
_cell_angle_gamma   31.59576964
_symmetry_Int_Tables_number   1
_chemical_formula_structural   Ac2HgO4
_chemical_formula_sum   'Ac4 Hg2 O8'
_cell_volume   278.88146876
_cell_formula_units_Z   2
loop_
 _symmetry_equiv_pos_site_id
 _symmetry_equiv_pos_as_xyz
  1  'x, y, z'
loop_
 _atom_site_type_symbol
 _atom_site_label
 _atom_site_symmetry_multiplicity
 _atom_site_fract_x
 _atom_site_fract_y
 _atom_site_fract_z
 _atom_site_occupancy
  Ac  Ac0  1  0.619490  0.619490  0.545522  1
  Ac  Ac1  1  0.159561  0.159561  0.202816  1
  Ac  Ac2  1  0.840439  0.840439  0.797184  1
  Ac  Ac3  1  0.380510  0.380510  0.454478  1
  Hg  Hg4  1  0.883352  0.883352  0.162695  1
  Hg  Hg5  1  0.116648  0.116648  0.837305  1
  O  O6  1  0.222235  0.222235  0.394654  1
  O  O7  1  0.795891  0.795891  0.063119  1
  O  O8  1  0.037831  0.037831  0.725742  1
  O  O9  1  0.580082  0.580082  0.344629  1
  O  O10  1  0.419918  0.419918  0.655371  1
  O  O11  1  0.962169  0.962169  0.274258  1
  O  O12  1  0.204109  0.204109  0.936881  1
  O  O13  1  0.777765  0.777765  0.605346  1
