# generated using pymatgen
data_PdPt5(PbS)4
_symmetry_space_group_name_H-M   'P 1'
_cell_length_a   7.38442594
_cell_length_b   7.46316514
_cell_length_c   7.38442693
_cell_angle_alpha   109.42442163
_cell_angle_beta   108.96385226
_cell_angle_gamma   109.59342583
_symmetry_Int_Tables_number   1
_chemical_formula_structural   PdPt5(PbS)4
_chemical_formula_sum   'Pd1 Pt5 Pb4 S4'
_cell_volume   314.93284703
_cell_formula_units_Z   1
loop_
 _symmetry_equiv_pos_site_id
 _symmetry_equiv_pos_as_xyz
  1  'x, y, z'
loop_
 _atom_site_type_symbol
 _atom_site_label
 _atom_site_symmetry_multiplicity
 _atom_site_fract_x
 _atom_site_fract_y
 _atom_site_fract_z
 _atom_site_occupancy
  Pd  Pd0  1  0.276532  0.250000  0.526532  1
  Pt  Pt1  1  0.971319  0.216941  0.745666  1
  Pt  Pt2  1  0.752077  0.966677  0.219528  1
  Pt  Pt3  1  0.218614  0.750000  0.968614  1
  Pt  Pt4  1  0.528725  0.283059  0.254377  1
  Pt  Pt5  1  0.252851  0.533323  0.285399  1
  Pb  Pb6  1  0.500044  0.500216  0.998836  1
  Pb  Pb7  1  0.498620  0.999784  0.499828  1
  Pb  Pb8  1  0.997304  0.996947  0.993260  1
  Pb  Pb9  1  0.996313  0.503053  0.500357  1
  S  S10  1  0.503144  0.004493  0.964368  1
  S  S11  1  0.544837  0.547729  0.547476  1
  S  S12  1  0.999747  0.952271  0.497107  1
  S  S13  1  0.959875  0.495507  0.998651  1
