# generated using pymatgen
data_Hf2Pd5Pt
_symmetry_space_group_name_H-M   'P 1'
_cell_length_a   5.67450635
_cell_length_b   5.67450618
_cell_length_c   9.30069333
_cell_angle_alpha   89.84435130
_cell_angle_beta   89.84434885
_cell_angle_gamma   119.97663177
_symmetry_Int_Tables_number   1
_chemical_formula_structural   Hf2Pd5Pt
_chemical_formula_sum   'Hf4 Pd10 Pt2'
_cell_volume   259.41669771
_cell_formula_units_Z   2
loop_
 _symmetry_equiv_pos_site_id
 _symmetry_equiv_pos_as_xyz
  1  'x, y, z'
loop_
 _atom_site_type_symbol
 _atom_site_label
 _atom_site_symmetry_multiplicity
 _atom_site_fract_x
 _atom_site_fract_y
 _atom_site_fract_z
 _atom_site_occupancy
  Hf  Hf0  1  0.667051  0.332949  0.750000  1
  Hf  Hf1  1  0.332949  0.667051  0.250000  1
  Hf  Hf2  1  0.000000  0.000000  0.500000  1
  Hf  Hf3  1  0.000000  0.000000  0.000000  1
  Pd  Pd4  1  0.168907  0.337011  0.749776  1
  Pd  Pd5  1  0.831260  0.168740  0.250000  1
  Pd  Pd6  1  0.337011  0.168907  0.249776  1
  Pd  Pd7  1  0.662989  0.831093  0.750224  1
  Pd  Pd8  1  0.500000  0.500000  0.500000  1
  Pd  Pd9  1  0.000000  0.500000  0.000000  1
  Pd  Pd10  1  0.500000  0.500000  0.000000  1
  Pd  Pd11  1  0.500000  0.000000  0.500000  1
  Pd  Pd12  1  0.831093  0.662989  0.250224  1
  Pd  Pd13  1  0.168740  0.831260  0.750000  1
  Pt  Pt14  1  0.500000  0.000000  0.000000  1
  Pt  Pt15  1  0.000000  0.500000  0.500000  1
