# generated using pymatgen
data_La12Fe(PtCl4)3
_symmetry_space_group_name_H-M   'P 1'
_cell_length_a   10.39030461
_cell_length_b   10.39030467
_cell_length_c   10.49480400
_cell_angle_alpha   109.67508299
_cell_angle_beta   109.67508310
_cell_angle_gamma   109.26658545
_symmetry_Int_Tables_number   1
_chemical_formula_structural   La12Fe(PtCl4)3
_chemical_formula_sum   'La12 Fe1 Pt3 Cl12'
_cell_volume   869.98183846
_cell_formula_units_Z   1
loop_
 _symmetry_equiv_pos_site_id
 _symmetry_equiv_pos_as_xyz
  1  'x, y, z'
loop_
 _atom_site_type_symbol
 _atom_site_label
 _atom_site_symmetry_multiplicity
 _atom_site_fract_x
 _atom_site_fract_y
 _atom_site_fract_z
 _atom_site_occupancy
  La  La0  1  0.270017  0.764765  0.243604  1
  La  La1  1  0.494747  0.764765  0.021160  1
  La  La2  1  0.240506  0.481012  0.490506  1
  La  La3  1  0.008241  0.016483  0.258241  1
  La  La4  1  0.240506  0.259494  0.750000  1
  La  La5  1  0.008241  0.491759  0.750000  1
  La  La6  1  0.494747  0.229983  0.473586  1
  La  La7  1  0.270017  0.005253  0.026414  1
  La  La8  1  0.735235  0.229983  0.256396  1
  La  La9  1  0.735235  0.005253  0.478840  1
  La  La10  1  0.483517  0.491759  0.241759  1
  La  La11  1  0.018988  0.259494  0.009494  1
  Fe  Fe12  1  0.500000  0.000000  0.250000  1
  Pt  Pt13  1  0.250214  0.500427  0.000214  1
  Pt  Pt14  1  0.999573  0.249786  0.499786  1
  Pt  Pt15  1  0.250214  0.249786  0.250000  1
  Cl  Cl16  1  0.250010  0.000168  0.501266  1
  Cl  Cl17  1  0.497525  0.498761  0.748761  1
  Cl  Cl18  1  0.250010  0.749841  0.748743  1
  Cl  Cl19  1  0.997628  0.748815  0.998815  1
  Cl  Cl20  1  0.001239  0.498761  0.250000  1
  Cl  Cl21  1  0.750159  0.000168  0.998901  1
  Cl  Cl22  1  0.751185  0.748815  0.250000  1
  Cl  Cl23  1  0.499832  0.749841  0.501099  1
  Cl  Cl24  1  0.499832  0.249990  0.998734  1
  Cl  Cl25  1  0.751185  0.502372  0.501185  1
  Cl  Cl26  1  0.750159  0.249990  0.751257  1
  Cl  Cl27  1  0.001239  0.002475  0.751239  1
