# generated using pymatgen
data_NdSc4(Sn3Os)6
_symmetry_space_group_name_H-M   'P 1'
_cell_length_a   9.78733324
_cell_length_b   9.78733311
_cell_length_c   9.78733400
_cell_angle_alpha   59.99999700
_cell_angle_beta   59.99999743
_cell_angle_gamma   60.00000176
_symmetry_Int_Tables_number   1
_chemical_formula_structural   NdSc4(Sn3Os)6
_chemical_formula_sum   'Nd1 Sc4 Sn18 Os6'
_cell_volume   662.94598398
_cell_formula_units_Z   1
loop_
 _symmetry_equiv_pos_site_id
 _symmetry_equiv_pos_as_xyz
  1  'x, y, z'
loop_
 _atom_site_type_symbol
 _atom_site_label
 _atom_site_symmetry_multiplicity
 _atom_site_fract_x
 _atom_site_fract_y
 _atom_site_fract_z
 _atom_site_occupancy
  Nd  Nd0  1  0.000000  0.000000  0.000000  1
  Sc  Sc1  1  0.373914  0.373915  0.878259  1
  Sc  Sc2  1  0.373915  0.878258  0.373914  1
  Sc  Sc3  1  0.878258  0.373915  0.373914  1
  Sc  Sc4  1  0.373915  0.373914  0.373914  1
  Sn  Sn5  1  0.592264  0.592264  0.223210  1
  Sn  Sn6  1  0.592264  0.223210  0.592264  1
  Sn  Sn7  1  0.223210  0.592264  0.592264  1
  Sn  Sn8  1  0.592264  0.592264  0.592264  1
  Sn  Sn9  1  0.750000  0.750000  0.750000  1
  Sn  Sn10  1  0.999171  0.352807  0.648853  1
  Sn  Sn11  1  0.999171  0.999171  0.648853  1
  Sn  Sn12  1  0.352807  0.999171  0.648853  1
  Sn  Sn13  1  0.999171  0.648853  0.352807  1
  Sn  Sn14  1  0.352807  0.648853  0.999171  1
  Sn  Sn15  1  0.999171  0.648853  0.999171  1
  Sn  Sn16  1  0.648853  0.999171  0.999171  1
  Sn  Sn17  1  0.648853  0.352807  0.999171  1
  Sn  Sn18  1  0.648853  0.999171  0.352807  1
  Sn  Sn19  1  0.352807  0.999171  0.999171  1
  Sn  Sn20  1  0.999171  0.999171  0.352807  1
  Sn  Sn21  1  0.999171  0.352807  0.999171  1
  Sn  Sn22  1  0.250000  0.250000  0.250000  1
  Os  Os23  1  0.259195  0.259195  0.740805  1
  Os  Os24  1  0.740805  0.259195  0.740805  1
  Os  Os25  1  0.259195  0.740805  0.740805  1
  Os  Os26  1  0.740805  0.740805  0.259195  1
  Os  Os27  1  0.259195  0.740805  0.259195  1
  Os  Os28  1  0.740805  0.259195  0.259195  1
