# generated using pymatgen
data_U4Si4PtRhW2
_symmetry_space_group_name_H-M   'P 1'
_cell_length_a   3.62658700
_cell_length_b   7.64969496
_cell_length_c   7.49088602
_cell_angle_alpha   90.29827068
_cell_angle_beta   90.00000000
_cell_angle_gamma   90.00000000
_symmetry_Int_Tables_number   1
_chemical_formula_structural   U4Si4PtRhW2
_chemical_formula_sum   'U4 Si4 Pt1 Rh1 W2'
_cell_volume   207.81147369
_cell_formula_units_Z   1
loop_
 _symmetry_equiv_pos_site_id
 _symmetry_equiv_pos_as_xyz
  1  'x, y, z'
loop_
 _atom_site_type_symbol
 _atom_site_label
 _atom_site_symmetry_multiplicity
 _atom_site_fract_x
 _atom_site_fract_y
 _atom_site_fract_z
 _atom_site_occupancy
  U  U0  1  0.750000  0.621290  0.480162  1
  U  U1  1  0.250000  0.376632  0.515231  1
  U  U2  1  0.750000  0.876545  0.995610  1
  U  U3  1  0.250000  0.123549  0.006118  1
  Si  Si4  1  0.750000  0.130958  0.701637  1
  Si  Si5  1  0.250000  0.874704  0.298429  1
  Si  Si6  1  0.750000  0.348118  0.206806  1
  Si  Si7  1  0.250000  0.648150  0.792620  1
  Pt  Pt8  1  0.250000  0.922548  0.630947  1
  Rh  Rh9  1  0.750000  0.076911  0.372332  1
  W  W10  1  0.250000  0.570145  0.130990  1
  W  W11  1  0.750000  0.430451  0.869116  1
