# generated using pymatgen
data_Tb12Fe2Br17
_symmetry_space_group_name_H-M   'P 1'
_cell_length_a   9.23040396
_cell_length_b   11.09618976
_cell_length_c   11.14429919
_cell_angle_alpha   93.53261703
_cell_angle_beta   104.64932457
_cell_angle_gamma   114.08984650
_symmetry_Int_Tables_number   1
_chemical_formula_structural   Tb12Fe2Br17
_chemical_formula_sum   'Tb12 Fe2 Br17'
_cell_volume   990.42611080
_cell_formula_units_Z   1
loop_
 _symmetry_equiv_pos_site_id
 _symmetry_equiv_pos_as_xyz
  1  'x, y, z'
loop_
 _atom_site_type_symbol
 _atom_site_label
 _atom_site_symmetry_multiplicity
 _atom_site_fract_x
 _atom_site_fract_y
 _atom_site_fract_z
 _atom_site_occupancy
  Tb  Tb0  1  0.059117  0.512763  0.321432  1
  Tb  Tb1  1  0.984753  0.810833  0.578439  1
  Tb  Tb2  1  0.644725  0.239081  0.285527  1
  Tb  Tb3  1  0.015247  0.189167  0.421561  1
  Tb  Tb4  1  0.227519  0.671001  0.992322  1
  Tb  Tb5  1  0.258566  0.989297  0.890898  1
  Tb  Tb6  1  0.355275  0.760919  0.714473  1
  Tb  Tb7  1  0.940883  0.487237  0.678568  1
  Tb  Tb8  1  0.741434  0.010703  0.109102  1
  Tb  Tb9  1  0.152866  0.288059  0.150763  1
  Tb  Tb10  1  0.772481  0.328999  0.007678  1
  Tb  Tb11  1  0.847134  0.711941  0.849237  1
  Fe  Fe12  1  0.103982  0.738889  0.785837  1
  Fe  Fe13  1  0.896018  0.261111  0.214163  1
  Br  Br14  1  0.789785  0.526484  0.420419  1
  Br  Br15  1  0.646161  0.422200  0.761064  1
  Br  Br16  1  0.846522  0.899560  0.327200  1
  Br  Br17  1  0.324026  0.213422  0.365593  1
  Br  Br18  1  0.153478  0.100440  0.672800  1
  Br  Br19  1  0.584683  0.051307  0.847675  1
  Br  Br20  1  0.759377  0.187142  0.536083  1
  Br  Br21  1  0.547852  0.709524  0.951131  1
  Br  Br22  1  0.353839  0.577800  0.238936  1
  Br  Br23  1  0.210215  0.473516  0.579581  1
  Br  Br24  1  0.055116  0.371522  0.900312  1
  Br  Br25  1  0.452148  0.290476  0.048869  1
  Br  Br26  1  0.000000  0.000000  0.000000  1
  Br  Br27  1  0.240623  0.812858  0.463917  1
  Br  Br28  1  0.415317  0.948693  0.152325  1
  Br  Br29  1  0.675974  0.786578  0.634407  1
  Br  Br30  1  0.944884  0.628478  0.099688  1
