# generated using pymatgen
data_TbZnHgPt3
_symmetry_space_group_name_H-M   'P 1'
_cell_length_a   5.23554464
_cell_length_b   5.51357706
_cell_length_c   5.51357600
_cell_angle_alpha   60.00000635
_cell_angle_beta   58.22719872
_cell_angle_gamma   58.22719494
_symmetry_Int_Tables_number   1
_chemical_formula_structural   TbZnHgPt3
_chemical_formula_sum   'Tb1 Zn1 Hg1 Pt3'
_cell_volume   109.43118407
_cell_formula_units_Z   1
loop_
 _symmetry_equiv_pos_site_id
 _symmetry_equiv_pos_as_xyz
  1  'x, y, z'
loop_
 _atom_site_type_symbol
 _atom_site_label
 _atom_site_symmetry_multiplicity
 _atom_site_fract_x
 _atom_site_fract_y
 _atom_site_fract_z
 _atom_site_occupancy
  Tb  Tb0  1  0.736054  0.754649  0.754649  1
  Zn  Zn1  1  0.880327  0.373224  0.373224  1
  Hg  Hg2  1  0.996964  0.001012  0.001012  1
  Pt  Pt3  1  0.378884  0.874446  0.373334  1
  Pt  Pt4  1  0.378884  0.373334  0.373334  1
  Pt  Pt5  1  0.378884  0.373334  0.874446  1
