# generated using pymatgen
data_Hf8Al14FeRh7
_symmetry_space_group_name_H-M   'P 1'
_cell_length_a   8.84125551
_cell_length_b   8.84119969
_cell_length_c   8.84112600
_cell_angle_alpha   120.08460362
_cell_angle_beta   119.94197285
_cell_angle_gamma   89.97742475
_symmetry_Int_Tables_number   1
_chemical_formula_structural   Hf8Al14FeRh7
_chemical_formula_sum   'Hf8 Al14 Fe1 Rh7'
_cell_volume   488.57147979
_cell_formula_units_Z   1
loop_
 _symmetry_equiv_pos_site_id
 _symmetry_equiv_pos_as_xyz
  1  'x, y, z'
loop_
 _atom_site_type_symbol
 _atom_site_label
 _atom_site_symmetry_multiplicity
 _atom_site_fract_x
 _atom_site_fract_y
 _atom_site_fract_z
 _atom_site_occupancy
  Hf  Hf0  1  0.809130  0.304476  0.102731  1
  Hf  Hf1  1  0.201731  0.304474  0.495338  1
  Hf  Hf2  1  0.189086  0.689084  0.500007  1
  Hf  Hf3  1  0.201738  0.706405  0.897272  1
  Hf  Hf4  1  0.809129  0.706403  0.504661  1
  Hf  Hf5  1  0.789938  0.289938  0.500009  1
  Hf  Hf6  1  0.379330  0.120197  0.740861  1
  Hf  Hf7  1  0.379341  0.638472  0.259142  1
  Al  Al8  1  0.163794  0.328639  0.164854  1
  Al  Al9  1  0.163782  0.998947  0.835146  1
  Al  Al10  1  0.153173  0.339320  0.813847  1
  Al  Al11  1  0.525473  0.339298  0.186168  1
  Al  Al12  1  0.836644  0.661236  0.824601  1
  Al  Al13  1  0.836627  0.012050  0.175399  1
  Al  Al14  1  0.833045  0.665886  0.167153  1
  Al  Al15  1  0.498730  0.665864  0.832862  1
  Al  Al16  1  0.379530  0.119843  0.259694  1
  Al  Al17  1  0.860146  0.119847  0.740303  1
  Al  Al18  1  0.621719  0.878498  0.256779  1
  Al  Al19  1  0.621723  0.364947  0.743227  1
  Al  Al20  1  0.624122  0.879581  0.744544  1
  Al  Al21  1  0.135034  0.879590  0.255450  1
  Fe  Fe22  1  0.990784  0.490788  0.499992  1
  Rh  Rh23  1  0.999046  0.997897  0.500630  1
  Rh  Rh24  1  0.497206  0.997864  0.998797  1
  Rh  Rh25  1  0.498846  0.498799  0.000026  1
  Rh  Rh26  1  0.497260  0.498399  0.499353  1
  Rh  Rh27  1  0.999088  0.498440  0.001177  1
  Rh  Rh28  1  0.000067  0.000088  0.999973  1
  Rh  Rh29  1  0.504730  0.004729  0.500003  1
