# generated using pymatgen
data_Pr(SeI)2
_symmetry_space_group_name_H-M   'P 1'
_cell_length_a   8.41656649
_cell_length_b   8.41968181
_cell_length_c   8.93485282
_cell_angle_alpha   81.62058239
_cell_angle_beta   81.37396697
_cell_angle_gamma   120.77666107
_symmetry_Int_Tables_number   1
_chemical_formula_structural   Pr(SeI)2
_chemical_formula_sum   'Pr2 Se4 I4'
_cell_volume   519.06939003
_cell_formula_units_Z   2
loop_
 _symmetry_equiv_pos_site_id
 _symmetry_equiv_pos_as_xyz
  1  'x, y, z'
loop_
 _atom_site_type_symbol
 _atom_site_label
 _atom_site_symmetry_multiplicity
 _atom_site_fract_x
 _atom_site_fract_y
 _atom_site_fract_z
 _atom_site_occupancy
  Pr  Pr0  1  0.831694  0.168831  0.001990  1
  Pr  Pr1  1  0.168760  0.831647  0.001995  1
  Se  Se2  1  0.904896  0.905495  0.222659  1
  Se  Se3  1  0.080542  0.079765  0.777693  1
  Se  Se4  1  0.760742  0.761118  0.041621  1
  Se  Se5  1  0.236025  0.235614  0.949414  1
  I  I6  1  0.980678  0.428562  0.242436  1
  I  I7  1  0.427939  0.982011  0.242572  1
  I  I8  1  0.573308  0.034213  0.760018  1
  I  I9  1  0.035416  0.572740  0.759601  1
