# generated using pymatgen
data_Ce4HoTm3(B6Os)4
_symmetry_space_group_name_H-M   'P 1'
_cell_length_a   3.68028700
_cell_length_b   9.16939704
_cell_length_c   11.55556005
_cell_angle_alpha   90.01036020
_cell_angle_beta   90.00000000
_cell_angle_gamma   90.00000000
_symmetry_Int_Tables_number   1
_chemical_formula_structural   Ce4HoTm3(B6Os)4
_chemical_formula_sum   'Ce4 Ho1 Tm3 B24 Os4'
_cell_volume   389.95406991
_cell_formula_units_Z   1
loop_
 _symmetry_equiv_pos_site_id
 _symmetry_equiv_pos_as_xyz
  1  'x, y, z'
loop_
 _atom_site_type_symbol
 _atom_site_label
 _atom_site_symmetry_multiplicity
 _atom_site_fract_x
 _atom_site_fract_y
 _atom_site_fract_z
 _atom_site_occupancy
  Ce  Ce0  1  0.000000  0.322816  0.413850  1
  Ce  Ce1  1  0.000000  0.677143  0.586436  1
  Ce  Ce2  1  0.000000  0.822577  0.086087  1
  Ce  Ce3  1  0.000000  0.177415  0.913713  1
  Ho  Ho4  1  0.000000  0.944846  0.374241  1
  Tm  Tm5  1  0.000000  0.055372  0.626180  1
  Tm  Tm6  1  0.000000  0.444787  0.125610  1
  Tm  Tm7  1  0.000000  0.555273  0.874223  1
  B  B8  1  0.500000  0.554215  0.431948  1
  B  B9  1  0.500000  0.445256  0.568191  1
  B  B10  1  0.500000  0.054775  0.067766  1
  B  B11  1  0.500000  0.945347  0.931989  1
  B  B12  1  0.500000  0.749032  0.418886  1
  B  B13  1  0.500000  0.250258  0.581316  1
  B  B14  1  0.500000  0.250124  0.080909  1
  B  B15  1  0.500000  0.750056  0.918944  1
  B  B16  1  0.500000  0.791851  0.266195  1
  B  B17  1  0.500000  0.207524  0.733668  1
  B  B18  1  0.500000  0.292860  0.233285  1
  B  B19  1  0.500000  0.707432  0.766628  1
  B  B20  1  0.500000  0.631742  0.184333  1
  B  B21  1  0.500000  0.368046  0.815532  1
  B  B22  1  0.500000  0.132696  0.315053  1
  B  B23  1  0.500000  0.867914  0.684807  1
  B  B24  1  0.500000  0.984615  0.213768  1
  B  B25  1  0.500000  0.015755  0.785774  1
  B  B26  1  0.500000  0.483948  0.285521  1
  B  B27  1  0.500000  0.515784  0.714444  1
  B  B28  1  0.500000  0.605864  0.028851  1
  B  B29  1  0.500000  0.394143  0.970978  1
  B  B30  1  0.500000  0.107243  0.471391  1
  B  B31  1  0.500000  0.893311  0.529762  1
  Os  Os32  1  0.000000  0.638659  0.319905  1
  Os  Os33  1  0.000000  0.360835  0.680163  1
  Os  Os34  1  0.000000  0.139842  0.179449  1
  Os  Os35  1  0.000000  0.860643  0.820203  1
