# generated using pymatgen
data_YLu4Zr3(Co4As3)4
_symmetry_space_group_name_H-M   'P 1'
_cell_length_a   12.68783600
_cell_length_b   12.68783574
_cell_length_c   3.80814600
_cell_angle_alpha   90.00000000
_cell_angle_beta   90.00000000
_cell_angle_gamma   120.00000067
_symmetry_Int_Tables_number   1
_chemical_formula_structural   YLu4Zr3(Co4As3)4
_chemical_formula_sum   'Y1 Lu4 Zr3 Co16 As12'
_cell_volume   530.90806564
_cell_formula_units_Z   1
loop_
 _symmetry_equiv_pos_site_id
 _symmetry_equiv_pos_as_xyz
  1  'x, y, z'
loop_
 _atom_site_type_symbol
 _atom_site_label
 _atom_site_symmetry_multiplicity
 _atom_site_fract_x
 _atom_site_fract_y
 _atom_site_fract_z
 _atom_site_occupancy
  Y  Y0  1  0.666667  0.333333  0.000000  1
  Lu  Lu1  1  0.181917  0.181903  0.500000  1
  Lu  Lu2  1  0.818097  0.000014  0.500000  1
  Lu  Lu3  1  0.999986  0.818083  0.500000  1
  Lu  Lu4  1  0.333333  0.666667  0.000000  1
  Zr  Zr5  1  0.559211  0.559861  0.000000  1
  Zr  Zr6  1  0.440139  0.999350  0.000000  1
  Zr  Zr7  1  0.000650  0.440789  0.000000  1
  Co  Co8  1  0.720468  0.720988  0.500000  1
  Co  Co9  1  0.279012  0.999480  0.500000  1
  Co  Co10  1  0.000520  0.279532  0.500000  1
  Co  Co11  1  0.177590  0.372926  0.000000  1
  Co  Co12  1  0.627074  0.804664  0.000000  1
  Co  Co13  1  0.195336  0.822410  0.000000  1
  Co  Co14  1  0.804994  0.628071  0.000000  1
  Co  Co15  1  0.823077  0.195006  0.000000  1
  Co  Co16  1  0.371929  0.176923  0.000000  1
  Co  Co17  1  0.356443  0.480224  0.500000  1
  Co  Co18  1  0.519776  0.876220  0.500000  1
  Co  Co19  1  0.123780  0.643557  0.500000  1
  Co  Co20  1  0.878106  0.521714  0.500000  1
  Co  Co21  1  0.643609  0.121894  0.500000  1
  Co  Co22  1  0.478286  0.356391  0.500000  1
  Co  Co23  1  0.000000  0.000000  0.000000  1
  As  As24  1  0.823753  0.824031  0.000000  1
  As  As25  1  0.175969  0.999722  0.000000  1
  As  As26  1  0.000278  0.176247  0.000000  1
  As  As27  1  0.174416  0.483699  0.500000  1
  As  As28  1  0.516301  0.690717  0.500000  1
  As  As29  1  0.309283  0.825584  0.500000  1
  As  As30  1  0.691302  0.518526  0.500000  1
  As  As31  1  0.827224  0.308698  0.500000  1
  As  As32  1  0.481474  0.172776  0.500000  1
  As  As33  1  0.349468  0.349425  0.000000  1
  As  As34  1  0.650575  0.000043  0.000000  1
  As  As35  1  0.999957  0.650532  0.000000  1
