# generated using pymatgen
data_Tb9Ce8Y3(CoBi2)4
_symmetry_space_group_name_H-M   'P 1'
_cell_length_a   7.98253144
_cell_length_b   9.08459200
_cell_length_c   12.26306322
_cell_angle_alpha   90.00000000
_cell_angle_beta   89.93113156
_cell_angle_gamma   90.00000000
_symmetry_Int_Tables_number   1
_chemical_formula_structural   Tb9Ce8Y3(CoBi2)4
_chemical_formula_sum   'Tb9 Ce8 Y3 Co4 Bi8'
_cell_volume   889.29268194
_cell_formula_units_Z   1
loop_
 _symmetry_equiv_pos_site_id
 _symmetry_equiv_pos_as_xyz
  1  'x, y, z'
loop_
 _atom_site_type_symbol
 _atom_site_label
 _atom_site_symmetry_multiplicity
 _atom_site_fract_x
 _atom_site_fract_y
 _atom_site_fract_z
 _atom_site_occupancy
  Tb  Tb0  1  0.663260  0.750000  0.290573  1
  Tb  Tb1  1  0.366121  0.750000  0.701112  1
  Tb  Tb2  1  0.633812  0.250000  0.298903  1
  Tb  Tb3  1  0.866170  0.250000  0.798922  1
  Tb  Tb4  1  0.133900  0.750000  0.201120  1
  Tb  Tb5  1  0.979940  0.750000  0.499862  1
  Tb  Tb6  1  0.020442  0.250000  0.500143  1
  Tb  Tb7  1  0.479556  0.250000  0.999996  1
  Tb  Tb8  1  0.520186  0.750000  0.999975  1
  Ce  Ce9  1  0.654953  0.012208  0.550874  1
  Ce  Ce10  1  0.345134  0.987964  0.449047  1
  Ce  Ce11  1  0.155109  0.987685  0.949052  1
  Ce  Ce12  1  0.345134  0.512036  0.449047  1
  Ce  Ce13  1  0.845143  0.012159  0.050884  1
  Ce  Ce14  1  0.654953  0.487792  0.550874  1
  Ce  Ce15  1  0.845143  0.487841  0.050884  1
  Ce  Ce16  1  0.155109  0.512315  0.949052  1
  Y  Y17  1  0.835952  0.750000  0.790031  1
  Y  Y18  1  0.164005  0.250000  0.209932  1
  Y  Y19  1  0.335853  0.250000  0.710015  1
  Co  Co20  1  0.630980  0.750000  0.539431  1
  Co  Co21  1  0.369159  0.250000  0.460774  1
  Co  Co22  1  0.130820  0.250000  0.960649  1
  Co  Co23  1  0.869390  0.750000  0.038981  1
  Bi  Bi24  1  0.566239  0.494167  0.825198  1
  Bi  Bi25  1  0.433508  0.505607  0.174670  1
  Bi  Bi26  1  0.066282  0.505879  0.674814  1
  Bi  Bi27  1  0.433508  0.994393  0.174670  1
  Bi  Bi28  1  0.933860  0.494033  0.325250  1
  Bi  Bi29  1  0.566239  0.005833  0.825198  1
  Bi  Bi30  1  0.933860  0.005967  0.325250  1
  Bi  Bi31  1  0.066282  0.994121  0.674814  1
