# generated using pymatgen
data_HoCdNi3Pt
_symmetry_space_group_name_H-M   'P 1'
_cell_length_a   5.01412867
_cell_length_b   5.01412768
_cell_length_c   5.13518520
_cell_angle_alpha   60.77679917
_cell_angle_beta   60.77680900
_cell_angle_gamma   60.00000021
_symmetry_Int_Tables_number   1
_chemical_formula_structural   HoCdNi3Pt
_chemical_formula_sum   'Ho1 Cd1 Ni3 Pt1'
_cell_volume   92.34909345
_cell_formula_units_Z   1
loop_
 _symmetry_equiv_pos_site_id
 _symmetry_equiv_pos_as_xyz
  1  'x, y, z'
loop_
 _atom_site_type_symbol
 _atom_site_label
 _atom_site_symmetry_multiplicity
 _atom_site_fract_x
 _atom_site_fract_y
 _atom_site_fract_z
 _atom_site_occupancy
  Ho  Ho0  1  0.249252  0.249252  0.252245  1
  Cd  Cd1  1  0.005209  0.005209  0.984372  1
  Ni  Ni2  1  0.624853  0.121560  0.628734  1
  Ni  Ni3  1  0.121560  0.624853  0.628734  1
  Ni  Ni4  1  0.624853  0.624853  0.628734  1
  Pt  Pt5  1  0.624273  0.624273  0.127181  1
