# generated using pymatgen
data_Yb12Cd3Ge5Pd8
_symmetry_space_group_name_H-M   'P 1'
_cell_length_a   5.63314300
_cell_length_b   8.24110510
_cell_length_c   13.67548913
_cell_angle_alpha   89.73929018
_cell_angle_beta   90.00000000
_cell_angle_gamma   90.00000000
_symmetry_Int_Tables_number   1
_chemical_formula_structural   Yb12Cd3Ge5Pd8
_chemical_formula_sum   'Yb12 Cd3 Ge5 Pd8'
_cell_volume   634.85508397
_cell_formula_units_Z   1
loop_
 _symmetry_equiv_pos_site_id
 _symmetry_equiv_pos_as_xyz
  1  'x, y, z'
loop_
 _atom_site_type_symbol
 _atom_site_label
 _atom_site_symmetry_multiplicity
 _atom_site_fract_x
 _atom_site_fract_y
 _atom_site_fract_z
 _atom_site_occupancy
  Yb  Yb0  1  0.647017  0.258549  0.253658  1
  Yb  Yb1  1  0.351873  0.742373  0.748391  1
  Yb  Yb2  1  0.351873  0.757627  0.251609  1
  Yb  Yb3  1  0.647017  0.241451  0.746342  1
  Yb  Yb4  1  0.153330  0.396644  0.103719  1
  Yb  Yb5  1  0.846193  0.602811  0.897052  1
  Yb  Yb6  1  0.844475  0.597300  0.600894  1
  Yb  Yb7  1  0.844475  0.902700  0.399106  1
  Yb  Yb8  1  0.144764  0.389187  0.400295  1
  Yb  Yb9  1  0.144764  0.110813  0.599705  1
  Yb  Yb10  1  0.153330  0.103356  0.896281  1
  Yb  Yb11  1  0.846193  0.897189  0.102948  1
  Cd  Cd12  1  0.673509  0.250000  0.000000  1
  Cd  Cd13  1  0.329729  0.750000  0.000000  1
  Cd  Cd14  1  0.335400  0.750000  0.500000  1
  Ge  Ge15  1  0.142536  0.107933  0.251162  1
  Ge  Ge16  1  0.856185  0.887670  0.746081  1
  Ge  Ge17  1  0.856185  0.612330  0.253919  1
  Ge  Ge18  1  0.142536  0.392067  0.748838  1
  Ge  Ge19  1  0.660497  0.250000  0.500000  1
  Pd  Pd20  1  0.364176  0.040320  0.097002  1
  Pd  Pd21  1  0.635936  0.960043  0.900968  1
  Pd  Pd22  1  0.635435  0.973474  0.593455  1
  Pd  Pd23  1  0.635435  0.526526  0.406545  1
  Pd  Pd24  1  0.378512  0.051970  0.406727  1
  Pd  Pd25  1  0.378512  0.448030  0.593273  1
  Pd  Pd26  1  0.364176  0.459680  0.902998  1
  Pd  Pd27  1  0.635936  0.539957  0.099032  1
