# generated using pymatgen
data_Sb12Ir2OsRh
_symmetry_space_group_name_H-M   'P 1'
_cell_length_a   8.13326254
_cell_length_b   8.13295268
_cell_length_c   8.13569223
_cell_angle_alpha   109.44995035
_cell_angle_beta   109.49103527
_cell_angle_gamma   109.47319799
_symmetry_Int_Tables_number   1
_chemical_formula_structural   Sb12Ir2OsRh
_chemical_formula_sum   'Sb12 Ir2 Os1 Rh1'
_cell_volume   414.26936479
_cell_formula_units_Z   1
loop_
 _symmetry_equiv_pos_site_id
 _symmetry_equiv_pos_as_xyz
  1  'x, y, z'
loop_
 _atom_site_type_symbol
 _atom_site_label
 _atom_site_symmetry_multiplicity
 _atom_site_fract_x
 _atom_site_fract_y
 _atom_site_fract_z
 _atom_site_occupancy
  Sb  Sb0  1  0.154403  0.814040  0.659842  1
  Sb  Sb1  1  0.845597  0.185960  0.340158  1
  Sb  Sb2  1  0.844263  0.505061  0.659428  1
  Sb  Sb3  1  0.155737  0.494939  0.340572  1
  Sb  Sb4  1  0.814313  0.659261  0.154413  1
  Sb  Sb5  1  0.185687  0.340739  0.845587  1
  Sb  Sb6  1  0.505466  0.659052  0.843970  1
  Sb  Sb7  1  0.494534  0.340948  0.156030  1
  Sb  Sb8  1  0.660255  0.155099  0.814321  1
  Sb  Sb9  1  0.339745  0.844901  0.185679  1
  Sb  Sb10  1  0.659271  0.844185  0.505763  1
  Sb  Sb11  1  0.340729  0.155815  0.494237  1
  Ir  Ir12  1  0.000000  0.000000  0.500000  1
  Ir  Ir13  1  0.500000  0.000000  0.000000  1
  Os  Os14  1  0.500000  0.500000  0.500000  1
  Rh  Rh15  1  0.000000  0.500000  0.000000  1
