# generated using pymatgen
data_Ca11Pr7(NdSn8)2
_symmetry_space_group_name_H-M   'P 1'
_cell_length_a   7.99604313
_cell_length_b   8.56718149
_cell_length_c   16.15439511
_cell_angle_alpha   89.96400311
_cell_angle_beta   89.99608020
_cell_angle_gamma   90.11653354
_symmetry_Int_Tables_number   1
_chemical_formula_structural   Ca11Pr7(NdSn8)2
_chemical_formula_sum   'Ca11 Pr7 Nd2 Sn16'
_cell_volume   1106.63094748
_cell_formula_units_Z   1
loop_
 _symmetry_equiv_pos_site_id
 _symmetry_equiv_pos_as_xyz
  1  'x, y, z'
loop_
 _atom_site_type_symbol
 _atom_site_label
 _atom_site_symmetry_multiplicity
 _atom_site_fract_x
 _atom_site_fract_y
 _atom_site_fract_z
 _atom_site_occupancy
  Ca  Ca0  1  0.332141  0.827079  0.877909  1
  Ca  Ca1  1  0.832063  0.672399  0.622461  1
  Ca  Ca2  1  0.668014  0.172111  0.376657  1
  Ca  Ca3  1  0.169794  0.327849  0.123913  1
  Ca  Ca4  1  0.667060  0.172361  0.123971  1
  Ca  Ca5  1  0.167985  0.327919  0.376695  1
  Ca  Ca6  1  0.331200  0.827230  0.622490  1
  Ca  Ca7  1  0.161995  0.499455  0.748711  1
  Ca  Ca8  1  0.660045  0.999644  0.748302  1
  Ca  Ca9  1  0.838668  0.497780  0.250237  1
  Ca  Ca10  1  0.338136  0.003306  0.250509  1
  Pr  Pr11  1  0.993245  0.186266  0.595419  1
  Pr  Pr12  1  0.506995  0.687373  0.403516  1
  Pr  Pr13  1  0.009330  0.813512  0.098170  1
  Pr  Pr14  1  0.507023  0.686740  0.097711  1
  Pr  Pr15  1  0.006632  0.812667  0.403073  1
  Pr  Pr16  1  0.492073  0.313093  0.593887  1
  Pr  Pr17  1  0.993591  0.184409  0.903756  1
  Nd  Nd18  1  0.834153  0.675637  0.875453  1
  Nd  Nd19  1  0.492041  0.311698  0.905466  1
  Sn  Sn20  1  0.328557  0.034987  0.038953  1
  Sn  Sn21  1  0.829083  0.466007  0.461002  1
  Sn  Sn22  1  0.670890  0.965790  0.538501  1
  Sn  Sn23  1  0.170084  0.532119  0.960661  1
  Sn  Sn24  1  0.671611  0.965236  0.961657  1
  Sn  Sn25  1  0.169668  0.533479  0.538557  1
  Sn  Sn26  1  0.328237  0.034172  0.461229  1
  Sn  Sn27  1  0.828863  0.465659  0.038531  1
  Sn  Sn28  1  0.533517  0.602067  0.750952  1
  Sn  Sn29  1  0.034111  0.898599  0.750359  1
  Sn  Sn30  1  0.466704  0.399006  0.250766  1
  Sn  Sn31  1  0.966435  0.102316  0.249997  1
  Sn  Sn32  1  0.288510  0.142682  0.749659  1
  Sn  Sn33  1  0.786196  0.358343  0.751011  1
  Sn  Sn34  1  0.711975  0.858222  0.249749  1
  Sn  Sn35  1  0.213370  0.642787  0.250106  1
