# generated using pymatgen
data_KLi6AuO6
_symmetry_space_group_name_H-M   'P 1'
_cell_length_a   5.38927689
_cell_length_b   5.38927717
_cell_length_c   5.38927684
_cell_angle_alpha   101.80742349
_cell_angle_beta   101.80741853
_cell_angle_gamma   101.80741375
_symmetry_Int_Tables_number   1
_chemical_formula_structural   KLi6AuO6
_chemical_formula_sum   'K1 Li6 Au1 O6'
_cell_volume   144.92592272
_cell_formula_units_Z   1
loop_
 _symmetry_equiv_pos_site_id
 _symmetry_equiv_pos_as_xyz
  1  'x, y, z'
loop_
 _atom_site_type_symbol
 _atom_site_label
 _atom_site_symmetry_multiplicity
 _atom_site_fract_x
 _atom_site_fract_y
 _atom_site_fract_z
 _atom_site_occupancy
  K  K0  1  0.500000  0.500000  0.500000  1
  Li  Li1  1  0.000000  0.337807  0.662193  1
  Li  Li2  1  0.662193  0.000000  0.337807  1
  Li  Li3  1  0.662193  0.337807  0.000000  1
  Li  Li4  1  0.337807  0.000000  0.662193  1
  Li  Li5  1  0.000000  0.662193  0.337807  1
  Li  Li6  1  0.337807  0.662193  0.000000  1
  Au  Au7  1  0.000000  0.000000  0.000000  1
  O  O8  1  0.917168  0.278607  0.278607  1
  O  O9  1  0.278607  0.278607  0.917168  1
  O  O10  1  0.082832  0.721393  0.721393  1
  O  O11  1  0.721393  0.721393  0.082832  1
  O  O12  1  0.721393  0.082832  0.721393  1
  O  O13  1  0.278607  0.917168  0.278607  1
