# generated using pymatgen
data_NaTb6P12Rh17
_symmetry_space_group_name_H-M   'P 1'
_cell_length_a   3.94602900
_cell_length_b   11.25322200
_cell_length_c   12.86809100
_cell_angle_alpha   90.00000000
_cell_angle_beta   90.00000000
_cell_angle_gamma   90.00000000
_symmetry_Int_Tables_number   1
_chemical_formula_structural   NaTb6P12Rh17
_chemical_formula_sum   'Na1 Tb6 P12 Rh17'
_cell_volume   571.41453420
_cell_formula_units_Z   1
loop_
 _symmetry_equiv_pos_site_id
 _symmetry_equiv_pos_as_xyz
  1  'x, y, z'
loop_
 _atom_site_type_symbol
 _atom_site_label
 _atom_site_symmetry_multiplicity
 _atom_site_fract_x
 _atom_site_fract_y
 _atom_site_fract_z
 _atom_site_occupancy
  Na  Na0  1  0.500000  0.500000  0.154587  1
  Tb  Tb1  1  0.000000  0.500000  0.519394  1
  Tb  Tb2  1  0.500000  0.000000  0.478900  1
  Tb  Tb3  1  0.500000  0.816311  0.205869  1
  Tb  Tb4  1  0.500000  0.183689  0.205869  1
  Tb  Tb5  1  0.000000  0.684085  0.794919  1
  Tb  Tb6  1  0.000000  0.315915  0.794919  1
  P  P7  1  0.500000  0.500000  0.880414  1
  P  P8  1  0.000000  0.000000  0.120738  1
  P  P9  1  0.500000  0.500000  0.354805  1
  P  P10  1  0.000000  0.000000  0.648668  1
  P  P11  1  0.500000  0.313901  0.619549  1
  P  P12  1  0.500000  0.686099  0.619549  1
  P  P13  1  0.000000  0.186559  0.383388  1
  P  P14  1  0.000000  0.813441  0.383388  1
  P  P15  1  0.500000  0.848496  0.890903  1
  P  P16  1  0.500000  0.151504  0.890903  1
  P  P17  1  0.000000  0.661778  0.105604  1
  P  P18  1  0.000000  0.338222  0.105604  1
  Rh  Rh19  1  0.000000  0.000000  0.829115  1
  Rh  Rh20  1  0.500000  0.500000  0.702227  1
  Rh  Rh21  1  0.000000  0.000000  0.298783  1
  Rh  Rh22  1  0.000000  0.500000  0.980820  1
  Rh  Rh23  1  0.500000  0.000000  0.019508  1
  Rh  Rh24  1  0.500000  0.329306  0.990448  1
  Rh  Rh25  1  0.500000  0.670694  0.990448  1
  Rh  Rh26  1  0.000000  0.163578  0.004177  1
  Rh  Rh27  1  0.000000  0.836422  0.004177  1
  Rh  Rh28  1  0.500000  0.289114  0.434759  1
  Rh  Rh29  1  0.500000  0.710886  0.434759  1
  Rh  Rh30  1  0.000000  0.203718  0.572309  1
  Rh  Rh31  1  0.000000  0.796282  0.572309  1
  Rh  Rh32  1  0.500000  0.874976  0.710777  1
  Rh  Rh33  1  0.500000  0.125024  0.710777  1
  Rh  Rh34  1  0.000000  0.627987  0.293318  1
  Rh  Rh35  1  0.000000  0.372013  0.293318  1
