# generated using pymatgen
data_Tb2Dy2Co3Si12Ni17
_symmetry_space_group_name_H-M   'P 1'
_cell_length_a   3.77769200
_cell_length_b   6.61275213
_cell_length_c   18.72170026
_cell_angle_alpha   90.12369480
_cell_angle_beta   90.00000000
_cell_angle_gamma   90.00000000
_symmetry_Int_Tables_number   1
_chemical_formula_structural   Tb2Dy2Co3Si12Ni17
_chemical_formula_sum   'Tb2 Dy2 Co3 Si12 Ni17'
_cell_volume   467.68459635
_cell_formula_units_Z   1
loop_
 _symmetry_equiv_pos_site_id
 _symmetry_equiv_pos_as_xyz
  1  'x, y, z'
loop_
 _atom_site_type_symbol
 _atom_site_label
 _atom_site_symmetry_multiplicity
 _atom_site_fract_x
 _atom_site_fract_y
 _atom_site_fract_z
 _atom_site_occupancy
  Tb  Tb0  1  0.250000  0.874530  0.355793  1
  Tb  Tb1  1  0.250000  0.624430  0.856300  1
  Dy  Dy2  1  0.750000  0.125168  0.643451  1
  Dy  Dy3  1  0.750000  0.374518  0.143998  1
  Co  Co4  1  0.250000  0.064558  0.205753  1
  Co  Co5  1  0.750000  0.936607  0.794568  1
  Co  Co6  1  0.750000  0.564195  0.294193  1
  Si  Si7  1  0.250000  0.079863  0.086560  1
  Si  Si8  1  0.750000  0.919533  0.913946  1
  Si  Si9  1  0.750000  0.580371  0.413708  1
  Si  Si10  1  0.250000  0.421011  0.585937  1
  Si  Si11  1  0.250000  0.655226  0.074540  1
  Si  Si12  1  0.750000  0.343055  0.925523  1
  Si  Si13  1  0.750000  0.156752  0.425337  1
  Si  Si14  1  0.250000  0.845205  0.574198  1
  Si  Si15  1  0.250000  0.375311  0.261451  1
  Si  Si16  1  0.750000  0.627382  0.738817  1
  Si  Si17  1  0.750000  0.875012  0.238263  1
  Si  Si18  1  0.250000  0.120863  0.762153  1
  Ni  Ni19  1  0.250000  0.431451  0.706258  1
  Ni  Ni20  1  0.250000  0.615940  0.484542  1
  Ni  Ni21  1  0.750000  0.386199  0.515390  1
  Ni  Ni22  1  0.750000  0.114865  0.015586  1
  Ni  Ni23  1  0.250000  0.885103  0.985009  1
  Ni  Ni24  1  0.250000  0.682784  0.200355  1
  Ni  Ni25  1  0.750000  0.317290  0.800108  1
  Ni  Ni26  1  0.750000  0.183425  0.299492  1
  Ni  Ni27  1  0.250000  0.815809  0.699697  1
  Ni  Ni28  1  0.250000  0.359961  0.382849  1
  Ni  Ni29  1  0.750000  0.644887  0.616345  1
  Ni  Ni30  1  0.750000  0.859257  0.117086  1
  Ni  Ni31  1  0.250000  0.139468  0.883296  1
  Ni  Ni32  1  0.250000  0.364275  0.004714  1
  Ni  Ni33  1  0.750000  0.634120  0.995420  1
  Ni  Ni34  1  0.750000  0.866449  0.494927  1
  Ni  Ni35  1  0.250000  0.135131  0.504436  1
