# generated using pymatgen
data_YNpSi7Rh12
_symmetry_space_group_name_H-M   'P 1'
_cell_length_a   9.75585301
_cell_length_b   9.75585215
_cell_length_c   3.83549200
_cell_angle_alpha   90.00000000
_cell_angle_beta   90.00000000
_cell_angle_gamma   119.99998582
_symmetry_Int_Tables_number   1
_chemical_formula_structural   YNpSi7Rh12
_chemical_formula_sum   'Y1 Np1 Si7 Rh12'
_cell_volume   316.14202675
_cell_formula_units_Z   1
loop_
 _symmetry_equiv_pos_site_id
 _symmetry_equiv_pos_as_xyz
  1  'x, y, z'
loop_
 _atom_site_type_symbol
 _atom_site_label
 _atom_site_symmetry_multiplicity
 _atom_site_fract_x
 _atom_site_fract_y
 _atom_site_fract_z
 _atom_site_occupancy
  Y  Y0  1  0.666667  0.333333  0.250521  1
  Np  Np1  1  0.333333  0.666667  0.749551  1
  Si  Si2  1  0.000000  0.000000  0.489032  1
  Si  Si3  1  0.401414  0.291169  0.751160  1
  Si  Si4  1  0.708831  0.110245  0.751160  1
  Si  Si5  1  0.889755  0.598586  0.751160  1
  Si  Si6  1  0.603227  0.709238  0.250046  1
  Si  Si7  1  0.290762  0.893990  0.250046  1
  Si  Si8  1  0.106010  0.396773  0.250046  1
  Rh  Rh9  1  0.444311  0.063734  0.752074  1
  Rh  Rh10  1  0.936266  0.380577  0.752074  1
  Rh  Rh11  1  0.619423  0.555689  0.752074  1
  Rh  Rh12  1  0.551224  0.929119  0.248828  1
  Rh  Rh13  1  0.070881  0.622105  0.248828  1
  Rh  Rh14  1  0.377895  0.448776  0.248828  1
  Rh  Rh15  1  0.142284  0.261275  0.747261  1
  Rh  Rh16  1  0.738725  0.881010  0.747261  1
  Rh  Rh17  1  0.118990  0.857716  0.747261  1
  Rh  Rh18  1  0.859205  0.736015  0.254264  1
  Rh  Rh19  1  0.263985  0.123190  0.254264  1
  Rh  Rh20  1  0.876810  0.140795  0.254264  1
