# generated using pymatgen
data_GdTaN2
_symmetry_space_group_name_H-M   'P 1'
_cell_length_a   3.29680200
_cell_length_b   5.71856400
_cell_length_c   10.98064700
_cell_angle_alpha   90.00000000
_cell_angle_beta   90.00000000
_cell_angle_gamma   90.00000000
_symmetry_Int_Tables_number   1
_chemical_formula_structural   GdTaN2
_chemical_formula_sum   'Gd4 Ta4 N8'
_cell_volume   207.01784396
_cell_formula_units_Z   4
loop_
 _symmetry_equiv_pos_site_id
 _symmetry_equiv_pos_as_xyz
  1  'x, y, z'
loop_
 _atom_site_type_symbol
 _atom_site_label
 _atom_site_symmetry_multiplicity
 _atom_site_fract_x
 _atom_site_fract_y
 _atom_site_fract_z
 _atom_site_occupancy
  Gd  Gd0  1  0.250000  0.586151  0.862668  1
  Gd  Gd1  1  0.750000  0.413849  0.137332  1
  Gd  Gd2  1  0.750000  0.913849  0.362668  1
  Gd  Gd3  1  0.250000  0.086151  0.637332  1
  Ta  Ta4  1  0.250000  0.917437  0.110754  1
  Ta  Ta5  1  0.750000  0.082563  0.889246  1
  Ta  Ta6  1  0.750000  0.582563  0.610754  1
  Ta  Ta7  1  0.250000  0.417437  0.389246  1
  N  N8  1  0.250000  0.662162  0.245006  1
  N  N9  1  0.750000  0.337838  0.754994  1
  N  N10  1  0.750000  0.837838  0.745006  1
  N  N11  1  0.250000  0.162162  0.254994  1
  N  N12  1  0.250000  0.736006  0.509027  1
  N  N13  1  0.750000  0.263994  0.490973  1
  N  N14  1  0.750000  0.763994  0.009027  1
  N  N15  1  0.250000  0.236006  0.990973  1
