# generated using pymatgen
data_AcLaIrBr
_symmetry_space_group_name_H-M   'P 1'
_cell_length_a   8.43399115
_cell_length_b   8.43399080
_cell_length_c   8.43399150
_cell_angle_alpha   29.59666437
_cell_angle_beta   29.59666899
_cell_angle_gamma   29.59666649
_symmetry_Int_Tables_number   1
_chemical_formula_structural   AcLaIrBr
_chemical_formula_sum   'Ac1 La1 Ir1 Br1'
_cell_volume   129.54806825
_cell_formula_units_Z   1
loop_
 _symmetry_equiv_pos_site_id
 _symmetry_equiv_pos_as_xyz
  1  'x, y, z'
loop_
 _atom_site_type_symbol
 _atom_site_label
 _atom_site_symmetry_multiplicity
 _atom_site_fract_x
 _atom_site_fract_y
 _atom_site_fract_z
 _atom_site_occupancy
  Ac  Ac0  1  0.230254  0.230254  0.230254  1
  La  La1  1  0.767863  0.767863  0.767863  1
  Ir  Ir2  1  0.496556  0.496556  0.496556  1
  Br  Br3  1  0.005326  0.005326  0.005326  1
