# generated using pymatgen
data_Ca3BAsO3
_symmetry_space_group_name_H-M   'P 1'
_cell_length_a   5.12213900
_cell_length_b   5.12213490
_cell_length_c   12.16653100
_cell_angle_alpha   89.99997493
_cell_angle_beta   89.99995878
_cell_angle_gamma   120.00022244
_symmetry_Int_Tables_number   1
_chemical_formula_structural   Ca3BAsO3
_chemical_formula_sum   'Ca6 B2 As2 O6'
_cell_volume   276.43867191
_cell_formula_units_Z   2
loop_
 _symmetry_equiv_pos_site_id
 _symmetry_equiv_pos_as_xyz
  1  'x, y, z'
loop_
 _atom_site_type_symbol
 _atom_site_label
 _atom_site_symmetry_multiplicity
 _atom_site_fract_x
 _atom_site_fract_y
 _atom_site_fract_z
 _atom_site_occupancy
  Ca  Ca0  1  0.000000  0.999996  0.250000  1
  Ca  Ca1  1  0.999987  0.000004  0.750000  1
  Ca  Ca2  1  0.333329  0.666666  0.105569  1
  Ca  Ca3  1  0.666659  0.333335  0.605569  1
  Ca  Ca4  1  0.666654  0.333334  0.894431  1
  Ca  Ca5  1  0.333331  0.666664  0.394431  1
  B  B6  1  0.333320  0.666670  0.750000  1
  B  B7  1  0.666665  0.333330  0.250000  1
  As  As8  1  0.999995  0.000000  0.000000  1
  As  As9  1  0.999998  0.000000  0.500000  1
  O  O10  1  0.511089  0.022183  0.249999  1
  O  O11  1  0.488898  0.977817  0.750000  1
  O  O12  1  0.977813  0.488907  0.250001  1
  O  O13  1  0.511086  0.488910  0.249999  1
  O  O14  1  0.488901  0.511090  0.749999  1
  O  O15  1  0.022173  0.511092  0.750000  1
