# generated using pymatgen
data_TmZr3(SnRh5)2
_symmetry_space_group_name_H-M   'P 1'
_cell_length_a   5.67891500
_cell_length_b   5.67889449
_cell_length_c   8.31508201
_cell_angle_alpha   89.99547616
_cell_angle_beta   89.99574248
_cell_angle_gamma   96.99338148
_symmetry_Int_Tables_number   1
_chemical_formula_structural   TmZr3(SnRh5)2
_chemical_formula_sum   'Tm1 Zr3 Sn2 Rh10'
_cell_volume   266.16599472
_cell_formula_units_Z   1
loop_
 _symmetry_equiv_pos_site_id
 _symmetry_equiv_pos_as_xyz
  1  'x, y, z'
loop_
 _atom_site_type_symbol
 _atom_site_label
 _atom_site_symmetry_multiplicity
 _atom_site_fract_x
 _atom_site_fract_y
 _atom_site_fract_z
 _atom_site_occupancy
  Tm  Tm0  1  0.778890  0.221109  0.500006  1
  Zr  Zr1  1  0.217123  0.782875  0.000002  1
  Zr  Zr2  1  0.217214  0.782785  0.499998  1
  Zr  Zr3  1  0.782417  0.217588  0.000002  1
  Sn  Sn4  1  0.501016  0.502348  0.750535  1
  Sn  Sn5  1  0.497650  0.498983  0.249462  1
  Rh  Rh6  1  0.729256  0.729247  0.000860  1
  Rh  Rh7  1  0.729762  0.728740  0.499063  1
  Rh  Rh8  1  0.270751  0.270743  0.999172  1
  Rh  Rh9  1  0.271261  0.270237  0.500907  1
  Rh  Rh10  1  0.497784  0.998051  0.753357  1
  Rh  Rh11  1  0.497719  0.997071  0.246706  1
  Rh  Rh12  1  0.002420  0.998144  0.246482  1
  Rh  Rh13  1  0.001855  0.997585  0.753511  1
  Rh  Rh14  1  0.002927  0.502277  0.753295  1
  Rh  Rh15  1  0.001952  0.502217  0.246641  1
