# generated using pymatgen
data_TbHo15In4IrRu3
_symmetry_space_group_name_H-M   'P 1'
_cell_length_a   9.62291194
_cell_length_b   9.62291228
_cell_length_c   9.61686898
_cell_angle_alpha   59.73776618
_cell_angle_beta   59.73776980
_cell_angle_gamma   59.76893019
_symmetry_Int_Tables_number   1
_chemical_formula_structural   TbHo15In4IrRu3
_chemical_formula_sum   'Tb1 Ho15 In4 Ir1 Ru3'
_cell_volume   626.09585244
_cell_formula_units_Z   1
loop_
 _symmetry_equiv_pos_site_id
 _symmetry_equiv_pos_as_xyz
  1  'x, y, z'
loop_
 _atom_site_type_symbol
 _atom_site_label
 _atom_site_symmetry_multiplicity
 _atom_site_fract_x
 _atom_site_fract_y
 _atom_site_fract_z
 _atom_site_occupancy
  Tb  Tb0  1  0.440255  0.440255  0.060906  1
  Ho  Ho1  1  0.652151  0.652151  0.043246  1
  Ho  Ho2  1  0.193875  0.810034  0.191219  1
  Ho  Ho3  1  0.056967  0.442667  0.057952  1
  Ho  Ho4  1  0.191654  0.809045  0.808422  1
  Ho  Ho5  1  0.060050  0.439543  0.441625  1
  Ho  Ho6  1  0.810034  0.193875  0.191219  1
  Ho  Ho7  1  0.650840  0.650840  0.652027  1
  Ho  Ho8  1  0.809045  0.191654  0.808422  1
  Ho  Ho9  1  0.191771  0.191771  0.811047  1
  Ho  Ho10  1  0.043944  0.650869  0.651911  1
  Ho  Ho11  1  0.442667  0.056967  0.057952  1
  Ho  Ho12  1  0.058925  0.058925  0.442508  1
  Ho  Ho13  1  0.650869  0.043944  0.651911  1
  Ho  Ho14  1  0.808779  0.808779  0.190535  1
  Ho  Ho15  1  0.439543  0.060050  0.441625  1
  In  In16  1  0.417734  0.417734  0.419215  1
  In  In17  1  0.417217  0.417217  0.747385  1
  In  In18  1  0.417829  0.748056  0.417743  1
  In  In19  1  0.748056  0.417829  0.417743  1
  Ir  Ir20  1  0.858572  0.858572  0.420277  1
  Ru  Ru21  1  0.418755  0.859191  0.858158  1
  Ru  Ru22  1  0.861277  0.861277  0.858791  1
  Ru  Ru23  1  0.859191  0.418755  0.858158  1
