# generated using pymatgen
data_Sm7TmSc12Ga15Si
_symmetry_space_group_name_H-M   'P 1'
_cell_length_a   7.35388630
_cell_length_b   7.57163313
_cell_length_c   14.55752138
_cell_angle_alpha   89.99141135
_cell_angle_beta   89.97529698
_cell_angle_gamma   90.14618444
_symmetry_Int_Tables_number   1
_chemical_formula_structural   Sm7TmSc12Ga15Si
_chemical_formula_sum   'Sm7 Tm1 Sc12 Ga15 Si1'
_cell_volume   810.57359427
_cell_formula_units_Z   1
loop_
 _symmetry_equiv_pos_site_id
 _symmetry_equiv_pos_as_xyz
  1  'x, y, z'
loop_
 _atom_site_type_symbol
 _atom_site_label
 _atom_site_symmetry_multiplicity
 _atom_site_fract_x
 _atom_site_fract_y
 _atom_site_fract_z
 _atom_site_occupancy
  Sm  Sm0  1  0.986529  0.821331  0.904436  1
  Sm  Sm1  1  0.487765  0.676556  0.904305  1
  Sm  Sm2  1  0.986761  0.821520  0.596848  1
  Sm  Sm3  1  0.511050  0.321766  0.095117  1
  Sm  Sm4  1  0.012597  0.176034  0.404744  1
  Sm  Sm5  1  0.511757  0.322958  0.404432  1
  Sm  Sm6  1  0.488407  0.676665  0.596310  1
  Tm  Tm7  1  0.011896  0.179234  0.096588  1
  Sc  Sc8  1  0.158400  0.500686  0.750131  1
  Sc  Sc9  1  0.837774  0.498035  0.249307  1
  Sc  Sc10  1  0.337723  0.001497  0.249117  1
  Sc  Sc11  1  0.663493  0.996054  0.750131  1
  Sc  Sc12  1  0.332524  0.173648  0.623864  1
  Sc  Sc13  1  0.669892  0.827298  0.375128  1
  Sc  Sc14  1  0.169307  0.672844  0.374510  1
  Sc  Sc15  1  0.671576  0.828047  0.123723  1
  Sc  Sc16  1  0.829341  0.330293  0.624202  1
  Sc  Sc17  1  0.331665  0.173580  0.876383  1
  Sc  Sc18  1  0.830227  0.329675  0.876331  1
  Sc  Sc19  1  0.169262  0.672727  0.124762  1
  Ga  Ga20  1  0.032154  0.122390  0.750158  1
  Ga  Ga21  1  0.968367  0.881391  0.248785  1
  Ga  Ga22  1  0.467790  0.620572  0.249455  1
  Ga  Ga23  1  0.532393  0.383982  0.750204  1
  Ga  Ga24  1  0.286617  0.876458  0.750523  1
  Ga  Ga25  1  0.716791  0.125769  0.248512  1
  Ga  Ga26  1  0.213337  0.373401  0.248735  1
  Ga  Ga27  1  0.158293  0.462963  0.540576  1
  Ga  Ga28  1  0.841744  0.537573  0.459312  1
  Ga  Ga29  1  0.341347  0.961504  0.460267  1
  Ga  Ga30  1  0.842286  0.533198  0.041449  1
  Ga  Ga31  1  0.660193  0.037268  0.540895  1
  Ga  Ga32  1  0.157912  0.460490  0.960498  1
  Ga  Ga33  1  0.661029  0.036988  0.959418  1
  Ga  Ga34  1  0.337332  0.964348  0.040512  1
  Si  Si35  1  0.784469  0.621254  0.750331  1
