# generated using pymatgen
data_Ho3TmCuPt3
_symmetry_space_group_name_H-M   'P 1'
_cell_length_a   4.50582900
_cell_length_b   5.54272209
_cell_length_c   6.94787320
_cell_angle_alpha   90.40448914
_cell_angle_beta   90.00000000
_cell_angle_gamma   90.00000000
_symmetry_Int_Tables_number   1
_chemical_formula_structural   Ho3TmCuPt3
_chemical_formula_sum   'Ho3 Tm1 Cu1 Pt3'
_cell_volume   173.51573781
_cell_formula_units_Z   1
loop_
 _symmetry_equiv_pos_site_id
 _symmetry_equiv_pos_as_xyz
  1  'x, y, z'
loop_
 _atom_site_type_symbol
 _atom_site_label
 _atom_site_symmetry_multiplicity
 _atom_site_fract_x
 _atom_site_fract_y
 _atom_site_fract_z
 _atom_site_occupancy
  Ho  Ho0  1  0.250000  0.642141  0.182543  1
  Ho  Ho1  1  0.750000  0.363723  0.812643  1
  Ho  Ho2  1  0.750000  0.139659  0.323709  1
  Tm  Tm3  1  0.250000  0.855311  0.680634  1
  Cu  Cu4  1  0.250000  0.137615  0.035441  1
  Pt  Pt5  1  0.750000  0.865528  0.963648  1
  Pt  Pt6  1  0.750000  0.657018  0.456297  1
  Pt  Pt7  1  0.250000  0.339004  0.545085  1
