# generated using pymatgen
data_Ho4Zn2ReRu5
_symmetry_space_group_name_H-M   'P 1'
_cell_length_a   5.23723473
_cell_length_b   5.48497809
_cell_length_c   8.85519500
_cell_angle_alpha   90.00000000
_cell_angle_beta   90.00000000
_cell_angle_gamma   121.57756709
_symmetry_Int_Tables_number   1
_chemical_formula_structural   Ho4Zn2ReRu5
_chemical_formula_sum   'Ho4 Zn2 Re1 Ru5'
_cell_volume   216.71052766
_cell_formula_units_Z   1
loop_
 _symmetry_equiv_pos_site_id
 _symmetry_equiv_pos_as_xyz
  1  'x, y, z'
loop_
 _atom_site_type_symbol
 _atom_site_label
 _atom_site_symmetry_multiplicity
 _atom_site_fract_x
 _atom_site_fract_y
 _atom_site_fract_z
 _atom_site_occupancy
  Ho  Ho0  1  0.340796  0.670398  0.443485  1
  Ho  Ho1  1  0.661097  0.330548  0.564251  1
  Ho  Ho2  1  0.661097  0.330548  0.935749  1
  Ho  Ho3  1  0.340796  0.670398  0.056515  1
  Zn  Zn4  1  0.823128  0.160780  0.250000  1
  Zn  Zn5  1  0.823128  0.662349  0.250000  1
  Re  Re6  1  0.668211  0.834105  0.750000  1
  Ru  Ru7  1  0.994323  0.997162  0.499625  1
  Ru  Ru8  1  0.994323  0.997162  0.000375  1
  Ru  Ru9  1  0.330312  0.165156  0.250000  1
  Ru  Ru10  1  0.181393  0.837188  0.750000  1
  Ru  Ru11  1  0.181393  0.344204  0.750000  1
