# generated using pymatgen
data_NdHo5Ta2(Co4P3)4
_symmetry_space_group_name_H-M   'P 1'
_cell_length_a   3.69975700
_cell_length_b   10.61706200
_cell_length_c   12.32018400
_cell_angle_alpha   90.00000000
_cell_angle_beta   90.00000000
_cell_angle_gamma   90.00000000
_symmetry_Int_Tables_number   1
_chemical_formula_structural   NdHo5Ta2(Co4P3)4
_chemical_formula_sum   'Nd1 Ho5 Ta2 Co16 P12'
_cell_volume   483.94359689
_cell_formula_units_Z   1
loop_
 _symmetry_equiv_pos_site_id
 _symmetry_equiv_pos_as_xyz
  1  'x, y, z'
loop_
 _atom_site_type_symbol
 _atom_site_label
 _atom_site_symmetry_multiplicity
 _atom_site_fract_x
 _atom_site_fract_y
 _atom_site_fract_z
 _atom_site_occupancy
  Nd  Nd0  1  0.000000  0.500000  0.527366  1
  Ho  Ho1  1  0.500000  0.000000  0.473231  1
  Ho  Ho2  1  0.500000  0.820790  0.204838  1
  Ho  Ho3  1  0.500000  0.179210  0.204838  1
  Ho  Ho4  1  0.000000  0.679795  0.795896  1
  Ho  Ho5  1  0.000000  0.320205  0.795896  1
  Ta  Ta6  1  0.500000  0.500000  0.154986  1
  Ta  Ta7  1  0.000000  0.000000  0.843396  1
  Co  Co8  1  0.000000  0.500000  0.987019  1
  Co  Co9  1  0.500000  0.000000  0.013041  1
  Co  Co10  1  0.500000  0.292796  0.431541  1
  Co  Co11  1  0.500000  0.707204  0.431541  1
  Co  Co12  1  0.000000  0.202499  0.568025  1
  Co  Co13  1  0.000000  0.797501  0.568025  1
  Co  Co14  1  0.500000  0.878495  0.706138  1
  Co  Co15  1  0.500000  0.121505  0.706138  1
  Co  Co16  1  0.000000  0.622928  0.293166  1
  Co  Co17  1  0.000000  0.377072  0.293166  1
  Co  Co18  1  0.500000  0.332254  0.992281  1
  Co  Co19  1  0.500000  0.667746  0.992281  1
  Co  Co20  1  0.000000  0.167220  0.007711  1
  Co  Co21  1  0.000000  0.832780  0.007711  1
  Co  Co22  1  0.500000  0.500000  0.705356  1
  Co  Co23  1  0.000000  0.000000  0.297371  1
  P  P24  1  0.500000  0.307667  0.617065  1
  P  P25  1  0.500000  0.692333  0.617065  1
  P  P26  1  0.000000  0.188368  0.384003  1
  P  P27  1  0.000000  0.811632  0.384003  1
  P  P28  1  0.500000  0.500000  0.882913  1
  P  P29  1  0.000000  0.000000  0.118003  1
  P  P30  1  0.500000  0.841145  0.892842  1
  P  P31  1  0.500000  0.158855  0.892842  1
  P  P32  1  0.000000  0.659389  0.107134  1
  P  P33  1  0.000000  0.340611  0.107134  1
  P  P34  1  0.500000  0.500000  0.353003  1
  P  P35  1  0.000000  0.000000  0.643036  1
