# generated using pymatgen
data_Cs4SmUI12
_symmetry_space_group_name_H-M   'P 1'
_cell_length_a   8.66906300
_cell_length_b   8.66906300
_cell_length_c   12.71342100
_cell_angle_alpha   90.00000000
_cell_angle_beta   90.00000000
_cell_angle_gamma   90.00000000
_symmetry_Int_Tables_number   1
_chemical_formula_structural   Cs4SmUI12
_chemical_formula_sum   'Cs4 Sm1 U1 I12'
_cell_volume   955.44732064
_cell_formula_units_Z   1
loop_
 _symmetry_equiv_pos_site_id
 _symmetry_equiv_pos_as_xyz
  1  'x, y, z'
loop_
 _atom_site_type_symbol
 _atom_site_label
 _atom_site_symmetry_multiplicity
 _atom_site_fract_x
 _atom_site_fract_y
 _atom_site_fract_z
 _atom_site_occupancy
  Cs  Cs0  1  0.500000  0.000000  0.795746  1
  Cs  Cs1  1  0.500000  0.000000  0.204254  1
  Cs  Cs2  1  0.000000  0.500000  0.204254  1
  Cs  Cs3  1  0.000000  0.500000  0.795746  1
  Sm  Sm4  1  0.000000  0.000000  0.000000  1
  U  U5  1  0.500000  0.500000  0.500000  1
  I  I6  1  0.747049  0.251527  0.000000  1
  I  I7  1  0.252951  0.748473  0.000000  1
  I  I8  1  0.500000  0.500000  0.267916  1
  I  I9  1  0.329072  0.207457  0.500000  1
  I  I10  1  0.251527  0.252951  0.000000  1
  I  I11  1  0.792543  0.329072  0.500000  1
  I  I12  1  0.000000  0.000000  0.243063  1
  I  I13  1  0.670928  0.792543  0.500000  1
  I  I14  1  0.207457  0.670928  0.500000  1
  I  I15  1  0.500000  0.500000  0.732084  1
  I  I16  1  0.748473  0.747049  0.000000  1
  I  I17  1  0.000000  0.000000  0.756937  1
