# generated using pymatgen
data_K4Sr2HfAs4
_symmetry_space_group_name_H-M   'P 1'
_cell_length_a   10.46833300
_cell_length_b   10.46833347
_cell_length_c   7.87771874
_cell_angle_alpha   88.21878078
_cell_angle_beta   88.21877672
_cell_angle_gamma   119.65434066
_symmetry_Int_Tables_number   1
_chemical_formula_structural   K4Sr2HfAs4
_chemical_formula_sum   'K8 Sr4 Hf2 As8'
_cell_volume   748.78348470
_cell_formula_units_Z   2
loop_
 _symmetry_equiv_pos_site_id
 _symmetry_equiv_pos_as_xyz
  1  'x, y, z'
loop_
 _atom_site_type_symbol
 _atom_site_label
 _atom_site_symmetry_multiplicity
 _atom_site_fract_x
 _atom_site_fract_y
 _atom_site_fract_z
 _atom_site_occupancy
  K  K0  1  0.474397  0.941478  0.383696  1
  K  K1  1  0.941478  0.474397  0.883696  1
  K  K2  1  0.866075  0.721633  0.172173  1
  K  K3  1  0.268735  0.127222  0.235908  1
  K  K4  1  0.855782  0.138690  0.199930  1
  K  K5  1  0.127222  0.268735  0.735908  1
  K  K6  1  0.721633  0.866075  0.672173  1
  K  K7  1  0.138690  0.855782  0.699930  1
  Sr  Sr8  1  0.069451  0.532102  0.391732  1
  Sr  Sr9  1  0.474648  0.530771  0.376396  1
  Sr  Sr10  1  0.532102  0.069451  0.891732  1
  Sr  Sr11  1  0.530771  0.474648  0.876396  1
  Hf  Hf12  1  0.664621  0.334965  0.489579  1
  Hf  Hf13  1  0.334965  0.664621  0.989579  1
  As  As14  1  0.642686  0.329539  0.158167  1
  As  As15  1  0.329539  0.642686  0.658167  1
  As  As16  1  0.208864  0.398824  0.131149  1
  As  As17  1  0.607939  0.798475  0.076328  1
  As  As18  1  0.206737  0.806482  0.098973  1
  As  As19  1  0.798475  0.607939  0.576328  1
  As  As20  1  0.398824  0.208864  0.631149  1
  As  As21  1  0.806482  0.206737  0.598973  1
