# generated using pymatgen
data_Ho7ThBePd24
_symmetry_space_group_name_H-M   'P 1'
_cell_length_a   8.35030007
_cell_length_b   8.35030015
_cell_length_c   8.35030000
_cell_angle_alpha   89.99238371
_cell_angle_beta   89.99238371
_cell_angle_gamma   89.99238270
_symmetry_Int_Tables_number   1
_chemical_formula_structural   Ho7ThBePd24
_chemical_formula_sum   'Ho7 Th1 Be1 Pd24'
_cell_volume   582.24562750
_cell_formula_units_Z   1
loop_
 _symmetry_equiv_pos_site_id
 _symmetry_equiv_pos_as_xyz
  1  'x, y, z'
loop_
 _atom_site_type_symbol
 _atom_site_label
 _atom_site_symmetry_multiplicity
 _atom_site_fract_x
 _atom_site_fract_y
 _atom_site_fract_z
 _atom_site_occupancy
  Ho  Ho0  1  0.748637  0.748637  0.748637  1
  Ho  Ho1  1  0.748960  0.748960  0.251396  1
  Ho  Ho2  1  0.748960  0.251396  0.748960  1
  Ho  Ho3  1  0.251243  0.251243  0.748744  1
  Ho  Ho4  1  0.251243  0.748744  0.251243  1
  Ho  Ho5  1  0.251396  0.748960  0.748960  1
  Ho  Ho6  1  0.748744  0.251243  0.251243  1
  Th  Th7  1  0.252701  0.252701  0.252701  1
  Be  Be8  1  0.998694  0.998694  0.998694  1
  Pd  Pd9  1  0.253375  0.500805  0.998979  1
  Pd  Pd10  1  0.746530  0.500163  0.999963  1
  Pd  Pd11  1  0.998979  0.253375  0.500805  1
  Pd  Pd12  1  0.500805  0.253375  0.998979  1
  Pd  Pd13  1  0.999963  0.746530  0.500163  1
  Pd  Pd14  1  0.500163  0.746530  0.999963  1
  Pd  Pd15  1  0.500805  0.998979  0.253375  1
  Pd  Pd16  1  0.253375  0.998979  0.500805  1
  Pd  Pd17  1  0.500163  0.999963  0.746530  1
  Pd  Pd18  1  0.746530  0.999963  0.500163  1
  Pd  Pd19  1  0.998979  0.500805  0.253375  1
  Pd  Pd20  1  0.999963  0.500163  0.746530  1
  Pd  Pd21  1  0.250788  0.501449  0.501449  1
  Pd  Pd22  1  0.749485  0.500062  0.500062  1
  Pd  Pd23  1  0.501449  0.250788  0.501449  1
  Pd  Pd24  1  0.500062  0.749485  0.500062  1
  Pd  Pd25  1  0.501449  0.501449  0.250788  1
  Pd  Pd26  1  0.500062  0.500062  0.749485  1
  Pd  Pd27  1  0.268453  0.998641  0.998641  1
  Pd  Pd28  1  0.730987  0.999888  0.999888  1
  Pd  Pd29  1  0.998641  0.268453  0.998641  1
  Pd  Pd30  1  0.999888  0.730987  0.999888  1
  Pd  Pd31  1  0.998641  0.998641  0.268453  1
  Pd  Pd32  1  0.999888  0.999888  0.730987  1
