# generated using pymatgen
data_Yb11Ag12Ge12Bi
_symmetry_space_group_name_H-M   'P 1'
_cell_length_a   4.56620400
_cell_length_b   7.89269289
_cell_length_c   21.41138643
_cell_angle_alpha   89.83428706
_cell_angle_beta   90.00000000
_cell_angle_gamma   90.00000000
_symmetry_Int_Tables_number   1
_chemical_formula_structural   Yb11Ag12Ge12Bi
_chemical_formula_sum   'Yb11 Ag12 Ge12 Bi1'
_cell_volume   771.65555619
_cell_formula_units_Z   1
loop_
 _symmetry_equiv_pos_site_id
 _symmetry_equiv_pos_as_xyz
  1  'x, y, z'
loop_
 _atom_site_type_symbol
 _atom_site_label
 _atom_site_symmetry_multiplicity
 _atom_site_fract_x
 _atom_site_fract_y
 _atom_site_fract_z
 _atom_site_occupancy
  Yb  Yb0  1  0.250000  0.218229  0.000837  1
  Yb  Yb1  1  0.250000  0.278715  0.499583  1
  Yb  Yb2  1  0.750000  0.783292  0.000126  1
  Yb  Yb3  1  0.750000  0.720349  0.499771  1
  Yb  Yb4  1  0.250000  0.211219  0.333821  1
  Yb  Yb5  1  0.250000  0.295615  0.832691  1
  Yb  Yb6  1  0.750000  0.791976  0.667710  1
  Yb  Yb7  1  0.750000  0.712991  0.166406  1
  Yb  Yb8  1  0.250000  0.207999  0.666310  1
  Yb  Yb9  1  0.250000  0.286876  0.166501  1
  Yb  Yb10  1  0.750000  0.787284  0.333487  1
  Ag  Ag11  1  0.250000  0.911871  0.761863  1
  Ag  Ag12  1  0.250000  0.586272  0.261179  1
  Ag  Ag13  1  0.750000  0.087026  0.238260  1
  Ag  Ag14  1  0.750000  0.415539  0.737095  1
  Ag  Ag15  1  0.250000  0.920190  0.904925  1
  Ag  Ag16  1  0.250000  0.581292  0.405697  1
  Ag  Ag17  1  0.750000  0.083689  0.093877  1
  Ag  Ag18  1  0.750000  0.417969  0.595129  1
  Ag  Ag19  1  0.250000  0.918363  0.563375  1
  Ag  Ag20  1  0.250000  0.585745  0.070747  1
  Ag  Ag21  1  0.750000  0.082041  0.434928  1
  Ag  Ag22  1  0.750000  0.411623  0.937889  1
  Ge  Ge23  1  0.250000  0.578403  0.721381  1
  Ge  Ge24  1  0.250000  0.917440  0.227873  1
  Ge  Ge25  1  0.750000  0.416839  0.271523  1
  Ge  Ge26  1  0.750000  0.089208  0.770888  1
  Ge  Ge27  1  0.250000  0.913274  0.102601  1
  Ge  Ge28  1  0.250000  0.589079  0.597521  1
  Ge  Ge29  1  0.750000  0.093172  0.898035  1
  Ge  Ge30  1  0.750000  0.410955  0.396792  1
  Ge  Ge31  1  0.250000  0.588384  0.933006  1
  Ge  Ge32  1  0.250000  0.908790  0.426951  1
  Ge  Ge33  1  0.750000  0.413014  0.070290  1
  Ge  Ge34  1  0.750000  0.092045  0.573215  1
  Bi  Bi35  1  0.750000  0.693232  0.837718  1
