# generated using pymatgen
data_Dy5Y3(HgIr)2
_symmetry_space_group_name_H-M   'P 1'
_cell_length_a   9.61808890
_cell_length_b   9.61808857
_cell_length_c   9.61808900
_cell_angle_alpha   59.99999508
_cell_angle_beta   59.99999620
_cell_angle_gamma   59.99999635
_symmetry_Int_Tables_number   1
_chemical_formula_structural   Dy5Y3(HgIr)2
_chemical_formula_sum   'Dy10 Y6 Hg4 Ir4'
_cell_volume   629.14581465
_cell_formula_units_Z   2
loop_
 _symmetry_equiv_pos_site_id
 _symmetry_equiv_pos_as_xyz
  1  'x, y, z'
loop_
 _atom_site_type_symbol
 _atom_site_label
 _atom_site_symmetry_multiplicity
 _atom_site_fract_x
 _atom_site_fract_y
 _atom_site_fract_z
 _atom_site_occupancy
  Dy  Dy0  1  0.350370  0.350370  0.350370  1
  Dy  Dy1  1  0.350370  0.350370  0.948888  1
  Dy  Dy2  1  0.350370  0.948888  0.350370  1
  Dy  Dy3  1  0.948888  0.350370  0.350370  1
  Dy  Dy4  1  0.809113  0.190887  0.190887  1
  Dy  Dy5  1  0.190887  0.809113  0.809113  1
  Dy  Dy6  1  0.190887  0.809113  0.190887  1
  Dy  Dy7  1  0.809113  0.190887  0.809113  1
  Dy  Dy8  1  0.190887  0.190887  0.809113  1
  Dy  Dy9  1  0.809113  0.809113  0.190887  1
  Y  Y10  1  0.939310  0.560690  0.560690  1
  Y  Y11  1  0.560690  0.939310  0.939310  1
  Y  Y12  1  0.560690  0.939310  0.560690  1
  Y  Y13  1  0.939310  0.560690  0.939310  1
  Y  Y14  1  0.560690  0.560690  0.939310  1
  Y  Y15  1  0.939310  0.939310  0.560690  1
  Hg  Hg16  1  0.585046  0.585046  0.585046  1
  Hg  Hg17  1  0.585046  0.585046  0.244863  1
  Hg  Hg18  1  0.585046  0.244863  0.585046  1
  Hg  Hg19  1  0.244863  0.585046  0.585046  1
  Ir  Ir20  1  0.141806  0.141806  0.141806  1
  Ir  Ir21  1  0.141806  0.141806  0.574583  1
  Ir  Ir22  1  0.141806  0.574583  0.141806  1
  Ir  Ir23  1  0.574583  0.141806  0.141806  1
