# generated using pymatgen
data_Er2AlAg6
_symmetry_space_group_name_H-M   'P 1'
_cell_length_a   5.36576869
_cell_length_b   5.36576856
_cell_length_c   14.12382000
_cell_angle_alpha   90.00000000
_cell_angle_beta   90.00000000
_cell_angle_gamma   118.17105069
_symmetry_Int_Tables_number   1
_chemical_formula_structural   Er2AlAg6
_chemical_formula_sum   'Er4 Al2 Ag12'
_cell_volume   358.47520027
_cell_formula_units_Z   2
loop_
 _symmetry_equiv_pos_site_id
 _symmetry_equiv_pos_as_xyz
  1  'x, y, z'
loop_
 _atom_site_type_symbol
 _atom_site_label
 _atom_site_symmetry_multiplicity
 _atom_site_fract_x
 _atom_site_fract_y
 _atom_site_fract_z
 _atom_site_occupancy
  Er  Er0  1  0.319806  0.319806  0.117931  1
  Er  Er1  1  0.680194  0.680194  0.617931  1
  Er  Er2  1  0.319806  0.319806  0.382069  1
  Er  Er3  1  0.680194  0.680194  0.882069  1
  Al  Al4  1  0.824476  0.824476  0.250000  1
  Al  Al5  1  0.175524  0.175524  0.750000  1
  Ag  Ag6  1  0.826057  0.329475  0.250000  1
  Ag  Ag7  1  0.173943  0.670525  0.750000  1
  Ag  Ag8  1  0.329475  0.826057  0.250000  1
  Ag  Ag9  1  0.670525  0.173943  0.750000  1
  Ag  Ag10  1  0.982845  0.665552  0.075486  1
  Ag  Ag11  1  0.017155  0.334448  0.575486  1
  Ag  Ag12  1  0.665552  0.982845  0.424514  1
  Ag  Ag13  1  0.334448  0.017155  0.924514  1
  Ag  Ag14  1  0.017155  0.334448  0.924514  1
  Ag  Ag15  1  0.982845  0.665552  0.424514  1
  Ag  Ag16  1  0.334448  0.017155  0.575486  1
  Ag  Ag17  1  0.665552  0.982845  0.075486  1
