# generated using pymatgen
data_Li17(EuCd)6
_symmetry_space_group_name_H-M   'P 1'
_cell_length_a   9.96287500
_cell_length_b   9.96287317
_cell_length_c   9.96287500
_cell_angle_alpha   119.99999613
_cell_angle_beta   90.00000000
_cell_angle_gamma   119.99999613
_symmetry_Int_Tables_number   1
_chemical_formula_structural   Li17(EuCd)6
_chemical_formula_sum   'Li17 Eu6 Cd6'
_cell_volume   699.26053375
_cell_formula_units_Z   1
loop_
 _symmetry_equiv_pos_site_id
 _symmetry_equiv_pos_as_xyz
  1  'x, y, z'
loop_
 _atom_site_type_symbol
 _atom_site_label
 _atom_site_symmetry_multiplicity
 _atom_site_fract_x
 _atom_site_fract_y
 _atom_site_fract_z
 _atom_site_occupancy
  Li  Li0  1  0.376737  0.753475  0.130213  1
  Li  Li1  1  0.824871  0.649741  0.175130  1
  Li  Li2  1  0.525389  0.350260  0.175130  1
  Li  Li3  1  0.824871  0.350260  0.175130  1
  Li  Li4  1  0.130213  0.753475  0.376737  1
  Li  Li5  1  0.623263  0.753475  0.376737  1
  Li  Li6  1  0.623263  0.246524  0.376737  1
  Li  Li7  1  0.824871  0.649741  0.474611  1
  Li  Li8  1  0.500000  0.000000  0.500000  1
  Li  Li9  1  0.175130  0.350260  0.525389  1
  Li  Li10  1  0.376737  0.753475  0.623263  1
  Li  Li11  1  0.376737  0.246524  0.623263  1
  Li  Li12  1  0.869787  0.246524  0.623263  1
  Li  Li13  1  0.175130  0.649741  0.824871  1
  Li  Li14  1  0.474611  0.649741  0.824871  1
  Li  Li15  1  0.175130  0.350260  0.824871  1
  Li  Li16  1  0.623263  0.246524  0.869787  1
  Eu  Eu17  1  0.795327  0.000000  0.204672  1
  Eu  Eu18  1  0.204673  0.409346  0.204673  1
  Eu  Eu19  1  0.204673  0.000000  0.204673  1
  Eu  Eu20  1  0.795327  0.000000  0.795327  1
  Eu  Eu21  1  0.204672  0.000000  0.795327  1
  Eu  Eu22  1  0.795327  0.590655  0.795327  1
  Cd  Cd23  1  0.500000  0.000000  0.000000  1
  Cd  Cd24  1  0.000000  0.500000  0.000000  1
  Cd  Cd25  1  0.500000  0.500000  0.000000  1
  Cd  Cd26  1  0.000000  0.000000  0.500000  1
  Cd  Cd27  1  0.000000  0.500000  0.500000  1
  Cd  Cd28  1  0.500000  0.500000  0.500000  1
