# generated using pymatgen
data_Y3Zr4BiF28
_symmetry_space_group_name_H-M   'P 1'
_cell_length_a   5.79394924
_cell_length_b   9.18615888
_cell_length_c   12.33348187
_cell_angle_alpha   62.29829657
_cell_angle_beta   89.99898795
_cell_angle_gamma   90.00943673
_symmetry_Int_Tables_number   1
_chemical_formula_structural   Y3Zr4BiF28
_chemical_formula_sum   'Y3 Zr4 Bi1 F28'
_cell_volume   581.19777416
_cell_formula_units_Z   1
loop_
 _symmetry_equiv_pos_site_id
 _symmetry_equiv_pos_as_xyz
  1  'x, y, z'
loop_
 _atom_site_type_symbol
 _atom_site_label
 _atom_site_symmetry_multiplicity
 _atom_site_fract_x
 _atom_site_fract_y
 _atom_site_fract_z
 _atom_site_occupancy
  Y  Y0  1  0.743703  0.817301  0.265759  1
  Y  Y1  1  0.243307  0.184671  0.233723  1
  Y  Y2  1  0.256090  0.189158  0.733727  1
  Zr  Zr3  1  0.743827  0.277466  0.453104  1
  Zr  Zr4  1  0.244834  0.725474  0.048168  1
  Zr  Zr5  1  0.255616  0.725817  0.541649  1
  Zr  Zr6  1  0.755198  0.271321  0.956598  1
  Bi  Bi7  1  0.757735  0.819731  0.764959  1
  F  F8  1  0.461133  0.709210  0.924939  1
  F  F9  1  0.965634  0.288293  0.577527  1
  F  F10  1  0.532736  0.286510  0.078881  1
  F  F11  1  0.032216  0.711396  0.419618  1
  F  F12  1  0.456112  0.281029  0.549647  1
  F  F13  1  0.955823  0.716256  0.955976  1
  F  F14  1  0.546072  0.719201  0.448450  1
  F  F15  1  0.043994  0.278741  0.051143  1
  F  F16  1  0.768464  0.518454  0.860144  1
  F  F17  1  0.267280  0.474975  0.640086  1
  F  F18  1  0.234204  0.474575  0.143095  1
  F  F19  1  0.732971  0.526287  0.357411  1
  F  F20  1  0.759683  0.021894  0.059213  1
  F  F21  1  0.259543  0.975233  0.440646  1
  F  F22  1  0.240128  0.974535  0.942346  1
  F  F23  1  0.739959  0.026866  0.554952  1
  F  F24  1  0.986122  0.731896  0.645161  1
  F  F25  1  0.485956  0.265034  0.851244  1
  F  F26  1  0.012187  0.265461  0.349962  1
  F  F27  1  0.514261  0.734581  0.151632  1
  F  F28  1  0.032661  0.746775  0.174016  1
  F  F29  1  0.531906  0.253658  0.328137  1
  F  F30  1  0.966956  0.251659  0.829035  1
  F  F31  1  0.459959  0.744443  0.670100  1
  F  F32  1  0.430547  0.974781  0.235406  1
  F  F33  1  0.931288  0.026311  0.264691  1
  F  F34  1  0.571709  0.034102  0.765546  1
  F  F35  1  0.080182  0.976908  0.733304  1
