# generated using pymatgen
data_Tm8MgInPd2
_symmetry_space_group_name_H-M   'P 1'
_cell_length_a   9.61268763
_cell_length_b   9.61268770
_cell_length_c   9.63443500
_cell_angle_alpha   59.92513024
_cell_angle_beta   59.92513001
_cell_angle_gamma   59.65574531
_symmetry_Int_Tables_number   1
_chemical_formula_structural   Tm8MgInPd2
_chemical_formula_sum   'Tm16 Mg2 In2 Pd4'
_cell_volume   627.14563650
_cell_formula_units_Z   2
loop_
 _symmetry_equiv_pos_site_id
 _symmetry_equiv_pos_as_xyz
  1  'x, y, z'
loop_
 _atom_site_type_symbol
 _atom_site_label
 _atom_site_symmetry_multiplicity
 _atom_site_fract_x
 _atom_site_fract_y
 _atom_site_fract_z
 _atom_site_occupancy
  Tm  Tm0  1  0.351412  0.351412  0.350617  1
  Tm  Tm1  1  0.351412  0.351412  0.946559  1
  Tm  Tm2  1  0.350758  0.946270  0.351487  1
  Tm  Tm3  1  0.946270  0.350758  0.351487  1
  Tm  Tm4  1  0.811376  0.190361  0.187672  1
  Tm  Tm5  1  0.190361  0.811376  0.810591  1
  Tm  Tm6  1  0.190361  0.811376  0.187672  1
  Tm  Tm7  1  0.811376  0.190361  0.810591  1
  Tm  Tm8  1  0.192016  0.192016  0.807984  1
  Tm  Tm9  1  0.812694  0.812694  0.187306  1
  Tm  Tm10  1  0.934910  0.564654  0.565567  1
  Tm  Tm11  1  0.564654  0.934910  0.934868  1
  Tm  Tm12  1  0.564654  0.934910  0.565567  1
  Tm  Tm13  1  0.934910  0.564654  0.934868  1
  Tm  Tm14  1  0.567605  0.567605  0.932395  1
  Tm  Tm15  1  0.935505  0.935505  0.564495  1
  Mg  Mg16  1  0.578088  0.578088  0.581992  1
  Mg  Mg17  1  0.578088  0.578088  0.261833  1
  In  In18  1  0.582910  0.250935  0.583077  1
  In  In19  1  0.250935  0.582910  0.583077  1
  Pd  Pd20  1  0.143528  0.143528  0.143424  1
  Pd  Pd21  1  0.143528  0.143528  0.569522  1
  Pd  Pd22  1  0.142715  0.569934  0.143676  1
  Pd  Pd23  1  0.569934  0.142715  0.143676  1
