# generated using pymatgen
data_Y3PaGe6Ir7
_symmetry_space_group_name_H-M   'P 1'
_cell_length_a   7.29390880
_cell_length_b   7.29391058
_cell_length_c   7.32392400
_cell_angle_alpha   109.55458898
_cell_angle_beta   109.55459395
_cell_angle_gamma   109.38772172
_symmetry_Int_Tables_number   1
_chemical_formula_structural   Y3PaGe6Ir7
_chemical_formula_sum   'Y3 Pa1 Ge6 Ir7'
_cell_volume   299.63656895
_cell_formula_units_Z   1
loop_
 _symmetry_equiv_pos_site_id
 _symmetry_equiv_pos_as_xyz
  1  'x, y, z'
loop_
 _atom_site_type_symbol
 _atom_site_label
 _atom_site_symmetry_multiplicity
 _atom_site_fract_x
 _atom_site_fract_y
 _atom_site_fract_z
 _atom_site_occupancy
  Y  Y0  1  0.000000  0.500000  0.000000  1
  Y  Y1  1  0.500000  0.000000  0.000000  1
  Y  Y2  1  0.500000  0.500000  0.500000  1
  Pa  Pa3  1  0.000000  0.000000  0.500000  1
  Ge  Ge4  1  0.678637  0.678637  0.994389  1
  Ge  Ge5  1  0.321363  0.000000  0.315751  1
  Ge  Ge6  1  0.000000  0.321363  0.315751  1
  Ge  Ge7  1  0.321363  0.321363  0.005611  1
  Ge  Ge8  1  0.678637  0.000000  0.684249  1
  Ge  Ge9  1  0.000000  0.678637  0.684249  1
  Ir  Ir10  1  0.753495  0.246505  0.500000  1
  Ir  Ir11  1  0.753495  0.506991  0.253495  1
  Ir  Ir12  1  0.493009  0.246505  0.746505  1
  Ir  Ir13  1  0.246505  0.493009  0.746505  1
  Ir  Ir14  1  0.246505  0.753495  0.500000  1
  Ir  Ir15  1  0.506991  0.753495  0.253495  1
  Ir  Ir16  1  0.000000  0.000000  0.000000  1
