# generated using pymatgen
data_Zr4MnAl(B2Ru5)2
_symmetry_space_group_name_H-M   'P 1'
_cell_length_a   9.38064700
_cell_length_b   9.38064700
_cell_length_c   3.08117000
_cell_angle_alpha   90.00000000
_cell_angle_beta   90.00000000
_cell_angle_gamma   90.00000000
_symmetry_Int_Tables_number   1
_chemical_formula_structural   Zr4MnAl(B2Ru5)2
_chemical_formula_sum   'Zr4 Mn1 Al1 B4 Ru10'
_cell_volume   271.13229342
_cell_formula_units_Z   1
loop_
 _symmetry_equiv_pos_site_id
 _symmetry_equiv_pos_as_xyz
  1  'x, y, z'
loop_
 _atom_site_type_symbol
 _atom_site_label
 _atom_site_symmetry_multiplicity
 _atom_site_fract_x
 _atom_site_fract_y
 _atom_site_fract_z
 _atom_site_occupancy
  Zr  Zr0  1  0.676486  0.175408  0.000000  1
  Zr  Zr1  1  0.323514  0.824592  0.000000  1
  Zr  Zr2  1  0.175408  0.323514  0.000000  1
  Zr  Zr3  1  0.824592  0.676486  0.000000  1
  Mn  Mn4  1  0.500000  0.500000  0.000000  1
  Al  Al5  1  0.000000  0.000000  0.000000  1
  B  B6  1  0.123008  0.624492  0.000000  1
  B  B7  1  0.876992  0.375508  0.000000  1
  B  B8  1  0.624492  0.876992  0.000000  1
  B  B9  1  0.375508  0.123008  0.000000  1
  Ru  Ru10  1  0.215242  0.071259  0.500000  1
  Ru  Ru11  1  0.784758  0.928741  0.500000  1
  Ru  Ru12  1  0.071259  0.784758  0.500000  1
  Ru  Ru13  1  0.713211  0.429955  0.500000  1
  Ru  Ru14  1  0.928741  0.215242  0.500000  1
  Ru  Ru15  1  0.286789  0.570045  0.500000  1
  Ru  Ru16  1  0.570045  0.713211  0.500000  1
  Ru  Ru17  1  0.429955  0.286789  0.500000  1
  Ru  Ru18  1  0.500000  0.000000  0.500000  1
  Ru  Ru19  1  0.000000  0.500000  0.500000  1
