# generated using pymatgen
data_TmPu(ReN3)2
_symmetry_space_group_name_H-M   'P 1'
_cell_length_a   5.31177200
_cell_length_b   5.67917200
_cell_length_c   7.70254100
_cell_angle_alpha   90.00000000
_cell_angle_beta   90.00000000
_cell_angle_gamma   90.00000000
_symmetry_Int_Tables_number   1
_chemical_formula_structural   TmPu(ReN3)2
_chemical_formula_sum   'Tm2 Pu2 Re4 N12'
_cell_volume   232.35844745
_cell_formula_units_Z   2
loop_
 _symmetry_equiv_pos_site_id
 _symmetry_equiv_pos_as_xyz
  1  'x, y, z'
loop_
 _atom_site_type_symbol
 _atom_site_label
 _atom_site_symmetry_multiplicity
 _atom_site_fract_x
 _atom_site_fract_y
 _atom_site_fract_z
 _atom_site_occupancy
  Tm  Tm0  1  0.483631  0.429927  0.250000  1
  Tm  Tm1  1  0.016369  0.929927  0.250000  1
  Pu  Pu2  1  0.519207  0.570371  0.750000  1
  Pu  Pu3  1  0.980793  0.070371  0.750000  1
  Re  Re4  1  0.497662  0.001873  0.496372  1
  Re  Re5  1  0.002338  0.501873  0.003628  1
  Re  Re6  1  0.002338  0.501873  0.496372  1
  Re  Re7  1  0.497662  0.001873  0.003628  1
  N  N8  1  0.688145  0.301542  0.552358  1
  N  N9  1  0.309168  0.698984  0.048703  1
  N  N10  1  0.190832  0.198984  0.048703  1
  N  N11  1  0.406245  0.971425  0.750000  1
  N  N12  1  0.903793  0.523481  0.250000  1
  N  N13  1  0.309168  0.698984  0.451297  1
  N  N14  1  0.811855  0.801542  0.947642  1
  N  N15  1  0.688145  0.301542  0.947642  1
  N  N16  1  0.811855  0.801542  0.552358  1
  N  N17  1  0.093755  0.471425  0.750000  1
  N  N18  1  0.190832  0.198984  0.451297  1
  N  N19  1  0.596207  0.023481  0.250000  1
