# generated using pymatgen
data_Y2SnB2Ru5
_symmetry_space_group_name_H-M   'P 1'
_cell_length_a   9.77801300
_cell_length_b   9.77801300
_cell_length_c   3.13920600
_cell_angle_alpha   90.00000000
_cell_angle_beta   90.00000000
_cell_angle_gamma   90.00000000
_symmetry_Int_Tables_number   1
_chemical_formula_structural   Y2SnB2Ru5
_chemical_formula_sum   'Y4 Sn2 B4 Ru10'
_cell_volume   300.13803606
_cell_formula_units_Z   2
loop_
 _symmetry_equiv_pos_site_id
 _symmetry_equiv_pos_as_xyz
  1  'x, y, z'
loop_
 _atom_site_type_symbol
 _atom_site_label
 _atom_site_symmetry_multiplicity
 _atom_site_fract_x
 _atom_site_fract_y
 _atom_site_fract_z
 _atom_site_occupancy
  Y  Y0  1  0.824188  0.675812  0.000000  1
  Y  Y1  1  0.175812  0.324188  0.000000  1
  Y  Y2  1  0.324188  0.824188  0.000000  1
  Y  Y3  1  0.675812  0.175812  0.000000  1
  Sn  Sn4  1  0.500000  0.500000  0.000000  1
  Sn  Sn5  1  0.000000  0.000000  0.000000  1
  B  B6  1  0.619711  0.880289  0.000000  1
  B  B7  1  0.380289  0.119711  0.000000  1
  B  B8  1  0.119711  0.619711  0.000000  1
  B  B9  1  0.880289  0.380289  0.000000  1
  Ru  Ru10  1  0.569733  0.723623  0.500000  1
  Ru  Ru11  1  0.430267  0.276377  0.500000  1
  Ru  Ru12  1  0.069733  0.776377  0.500000  1
  Ru  Ru13  1  0.930267  0.223623  0.500000  1
  Ru  Ru14  1  0.276377  0.569733  0.500000  1
  Ru  Ru15  1  0.723623  0.430267  0.500000  1
  Ru  Ru16  1  0.223623  0.069733  0.500000  1
  Ru  Ru17  1  0.776377  0.930267  0.500000  1
  Ru  Ru18  1  0.500000  0.000000  0.500000  1
  Ru  Ru19  1  0.000000  0.500000  0.500000  1
