# generated using pymatgen
data_Sm4Ta(ReN4)3
_symmetry_space_group_name_H-M   'P 1'
_cell_length_a   7.41055951
_cell_length_b   7.47124256
_cell_length_c   6.34131600
_cell_angle_alpha   72.54766056
_cell_angle_beta   73.32270735
_cell_angle_gamma   81.77737337
_symmetry_Int_Tables_number   1
_chemical_formula_structural   Sm4Ta(ReN4)3
_chemical_formula_sum   'Sm4 Ta1 Re3 N12'
_cell_volume   320.21974316
_cell_formula_units_Z   1
loop_
 _symmetry_equiv_pos_site_id
 _symmetry_equiv_pos_as_xyz
  1  'x, y, z'
loop_
 _atom_site_type_symbol
 _atom_site_label
 _atom_site_symmetry_multiplicity
 _atom_site_fract_x
 _atom_site_fract_y
 _atom_site_fract_z
 _atom_site_occupancy
  Sm  Sm0  1  0.912877  0.094825  0.745391  1
  Sm  Sm1  1  0.099195  0.907996  0.248542  1
  Sm  Sm2  1  0.687323  0.279191  0.250870  1
  Sm  Sm3  1  0.300805  0.702139  0.753492  1
  Ta  Ta4  1  0.626328  0.796974  0.266448  1
  Re  Re5  1  0.194116  0.378186  0.231203  1
  Re  Re6  1  0.376285  0.204997  0.733843  1
  Re  Re7  1  0.799562  0.620073  0.773922  1
  N  N8  1  0.645343  0.632096  0.055635  1
  N  N9  1  0.377280  0.887005  0.356162  1
  N  N10  1  0.338751  0.340462  0.445903  1
  N  N11  1  0.117997  0.624143  0.157412  1
  N  N12  1  0.997094  0.227464  0.328868  1
  N  N13  1  0.791023  0.001116  0.143883  1
  N  N14  1  0.232278  0.002049  0.840005  1
  N  N15  1  0.627034  0.136164  0.653824  1
  N  N16  1  0.343498  0.349643  0.943628  1
  N  N17  1  0.894343  0.385164  0.832374  1
  N  N18  1  0.647524  0.649602  0.574499  1
  N  N19  1  0.991342  0.780708  0.664094  1
