# generated using pymatgen
data_V8Si6W2C
_symmetry_space_group_name_H-M   'P 1'
_cell_length_a   7.19933225
_cell_length_b   7.20285363
_cell_length_c   4.83469855
_cell_angle_alpha   89.95442292
_cell_angle_beta   90.09119879
_cell_angle_gamma   119.98381992
_symmetry_Int_Tables_number   1
_chemical_formula_structural   V8Si6W2C
_chemical_formula_sum   'V8 Si6 W2 C1'
_cell_volume   217.15361975
_cell_formula_units_Z   1
loop_
 _symmetry_equiv_pos_site_id
 _symmetry_equiv_pos_as_xyz
  1  'x, y, z'
loop_
 _atom_site_type_symbol
 _atom_site_label
 _atom_site_symmetry_multiplicity
 _atom_site_fract_x
 _atom_site_fract_y
 _atom_site_fract_z
 _atom_site_occupancy
  V  V0  1  0.759151  0.000000  0.254889  1
  V  V1  1  0.998985  0.239417  0.746450  1
  V  V2  1  0.759569  0.760583  0.746450  1
  V  V3  1  0.240095  0.000000  0.747338  1
  V  V4  1  0.332142  0.666039  0.998289  1
  V  V5  1  0.666105  0.333961  0.998289  1
  V  V6  1  0.666838  0.333109  0.501788  1
  V  V7  1  0.333728  0.666891  0.501788  1
  Si  Si8  1  0.996571  0.397973  0.243867  1
  Si  Si9  1  0.598598  0.602027  0.243867  1
  Si  Si10  1  0.407809  0.000000  0.244016  1
  Si  Si11  1  0.999851  0.596799  0.753026  1
  Si  Si12  1  0.403051  0.403201  0.753026  1
  Si  Si13  1  0.599267  0.000000  0.756424  1
  W  W14  1  0.000419  0.758747  0.251532  1
  W  W15  1  0.241673  0.241253  0.251532  1
  C  C16  1  0.996147  0.000000  0.507428  1
