# generated using pymatgen
data_Na12AlFe3S8(O4F)8
_symmetry_space_group_name_H-M   'P 1'
_cell_length_a   6.73968800
_cell_length_b   8.94933400
_cell_length_c   14.24180400
_cell_angle_alpha   90.00000000
_cell_angle_beta   90.00000000
_cell_angle_gamma   90.00000000
_symmetry_Int_Tables_number   1
_chemical_formula_structural   Na12AlFe3S8(O4F)8
_chemical_formula_sum   'Na12 Al1 Fe3 S8 O32 F8'
_cell_volume   859.00464766
_cell_formula_units_Z   1
loop_
 _symmetry_equiv_pos_site_id
 _symmetry_equiv_pos_as_xyz
  1  'x, y, z'
loop_
 _atom_site_type_symbol
 _atom_site_label
 _atom_site_symmetry_multiplicity
 _atom_site_fract_x
 _atom_site_fract_y
 _atom_site_fract_z
 _atom_site_occupancy
  Na  Na0  1  0.520365  0.666603  0.903325  1
  Na  Na1  1  0.021717  0.835488  0.595811  1
  Na  Na2  1  0.478283  0.164512  0.595811  1
  Na  Na3  1  0.979635  0.333397  0.903325  1
  Na  Na4  1  0.479952  0.334325  0.094385  1
  Na  Na5  1  0.979764  0.165314  0.406100  1
  Na  Na6  1  0.520236  0.834686  0.406100  1
  Na  Na7  1  0.020048  0.665675  0.094385  1
  Na  Na8  1  0.750000  0.000000  0.045896  1
  Na  Na9  1  0.250000  0.500000  0.452236  1
  Na  Na10  1  0.250000  0.000000  0.950065  1
  Na  Na11  1  0.750000  0.500000  0.548644  1
  Al  Al12  1  0.750000  0.000000  0.805403  1
  Fe  Fe13  1  0.250000  0.500000  0.694941  1
  Fe  Fe14  1  0.250000  0.000000  0.193944  1
  Fe  Fe15  1  0.750000  0.500000  0.305773  1
  S  S16  1  0.001038  0.698449  0.855989  1
  S  S17  1  0.509901  0.808599  0.646480  1
  S  S18  1  0.990099  0.191401  0.646480  1
  S  S19  1  0.498962  0.301551  0.855989  1
  S  S20  1  0.996464  0.306681  0.142937  1
  S  S21  1  0.496115  0.193004  0.356924  1
  S  S22  1  0.003885  0.806996  0.356924  1
  S  S23  1  0.503536  0.693319  0.142937  1
  O  O24  1  0.451315  0.436747  0.795751  1
  O  O25  1  0.935220  0.058328  0.706960  1
  O  O26  1  0.564780  0.941672  0.706960  1
  O  O27  1  0.048685  0.563253  0.795751  1
  O  O28  1  0.552136  0.557109  0.201727  1
  O  O29  1  0.052105  0.943096  0.297925  1
  O  O30  1  0.447895  0.056904  0.297925  1
  O  O31  1  0.947864  0.442891  0.201727  1
  O  O32  1  0.185443  0.768211  0.888547  1
  O  O33  1  0.689073  0.733766  0.612183  1
  O  O34  1  0.810927  0.266234  0.612183  1
  O  O35  1  0.314557  0.231789  0.888547  1
  O  O36  1  0.813857  0.233473  0.111093  1
  O  O37  1  0.313208  0.265371  0.389088  1
  O  O38  1  0.186792  0.734629  0.389088  1
  O  O39  1  0.686143  0.766527  0.111093  1
  O  O40  1  0.877977  0.644120  0.934820  1
  O  O41  1  0.385703  0.865894  0.568865  1
  O  O42  1  0.114297  0.134106  0.568865  1
  O  O43  1  0.622023  0.355880  0.934820  1
  O  O44  1  0.120050  0.358489  0.063732  1
  O  O45  1  0.620200  0.141140  0.435917  1
  O  O46  1  0.879800  0.858860  0.435917  1
  O  O47  1  0.379950  0.641511  0.063732  1
  O  O48  1  0.387905  0.704808  0.707117  1
  O  O49  1  0.881881  0.804364  0.795961  1
  O  O50  1  0.618119  0.195636  0.795961  1
  O  O51  1  0.112095  0.295192  0.707117  1
  O  O52  1  0.615115  0.296260  0.294795  1
  O  O53  1  0.116330  0.204030  0.205094  1
  O  O54  1  0.383670  0.795970  0.205094  1
  O  O55  1  0.884885  0.703740  0.294795  1
  F  F56  1  0.584654  0.931401  0.895514  1
  F  F57  1  0.078369  0.572836  0.595238  1
  F  F58  1  0.421631  0.427164  0.595238  1
  F  F59  1  0.915346  0.068599  0.895514  1
  F  F60  1  0.423676  0.071698  0.094493  1
  F  F61  1  0.923321  0.427235  0.404779  1
  F  F62  1  0.576679  0.572765  0.404779  1
  F  F63  1  0.076324  0.928302  0.094493  1
