# generated using pymatgen
data_Dy7Lu3Sn8
_symmetry_space_group_name_H-M   'P 1'
_cell_length_a   7.93865300
_cell_length_b   8.15970675
_cell_length_c   15.36866841
_cell_angle_alpha   90.10355301
_cell_angle_beta   90.00000000
_cell_angle_gamma   90.00000000
_symmetry_Int_Tables_number   1
_chemical_formula_structural   Dy7Lu3Sn8
_chemical_formula_sum   'Dy14 Lu6 Sn16'
_cell_volume   995.53584489
_cell_formula_units_Z   2
loop_
 _symmetry_equiv_pos_site_id
 _symmetry_equiv_pos_as_xyz
  1  'x, y, z'
loop_
 _atom_site_type_symbol
 _atom_site_label
 _atom_site_symmetry_multiplicity
 _atom_site_fract_x
 _atom_site_fract_y
 _atom_site_fract_z
 _atom_site_occupancy
  Dy  Dy0  1  0.351340  0.835630  0.123116  1
  Dy  Dy1  1  0.851340  0.664370  0.376884  1
  Dy  Dy2  1  0.350925  0.835376  0.375794  1
  Dy  Dy3  1  0.850925  0.664624  0.124206  1
  Dy  Dy4  1  0.647805  0.164200  0.875528  1
  Dy  Dy5  1  0.147805  0.335800  0.624472  1
  Dy  Dy6  1  0.490041  0.678129  0.595516  1
  Dy  Dy7  1  0.990041  0.821871  0.904484  1
  Dy  Dy8  1  0.509159  0.320627  0.094678  1
  Dy  Dy9  1  0.009159  0.179373  0.405322  1
  Dy  Dy10  1  0.509393  0.320757  0.406044  1
  Dy  Dy11  1  0.009393  0.179243  0.093956  1
  Dy  Dy12  1  0.490666  0.678427  0.904081  1
  Dy  Dy13  1  0.990666  0.821573  0.595919  1
  Lu  Lu14  1  0.649801  0.163617  0.626521  1
  Lu  Lu15  1  0.149801  0.336383  0.873479  1
  Lu  Lu16  1  0.818626  0.497880  0.749593  1
  Lu  Lu17  1  0.318626  0.002120  0.750407  1
  Lu  Lu18  1  0.181079  0.501337  0.249543  1
  Lu  Lu19  1  0.681079  0.998663  0.250457  1
  Sn  Sn20  1  0.693483  0.963088  0.460533  1
  Sn  Sn21  1  0.193483  0.536912  0.039467  1
  Sn  Sn22  1  0.303379  0.041395  0.957544  1
  Sn  Sn23  1  0.803379  0.458605  0.542456  1
  Sn  Sn24  1  0.310400  0.038747  0.542540  1
  Sn  Sn25  1  0.810400  0.461253  0.957460  1
  Sn  Sn26  1  0.694459  0.962326  0.041659  1
  Sn  Sn27  1  0.194459  0.537674  0.458341  1
  Sn  Sn28  1  0.454036  0.383980  0.750070  1
  Sn  Sn29  1  0.954036  0.116020  0.749930  1
  Sn  Sn30  1  0.546006  0.614893  0.249767  1
  Sn  Sn31  1  0.046006  0.885107  0.250233  1
  Sn  Sn32  1  0.682036  0.848596  0.749720  1
  Sn  Sn33  1  0.182036  0.651404  0.750280  1
  Sn  Sn34  1  0.317367  0.151534  0.249879  1
  Sn  Sn35  1  0.817367  0.348466  0.250121  1
