# generated using pymatgen
data_CaSb12Os2RuRh
_symmetry_space_group_name_H-M   'P 1'
_cell_length_a   8.16825298
_cell_length_b   8.15513542
_cell_length_c   8.14933265
_cell_angle_alpha   109.36121080
_cell_angle_beta   109.44028045
_cell_angle_gamma   109.46281525
_symmetry_Int_Tables_number   1
_chemical_formula_structural   CaSb12Os2RuRh
_chemical_formula_sum   'Ca1 Sb12 Os2 Ru1 Rh1'
_cell_volume   418.65681634
_cell_formula_units_Z   1
loop_
 _symmetry_equiv_pos_site_id
 _symmetry_equiv_pos_as_xyz
  1  'x, y, z'
loop_
 _atom_site_type_symbol
 _atom_site_label
 _atom_site_symmetry_multiplicity
 _atom_site_fract_x
 _atom_site_fract_y
 _atom_site_fract_z
 _atom_site_occupancy
  Ca  Ca0  1  0.000000  0.000000  0.000000  1
  Sb  Sb1  1  0.844273  0.660430  0.504036  1
  Sb  Sb2  1  0.155727  0.339570  0.495964  1
  Sb  Sb3  1  0.157827  0.661623  0.817988  1
  Sb  Sb4  1  0.842173  0.338377  0.182012  1
  Sb  Sb5  1  0.660673  0.504147  0.844727  1
  Sb  Sb6  1  0.339327  0.495853  0.155273  1
  Sb  Sb7  1  0.660828  0.818342  0.156721  1
  Sb  Sb8  1  0.339172  0.181658  0.843279  1
  Sb  Sb9  1  0.503888  0.845118  0.660890  1
  Sb  Sb10  1  0.496112  0.154882  0.339110  1
  Sb  Sb11  1  0.181846  0.842871  0.338710  1
  Sb  Sb12  1  0.818154  0.157129  0.661290  1
  Os  Os13  1  0.000000  0.500000  0.000000  1
  Os  Os14  1  0.000000  0.000000  0.500000  1
  Ru  Ru15  1  0.500000  0.000000  0.000000  1
  Rh  Rh16  1  0.500000  0.500000  0.500000  1
