# generated using pymatgen
data_Cs6TmLu3Br18
_symmetry_space_group_name_H-M   'P 1'
_cell_length_a   10.40987122
_cell_length_b   10.40987274
_cell_length_c   10.40987244
_cell_angle_alpha   83.17140160
_cell_angle_beta   83.17140662
_cell_angle_gamma   83.17139466
_symmetry_Int_Tables_number   1
_chemical_formula_structural   Cs6TmLu3Br18
_chemical_formula_sum   'Cs6 Tm1 Lu3 Br18'
_cell_volume   1105.82571191
_cell_formula_units_Z   1
loop_
 _symmetry_equiv_pos_site_id
 _symmetry_equiv_pos_as_xyz
  1  'x, y, z'
loop_
 _atom_site_type_symbol
 _atom_site_label
 _atom_site_symmetry_multiplicity
 _atom_site_fract_x
 _atom_site_fract_y
 _atom_site_fract_z
 _atom_site_occupancy
  Cs  Cs0  1  0.589575  0.910484  0.249768  1
  Cs  Cs1  1  0.249768  0.589575  0.910484  1
  Cs  Cs2  1  0.910484  0.249768  0.589575  1
  Cs  Cs3  1  0.750049  0.410368  0.089755  1
  Cs  Cs4  1  0.089755  0.750049  0.410368  1
  Cs  Cs5  1  0.410368  0.089755  0.750049  1
  Tm  Tm6  1  0.653683  0.653683  0.653683  1
  Lu  Lu7  1  0.845925  0.845925  0.845925  1
  Lu  Lu8  1  0.345707  0.345707  0.345707  1
  Lu  Lu9  1  0.154256  0.154256  0.154256  1
  Br  Br10  1  0.096340  0.403705  0.249975  1
  Br  Br11  1  0.249975  0.096340  0.403705  1
  Br  Br12  1  0.403705  0.249975  0.096340  1
  Br  Br13  1  0.750445  0.904557  0.596401  1
  Br  Br14  1  0.596401  0.750445  0.904557  1
  Br  Br15  1  0.904557  0.596401  0.750445  1
  Br  Br16  1  0.236252  0.414458  0.576494  1
  Br  Br17  1  0.576494  0.236252  0.414458  1
  Br  Br18  1  0.414458  0.576494  0.236252  1
  Br  Br19  1  0.076641  0.914613  0.736268  1
  Br  Br20  1  0.736268  0.076641  0.914613  1
  Br  Br21  1  0.914613  0.736268  0.076641  1
  Br  Br22  1  0.764671  0.585104  0.421706  1
  Br  Br23  1  0.421706  0.764671  0.585104  1
  Br  Br24  1  0.585104  0.421706  0.764671  1
  Br  Br25  1  0.923491  0.085540  0.263771  1
  Br  Br26  1  0.263771  0.923491  0.085540  1
  Br  Br27  1  0.085540  0.263771  0.923491  1
