# generated using pymatgen
data_Rb8Na4Ho3ErSb8
_symmetry_space_group_name_H-M   'P 1'
_cell_length_a   11.31675690
_cell_length_b   11.31675595
_cell_length_c   7.46628014
_cell_angle_alpha   89.98292070
_cell_angle_beta   90.01707886
_cell_angle_gamma   98.60997905
_symmetry_Int_Tables_number   1
_chemical_formula_structural   Rb8Na4Ho3ErSb8
_chemical_formula_sum   'Rb8 Na4 Ho3 Er1 Sb8'
_cell_volume   945.42272589
_cell_formula_units_Z   1
loop_
 _symmetry_equiv_pos_site_id
 _symmetry_equiv_pos_as_xyz
  1  'x, y, z'
loop_
 _atom_site_type_symbol
 _atom_site_label
 _atom_site_symmetry_multiplicity
 _atom_site_fract_x
 _atom_site_fract_y
 _atom_site_fract_z
 _atom_site_occupancy
  Rb  Rb0  1  0.070535  0.429383  0.249884  1
  Rb  Rb1  1  0.429383  0.070535  0.750116  1
  Rb  Rb2  1  0.929431  0.570506  0.750026  1
  Rb  Rb3  1  0.570506  0.929431  0.249974  1
  Rb  Rb4  1  0.676471  0.323498  0.215844  1
  Rb  Rb5  1  0.823570  0.176458  0.715992  1
  Rb  Rb6  1  0.323498  0.676471  0.784156  1
  Rb  Rb7  1  0.176458  0.823570  0.284008  1
  Na  Na8  1  0.382344  0.382344  0.000000  1
  Na  Na9  1  0.117580  0.117580  0.500000  1
  Na  Na10  1  0.617577  0.617577  0.000000  1
  Na  Na11  1  0.882407  0.882407  0.500000  1
  Ho  Ho12  1  0.369048  0.369048  0.500000  1
  Ho  Ho13  1  0.869236  0.869236  0.000000  1
  Ho  Ho14  1  0.630966  0.630966  0.500000  1
  Er  Er15  1  0.131049  0.131049  0.000000  1
  Sb  Sb16  1  0.846410  0.653541  0.250021  1
  Sb  Sb17  1  0.653541  0.846410  0.749979  1
  Sb  Sb18  1  0.153481  0.345853  0.750712  1
  Sb  Sb19  1  0.345853  0.153481  0.249288  1
  Sb  Sb20  1  0.900124  0.100578  0.210997  1
  Sb  Sb21  1  0.600451  0.399498  0.711509  1
  Sb  Sb22  1  0.100578  0.900124  0.789003  1
  Sb  Sb23  1  0.399498  0.600451  0.288491  1
