# generated using pymatgen
data_LiCa2AcCd2Sn3
_symmetry_space_group_name_H-M   'P 1'
_cell_length_a   7.80215153
_cell_length_b   7.67184685
_cell_length_c   4.82033400
_cell_angle_alpha   90.00000000
_cell_angle_beta   90.00000000
_cell_angle_gamma   119.34955260
_symmetry_Int_Tables_number   1
_chemical_formula_structural   LiCa2AcCd2Sn3
_chemical_formula_sum   'Li1 Ca2 Ac1 Cd2 Sn3'
_cell_volume   251.49620113
_cell_formula_units_Z   1
loop_
 _symmetry_equiv_pos_site_id
 _symmetry_equiv_pos_as_xyz
  1  'x, y, z'
loop_
 _atom_site_type_symbol
 _atom_site_label
 _atom_site_symmetry_multiplicity
 _atom_site_fract_x
 _atom_site_fract_y
 _atom_site_fract_z
 _atom_site_occupancy
  Li  Li0  1  0.238134  0.001720  0.000000  1
  Ca  Ca1  1  0.571414  0.998100  0.500000  1
  Ca  Ca2  1  0.431301  0.431160  0.500000  1
  Ac  Ac3  1  0.997935  0.565533  0.500000  1
  Cd  Cd4  1  0.753860  0.753906  0.000000  1
  Cd  Cd5  1  0.001616  0.241125  0.000000  1
  Sn  Sn6  1  0.012113  0.009341  0.500000  1
  Sn  Sn7  1  0.650478  0.319519  0.000000  1
  Sn  Sn8  1  0.343149  0.679597  0.000000  1
