# generated using pymatgen
data_CeSm3(B4W)4
_symmetry_space_group_name_H-M   'P 1'
_cell_length_a   3.67434500
_cell_length_b   6.08719973
_cell_length_c   11.77935907
_cell_angle_alpha   90.00989908
_cell_angle_beta   90.00000000
_cell_angle_gamma   90.00000000
_symmetry_Int_Tables_number   1
_chemical_formula_structural   CeSm3(B4W)4
_chemical_formula_sum   'Ce1 Sm3 B16 W4'
_cell_volume   263.46269968
_cell_formula_units_Z   1
loop_
 _symmetry_equiv_pos_site_id
 _symmetry_equiv_pos_as_xyz
  1  'x, y, z'
loop_
 _atom_site_type_symbol
 _atom_site_label
 _atom_site_symmetry_multiplicity
 _atom_site_fract_x
 _atom_site_fract_y
 _atom_site_fract_z
 _atom_site_occupancy
  Ce  Ce0  1  0.000000  0.874752  0.848767  1
  Sm  Sm1  1  0.000000  0.625690  0.349847  1
  Sm  Sm2  1  0.000000  0.374436  0.649849  1
  Sm  Sm3  1  0.000000  0.125909  0.150919  1
  B  B4  1  0.500000  0.784010  0.185691  1
  B  B5  1  0.500000  0.213612  0.814970  1
  B  B6  1  0.500000  0.284457  0.314740  1
  B  B7  1  0.500000  0.715733  0.686084  1
  B  B8  1  0.500000  0.864022  0.031527  1
  B  B9  1  0.500000  0.135909  0.966647  1
  B  B10  1  0.500000  0.364547  0.467848  1
  B  B11  1  0.500000  0.635366  0.532581  1
  B  B12  1  0.500000  0.886660  0.453789  1
  B  B13  1  0.500000  0.112820  0.546653  1
  B  B14  1  0.500000  0.386837  0.046185  1
  B  B15  1  0.500000  0.613525  0.952947  1
  B  B16  1  0.500000  0.975332  0.308502  1
  B  B17  1  0.500000  0.023115  0.692081  1
  B  B18  1  0.500000  0.476017  0.191645  1
  B  B19  1  0.500000  0.526820  0.808350  1
  W  W20  1  0.000000  0.629981  0.083541  1
  W  W21  1  0.000000  0.369739  0.915164  1
  W  W22  1  0.000000  0.129496  0.416411  1
  W  W23  1  0.000000  0.871216  0.585263  1
