# generated using pymatgen
data_Yb7Pr9(CdRu)4
_symmetry_space_group_name_H-M   'P 1'
_cell_length_a   9.92428064
_cell_length_b   9.91088418
_cell_length_c   9.91933110
_cell_angle_alpha   60.31239341
_cell_angle_beta   60.92219764
_cell_angle_gamma   60.31000118
_symmetry_Int_Tables_number   1
_chemical_formula_structural   Yb7Pr9(CdRu)4
_chemical_formula_sum   'Yb7 Pr9 Cd4 Ru4'
_cell_volume   697.86273554
_cell_formula_units_Z   1
loop_
 _symmetry_equiv_pos_site_id
 _symmetry_equiv_pos_as_xyz
  1  'x, y, z'
loop_
 _atom_site_type_symbol
 _atom_site_label
 _atom_site_symmetry_multiplicity
 _atom_site_fract_x
 _atom_site_fract_y
 _atom_site_fract_z
 _atom_site_occupancy
  Yb  Yb0  1  0.054137  0.442749  0.446881  1
  Yb  Yb1  1  0.192870  0.806740  0.193204  1
  Yb  Yb2  1  0.656198  0.654585  0.656048  1
  Yb  Yb3  1  0.446935  0.442709  0.054382  1
  Yb  Yb4  1  0.054172  0.447381  0.054128  1
  Yb  Yb5  1  0.448276  0.055642  0.056755  1
  Yb  Yb6  1  0.056825  0.055617  0.448275  1
  Pr  Pr7  1  0.654951  0.655845  0.034620  1
  Pr  Pr8  1  0.656931  0.030077  0.656811  1
  Pr  Pr9  1  0.197360  0.807405  0.804079  1
  Pr  Pr10  1  0.445417  0.054837  0.444957  1
  Pr  Pr11  1  0.192580  0.191267  0.805377  1
  Pr  Pr12  1  0.034808  0.655736  0.654901  1
  Pr  Pr13  1  0.803886  0.807517  0.197412  1
  Pr  Pr14  1  0.805573  0.191324  0.192883  1
  Pr  Pr15  1  0.805638  0.193691  0.805711  1
  Cd  Cd16  1  0.419622  0.420023  0.419521  1
  Cd  Cd17  1  0.421036  0.738780  0.420940  1
  Cd  Cd18  1  0.737141  0.421144  0.420156  1
  Cd  Cd19  1  0.420154  0.421115  0.737168  1
  Ru  Ru20  1  0.864888  0.860918  0.864595  1
  Ru  Ru21  1  0.404889  0.869436  0.859480  1
  Ru  Ru22  1  0.866665  0.405567  0.866712  1
  Ru  Ru23  1  0.859047  0.869902  0.405004  1
