# generated using pymatgen
data_Dy2FeCoI
_symmetry_space_group_name_H-M   'P 1'
_cell_length_a   3.94991900
_cell_length_b   3.94991858
_cell_length_c   17.01422200
_cell_angle_alpha   90.00000000
_cell_angle_beta   90.00000000
_cell_angle_gamma   119.99999515
_symmetry_Int_Tables_number   1
_chemical_formula_structural   Dy2FeCoI
_chemical_formula_sum   'Dy4 Fe2 Co2 I2'
_cell_volume   229.88947122
_cell_formula_units_Z   2
loop_
 _symmetry_equiv_pos_site_id
 _symmetry_equiv_pos_as_xyz
  1  'x, y, z'
loop_
 _atom_site_type_symbol
 _atom_site_label
 _atom_site_symmetry_multiplicity
 _atom_site_fract_x
 _atom_site_fract_y
 _atom_site_fract_z
 _atom_site_occupancy
  Dy  Dy0  1  0.000000  0.000000  0.103009  1
  Dy  Dy1  1  0.000000  0.000000  0.896991  1
  Dy  Dy2  1  0.000000  0.000000  0.604479  1
  Dy  Dy3  1  0.000000  0.000000  0.395521  1
  Fe  Fe4  1  0.333333  0.666667  0.505372  1
  Fe  Fe5  1  0.666667  0.333333  0.494628  1
  Co  Co6  1  0.666667  0.333333  0.001770  1
  Co  Co7  1  0.333333  0.666667  0.998230  1
  I  I8  1  0.333333  0.666667  0.247925  1
  I  I9  1  0.666667  0.333333  0.752075  1
