# generated using pymatgen
data_ErTh7(Si3Os)4
_symmetry_space_group_name_H-M   'P 1'
_cell_length_a   8.25602700
_cell_length_b   8.29786653
_cell_length_c   8.28472700
_cell_angle_alpha   90.00000000
_cell_angle_beta   90.00000000
_cell_angle_gamma   119.83334097
_symmetry_Int_Tables_number   1
_chemical_formula_structural   ErTh7(Si3Os)4
_chemical_formula_sum   'Er1 Th7 Si12 Os4'
_cell_volume   492.34924488
_cell_formula_units_Z   1
loop_
 _symmetry_equiv_pos_site_id
 _symmetry_equiv_pos_as_xyz
  1  'x, y, z'
loop_
 _atom_site_type_symbol
 _atom_site_label
 _atom_site_symmetry_multiplicity
 _atom_site_fract_x
 _atom_site_fract_y
 _atom_site_fract_z
 _atom_site_occupancy
  Er  Er0  1  0.500301  0.000603  0.750000  1
  Th  Th1  1  0.000026  0.000051  0.250000  1
  Th  Th2  1  0.999978  0.999956  0.750000  1
  Th  Th3  1  0.499770  0.500599  0.250000  1
  Th  Th4  1  0.499603  0.999208  0.250000  1
  Th  Th5  1  0.000829  0.500599  0.250000  1
  Th  Th6  1  0.500392  0.499245  0.750000  1
  Th  Th7  1  0.998853  0.499245  0.750000  1
  Si  Si8  1  0.830145  0.165009  0.502929  1
  Si  Si9  1  0.835587  0.671176  0.497646  1
  Si  Si10  1  0.334863  0.165009  0.502929  1
  Si  Si11  1  0.830145  0.165009  0.997071  1
  Si  Si12  1  0.835587  0.671176  0.002354  1
  Si  Si13  1  0.334863  0.165009  0.997071  1
  Si  Si14  1  0.169836  0.834954  0.996611  1
  Si  Si15  1  0.665118  0.834954  0.996611  1
  Si  Si16  1  0.164515  0.329029  0.001813  1
  Si  Si17  1  0.169836  0.834954  0.503389  1
  Si  Si18  1  0.665118  0.834954  0.503389  1
  Si  Si19  1  0.164515  0.329029  0.498187  1
  Os  Os20  1  0.669190  0.338379  0.501454  1
  Os  Os21  1  0.669190  0.338379  0.998546  1
  Os  Os22  1  0.330867  0.661736  0.997254  1
  Os  Os23  1  0.330867  0.661736  0.502746  1
