# generated using pymatgen
data_LiLa7Pr9Cd3Ir4
_symmetry_space_group_name_H-M   'P 1'
_cell_length_a   10.07735522
_cell_length_b   10.08173167
_cell_length_c   10.11758021
_cell_angle_alpha   59.67608726
_cell_angle_beta   60.12862293
_cell_angle_gamma   60.28410377
_symmetry_Int_Tables_number   1
_chemical_formula_structural   LiLa7Pr9Cd3Ir4
_chemical_formula_sum   'Li1 La7 Pr9 Cd3 Ir4'
_cell_volume   727.29132268
_cell_formula_units_Z   1
loop_
 _symmetry_equiv_pos_site_id
 _symmetry_equiv_pos_as_xyz
  1  'x, y, z'
loop_
 _atom_site_type_symbol
 _atom_site_label
 _atom_site_symmetry_multiplicity
 _atom_site_fract_x
 _atom_site_fract_y
 _atom_site_fract_z
 _atom_site_occupancy
  Li  Li0  1  0.571954  0.570924  0.570913  1
  La  La1  1  0.347317  0.347013  0.348742  1
  La  La2  1  0.347463  0.345766  0.959934  1
  La  La3  1  0.347924  0.959253  0.346386  1
  La  La4  1  0.959983  0.347217  0.347536  1
  La  La5  1  0.810225  0.190448  0.189181  1
  La  La6  1  0.185659  0.813961  0.812259  1
  La  La7  1  0.190318  0.810570  0.190507  1
  Pr  Pr8  1  0.811191  0.187559  0.811354  1
  Pr  Pr9  1  0.191462  0.192918  0.808194  1
  Pr  Pr10  1  0.809546  0.811399  0.187757  1
  Pr  Pr11  1  0.937469  0.562675  0.563589  1
  Pr  Pr12  1  0.562446  0.937741  0.936798  1
  Pr  Pr13  1  0.562563  0.938225  0.562889  1
  Pr  Pr14  1  0.937326  0.562022  0.937439  1
  Pr  Pr15  1  0.563037  0.562219  0.937768  1
  Pr  Pr16  1  0.937395  0.938209  0.562265  1
  Cd  Cd17  1  0.581685  0.581477  0.258867  1
  Cd  Cd18  1  0.580949  0.258663  0.581839  1
  Cd  Cd19  1  0.258535  0.580447  0.581562  1
  Ir  Ir20  1  0.139997  0.140384  0.144914  1
  Ir  Ir21  1  0.144765  0.138967  0.575176  1
  Ir  Ir22  1  0.145730  0.577172  0.139734  1
  Ir  Ir23  1  0.575059  0.144770  0.144397  1
