# generated using pymatgen
data_NpPaTcB6
_symmetry_space_group_name_H-M   'P 1'
_cell_length_a   3.67091900
_cell_length_b   9.28440900
_cell_length_c   11.34525100
_cell_angle_alpha   90.00000000
_cell_angle_beta   90.00000000
_cell_angle_gamma   90.00000000
_symmetry_Int_Tables_number   1
_chemical_formula_structural   NpPaTcB6
_chemical_formula_sum   'Np4 Pa4 Tc4 B24'
_cell_volume   386.67240020
_cell_formula_units_Z   4
loop_
 _symmetry_equiv_pos_site_id
 _symmetry_equiv_pos_as_xyz
  1  'x, y, z'
loop_
 _atom_site_type_symbol
 _atom_site_label
 _atom_site_symmetry_multiplicity
 _atom_site_fract_x
 _atom_site_fract_y
 _atom_site_fract_z
 _atom_site_occupancy
  Np  Np0  1  0.000000  0.958497  0.400778  1
  Np  Np1  1  0.000000  0.041503  0.599222  1
  Np  Np2  1  0.000000  0.458497  0.099222  1
  Np  Np3  1  0.000000  0.541503  0.900778  1
  Pa  Pa4  1  0.000000  0.335727  0.406901  1
  Pa  Pa5  1  0.000000  0.664273  0.593099  1
  Pa  Pa6  1  0.000000  0.835727  0.093099  1
  Pa  Pa7  1  0.000000  0.164273  0.906901  1
  Tc  Tc8  1  0.000000  0.646525  0.319168  1
  Tc  Tc9  1  0.000000  0.353475  0.680832  1
  Tc  Tc10  1  0.000000  0.146525  0.180832  1
  Tc  Tc11  1  0.000000  0.853475  0.819168  1
  B  B12  1  0.500000  0.551673  0.431864  1
  B  B13  1  0.500000  0.448327  0.568136  1
  B  B14  1  0.500000  0.051673  0.068136  1
  B  B15  1  0.500000  0.948327  0.931864  1
  B  B16  1  0.500000  0.744231  0.423299  1
  B  B17  1  0.500000  0.255769  0.576701  1
  B  B18  1  0.500000  0.244231  0.076701  1
  B  B19  1  0.500000  0.755769  0.923299  1
  B  B20  1  0.500000  0.805325  0.274344  1
  B  B21  1  0.500000  0.194675  0.725656  1
  B  B22  1  0.500000  0.305325  0.225656  1
  B  B23  1  0.500000  0.694675  0.774344  1
  B  B24  1  0.500000  0.645049  0.188459  1
  B  B25  1  0.500000  0.354951  0.811541  1
  B  B26  1  0.500000  0.145049  0.311541  1
  B  B27  1  0.500000  0.854951  0.688459  1
  B  B28  1  0.500000  0.987395  0.220535  1
  B  B29  1  0.500000  0.012605  0.779465  1
  B  B30  1  0.500000  0.487395  0.279465  1
  B  B31  1  0.500000  0.512605  0.720535  1
  B  B32  1  0.500000  0.641449  0.039383  1
  B  B33  1  0.500000  0.358551  0.960617  1
  B  B34  1  0.500000  0.141449  0.460617  1
  B  B35  1  0.500000  0.858551  0.539383  1
