# generated using pymatgen
data_RbNa2LiSn4
_symmetry_space_group_name_H-M   'P 1'
_cell_length_a   8.21757743
_cell_length_b   8.21757722
_cell_length_c   10.12641400
_cell_angle_alpha   90.00000000
_cell_angle_beta   90.00000000
_cell_angle_gamma   132.96986896
_symmetry_Int_Tables_number   1
_chemical_formula_structural   RbNa2LiSn4
_chemical_formula_sum   'Rb2 Na4 Li2 Sn8'
_cell_volume   500.36117740
_cell_formula_units_Z   2
loop_
 _symmetry_equiv_pos_site_id
 _symmetry_equiv_pos_as_xyz
  1  'x, y, z'
loop_
 _atom_site_type_symbol
 _atom_site_label
 _atom_site_symmetry_multiplicity
 _atom_site_fract_x
 _atom_site_fract_y
 _atom_site_fract_z
 _atom_site_occupancy
  Rb  Rb0  1  0.215752  0.784248  0.250000  1
  Rb  Rb1  1  0.784248  0.215752  0.750000  1
  Na  Na2  1  0.611143  0.388857  0.038243  1
  Na  Na3  1  0.388857  0.611143  0.961757  1
  Na  Na4  1  0.388857  0.611143  0.538243  1
  Na  Na5  1  0.611143  0.388857  0.461757  1
  Li  Li6  1  0.000000  0.000000  0.000000  1
  Li  Li7  1  0.000000  0.000000  0.500000  1
  Sn  Sn8  1  0.214864  0.288864  0.250000  1
  Sn  Sn9  1  0.785136  0.711136  0.750000  1
  Sn  Sn10  1  0.711136  0.785136  0.250000  1
  Sn  Sn11  1  0.288864  0.214864  0.750000  1
  Sn  Sn12  1  0.824847  0.175153  0.106325  1
  Sn  Sn13  1  0.175153  0.824847  0.893675  1
  Sn  Sn14  1  0.175153  0.824847  0.606325  1
  Sn  Sn15  1  0.824847  0.175153  0.393675  1
