# generated using pymatgen
data_HoPdF7
_symmetry_space_group_name_H-M   'P 1'
_cell_length_a   5.50317500
_cell_length_b   8.81009997
_cell_length_c   11.89855214
_cell_angle_alpha   62.51970150
_cell_angle_beta   90.00000000
_cell_angle_gamma   90.00000000
_symmetry_Int_Tables_number   1
_chemical_formula_structural   HoPdF7
_chemical_formula_sum   'Ho4 Pd4 F28'
_cell_volume   511.79366753
_cell_formula_units_Z   4
loop_
 _symmetry_equiv_pos_site_id
 _symmetry_equiv_pos_as_xyz
  1  'x, y, z'
loop_
 _atom_site_type_symbol
 _atom_site_label
 _atom_site_symmetry_multiplicity
 _atom_site_fract_x
 _atom_site_fract_y
 _atom_site_fract_z
 _atom_site_occupancy
  Ho  Ho0  1  0.761462  0.813634  0.764502  1
  Ho  Ho1  1  0.261462  0.186366  0.735498  1
  Ho  Ho2  1  0.238538  0.186366  0.235498  1
  Ho  Ho3  1  0.738538  0.813634  0.264502  1
  Pd  Pd4  1  0.758691  0.271969  0.957186  1
  Pd  Pd5  1  0.258691  0.728031  0.542814  1
  Pd  Pd6  1  0.241309  0.728031  0.042814  1
  Pd  Pd7  1  0.741309  0.271969  0.457186  1
  F  F8  1  0.435171  0.702176  0.916058  1
  F  F9  1  0.935171  0.297824  0.583942  1
  F  F10  1  0.564829  0.297824  0.083942  1
  F  F11  1  0.064829  0.702176  0.416058  1
  F  F12  1  0.439631  0.278512  0.541445  1
  F  F13  1  0.939631  0.721488  0.958555  1
  F  F14  1  0.560369  0.721488  0.458555  1
  F  F15  1  0.060369  0.278512  0.041445  1
  F  F16  1  0.775315  0.520610  0.858599  1
  F  F17  1  0.275315  0.479390  0.641401  1
  F  F18  1  0.224685  0.479390  0.141401  1
  F  F19  1  0.724685  0.520610  0.358599  1
  F  F20  1  0.754116  0.023908  0.049178  1
  F  F21  1  0.254116  0.976092  0.450822  1
  F  F22  1  0.245884  0.976092  0.950822  1
  F  F23  1  0.745884  0.023908  0.549178  1
  F  F24  1  0.965738  0.724313  0.635734  1
  F  F25  1  0.465738  0.275687  0.864266  1
  F  F26  1  0.034262  0.275687  0.364266  1
  F  F27  1  0.534262  0.724313  0.135734  1
  F  F28  1  0.053305  0.745502  0.175577  1
  F  F29  1  0.553305  0.254498  0.324423  1
  F  F30  1  0.946695  0.254498  0.824423  1
  F  F31  1  0.446695  0.745502  0.675577  1
  F  F32  1  0.413937  0.969492  0.232233  1
  F  F33  1  0.913937  0.030508  0.267767  1
  F  F34  1  0.586063  0.030508  0.767767  1
  F  F35  1  0.086063  0.969492  0.732233  1
