# generated using pymatgen
data_Tb3Tm(Sc4Bi3)4
_symmetry_space_group_name_H-M   'P 1'
_cell_length_a   7.90375821
_cell_length_b   9.07348600
_cell_length_c   11.58463631
_cell_angle_alpha   90.00000000
_cell_angle_beta   90.02632045
_cell_angle_gamma   90.00000000
_symmetry_Int_Tables_number   1
_chemical_formula_structural   Tb3Tm(Sc4Bi3)4
_chemical_formula_sum   'Tb3 Tm1 Sc16 Bi12'
_cell_volume   830.78792818
_cell_formula_units_Z   1
loop_
 _symmetry_equiv_pos_site_id
 _symmetry_equiv_pos_as_xyz
  1  'x, y, z'
loop_
 _atom_site_type_symbol
 _atom_site_label
 _atom_site_symmetry_multiplicity
 _atom_site_fract_x
 _atom_site_fract_y
 _atom_site_fract_z
 _atom_site_occupancy
  Tb  Tb0  1  0.815805  0.250000  0.280999  1
  Tb  Tb1  1  0.684129  0.750000  0.781023  1
  Tb  Tb2  1  0.184101  0.750000  0.718976  1
  Tm  Tm3  1  0.315526  0.250000  0.218450  1
  Sc  Sc4  1  0.348426  0.750000  0.220571  1
  Sc  Sc5  1  0.848524  0.750000  0.279319  1
  Sc  Sc6  1  0.651509  0.250000  0.779421  1
  Sc  Sc7  1  0.151639  0.250000  0.720578  1
  Sc  Sc8  1  0.693236  0.567178  0.062376  1
  Sc  Sc9  1  0.193066  0.932882  0.437516  1
  Sc  Sc10  1  0.306850  0.067140  0.937812  1
  Sc  Sc11  1  0.806971  0.432851  0.562367  1
  Sc  Sc12  1  0.306850  0.432860  0.937812  1
  Sc  Sc13  1  0.806971  0.067149  0.562367  1
  Sc  Sc14  1  0.693236  0.932822  0.062376  1
  Sc  Sc15  1  0.193066  0.567118  0.437516  1
  Sc  Sc16  1  0.481370  0.250000  0.488403  1
  Sc  Sc17  1  0.981938  0.250000  0.011683  1
  Sc  Sc18  1  0.518190  0.750000  0.511346  1
  Sc  Sc19  1  0.018511  0.750000  0.988673  1
  Bi  Bi20  1  0.402414  0.750000  0.967528  1
  Bi  Bi21  1  0.902284  0.750000  0.532476  1
  Bi  Bi22  1  0.596701  0.250000  0.033314  1
  Bi  Bi23  1  0.098135  0.250000  0.467120  1
  Bi  Bi24  1  0.563242  0.989900  0.328437  1
  Bi  Bi25  1  0.064851  0.509898  0.171491  1
  Bi  Bi26  1  0.436130  0.489255  0.671307  1
  Bi  Bi27  1  0.936053  0.010773  0.828754  1
  Bi  Bi28  1  0.436130  0.010745  0.671307  1
  Bi  Bi29  1  0.936053  0.489227  0.828754  1
  Bi  Bi30  1  0.563242  0.510100  0.328437  1
  Bi  Bi31  1  0.064851  0.990102  0.171491  1
