# generated using pymatgen
data_PrNd2(PdAu)3
_symmetry_space_group_name_H-M   'P 1'
_cell_length_a   7.64861586
_cell_length_b   7.64210052
_cell_length_c   3.96430100
_cell_angle_alpha   90.00000000
_cell_angle_beta   90.00000000
_cell_angle_gamma   119.97183582
_symmetry_Int_Tables_number   1
_chemical_formula_structural   PrNd2(PdAu)3
_chemical_formula_sum   'Pr1 Nd2 Pd3 Au3'
_cell_volume   200.73173232
_cell_formula_units_Z   1
loop_
 _symmetry_equiv_pos_site_id
 _symmetry_equiv_pos_as_xyz
  1  'x, y, z'
loop_
 _atom_site_type_symbol
 _atom_site_label
 _atom_site_symmetry_multiplicity
 _atom_site_fract_x
 _atom_site_fract_y
 _atom_site_fract_z
 _atom_site_occupancy
  Pr  Pr0  1  0.000000  0.605494  0.500000  1
  Nd  Nd1  1  0.394089  0.394022  0.500000  1
  Nd  Nd2  1  0.605911  0.999933  0.500000  1
  Pd  Pd3  1  0.665375  0.332322  0.000000  1
  Pd  Pd4  1  0.334625  0.666948  0.000000  1
  Pd  Pd5  1  0.000000  0.000733  0.500000  1
  Au  Au6  1  0.736630  0.737329  0.000000  1
  Au  Au7  1  0.263370  0.000700  0.000000  1
  Au  Au8  1  0.000000  0.262518  0.000000  1
