# generated using pymatgen
data_Ho4Al13Au9
_symmetry_space_group_name_H-M   'P 1'
_cell_length_a   11.71668900
_cell_length_b   11.71668847
_cell_length_c   4.16089700
_cell_angle_alpha   90.00000000
_cell_angle_beta   90.00000000
_cell_angle_gamma   119.99999867
_symmetry_Int_Tables_number   1
_chemical_formula_structural   Ho4Al13Au9
_chemical_formula_sum   'Ho4 Al13 Au9'
_cell_volume   494.68345811
_cell_formula_units_Z   1
loop_
 _symmetry_equiv_pos_site_id
 _symmetry_equiv_pos_as_xyz
  1  'x, y, z'
loop_
 _atom_site_type_symbol
 _atom_site_label
 _atom_site_symmetry_multiplicity
 _atom_site_fract_x
 _atom_site_fract_y
 _atom_site_fract_z
 _atom_site_occupancy
  Ho  Ho0  1  0.205668  0.794332  0.500000  1
  Ho  Ho1  1  0.588664  0.794332  0.500000  1
  Ho  Ho2  1  0.205668  0.411336  0.500000  1
  Ho  Ho3  1  0.666667  0.333333  0.000000  1
  Al  Al4  1  0.949352  0.294297  0.000000  1
  Al  Al5  1  0.705703  0.655055  0.000000  1
  Al  Al6  1  0.949352  0.655055  0.000000  1
  Al  Al7  1  0.344945  0.050648  0.000000  1
  Al  Al8  1  0.169176  0.084588  0.500000  1
  Al  Al9  1  0.915412  0.830824  0.500000  1
  Al  Al10  1  0.705703  0.050648  0.000000  1
  Al  Al11  1  0.531564  0.063126  0.500000  1
  Al  Al12  1  0.915412  0.084588  0.500000  1
  Al  Al13  1  0.344945  0.294297  0.000000  1
  Al  Al14  1  0.531564  0.468436  0.500000  1
  Al  Al15  1  0.936874  0.468436  0.500000  1
  Al  Al16  1  0.333333  0.666667  0.000000  1
  Au  Au17  1  0.454686  0.545314  0.000000  1
  Au  Au18  1  0.822198  0.911100  0.000000  1
  Au  Au19  1  0.454686  0.909370  0.000000  1
  Au  Au20  1  0.088900  0.177802  0.000000  1
  Au  Au21  1  0.088900  0.911100  0.000000  1
  Au  Au22  1  0.786120  0.572240  0.500000  1
  Au  Au23  1  0.090630  0.545314  0.000000  1
  Au  Au24  1  0.786120  0.213880  0.500000  1
  Au  Au25  1  0.427760  0.213880  0.500000  1
