# generated using pymatgen
data_Ti3Mn7NbAl
_symmetry_space_group_name_H-M   'P 1'
_cell_length_a   4.77736100
_cell_length_b   4.77736076
_cell_length_c   7.95531800
_cell_angle_alpha   90.00000000
_cell_angle_beta   90.00000000
_cell_angle_gamma   119.99999474
_symmetry_Int_Tables_number   1
_chemical_formula_structural   Ti3Mn7NbAl
_chemical_formula_sum   'Ti3 Mn7 Nb1 Al1'
_cell_volume   157.24045689
_cell_formula_units_Z   1
loop_
 _symmetry_equiv_pos_site_id
 _symmetry_equiv_pos_as_xyz
  1  'x, y, z'
loop_
 _atom_site_type_symbol
 _atom_site_label
 _atom_site_symmetry_multiplicity
 _atom_site_fract_x
 _atom_site_fract_y
 _atom_site_fract_z
 _atom_site_occupancy
  Ti  Ti0  1  0.333333  0.666667  0.927494  1
  Ti  Ti1  1  0.333333  0.666667  0.562506  1
  Ti  Ti2  1  0.666667  0.333333  0.440895  1
  Mn  Mn3  1  0.654381  0.827190  0.256677  1
  Mn  Mn4  1  0.172810  0.827190  0.256677  1
  Mn  Mn5  1  0.172810  0.345619  0.256677  1
  Mn  Mn6  1  0.345884  0.172942  0.743101  1
  Mn  Mn7  1  0.827058  0.172942  0.743101  1
  Mn  Mn8  1  0.827058  0.654116  0.743101  1
  Mn  Mn9  1  0.000000  0.000000  0.499313  1
  Nb  Nb10  1  0.666667  0.333333  0.071805  1
  Al  Al11  1  0.000000  0.000000  0.998652  1
