# generated using pymatgen
data_Zr10BeSn6Ge
_symmetry_space_group_name_H-M   'P 1'
_cell_length_a   8.69366500
_cell_length_b   8.69366547
_cell_length_c   5.86835100
_cell_angle_alpha   90.00000000
_cell_angle_beta   90.00000000
_cell_angle_gamma   120.00000200
_symmetry_Int_Tables_number   1
_chemical_formula_structural   Zr10BeSn6Ge
_chemical_formula_sum   'Zr10 Be1 Sn6 Ge1'
_cell_volume   384.10727344
_cell_formula_units_Z   1
loop_
 _symmetry_equiv_pos_site_id
 _symmetry_equiv_pos_as_xyz
  1  'x, y, z'
loop_
 _atom_site_type_symbol
 _atom_site_label
 _atom_site_symmetry_multiplicity
 _atom_site_fract_x
 _atom_site_fract_y
 _atom_site_fract_z
 _atom_site_occupancy
  Zr  Zr0  1  0.666667  0.333333  0.000000  1
  Zr  Zr1  1  0.333333  0.666667  0.000000  1
  Zr  Zr2  1  0.333333  0.666667  0.500000  1
  Zr  Zr3  1  0.666667  0.333333  0.500000  1
  Zr  Zr4  1  0.741723  0.741723  0.760608  1
  Zr  Zr5  1  0.258277  0.000000  0.760608  1
  Zr  Zr6  1  0.000000  0.258277  0.760608  1
  Zr  Zr7  1  0.258277  0.258277  0.239392  1
  Zr  Zr8  1  0.741723  0.000000  0.239392  1
  Zr  Zr9  1  0.000000  0.741723  0.239392  1
  Be  Be10  1  0.000000  0.000000  0.000000  1
  Sn  Sn11  1  0.391165  0.391165  0.749231  1
  Sn  Sn12  1  0.608835  0.000000  0.749231  1
  Sn  Sn13  1  0.000000  0.608835  0.749231  1
  Sn  Sn14  1  0.608835  0.608835  0.250769  1
  Sn  Sn15  1  0.391165  0.000000  0.250769  1
  Sn  Sn16  1  0.000000  0.391165  0.250769  1
  Ge  Ge17  1  0.000000  0.000000  0.500000  1
