# generated using pymatgen
data_Y(PPt4)2
_symmetry_space_group_name_H-M   'P 1'
_cell_length_a   6.34493250
_cell_length_b   6.34493279
_cell_length_c   9.41188971
_cell_angle_alpha   125.20899425
_cell_angle_beta   125.20899726
_cell_angle_gamma   37.33335316
_symmetry_Int_Tables_number   1
_chemical_formula_structural   Y(PPt4)2
_chemical_formula_sum   'Y1 P2 Pt8'
_cell_volume   182.33596425
_cell_formula_units_Z   1
loop_
 _symmetry_equiv_pos_site_id
 _symmetry_equiv_pos_as_xyz
  1  'x, y, z'
loop_
 _atom_site_type_symbol
 _atom_site_label
 _atom_site_symmetry_multiplicity
 _atom_site_fract_x
 _atom_site_fract_y
 _atom_site_fract_z
 _atom_site_occupancy
  Y  Y0  1  0.500000  0.500000  0.000000  1
  P  P1  1  0.941431  0.941431  0.209816  1
  P  P2  1  0.058569  0.058569  0.790184  1
  Pt  Pt3  1  0.224526  0.224526  0.086297  1
  Pt  Pt4  1  0.176683  0.176683  0.343222  1
  Pt  Pt5  1  0.833403  0.833403  0.347863  1
  Pt  Pt6  1  0.525325  0.525325  0.369418  1
  Pt  Pt7  1  0.474676  0.474676  0.630583  1
  Pt  Pt8  1  0.166597  0.166597  0.652137  1
  Pt  Pt9  1  0.823317  0.823317  0.656778  1
  Pt  Pt10  1  0.775474  0.775474  0.913703  1
