# generated using pymatgen
data_Pr8HoTmRu4
_symmetry_space_group_name_H-M   'P 1'
_cell_length_a   6.61184712
_cell_length_b   7.32268052
_cell_length_c   8.86145411
_cell_angle_alpha   95.82240853
_cell_angle_beta   111.90495555
_cell_angle_gamma   89.99999550
_symmetry_Int_Tables_number   1
_chemical_formula_structural   Pr8HoTmRu4
_chemical_formula_sum   'Pr8 Ho1 Tm1 Ru4'
_cell_volume   395.67851333
_cell_formula_units_Z   1
loop_
 _symmetry_equiv_pos_site_id
 _symmetry_equiv_pos_as_xyz
  1  'x, y, z'
loop_
 _atom_site_type_symbol
 _atom_site_label
 _atom_site_symmetry_multiplicity
 _atom_site_fract_x
 _atom_site_fract_y
 _atom_site_fract_z
 _atom_site_occupancy
  Pr  Pr0  1  0.793972  0.083459  0.817911  1
  Pr  Pr1  1  0.976060  0.416541  0.182089  1
  Pr  Pr2  1  0.205660  0.916161  0.181992  1
  Pr  Pr3  1  0.023668  0.583839  0.818008  1
  Pr  Pr4  1  0.208252  0.186694  0.569979  1
  Pr  Pr5  1  0.638273  0.313306  0.430021  1
  Pr  Pr6  1  0.791785  0.813237  0.429667  1
  Pr  Pr7  1  0.362119  0.686763  0.570333  1
  Ho  Ho8  1  0.430197  0.250000  0.000000  1
  Tm  Tm9  1  0.569486  0.750000  0.000000  1
  Ru  Ru10  1  0.600387  0.428871  0.788625  1
  Ru  Ru11  1  0.811761  0.071129  0.211375  1
  Ru  Ru12  1  0.399955  0.571993  0.211531  1
  Ru  Ru13  1  0.188426  0.928007  0.788469  1
