# generated using pymatgen
data_Dy18Ho2Bi11Sb
_symmetry_space_group_name_H-M   'P 1'
_cell_length_a   8.23710938
_cell_length_b   9.51191200
_cell_length_c   12.03217300
_cell_angle_alpha   89.99905873
_cell_angle_beta   90.03319019
_cell_angle_gamma   89.99941297
_symmetry_Int_Tables_number   1
_chemical_formula_structural   Dy18Ho2Bi11Sb
_chemical_formula_sum   'Dy18 Ho2 Bi11 Sb1'
_cell_volume   942.72853265
_cell_formula_units_Z   1
loop_
 _symmetry_equiv_pos_site_id
 _symmetry_equiv_pos_as_xyz
  1  'x, y, z'
loop_
 _atom_site_type_symbol
 _atom_site_label
 _atom_site_symmetry_multiplicity
 _atom_site_fract_x
 _atom_site_fract_y
 _atom_site_fract_z
 _atom_site_occupancy
  Dy  Dy0  1  0.353144  0.750007  0.212744  1
  Dy  Dy1  1  0.852463  0.749984  0.284210  1
  Dy  Dy2  1  0.647655  0.249998  0.784360  1
  Dy  Dy3  1  0.147557  0.250007  0.715835  1
  Dy  Dy4  1  0.308612  0.060129  0.941562  1
  Dy  Dy5  1  0.807404  0.436428  0.558526  1
  Dy  Dy6  1  0.308594  0.439888  0.941542  1
  Dy  Dy7  1  0.807384  0.063558  0.558546  1
  Dy  Dy8  1  0.690105  0.934050  0.057336  1
  Dy  Dy9  1  0.192686  0.563948  0.441343  1
  Dy  Dy10  1  0.474968  0.249963  0.487907  1
  Dy  Dy11  1  0.975547  0.250034  0.011780  1
  Dy  Dy12  1  0.525096  0.750043  0.512135  1
  Dy  Dy13  1  0.028141  0.749949  0.987813  1
  Dy  Dy14  1  0.312974  0.249998  0.218864  1
  Dy  Dy15  1  0.812700  0.250005  0.281206  1
  Dy  Dy16  1  0.683049  0.749956  0.783712  1
  Dy  Dy17  1  0.188589  0.750038  0.720363  1
  Ho  Ho18  1  0.690016  0.566019  0.057339  1
  Ho  Ho19  1  0.192631  0.936015  0.441302  1
  Bi  Bi20  1  0.907937  0.750112  0.543355  1
  Bi  Bi21  1  0.592971  0.250302  0.043013  1
  Bi  Bi22  1  0.092717  0.249691  0.457116  1
  Bi  Bi23  1  0.565298  0.995356  0.325408  1
  Bi  Bi24  1  0.065271  0.504375  0.174362  1
  Bi  Bi25  1  0.434580  0.495407  0.674492  1
  Bi  Bi26  1  0.934362  0.004170  0.825532  1
  Bi  Bi27  1  0.434571  0.004601  0.674448  1
  Bi  Bi28  1  0.934358  0.495823  0.825575  1
  Bi  Bi29  1  0.565383  0.504636  0.325353  1
  Bi  Bi30  1  0.065353  0.995634  0.174415  1
  Sb  Sb31  1  0.407888  0.749875  0.958502  1
