# generated using pymatgen
data_Tm2LuPa(ZnRh)4
_symmetry_space_group_name_H-M   'P 1'
_cell_length_a   3.82276800
_cell_length_b   7.05110193
_cell_length_c   8.28870336
_cell_angle_alpha   90.87074104
_cell_angle_beta   90.00000000
_cell_angle_gamma   90.00000000
_symmetry_Int_Tables_number   1
_chemical_formula_structural   Tm2LuPa(ZnRh)4
_chemical_formula_sum   'Tm2 Lu1 Pa1 Zn4 Rh4'
_cell_volume   223.39393502
_cell_formula_units_Z   1
loop_
 _symmetry_equiv_pos_site_id
 _symmetry_equiv_pos_as_xyz
  1  'x, y, z'
loop_
 _atom_site_type_symbol
 _atom_site_label
 _atom_site_symmetry_multiplicity
 _atom_site_fract_x
 _atom_site_fract_y
 _atom_site_fract_z
 _atom_site_occupancy
  Tm  Tm0  1  0.750000  0.940537  0.686052  1
  Tm  Tm1  1  0.250000  0.053385  0.322400  1
  Lu  Lu2  1  0.750000  0.441986  0.808740  1
  Pa  Pa3  1  0.250000  0.553627  0.177870  1
  Zn  Zn4  1  0.250000  0.620115  0.564793  1
  Zn  Zn5  1  0.750000  0.368663  0.443104  1
  Zn  Zn6  1  0.750000  0.895548  0.063148  1
  Zn  Zn7  1  0.250000  0.127716  0.934142  1
  Rh  Rh8  1  0.250000  0.737750  0.886766  1
  Rh  Rh9  1  0.750000  0.280843  0.128383  1
  Rh  Rh10  1  0.750000  0.744597  0.357459  1
  Rh  Rh11  1  0.250000  0.235236  0.627143  1
