# generated using pymatgen
data_DyScCo6(SiB)2
_symmetry_space_group_name_H-M   'P 1'
_cell_length_a   5.07980500
_cell_length_b   5.07945436
_cell_length_c   6.41066900
_cell_angle_alpha   90.00000000
_cell_angle_beta   90.00000000
_cell_angle_gamma   120.00229006
_symmetry_Int_Tables_number   1
_chemical_formula_structural   DyScCo6(SiB)2
_chemical_formula_sum   'Dy1 Sc1 Co6 Si2 B2'
_cell_volume   143.24783497
_cell_formula_units_Z   1
loop_
 _symmetry_equiv_pos_site_id
 _symmetry_equiv_pos_as_xyz
  1  'x, y, z'
loop_
 _atom_site_type_symbol
 _atom_site_label
 _atom_site_symmetry_multiplicity
 _atom_site_fract_x
 _atom_site_fract_y
 _atom_site_fract_z
 _atom_site_occupancy
  Dy  Dy0  1  0.999991  0.000000  0.000000  1
  Sc  Sc1  1  0.999888  0.000000  0.500000  1
  Co  Co2  1  0.499987  0.000000  0.285610  1
  Co  Co3  1  0.499991  0.499996  0.285642  1
  Co  Co4  1  0.999996  0.500004  0.285642  1
  Co  Co5  1  0.499987  0.000000  0.714390  1
  Co  Co6  1  0.499991  0.499996  0.714358  1
  Co  Co7  1  0.999996  0.500004  0.714358  1
  Si  Si8  1  0.333331  0.666677  0.000000  1
  Si  Si9  1  0.666654  0.333323  0.000000  1
  B  B10  1  0.333342  0.666698  0.500000  1
  B  B11  1  0.666644  0.333302  0.500000  1
