# generated using pymatgen
data_YTm18MgIr12
_symmetry_space_group_name_H-M   'P 1'
_cell_length_a   10.72733551
_cell_length_b   10.73001833
_cell_length_c   6.26553529
_cell_angle_alpha   89.98025111
_cell_angle_beta   90.02895430
_cell_angle_gamma   90.02033885
_symmetry_Int_Tables_number   1
_chemical_formula_structural   YTm18MgIr12
_chemical_formula_sum   'Y1 Tm18 Mg1 Ir12'
_cell_volume   721.19116848
_cell_formula_units_Z   1
loop_
 _symmetry_equiv_pos_site_id
 _symmetry_equiv_pos_as_xyz
  1  'x, y, z'
loop_
 _atom_site_type_symbol
 _atom_site_label
 _atom_site_symmetry_multiplicity
 _atom_site_fract_x
 _atom_site_fract_y
 _atom_site_fract_z
 _atom_site_occupancy
  Y  Y0  1  0.282590  0.084836  0.376812  1
  Tm  Tm1  1  0.291320  0.911867  0.879475  1
  Tm  Tm2  1  0.709117  0.087817  0.879177  1
  Tm  Tm3  1  0.715808  0.915605  0.377978  1
  Tm  Tm4  1  0.588472  0.791843  0.877539  1
  Tm  Tm5  1  0.587444  0.207963  0.376424  1
  Tm  Tm6  1  0.413297  0.791727  0.376398  1
  Tm  Tm7  1  0.412060  0.207997  0.877783  1
  Tm  Tm8  1  0.207935  0.413156  0.623712  1
  Tm  Tm9  1  0.207861  0.588249  0.122247  1
  Tm  Tm10  1  0.792079  0.411681  0.122282  1
  Tm  Tm11  1  0.792089  0.587017  0.623454  1
  Tm  Tm12  1  0.912252  0.708867  0.120671  1
  Tm  Tm13  1  0.915698  0.284292  0.621744  1
  Tm  Tm14  1  0.084293  0.715796  0.622203  1
  Tm  Tm15  1  0.087079  0.291791  0.120415  1
  Tm  Tm16  1  0.999840  0.999870  0.999988  1
  Tm  Tm17  1  0.500115  0.500115  0.999826  1
  Tm  Tm18  1  0.500174  0.500035  0.500178  1
  Mg  Mg19  1  0.999463  0.999800  0.500299  1
  Ir  Ir20  1  0.846060  0.154867  0.246921  1
  Ir  Ir21  1  0.844962  0.845958  0.753133  1
  Ir  Ir22  1  0.154179  0.154394  0.756304  1
  Ir  Ir23  1  0.153200  0.843708  0.245895  1
  Ir  Ir24  1  0.654220  0.346208  0.748770  1
  Ir  Ir25  1  0.653807  0.654245  0.251277  1
  Ir  Ir26  1  0.346439  0.347353  0.250365  1
  Ir  Ir27  1  0.345807  0.653812  0.748683  1
  Ir  Ir28  1  0.501172  0.999453  0.123572  1
  Ir  Ir29  1  0.501281  0.999493  0.622035  1
  Ir  Ir30  1  0.999917  0.500030  0.875139  1
  Ir  Ir31  1  0.999970  0.500158  0.379299  1
