# generated using pymatgen
data_Dy4InPd4Pb
_symmetry_space_group_name_H-M   'P 1'
_cell_length_a   7.83386200
_cell_length_b   7.83386200
_cell_length_c   3.67635200
_cell_angle_alpha   90.00000000
_cell_angle_beta   90.00000000
_cell_angle_gamma   90.00000000
_symmetry_Int_Tables_number   1
_chemical_formula_structural   Dy4InPd4Pb
_chemical_formula_sum   'Dy4 In1 Pd4 Pb1'
_cell_volume   225.61549376
_cell_formula_units_Z   1
loop_
 _symmetry_equiv_pos_site_id
 _symmetry_equiv_pos_as_xyz
  1  'x, y, z'
loop_
 _atom_site_type_symbol
 _atom_site_label
 _atom_site_symmetry_multiplicity
 _atom_site_fract_x
 _atom_site_fract_y
 _atom_site_fract_z
 _atom_site_occupancy
  Dy  Dy0  1  0.330488  0.823650  0.500000  1
  Dy  Dy1  1  0.823650  0.669512  0.500000  1
  Dy  Dy2  1  0.176350  0.330488  0.500000  1
  Dy  Dy3  1  0.669512  0.176350  0.500000  1
  In  In4  1  0.500000  0.500000  0.000000  1
  Pd  Pd5  1  0.377903  0.129865  0.000000  1
  Pd  Pd6  1  0.870135  0.377903  0.000000  1
  Pd  Pd7  1  0.129865  0.622097  0.000000  1
  Pd  Pd8  1  0.622097  0.870135  0.000000  1
  Pb  Pb9  1  0.000000  0.000000  0.000000  1
