# generated using pymatgen
data_Y8Ga12IrPd3
_symmetry_space_group_name_H-M   'P 1'
_cell_length_a   8.90807300
_cell_length_b   8.90807180
_cell_length_c   7.08991800
_cell_angle_alpha   90.00000000
_cell_angle_beta   90.00000000
_cell_angle_gamma   119.99999331
_symmetry_Int_Tables_number   1
_chemical_formula_structural   Y8Ga12IrPd3
_chemical_formula_sum   'Y8 Ga12 Ir1 Pd3'
_cell_volume   487.23597801
_cell_formula_units_Z   1
loop_
 _symmetry_equiv_pos_site_id
 _symmetry_equiv_pos_as_xyz
  1  'x, y, z'
loop_
 _atom_site_type_symbol
 _atom_site_label
 _atom_site_symmetry_multiplicity
 _atom_site_fract_x
 _atom_site_fract_y
 _atom_site_fract_z
 _atom_site_occupancy
  Y  Y0  1  0.515596  0.031192  0.249547  1
  Y  Y1  1  0.478100  0.956199  0.754475  1
  Y  Y2  1  0.968808  0.484404  0.249547  1
  Y  Y3  1  0.043801  0.521900  0.754475  1
  Y  Y4  1  0.515596  0.484404  0.249547  1
  Y  Y5  1  0.478100  0.521900  0.754475  1
  Y  Y6  1  0.000000  0.000000  0.248675  1
  Y  Y7  1  0.000000  0.000000  0.749785  1
  Ga  Ga8  1  0.168592  0.337184  0.044320  1
  Ga  Ga9  1  0.832024  0.664048  0.954224  1
  Ga  Ga10  1  0.662816  0.831408  0.044320  1
  Ga  Ga11  1  0.831998  0.663995  0.545671  1
  Ga  Ga12  1  0.335952  0.167976  0.954224  1
  Ga  Ga13  1  0.166486  0.332971  0.457988  1
  Ga  Ga14  1  0.168592  0.831408  0.044320  1
  Ga  Ga15  1  0.336005  0.168002  0.545671  1
  Ga  Ga16  1  0.832024  0.167976  0.954224  1
  Ga  Ga17  1  0.667029  0.833514  0.457988  1
  Ga  Ga18  1  0.831998  0.168002  0.545671  1
  Ga  Ga19  1  0.166486  0.833514  0.457988  1
  Ir  Ir20  1  0.333333  0.666667  0.020382  1
  Pd  Pd21  1  0.666667  0.333333  0.972225  1
  Pd  Pd22  1  0.666667  0.333333  0.529650  1
  Pd  Pd23  1  0.333333  0.666667  0.460608  1
