# generated using pymatgen
data_La4TbYSi4
_symmetry_space_group_name_H-M   'P 1'
_cell_length_a   7.70084700
_cell_length_b   7.70084700
_cell_length_c   4.53036300
_cell_angle_alpha   90.00000000
_cell_angle_beta   90.00000000
_cell_angle_gamma   90.00000000
_symmetry_Int_Tables_number   1
_chemical_formula_structural   La4TbYSi4
_chemical_formula_sum   'La4 Tb1 Y1 Si4'
_cell_volume   268.66431867
_cell_formula_units_Z   1
loop_
 _symmetry_equiv_pos_site_id
 _symmetry_equiv_pos_as_xyz
  1  'x, y, z'
loop_
 _atom_site_type_symbol
 _atom_site_label
 _atom_site_symmetry_multiplicity
 _atom_site_fract_x
 _atom_site_fract_y
 _atom_site_fract_z
 _atom_site_occupancy
  La  La0  1  0.676394  0.177866  0.500000  1
  La  La1  1  0.323606  0.822134  0.500000  1
  La  La2  1  0.177866  0.323606  0.500000  1
  La  La3  1  0.822134  0.676394  0.500000  1
  Tb  Tb4  1  0.500000  0.500000  0.000000  1
  Y  Y5  1  0.000000  0.000000  0.000000  1
  Si  Si6  1  0.111609  0.614215  0.000000  1
  Si  Si7  1  0.888391  0.385785  0.000000  1
  Si  Si8  1  0.614215  0.888391  0.000000  1
  Si  Si9  1  0.385785  0.111609  0.000000  1
