# generated using pymatgen
data_TaCr4IO12
_symmetry_space_group_name_H-M   'P 1'
_cell_length_a   4.60244000
_cell_length_b   4.60243928
_cell_length_c   9.25856700
_cell_angle_alpha   89.99987551
_cell_angle_beta   90.00001245
_cell_angle_gamma   90.42105396
_symmetry_Int_Tables_number   1
_chemical_formula_structural   TaCr4IO12
_chemical_formula_sum   'Ta1 Cr4 I1 O12'
_cell_volume   196.11384265
_cell_formula_units_Z   1
loop_
 _symmetry_equiv_pos_site_id
 _symmetry_equiv_pos_as_xyz
  1  'x, y, z'
loop_
 _atom_site_type_symbol
 _atom_site_label
 _atom_site_symmetry_multiplicity
 _atom_site_fract_x
 _atom_site_fract_y
 _atom_site_fract_z
 _atom_site_occupancy
  Ta  Ta0  1  0.500004  0.499995  0.500002  1
  Cr  Cr1  1  0.499980  0.500019  0.169426  1
  Cr  Cr2  1  0.000010  0.999998  0.662603  1
  Cr  Cr3  1  0.000034  0.000034  0.337399  1
  Cr  Cr4  1  0.500020  0.499979  0.830591  1
  I  I5  1  0.999991  0.000001  0.000013  1
  O  O6  1  0.296636  0.296667  0.999996  1
  O  O7  1  0.194048  0.805955  0.499995  1
  O  O8  1  0.805964  0.194038  0.500001  1
  O  O9  1  0.703329  0.703354  0.999997  1
  O  O10  1  0.305632  0.305617  0.332887  1
  O  O11  1  0.190105  0.809886  0.157022  1
  O  O12  1  0.190125  0.809868  0.842972  1
  O  O13  1  0.305632  0.305616  0.667113  1
  O  O14  1  0.809862  0.190125  0.157018  1
  O  O15  1  0.694382  0.694363  0.332887  1
  O  O16  1  0.694383  0.694365  0.667111  1
  O  O17  1  0.809867  0.190122  0.842966  1
