# generated using pymatgen
data_Tb3Eu4Dy5Se16
_symmetry_space_group_name_H-M   'P 1'
_cell_length_a   12.48670901
_cell_length_b   4.13887600
_cell_length_c   14.92746201
_cell_angle_alpha   90.00000000
_cell_angle_beta   90.00395588
_cell_angle_gamma   90.00000000
_symmetry_Int_Tables_number   1
_chemical_formula_structural   Tb3Eu4Dy5Se16
_chemical_formula_sum   'Tb3 Eu4 Dy5 Se16'
_cell_volume   771.46527003
_cell_formula_units_Z   1
loop_
 _symmetry_equiv_pos_site_id
 _symmetry_equiv_pos_as_xyz
  1  'x, y, z'
loop_
 _atom_site_type_symbol
 _atom_site_label
 _atom_site_symmetry_multiplicity
 _atom_site_fract_x
 _atom_site_fract_y
 _atom_site_fract_z
 _atom_site_occupancy
  Tb  Tb0  1  0.418059  0.250000  0.097927  1
  Tb  Tb1  1  0.067387  0.750001  0.110357  1
  Tb  Tb2  1  0.567562  0.750001  0.389748  1
  Eu  Eu3  1  0.742695  0.750001  0.164363  1
  Eu  Eu4  1  0.242617  0.750001  0.335662  1
  Eu  Eu5  1  0.757361  0.250000  0.664476  1
  Eu  Eu6  1  0.257362  0.250000  0.835499  1
  Dy  Dy7  1  0.918199  0.250000  0.401978  1
  Dy  Dy8  1  0.081806  0.750001  0.598094  1
  Dy  Dy9  1  0.432887  0.250000  0.610577  1
  Dy  Dy10  1  0.932882  0.250000  0.889411  1
  Dy  Dy11  1  0.581899  0.750001  0.901815  1
  Se  Se12  1  0.634538  0.250000  0.030346  1
  Se  Se13  1  0.910379  0.250000  0.079666  1
  Se  Se14  1  0.207513  0.250000  0.179059  1
  Se  Se15  1  0.476041  0.750001  0.215550  1
  Se  Se16  1  0.975710  0.750001  0.285080  1
  Se  Se17  1  0.708182  0.250000  0.321214  1
  Se  Se18  1  0.410326  0.250000  0.420360  1
  Se  Se19  1  0.133987  0.250000  0.469418  1
  Se  Se20  1  0.865894  0.750001  0.530624  1
  Se  Se21  1  0.588912  0.750001  0.580500  1
  Se  Se22  1  0.292537  0.750001  0.678227  1
  Se  Se23  1  0.024074  0.250000  0.715244  1
  Se  Se24  1  0.524093  0.250000  0.784756  1
  Se  Se25  1  0.792528  0.750001  0.821763  1
  Se  Se26  1  0.088920  0.750001  0.919539  1
  Se  Se27  1  0.365652  0.750001  0.968747  1
