# generated using pymatgen
data_Yb4Bi3Sb3Rh7
_symmetry_space_group_name_H-M   'P 1'
_cell_length_a   7.67364693
_cell_length_b   7.68969051
_cell_length_c   7.67364710
_cell_angle_alpha   109.51357550
_cell_angle_beta   109.42883862
_cell_angle_gamma   109.51357750
_symmetry_Int_Tables_number   1
_chemical_formula_structural   Yb4Bi3Sb3Rh7
_chemical_formula_sum   'Yb4 Bi3 Sb3 Rh7'
_cell_volume   348.38807667
_cell_formula_units_Z   1
loop_
 _symmetry_equiv_pos_site_id
 _symmetry_equiv_pos_as_xyz
  1  'x, y, z'
loop_
 _atom_site_type_symbol
 _atom_site_label
 _atom_site_symmetry_multiplicity
 _atom_site_fract_x
 _atom_site_fract_y
 _atom_site_fract_z
 _atom_site_occupancy
  Yb  Yb0  1  0.506707  0.003695  0.000000  1
  Yb  Yb1  1  0.000000  0.483903  0.000000  1
  Yb  Yb2  1  0.000000  0.003695  0.506707  1
  Yb  Yb3  1  0.493293  0.496988  0.493293  1
  Bi  Bi4  1  0.308593  0.997081  0.308593  1
  Bi  Bi5  1  0.000000  0.688489  0.691407  1
  Bi  Bi6  1  0.691407  0.688489  0.000000  1
  Sb  Sb7  1  0.676942  0.998076  0.676942  1
  Sb  Sb8  1  0.000000  0.321134  0.323058  1
  Sb  Sb9  1  0.323058  0.321134  0.000000  1
  Rh  Rh10  1  0.248522  0.493040  0.747674  1
  Rh  Rh11  1  0.499152  0.244518  0.751478  1
  Rh  Rh12  1  0.751478  0.244518  0.499152  1
  Rh  Rh13  1  0.500848  0.745366  0.252326  1
  Rh  Rh14  1  0.000000  0.031471  0.000000  1
  Rh  Rh15  1  0.252326  0.745366  0.500848  1
  Rh  Rh16  1  0.747674  0.493040  0.248522  1
