# generated using pymatgen
data_Sc5Tl2Bi
_symmetry_space_group_name_H-M   'P 1'
_cell_length_a   8.53603541
_cell_length_b   8.51161853
_cell_length_c   6.24032100
_cell_angle_alpha   90.00000000
_cell_angle_beta   90.00000000
_cell_angle_gamma   119.90541374
_symmetry_Int_Tables_number   1
_chemical_formula_structural   Sc5Tl2Bi
_chemical_formula_sum   'Sc10 Tl4 Bi2'
_cell_volume   393.02399415
_cell_formula_units_Z   2
loop_
 _symmetry_equiv_pos_site_id
 _symmetry_equiv_pos_as_xyz
  1  'x, y, z'
loop_
 _atom_site_type_symbol
 _atom_site_label
 _atom_site_symmetry_multiplicity
 _atom_site_fract_x
 _atom_site_fract_y
 _atom_site_fract_z
 _atom_site_occupancy
  Sc  Sc0  1  0.323047  0.661524  0.000000  1
  Sc  Sc1  1  0.668474  0.334236  0.500000  1
  Sc  Sc2  1  0.668474  0.334236  0.000000  1
  Sc  Sc3  1  0.323047  0.661524  0.500000  1
  Sc  Sc4  1  0.228529  0.998749  0.250000  1
  Sc  Sc5  1  0.228529  0.229780  0.750000  1
  Sc  Sc6  1  0.008132  0.769170  0.750000  1
  Sc  Sc7  1  0.008132  0.238961  0.250000  1
  Sc  Sc8  1  0.768626  0.759866  0.250000  1
  Sc  Sc9  1  0.768626  0.008759  0.750000  1
  Tl  Tl10  1  0.998004  0.397158  0.750000  1
  Tl  Tl11  1  0.998004  0.600846  0.250000  1
  Tl  Tl12  1  0.398797  0.396433  0.250000  1
  Tl  Tl13  1  0.398797  0.002364  0.750000  1
  Bi  Bi14  1  0.606391  0.996991  0.250000  1
  Bi  Bi15  1  0.606391  0.609400  0.750000  1
