# generated using pymatgen
data_Zr6GaSe
_symmetry_space_group_name_H-M   'P 1'
_cell_length_a   11.09508500
_cell_length_b   11.09508500
_cell_length_c   5.49939000
_cell_angle_alpha   90.00000000
_cell_angle_beta   90.00000000
_cell_angle_gamma   90.00000000
_symmetry_Int_Tables_number   1
_chemical_formula_structural   Zr6GaSe
_chemical_formula_sum   'Zr24 Ga4 Se4'
_cell_volume   676.97991981
_cell_formula_units_Z   4
loop_
 _symmetry_equiv_pos_site_id
 _symmetry_equiv_pos_as_xyz
  1  'x, y, z'
loop_
 _atom_site_type_symbol
 _atom_site_label
 _atom_site_symmetry_multiplicity
 _atom_site_fract_x
 _atom_site_fract_y
 _atom_site_fract_z
 _atom_site_occupancy
  Zr  Zr0  1  0.894750  0.582406  0.040588  1
  Zr  Zr1  1  0.105250  0.417594  0.040588  1
  Zr  Zr2  1  0.917594  0.394750  0.540588  1
  Zr  Zr3  1  0.082406  0.605250  0.540588  1
  Zr  Zr4  1  0.604620  0.917236  0.461432  1
  Zr  Zr5  1  0.395380  0.082764  0.461432  1
  Zr  Zr6  1  0.582764  0.104620  0.961432  1
  Zr  Zr7  1  0.417236  0.895380  0.961432  1
  Zr  Zr8  1  0.858249  0.025020  0.716125  1
  Zr  Zr9  1  0.141751  0.974980  0.716125  1
  Zr  Zr10  1  0.474980  0.358249  0.216125  1
  Zr  Zr11  1  0.525020  0.641751  0.216125  1
  Zr  Zr12  1  0.638941  0.474756  0.782601  1
  Zr  Zr13  1  0.361059  0.525244  0.782601  1
  Zr  Zr14  1  0.025244  0.138941  0.282601  1
  Zr  Zr15  1  0.974756  0.861059  0.282601  1
  Zr  Zr16  1  0.285523  0.182010  0.990951  1
  Zr  Zr17  1  0.714477  0.817990  0.990951  1
  Zr  Zr18  1  0.317990  0.785523  0.490951  1
  Zr  Zr19  1  0.682010  0.214477  0.490951  1
  Zr  Zr20  1  0.215253  0.316237  0.507099  1
  Zr  Zr21  1  0.784747  0.683763  0.507099  1
  Zr  Zr22  1  0.183763  0.715253  0.007099  1
  Zr  Zr23  1  0.816237  0.284747  0.007099  1
  Ga  Ga24  1  0.702888  0.460477  0.289775  1
  Ga  Ga25  1  0.297112  0.539523  0.289775  1
  Ga  Ga26  1  0.039523  0.202888  0.789775  1
  Ga  Ga27  1  0.960477  0.797112  0.789775  1
  Se  Se28  1  0.792916  0.039687  0.211427  1
  Se  Se29  1  0.207084  0.960313  0.211427  1
  Se  Se30  1  0.460313  0.292916  0.711427  1
  Se  Se31  1  0.539687  0.707084  0.711427  1
