# generated using pymatgen
data_LuZr(Ga2Pd)2
_symmetry_space_group_name_H-M   'P 1'
_cell_length_a   5.45960595
_cell_length_b   5.45960635
_cell_length_c   6.46013200
_cell_angle_alpha   90.00000000
_cell_angle_beta   90.00000000
_cell_angle_gamma   133.02752190
_symmetry_Int_Tables_number   1
_chemical_formula_structural   LuZr(Ga2Pd)2
_chemical_formula_sum   'Lu1 Zr1 Ga4 Pd2'
_cell_volume   140.76570419
_cell_formula_units_Z   1
loop_
 _symmetry_equiv_pos_site_id
 _symmetry_equiv_pos_as_xyz
  1  'x, y, z'
loop_
 _atom_site_type_symbol
 _atom_site_label
 _atom_site_symmetry_multiplicity
 _atom_site_fract_x
 _atom_site_fract_y
 _atom_site_fract_z
 _atom_site_occupancy
  Lu  Lu0  1  0.415526  0.584474  0.750000  1
  Zr  Zr1  1  0.586008  0.413992  0.250000  1
  Ga  Ga2  1  0.873463  0.126537  0.447920  1
  Ga  Ga3  1  0.124849  0.875151  0.544030  1
  Ga  Ga4  1  0.873463  0.126537  0.052080  1
  Ga  Ga5  1  0.124849  0.875151  0.955970  1
  Pd  Pd6  1  0.299783  0.700217  0.250000  1
  Pd  Pd7  1  0.702059  0.297941  0.750000  1
