# generated using pymatgen
data_VFe4P4Ru3
_symmetry_space_group_name_H-M   'P 1'
_cell_length_a   3.67788300
_cell_length_b   5.78762737
_cell_length_c   6.59360721
_cell_angle_alpha   90.49295727
_cell_angle_beta   90.00000000
_cell_angle_gamma   90.00000000
_symmetry_Int_Tables_number   1
_chemical_formula_structural   VFe4P4Ru3
_chemical_formula_sum   'V1 Fe4 P4 Ru3'
_cell_volume   140.34775484
_cell_formula_units_Z   1
loop_
 _symmetry_equiv_pos_site_id
 _symmetry_equiv_pos_as_xyz
  1  'x, y, z'
loop_
 _atom_site_type_symbol
 _atom_site_label
 _atom_site_symmetry_multiplicity
 _atom_site_fract_x
 _atom_site_fract_y
 _atom_site_fract_z
 _atom_site_occupancy
  V  V0  1  0.250000  0.024774  0.170150  1
  Fe  Fe1  1  0.750000  0.356236  0.064985  1
  Fe  Fe2  1  0.750000  0.858319  0.431323  1
  Fe  Fe3  1  0.250000  0.642168  0.936575  1
  Fe  Fe4  1  0.250000  0.139908  0.563449  1
  P  P5  1  0.750000  0.730496  0.119139  1
  P  P6  1  0.750000  0.232535  0.379012  1
  P  P7  1  0.250000  0.265612  0.879624  1
  P  P8  1  0.250000  0.769274  0.621705  1
  Ru  Ru9  1  0.750000  0.480196  0.663909  1
  Ru  Ru10  1  0.750000  0.967878  0.837977  1
  Ru  Ru11  1  0.250000  0.532604  0.332152  1
