# generated using pymatgen
data_Al3Zn2CoO8
_symmetry_space_group_name_H-M   'P 1'
_cell_length_a   5.78909314
_cell_length_b   5.78910142
_cell_length_c   5.78910119
_cell_angle_alpha   59.84745637
_cell_angle_beta   120.15254684
_cell_angle_gamma   120.15256185
_symmetry_Int_Tables_number   1
_chemical_formula_structural   Al3Zn2CoO8
_chemical_formula_sum   'Al3 Zn2 Co1 O8'
_cell_volume   136.71359276
_cell_formula_units_Z   1
loop_
 _symmetry_equiv_pos_site_id
 _symmetry_equiv_pos_as_xyz
  1  'x, y, z'
loop_
 _atom_site_type_symbol
 _atom_site_label
 _atom_site_symmetry_multiplicity
 _atom_site_fract_x
 _atom_site_fract_y
 _atom_site_fract_z
 _atom_site_occupancy
  Al  Al0  1  0.625000  0.875000  0.375000  1
  Al  Al1  1  0.624997  0.375003  0.874997  1
  Al  Al2  1  0.125000  0.375001  0.375000  1
  Zn  Zn3  1  0.251469  0.748533  0.748533  1
  Zn  Zn4  1  0.998538  0.001463  0.001464  1
  Co  Co5  1  0.624998  0.375001  0.375002  1
  O  O6  1  0.860704  0.139297  0.139296  1
  O  O7  1  0.389296  0.610705  0.610705  1
  O  O8  1  0.863047  0.582159  0.136954  1
  O  O9  1  0.863048  0.136952  0.582161  1
  O  O10  1  0.417841  0.136953  0.136953  1
  O  O11  1  0.386952  0.167840  0.613048  1
  O  O12  1  0.386952  0.613047  0.167841  1
  O  O13  1  0.832160  0.613047  0.613047  1
