# generated using pymatgen
data_Nd12Si8(Ir3Rh)3
_symmetry_space_group_name_H-M   'P 1'
_cell_length_a   5.71635426
_cell_length_b   7.76853930
_cell_length_c   15.03428809
_cell_angle_alpha   90.00027788
_cell_angle_beta   89.98725712
_cell_angle_gamma   89.96791365
_symmetry_Int_Tables_number   1
_chemical_formula_structural   Nd12Si8(Ir3Rh)3
_chemical_formula_sum   'Nd12 Si8 Ir9 Rh3'
_cell_volume   667.63837607
_cell_formula_units_Z   1
loop_
 _symmetry_equiv_pos_site_id
 _symmetry_equiv_pos_as_xyz
  1  'x, y, z'
loop_
 _atom_site_type_symbol
 _atom_site_label
 _atom_site_symmetry_multiplicity
 _atom_site_fract_x
 _atom_site_fract_y
 _atom_site_fract_z
 _atom_site_occupancy
  Nd  Nd0  1  0.134398  0.473140  0.890706  1
  Nd  Nd1  1  0.364864  0.975282  0.891150  1
  Nd  Nd2  1  0.601195  0.330370  0.750202  1
  Nd  Nd3  1  0.399289  0.669994  0.249789  1
  Nd  Nd4  1  0.635608  0.025754  0.390608  1
  Nd  Nd5  1  0.865570  0.526074  0.109618  1
  Nd  Nd6  1  0.863894  0.526580  0.390649  1
  Nd  Nd7  1  0.364615  0.974043  0.609184  1
  Nd  Nd8  1  0.898313  0.830030  0.750050  1
  Nd  Nd9  1  0.135163  0.473114  0.609233  1
  Nd  Nd10  1  0.635663  0.026035  0.109428  1
  Nd  Nd11  1  0.101017  0.170473  0.249954  1
  Si  Si12  1  0.374297  0.372526  0.098555  1
  Si  Si13  1  0.624520  0.628063  0.900715  1
  Si  Si14  1  0.873768  0.126658  0.901070  1
  Si  Si15  1  0.371432  0.372941  0.401122  1
  Si  Si16  1  0.873728  0.126849  0.598852  1
  Si  Si17  1  0.625999  0.627199  0.599259  1
  Si  Si18  1  0.128983  0.873070  0.400890  1
  Si  Si19  1  0.128227  0.873469  0.099333  1
  Ir  Ir20  1  0.606053  0.337424  0.960739  1
  Ir  Ir21  1  0.395412  0.663260  0.039204  1
  Ir  Ir22  1  0.573035  0.321576  0.250316  1
  Ir  Ir23  1  0.396000  0.662360  0.461150  1
  Ir  Ir24  1  0.075156  0.178385  0.749743  1
  Ir  Ir25  1  0.103782  0.162696  0.460907  1
  Ir  Ir26  1  0.423600  0.679177  0.749997  1
  Ir  Ir27  1  0.927556  0.821538  0.250120  1
  Ir  Ir28  1  0.103484  0.162829  0.039469  1
  Rh  Rh29  1  0.605477  0.336531  0.538067  1
  Rh  Rh30  1  0.895087  0.836214  0.538071  1
  Rh  Rh31  1  0.894815  0.836345  0.961849  1
