# generated using pymatgen
data_Tb4TmGa2Sn
_symmetry_space_group_name_H-M   'P 1'
_cell_length_a   7.82208800
_cell_length_b   7.82208800
_cell_length_c   14.22521200
_cell_angle_alpha   90.00000000
_cell_angle_beta   90.00000000
_cell_angle_gamma   90.00000000
_symmetry_Int_Tables_number   1
_chemical_formula_structural   Tb4TmGa2Sn
_chemical_formula_sum   'Tb16 Tm4 Ga8 Sn4'
_cell_volume   870.37045940
_cell_formula_units_Z   4
loop_
 _symmetry_equiv_pos_site_id
 _symmetry_equiv_pos_as_xyz
  1  'x, y, z'
loop_
 _atom_site_type_symbol
 _atom_site_label
 _atom_site_symmetry_multiplicity
 _atom_site_fract_x
 _atom_site_fract_y
 _atom_site_fract_z
 _atom_site_occupancy
  Tb  Tb0  1  0.830612  0.838410  0.606827  1
  Tb  Tb1  1  0.169388  0.838410  0.106827  1
  Tb  Tb2  1  0.161590  0.830612  0.393173  1
  Tb  Tb3  1  0.838410  0.169388  0.393173  1
  Tb  Tb4  1  0.669388  0.661590  0.393173  1
  Tb  Tb5  1  0.661590  0.330612  0.606827  1
  Tb  Tb6  1  0.338410  0.669388  0.606827  1
  Tb  Tb7  1  0.661590  0.669388  0.106827  1
  Tb  Tb8  1  0.669388  0.338410  0.893173  1
  Tb  Tb9  1  0.838410  0.830612  0.893173  1
  Tb  Tb10  1  0.330612  0.338410  0.393173  1
  Tb  Tb11  1  0.169388  0.161590  0.606827  1
  Tb  Tb12  1  0.830612  0.161590  0.106827  1
  Tb  Tb13  1  0.330612  0.661590  0.893173  1
  Tb  Tb14  1  0.338410  0.330612  0.106827  1
  Tb  Tb15  1  0.161590  0.169388  0.893173  1
  Tm  Tm16  1  0.000000  0.500000  0.740776  1
  Tm  Tm17  1  0.000000  0.500000  0.240776  1
  Tm  Tm18  1  0.500000  0.000000  0.259224  1
  Tm  Tm19  1  0.500000  0.000000  0.759224  1
  Ga  Ga20  1  0.628511  0.371489  0.250000  1
  Ga  Ga21  1  0.128511  0.871489  0.750000  1
  Ga  Ga22  1  0.371489  0.371489  0.750000  1
  Ga  Ga23  1  0.371489  0.628511  0.250000  1
  Ga  Ga24  1  0.871489  0.871489  0.250000  1
  Ga  Ga25  1  0.628511  0.628511  0.750000  1
  Ga  Ga26  1  0.871489  0.128511  0.750000  1
  Ga  Ga27  1  0.128511  0.128511  0.250000  1
  Sn  Sn28  1  0.000000  0.500000  0.503075  1
  Sn  Sn29  1  0.500000  0.000000  0.496925  1
  Sn  Sn30  1  0.500000  0.000000  0.996925  1
  Sn  Sn31  1  0.000000  0.500000  0.003075  1
