# generated using pymatgen
data_CaYb4(MnN3)2
_symmetry_space_group_name_H-M   'P 1'
_cell_length_a   5.87372079
_cell_length_b   6.47555649
_cell_length_c   11.55552519
_cell_angle_alpha   90.00000162
_cell_angle_beta   103.29862590
_cell_angle_gamma   123.45151058
_symmetry_Int_Tables_number   1
_chemical_formula_structural   CaYb4(MnN3)2
_chemical_formula_sum   'Ca2 Yb8 Mn4 N12'
_cell_volume   352.50392495
_cell_formula_units_Z   2
loop_
 _symmetry_equiv_pos_site_id
 _symmetry_equiv_pos_as_xyz
  1  'x, y, z'
loop_
 _atom_site_type_symbol
 _atom_site_label
 _atom_site_symmetry_multiplicity
 _atom_site_fract_x
 _atom_site_fract_y
 _atom_site_fract_z
 _atom_site_occupancy
  Ca  Ca0  1  0.000000  0.394027  0.750000  1
  Ca  Ca1  1  0.000000  0.605973  0.250000  1
  Yb  Yb2  1  0.127105  0.811676  0.999106  1
  Yb  Yb3  1  0.872895  0.684569  0.500894  1
  Yb  Yb4  1  0.872895  0.188324  0.000894  1
  Yb  Yb5  1  0.127105  0.315431  0.499106  1
  Yb  Yb6  1  0.328598  0.053189  0.732732  1
  Yb  Yb7  1  0.671402  0.724593  0.767268  1
  Yb  Yb8  1  0.671402  0.946811  0.267268  1
  Yb  Yb9  1  0.328598  0.275407  0.232732  1
  Mn  Mn10  1  0.520114  0.857996  0.529844  1
  Mn  Mn11  1  0.479886  0.337882  0.970156  1
  Mn  Mn12  1  0.479886  0.142004  0.470156  1
  Mn  Mn13  1  0.520114  0.662118  0.029844  1
  N  N14  1  0.874696  0.993271  0.618220  1
  N  N15  1  0.125304  0.118577  0.881780  1
  N  N16  1  0.125304  0.006729  0.381780  1
  N  N17  1  0.874696  0.881423  0.118220  1
  N  N18  1  0.284008  0.695193  0.620736  1
  N  N19  1  0.715992  0.411185  0.879264  1
  N  N20  1  0.715992  0.304807  0.379264  1
  N  N21  1  0.284008  0.588815  0.120736  1
  N  N22  1  0.564270  0.339765  0.600213  1
  N  N23  1  0.435730  0.775495  0.899787  1
  N  N24  1  0.435730  0.660235  0.399787  1
  N  N25  1  0.564270  0.224505  0.100213  1
