# generated using pymatgen
data_Tb3Ce(ScSi2)2
_symmetry_space_group_name_H-M   'P 1'
_cell_length_a   7.35638391
_cell_length_b   7.35638391
_cell_length_c   4.31960300
_cell_angle_alpha   90.00000000
_cell_angle_beta   90.00000000
_cell_angle_gamma   90.48508975
_symmetry_Int_Tables_number   1
_chemical_formula_structural   Tb3Ce(ScSi2)2
_chemical_formula_sum   'Tb3 Ce1 Sc2 Si4'
_cell_volume   233.75291791
_cell_formula_units_Z   1
loop_
 _symmetry_equiv_pos_site_id
 _symmetry_equiv_pos_as_xyz
  1  'x, y, z'
loop_
 _atom_site_type_symbol
 _atom_site_label
 _atom_site_symmetry_multiplicity
 _atom_site_fract_x
 _atom_site_fract_y
 _atom_site_fract_z
 _atom_site_occupancy
  Tb  Tb0  1  0.674437  0.176613  0.500000  1
  Tb  Tb1  1  0.323387  0.825563  0.500000  1
  Tb  Tb2  1  0.177515  0.322485  0.500000  1
  Ce  Ce3  1  0.822693  0.677307  0.500000  1
  Sc  Sc4  1  0.000713  0.998446  0.000000  1
  Sc  Sc5  1  0.501554  0.499287  0.000000  1
  Si  Si6  1  0.121041  0.618849  0.000000  1
  Si  Si7  1  0.881151  0.378959  0.000000  1
  Si  Si8  1  0.618799  0.881201  0.000000  1
  Si  Si9  1  0.378709  0.121291  0.000000  1
