# generated using pymatgen
data_Ac2Ge4Pt7
_symmetry_space_group_name_H-M   'P 1'
_cell_length_a   20.14598700
_cell_length_b   4.16448900
_cell_length_c   11.62628200
_cell_angle_alpha   90.00000000
_cell_angle_beta   90.00000000
_cell_angle_gamma   90.00000000
_symmetry_Int_Tables_number   1
_chemical_formula_structural   Ac2Ge4Pt7
_chemical_formula_sum   'Ac8 Ge16 Pt28'
_cell_volume   975.41879900
_cell_formula_units_Z   4
loop_
 _symmetry_equiv_pos_site_id
 _symmetry_equiv_pos_as_xyz
  1  'x, y, z'
loop_
 _atom_site_type_symbol
 _atom_site_label
 _atom_site_symmetry_multiplicity
 _atom_site_fract_x
 _atom_site_fract_y
 _atom_site_fract_z
 _atom_site_occupancy
  Ac  Ac0  1  0.280141  0.249999  0.011665  1
  Ac  Ac1  1  0.471910  0.249999  0.244447  1
  Ac  Ac2  1  0.971928  0.249998  0.255540  1
  Ac  Ac3  1  0.780209  0.249999  0.488343  1
  Ac  Ac4  1  0.219794  0.749998  0.511671  1
  Ac  Ac5  1  0.028082  0.749998  0.744451  1
  Ac  Ac6  1  0.528077  0.749998  0.755544  1
  Ac  Ac7  1  0.719855  0.749998  0.988341  1
  Ge  Ge8  1  0.412758  0.749998  0.060730  1
  Ge  Ge9  1  0.913609  0.749998  0.074998  1
  Ge  Ge10  1  0.755641  0.249998  0.206998  1
  Ge  Ge11  1  0.595869  0.749998  0.247140  1
  Ge  Ge12  1  0.095854  0.749998  0.252876  1
  Ge  Ge13  1  0.255623  0.249998  0.292991  1
  Ge  Ge14  1  0.413589  0.749998  0.425018  1
  Ge  Ge15  1  0.912785  0.749998  0.439278  1
  Ge  Ge16  1  0.087238  0.249998  0.560725  1
  Ge  Ge17  1  0.586399  0.249998  0.574986  1
  Ge  Ge18  1  0.744380  0.749998  0.707002  1
  Ge  Ge19  1  0.904152  0.249998  0.747127  1
  Ge  Ge20  1  0.404119  0.249998  0.752859  1
  Ge  Ge21  1  0.244354  0.749998  0.792991  1
  Ge  Ge22  1  0.086394  0.249998  0.925018  1
  Ge  Ge23  1  0.587238  0.249998  0.939269  1
  Pt  Pt24  1  0.542069  0.749998  0.045680  1
  Pt  Pt25  1  0.839930  0.249998  0.052815  1
  Pt  Pt26  1  0.035405  0.749998  0.060974  1
  Pt  Pt27  1  0.129148  0.249998  0.120532  1
  Pt  Pt28  1  0.633529  0.249998  0.134006  1
  Pt  Pt29  1  0.214559  0.749998  0.184936  1
  Pt  Pt30  1  0.347078  0.749998  0.243405  1
  Pt  Pt31  1  0.847053  0.750000  0.256616  1
  Pt  Pt32  1  0.714534  0.750001  0.315086  1
  Pt  Pt33  1  0.133543  0.249998  0.365965  1
  Pt  Pt34  1  0.629127  0.249998  0.379469  1
  Pt  Pt35  1  0.535391  0.749998  0.439014  1
  Pt  Pt36  1  0.339968  0.249998  0.447205  1
  Pt  Pt37  1  0.042076  0.749998  0.454311  1
  Pt  Pt38  1  0.957932  0.249998  0.545684  1
  Pt  Pt39  1  0.660039  0.749998  0.552786  1
  Pt  Pt40  1  0.464599  0.249998  0.560981  1
  Pt  Pt41  1  0.370877  0.749998  0.620532  1
  Pt  Pt42  1  0.866456  0.749998  0.634018  1
  Pt  Pt43  1  0.285466  0.250001  0.684925  1
  Pt  Pt44  1  0.152955  0.249999  0.743408  1
  Pt  Pt45  1  0.652913  0.249999  0.756606  1
  Pt  Pt46  1  0.785437  0.250001  0.815077  1
  Pt  Pt47  1  0.366478  0.749998  0.865980  1
  Pt  Pt48  1  0.870849  0.749999  0.879469  1
  Pt  Pt49  1  0.964598  0.249998  0.939028  1
  Pt  Pt50  1  0.160063  0.749998  0.947179  1
  Pt  Pt51  1  0.457932  0.249998  0.954301  1
