# generated using pymatgen
data_Nd4CuPd3
_symmetry_space_group_name_H-M   'P 1'
_cell_length_a   4.63300700
_cell_length_b   5.74348312
_cell_length_c   7.36642743
_cell_angle_alpha   90.01348539
_cell_angle_beta   90.00000000
_cell_angle_gamma   90.00000000
_symmetry_Int_Tables_number   1
_chemical_formula_structural   Nd4CuPd3
_chemical_formula_sum   'Nd4 Cu1 Pd3'
_cell_volume   196.01766329
_cell_formula_units_Z   1
loop_
 _symmetry_equiv_pos_site_id
 _symmetry_equiv_pos_as_xyz
  1  'x, y, z'
loop_
 _atom_site_type_symbol
 _atom_site_label
 _atom_site_symmetry_multiplicity
 _atom_site_fract_x
 _atom_site_fract_y
 _atom_site_fract_z
 _atom_site_occupancy
  Nd  Nd0  1  0.250000  0.363473  0.682464  1
  Nd  Nd1  1  0.250000  0.142340  0.181613  1
  Nd  Nd2  1  0.750000  0.634953  0.316479  1
  Nd  Nd3  1  0.750000  0.858737  0.818153  1
  Cu  Cu4  1  0.250000  0.869187  0.535869  1
  Pd  Pd5  1  0.250000  0.652553  0.043511  1
  Pd  Pd6  1  0.750000  0.127696  0.464684  1
  Pd  Pd7  1  0.750000  0.351063  0.957226  1
