# generated using pymatgen
data_YbEr2Al3Si2Pd
_symmetry_space_group_name_H-M   'P 1'
_cell_length_a   6.87703000
_cell_length_b   6.86120332
_cell_length_c   4.26979500
_cell_angle_alpha   90.00000000
_cell_angle_beta   90.00000000
_cell_angle_gamma   120.07634376
_symmetry_Int_Tables_number   1
_chemical_formula_structural   YbEr2Al3Si2Pd
_chemical_formula_sum   'Yb1 Er2 Al3 Si2 Pd1'
_cell_volume   174.34289423
_cell_formula_units_Z   1
loop_
 _symmetry_equiv_pos_site_id
 _symmetry_equiv_pos_as_xyz
  1  'x, y, z'
loop_
 _atom_site_type_symbol
 _atom_site_label
 _atom_site_symmetry_multiplicity
 _atom_site_fract_x
 _atom_site_fract_y
 _atom_site_fract_z
 _atom_site_occupancy
  Yb  Yb0  1  0.418149  0.000000  0.000000  1
  Er  Er1  1  0.000973  0.420163  0.000000  1
  Er  Er2  1  0.580810  0.579837  0.000000  1
  Al  Al3  1  0.762220  0.000000  0.500001  1
  Al  Al4  1  0.237531  0.242463  0.500001  1
  Al  Al5  1  0.995069  0.757537  0.500001  1
  Si  Si6  1  0.673439  0.340844  0.500001  1
  Si  Si7  1  0.332594  0.659156  0.500001  1
  Pd  Pd8  1  0.999213  0.000000  0.000000  1
