# generated using pymatgen
data_Y4Hf4PtRh3
_symmetry_space_group_name_H-M   'P 1'
_cell_length_a   4.64752600
_cell_length_b   7.04357007
_cell_length_c   8.23697934
_cell_angle_alpha   90.34282458
_cell_angle_beta   90.00000000
_cell_angle_gamma   90.00000000
_symmetry_Int_Tables_number   1
_chemical_formula_structural   Y4Hf4PtRh3
_chemical_formula_sum   'Y4 Hf4 Pt1 Rh3'
_cell_volume   269.63413367
_cell_formula_units_Z   1
loop_
 _symmetry_equiv_pos_site_id
 _symmetry_equiv_pos_as_xyz
  1  'x, y, z'
loop_
 _atom_site_type_symbol
 _atom_site_label
 _atom_site_symmetry_multiplicity
 _atom_site_fract_x
 _atom_site_fract_y
 _atom_site_fract_z
 _atom_site_occupancy
  Y  Y0  1  0.250000  0.982336  0.324383  1
  Y  Y1  1  0.250000  0.484515  0.179865  1
  Y  Y2  1  0.750000  0.015115  0.676916  1
  Y  Y3  1  0.750000  0.518346  0.821731  1
  Hf  Hf4  1  0.250000  0.360969  0.575145  1
  Hf  Hf5  1  0.250000  0.855814  0.926384  1
  Hf  Hf6  1  0.750000  0.637577  0.425601  1
  Hf  Hf7  1  0.750000  0.140018  0.076654  1
  Pt  Pt8  1  0.250000  0.231336  0.904796  1
  Rh  Rh9  1  0.250000  0.728238  0.589048  1
  Rh  Rh10  1  0.750000  0.774572  0.089529  1
  Rh  Rh11  1  0.750000  0.271163  0.409949  1
