# generated using pymatgen
data_Ho3TmAl18RePd5
_symmetry_space_group_name_H-M   'P 1'
_cell_length_a   7.63125082
_cell_length_b   7.63467064
_cell_length_c   9.49103200
_cell_angle_alpha   89.83178980
_cell_angle_beta   89.79090046
_cell_angle_gamma   119.35241680
_symmetry_Int_Tables_number   1
_chemical_formula_structural   Ho3TmAl18RePd5
_chemical_formula_sum   'Ho3 Tm1 Al18 Re1 Pd5'
_cell_volume   481.96775404
_cell_formula_units_Z   1
loop_
 _symmetry_equiv_pos_site_id
 _symmetry_equiv_pos_as_xyz
  1  'x, y, z'
loop_
 _atom_site_type_symbol
 _atom_site_label
 _atom_site_symmetry_multiplicity
 _atom_site_fract_x
 _atom_site_fract_y
 _atom_site_fract_z
 _atom_site_occupancy
  Ho  Ho0  1  0.004414  0.325511  0.752074  1
  Ho  Ho1  1  0.674480  0.995461  0.248020  1
  Ho  Ho2  1  0.325543  0.004489  0.752101  1
  Tm  Tm3  1  0.995730  0.674651  0.247745  1
  Al  Al4  1  0.131713  0.131306  0.247566  1
  Al  Al5  1  0.867970  0.867916  0.752255  1
  Al  Al6  1  0.999759  0.331745  0.075332  1
  Al  Al7  1  0.000202  0.668801  0.925511  1
  Al  Al8  1  0.998703  0.662551  0.578297  1
  Al  Al9  1  0.336853  0.000795  0.421095  1
  Al  Al10  1  0.001448  0.337922  0.421039  1
  Al  Al11  1  0.662515  0.998708  0.578600  1
  Al  Al12  1  0.668785  0.000271  0.925110  1
  Al  Al13  1  0.330468  0.999088  0.075407  1
  Al  Al14  1  0.333734  0.333693  0.556426  1
  Al  Al15  1  0.666755  0.666154  0.443227  1
  Al  Al16  1  0.670964  0.670413  0.053210  1
  Al  Al17  1  0.329762  0.329803  0.947085  1
  Al  Al18  1  0.341985  0.550013  0.249151  1
  Al  Al19  1  0.657724  0.450064  0.750918  1
  Al  Al20  1  0.550668  0.342822  0.249175  1
  Al  Al21  1  0.449826  0.657652  0.750918  1
  Re  Re22  1  0.999907  0.000015  0.000003  1
  Pd  Pd23  1  0.672502  0.328340  0.000265  1
  Pd  Pd24  1  0.327474  0.672088  0.000241  1
  Pd  Pd25  1  0.327246  0.672451  0.499811  1
  Pd  Pd26  1  0.672863  0.327859  0.499782  1
  Pd  Pd27  1  0.000009  0.999419  0.499633  1
