# generated using pymatgen
data_Y5Co16(TcAs4)3
_symmetry_space_group_name_H-M   'P 1'
_cell_length_a   12.48550800
_cell_length_b   12.48550754
_cell_length_c   3.83000300
_cell_angle_alpha   90.00000000
_cell_angle_beta   90.00000000
_cell_angle_gamma   120.00000651
_symmetry_Int_Tables_number   1
_chemical_formula_structural   Y5Co16(TcAs4)3
_chemical_formula_sum   'Y5 Co16 Tc3 As12'
_cell_volume   517.06142160
_cell_formula_units_Z   1
loop_
 _symmetry_equiv_pos_site_id
 _symmetry_equiv_pos_as_xyz
  1  'x, y, z'
loop_
 _atom_site_type_symbol
 _atom_site_label
 _atom_site_symmetry_multiplicity
 _atom_site_fract_x
 _atom_site_fract_y
 _atom_site_fract_z
 _atom_site_occupancy
  Y  Y0  1  0.185471  0.185471  0.500000  1
  Y  Y1  1  0.814529  0.000000  0.500000  1
  Y  Y2  1  0.000000  0.814529  0.500000  1
  Y  Y3  1  0.333333  0.666667  0.000000  1
  Y  Y4  1  0.666667  0.333333  0.000000  1
  Co  Co5  1  0.717454  0.717454  0.500000  1
  Co  Co6  1  0.282546  0.000000  0.500000  1
  Co  Co7  1  0.000000  0.282546  0.500000  1
  Co  Co8  1  0.178549  0.376253  0.000000  1
  Co  Co9  1  0.623747  0.802295  0.000000  1
  Co  Co10  1  0.197705  0.821451  0.000000  1
  Co  Co11  1  0.802295  0.623747  0.000000  1
  Co  Co12  1  0.821451  0.197705  0.000000  1
  Co  Co13  1  0.376253  0.178549  0.000000  1
  Co  Co14  1  0.356622  0.481188  0.500000  1
  Co  Co15  1  0.518812  0.875435  0.500000  1
  Co  Co16  1  0.124565  0.643378  0.500000  1
  Co  Co17  1  0.875435  0.518812  0.500000  1
  Co  Co18  1  0.643378  0.124565  0.500000  1
  Co  Co19  1  0.481188  0.356622  0.500000  1
  Co  Co20  1  0.000000  0.000000  0.000000  1
  Tc  Tc21  1  0.557765  0.557765  0.000000  1
  Tc  Tc22  1  0.442235  0.000000  0.000000  1
  Tc  Tc23  1  0.000000  0.442235  0.000000  1
  As  As24  1  0.821300  0.821300  0.000000  1
  As  As25  1  0.178700  0.000000  0.000000  1
  As  As26  1  0.000000  0.178700  0.000000  1
  As  As27  1  0.165739  0.481139  0.500000  1
  As  As28  1  0.518861  0.684601  0.500000  1
  As  As29  1  0.315399  0.834261  0.500000  1
  As  As30  1  0.684601  0.518861  0.500000  1
  As  As31  1  0.834261  0.315399  0.500000  1
  As  As32  1  0.481139  0.165739  0.500000  1
  As  As33  1  0.363076  0.363076  0.000000  1
  As  As34  1  0.636924  0.000000  0.000000  1
  As  As35  1  0.000000  0.636924  0.000000  1
