# generated using pymatgen
data_Dy4Nb2Ir5Ru
_symmetry_space_group_name_H-M   'P 1'
_cell_length_a   5.64231817
_cell_length_b   5.64599562
_cell_length_c   8.27725200
_cell_angle_alpha   90.00000000
_cell_angle_beta   90.00000000
_cell_angle_gamma   120.02231622
_symmetry_Int_Tables_number   1
_chemical_formula_structural   Dy4Nb2Ir5Ru
_chemical_formula_sum   'Dy4 Nb2 Ir5 Ru1'
_cell_volume   228.30594107
_cell_formula_units_Z   1
loop_
 _symmetry_equiv_pos_site_id
 _symmetry_equiv_pos_as_xyz
  1  'x, y, z'
loop_
 _atom_site_type_symbol
 _atom_site_label
 _atom_site_symmetry_multiplicity
 _atom_site_fract_x
 _atom_site_fract_y
 _atom_site_fract_z
 _atom_site_occupancy
  Dy  Dy0  1  0.665849  0.332921  0.562266  1
  Dy  Dy1  1  0.334044  0.667024  0.438490  1
  Dy  Dy2  1  0.334044  0.667024  0.061510  1
  Dy  Dy3  1  0.665849  0.332921  0.937734  1
  Nb  Nb4  1  0.002663  0.001330  0.497042  1
  Nb  Nb5  1  0.002663  0.001330  0.002958  1
  Ir  Ir6  1  0.171705  0.344109  0.750000  1
  Ir  Ir7  1  0.171709  0.827591  0.750000  1
  Ir  Ir8  1  0.655854  0.827919  0.750000  1
  Ir  Ir9  1  0.825581  0.652944  0.250000  1
  Ir  Ir10  1  0.825583  0.172646  0.250000  1
  Ru  Ru11  1  0.344456  0.172240  0.250000  1
