# generated using pymatgen
data_Ac6Cd23As
_symmetry_space_group_name_H-M   'P 1'
_cell_length_a   10.35586468
_cell_length_b   10.36049723
_cell_length_c   10.35587600
_cell_angle_alpha   60.04248555
_cell_angle_beta   60.04786041
_cell_angle_gamma   60.04260535
_symmetry_Int_Tables_number   1
_chemical_formula_structural   Ac6Cd23As
_chemical_formula_sum   'Ac6 Cd23 As1'
_cell_volume   786.45673510
_cell_formula_units_Z   1
loop_
 _symmetry_equiv_pos_site_id
 _symmetry_equiv_pos_as_xyz
  1  'x, y, z'
loop_
 _atom_site_type_symbol
 _atom_site_label
 _atom_site_symmetry_multiplicity
 _atom_site_fract_x
 _atom_site_fract_y
 _atom_site_fract_z
 _atom_site_occupancy
  Ac  Ac0  1  0.788139  0.788160  0.211913  1
  Ac  Ac1  1  0.211900  0.788066  0.211899  1
  Ac  Ac2  1  0.788090  0.211839  0.211859  1
  Ac  Ac3  1  0.211861  0.211840  0.788087  1
  Ac  Ac4  1  0.788100  0.211934  0.788101  1
  Ac  Ac5  1  0.211910  0.788161  0.788141  1
  Cd  Cd6  1  0.828909  0.828875  0.512397  1
  Cd  Cd7  1  0.828953  0.512264  0.828953  1
  Cd  Cd8  1  0.512397  0.828875  0.828909  1
  Cd  Cd9  1  0.829297  0.829264  0.829297  1
  Cd  Cd10  1  0.171091  0.171125  0.487603  1
  Cd  Cd11  1  0.171047  0.487736  0.171047  1
  Cd  Cd12  1  0.487603  0.171125  0.171091  1
  Cd  Cd13  1  0.170703  0.170736  0.170703  1
  Cd  Cd14  1  0.622915  0.622904  0.132596  1
  Cd  Cd15  1  0.622879  0.132635  0.622879  1
  Cd  Cd16  1  0.132597  0.622904  0.622915  1
  Cd  Cd17  1  0.622622  0.622692  0.622622  1
  Cd  Cd18  1  0.377085  0.377096  0.867404  1
  Cd  Cd19  1  0.377121  0.867365  0.377121  1
  Cd  Cd20  1  0.867403  0.377096  0.377085  1
  Cd  Cd21  1  0.377378  0.377308  0.377378  1
  Cd  Cd22  1  0.000000  0.000000  0.500000  1
  Cd  Cd23  1  0.500000  0.000000  0.500000  1
  Cd  Cd24  1  0.000000  0.500000  0.500000  1
  Cd  Cd25  1  0.500000  0.500000  0.000000  1
  Cd  Cd26  1  0.000000  0.500000  0.000000  1
  Cd  Cd27  1  0.500000  0.000000  0.000000  1
  Cd  Cd28  1  0.500000  0.500000  0.500000  1
  As  As29  1  0.000000  0.000000  0.000000  1
