# generated using pymatgen
data_YbHo(CoIr)2
_symmetry_space_group_name_H-M   'P 1'
_cell_length_a   5.04200352
_cell_length_b   5.16850553
_cell_length_c   5.16850597
_cell_angle_alpha   62.50771607
_cell_angle_beta   60.80639629
_cell_angle_gamma   60.80639498
_symmetry_Int_Tables_number   1
_chemical_formula_structural   YbHo(CoIr)2
_chemical_formula_sum   'Yb1 Ho1 Co2 Ir2'
_cell_volume   98.12269546
_cell_formula_units_Z   1
loop_
 _symmetry_equiv_pos_site_id
 _symmetry_equiv_pos_as_xyz
  1  'x, y, z'
loop_
 _atom_site_type_symbol
 _atom_site_label
 _atom_site_symmetry_multiplicity
 _atom_site_fract_x
 _atom_site_fract_y
 _atom_site_fract_z
 _atom_site_occupancy
  Yb  Yb0  1  0.748206  0.751794  0.751794  1
  Ho  Ho1  1  0.500694  0.499306  0.499306  1
  Co  Co2  1  0.624345  0.124649  0.124649  1
  Co  Co3  1  0.126358  0.124649  0.124649  1
  Ir  Ir4  1  0.125199  0.124131  0.625472  1
  Ir  Ir5  1  0.125199  0.625472  0.124131  1
