# generated using pymatgen
data_Sc24GaSi3Se8
_symmetry_space_group_name_H-M   'P 1'
_cell_length_a   3.80697600
_cell_length_b   10.30756470
_cell_length_c   19.12214500
_cell_angle_alpha   89.86479213
_cell_angle_beta   90.00000000
_cell_angle_gamma   90.00000000
_symmetry_Int_Tables_number   1
_chemical_formula_structural   Sc24GaSi3Se8
_chemical_formula_sum   'Sc24 Ga1 Si3 Se8'
_cell_volume   750.36333728
_cell_formula_units_Z   1
loop_
 _symmetry_equiv_pos_site_id
 _symmetry_equiv_pos_as_xyz
  1  'x, y, z'
loop_
 _atom_site_type_symbol
 _atom_site_label
 _atom_site_symmetry_multiplicity
 _atom_site_fract_x
 _atom_site_fract_y
 _atom_site_fract_z
 _atom_site_occupancy
  Sc  Sc0  1  0.250000  0.386824  0.992849  1
  Sc  Sc1  1  0.750000  0.613362  0.007852  1
  Sc  Sc2  1  0.750000  0.885581  0.508300  1
  Sc  Sc3  1  0.250000  0.110358  0.490408  1
  Sc  Sc4  1  0.250000  0.924323  0.645083  1
  Sc  Sc5  1  0.750000  0.075080  0.354338  1
  Sc  Sc6  1  0.750000  0.424710  0.856540  1
  Sc  Sc7  1  0.250000  0.575945  0.144357  1
  Sc  Sc8  1  0.250000  0.876751  0.027688  1
  Sc  Sc9  1  0.750000  0.123260  0.972792  1
  Sc  Sc10  1  0.750000  0.375307  0.467977  1
  Sc  Sc11  1  0.250000  0.625989  0.526407  1
  Sc  Sc12  1  0.250000  0.830550  0.389263  1
  Sc  Sc13  1  0.750000  0.166500  0.610950  1
  Sc  Sc14  1  0.750000  0.330340  0.110256  1
  Sc  Sc15  1  0.250000  0.670598  0.890138  1
  Sc  Sc16  1  0.250000  0.529039  0.339800  1
  Sc  Sc17  1  0.750000  0.473708  0.662815  1
  Sc  Sc18  1  0.750000  0.028559  0.158697  1
  Sc  Sc19  1  0.250000  0.971339  0.841538  1
  Sc  Sc20  1  0.250000  0.251000  0.231336  1
  Sc  Sc21  1  0.750000  0.749301  0.768649  1
  Sc  Sc22  1  0.750000  0.751660  0.267787  1
  Sc  Sc23  1  0.250000  0.246722  0.734158  1
  Ga  Ga24  1  0.250000  0.361246  0.577038  1
  Si  Si25  1  0.250000  0.141929  0.077633  1
  Si  Si26  1  0.750000  0.858551  0.922672  1
  Si  Si27  1  0.750000  0.641302  0.421448  1
  Se  Se28  1  0.250000  0.226251  0.877703  1
  Se  Se29  1  0.750000  0.773748  0.123427  1
  Se  Se30  1  0.750000  0.726757  0.623968  1
  Se  Se31  1  0.250000  0.273281  0.375312  1
  Se  Se32  1  0.250000  0.534867  0.764236  1
  Se  Se33  1  0.750000  0.465743  0.236403  1
  Se  Se34  1  0.750000  0.034295  0.737671  1
  Se  Se35  1  0.250000  0.965227  0.262513  1
