# generated using pymatgen
data_YbGd2(SnIr)3
_symmetry_space_group_name_H-M   'P 1'
_cell_length_a   7.34892601
_cell_length_b   7.42009526
_cell_length_c   4.11608600
_cell_angle_alpha   90.00000000
_cell_angle_beta   90.00000000
_cell_angle_gamma   119.68992455
_symmetry_Int_Tables_number   1
_chemical_formula_structural   YbGd2(SnIr)3
_chemical_formula_sum   'Yb1 Gd2 Sn3 Ir3'
_cell_volume   194.98308156
_cell_formula_units_Z   1
loop_
 _symmetry_equiv_pos_site_id
 _symmetry_equiv_pos_as_xyz
  1  'x, y, z'
loop_
 _atom_site_type_symbol
 _atom_site_label
 _atom_site_symmetry_multiplicity
 _atom_site_fract_x
 _atom_site_fract_y
 _atom_site_fract_z
 _atom_site_occupancy
  Yb  Yb0  1  0.408894  0.000004  0.500000  1
  Gd  Gd1  1  0.999899  0.411009  0.500000  1
  Gd  Gd2  1  0.588950  0.589076  0.500000  1
  Sn  Sn3  1  0.004220  0.749935  0.000000  1
  Sn  Sn4  1  0.254213  0.250005  0.000000  1
  Sn  Sn5  1  0.741535  0.000025  0.000000  1
  Ir  Ir6  1  0.332638  0.660301  0.000000  1
  Ir  Ir7  1  0.672265  0.339692  0.000000  1
  Ir  Ir8  1  0.997386  0.999953  0.500000  1
