# generated using pymatgen
data_TbThInNi2
_symmetry_space_group_name_H-M   'P 1'
_cell_length_a   7.54660714
_cell_length_b   7.54675468
_cell_length_c   3.68844200
_cell_angle_alpha   90.00000000
_cell_angle_beta   90.00000000
_cell_angle_gamma   93.04625134
_symmetry_Int_Tables_number   1
_chemical_formula_structural   TbThInNi2
_chemical_formula_sum   'Tb2 Th2 In2 Ni4'
_cell_volume   209.76876663
_cell_formula_units_Z   2
loop_
 _symmetry_equiv_pos_site_id
 _symmetry_equiv_pos_as_xyz
  1  'x, y, z'
loop_
 _atom_site_type_symbol
 _atom_site_label
 _atom_site_symmetry_multiplicity
 _atom_site_fract_x
 _atom_site_fract_y
 _atom_site_fract_z
 _atom_site_occupancy
  Tb  Tb0  1  0.174042  0.325820  0.500000  1
  Tb  Tb1  1  0.825931  0.674200  0.500000  1
  Th  Th2  1  0.676221  0.176181  0.500000  1
  Th  Th3  1  0.323848  0.823777  0.500000  1
  In  In4  1  0.500021  0.499885  0.000000  1
  In  In5  1  0.000004  0.999922  0.000000  1
  Ni  Ni6  1  0.123623  0.623808  0.000000  1
  Ni  Ni7  1  0.876127  0.376422  0.000000  1
  Ni  Ni8  1  0.619085  0.880978  0.000000  1
  Ni  Ni9  1  0.381097  0.119007  0.000000  1
