# generated using pymatgen
data_Sr2CaMn(P2O7)2
_symmetry_space_group_name_H-M   'P 1'
_cell_length_a   8.71851476
_cell_length_b   5.47101152
_cell_length_c   14.08443931
_cell_angle_alpha   67.33539570
_cell_angle_beta   89.53567074
_cell_angle_gamma   90.49193205
_symmetry_Int_Tables_number   1
_chemical_formula_structural   Sr2CaMn(P2O7)2
_chemical_formula_sum   'Sr4 Ca2 Mn2 P8 O28'
_cell_volume   619.86471102
_cell_formula_units_Z   2
loop_
 _symmetry_equiv_pos_site_id
 _symmetry_equiv_pos_as_xyz
  1  'x, y, z'
loop_
 _atom_site_type_symbol
 _atom_site_label
 _atom_site_symmetry_multiplicity
 _atom_site_fract_x
 _atom_site_fract_y
 _atom_site_fract_z
 _atom_site_occupancy
  Sr  Sr0  1  0.325628  0.461743  0.769068  1
  Sr  Sr1  1  0.674372  0.538257  0.230932  1
  Sr  Sr2  1  0.830479  0.565074  0.727472  1
  Sr  Sr3  1  0.169521  0.434926  0.272528  1
  Ca  Ca4  1  0.634874  0.896185  0.904569  1
  Ca  Ca5  1  0.365126  0.103815  0.095431  1
  Mn  Mn6  1  0.149993  0.085739  0.599235  1
  Mn  Mn7  1  0.850007  0.914261  0.400765  1
  P  P8  1  0.277224  0.745781  0.975401  1
  P  P9  1  0.722776  0.254219  0.024599  1
  P  P10  1  0.794716  0.277905  0.525299  1
  P  P11  1  0.205284  0.722095  0.474701  1
  P  P12  1  0.032328  0.933269  0.824784  1
  P  P13  1  0.967672  0.066731  0.175216  1
  P  P14  1  0.533030  0.098961  0.673397  1
  P  P15  1  0.466970  0.901039  0.326603  1
  O  O16  1  0.115288  0.800728  0.760078  1
  O  O17  1  0.884712  0.199272  0.239922  1
  O  O18  1  0.602411  0.255780  0.733241  1
  O  O19  1  0.397589  0.744220  0.266759  1
  O  O20  1  0.364685  0.171456  0.650905  1
  O  O21  1  0.635315  0.828544  0.349095  1
  O  O22  1  0.863744  0.851365  0.838158  1
  O  O23  1  0.136256  0.148635  0.161842  1
  O  O24  1  0.331824  0.510765  0.950679  1
  O  O25  1  0.668176  0.489235  0.049321  1
  O  O26  1  0.827222  0.545237  0.533947  1
  O  O27  1  0.172778  0.454763  0.466053  1
  O  O28  1  0.202055  0.714038  0.584862  1
  O  O29  1  0.797945  0.285962  0.415138  1
  O  O30  1  0.723319  0.305409  0.910028  1
  O  O31  1  0.276681  0.694591  0.089972  1
  O  O32  1  0.100755  0.807146  0.940472  1
  O  O33  1  0.899245  0.192854  0.059528  1
  O  O34  1  0.618217  0.189568  0.562158  1
  O  O35  1  0.381783  0.810432  0.437842  1
  O  O36  1  0.059703  0.233135  0.781344  1
  O  O37  1  0.940297  0.766865  0.218656  1
  O  O38  1  0.558844  0.800538  0.731872  1
  O  O39  1  0.441156  0.199462  0.268128  1
  O  O40  1  0.372943  0.000450  0.916559  1
  O  O41  1  0.627057  0.999550  0.083441  1
  O  O42  1  0.898689  0.056462  0.595936  1
  O  O43  1  0.101311  0.943538  0.404064  1
