# generated using pymatgen
data_Y2Al7Ga2Ir3
_symmetry_space_group_name_H-M   'P 1'
_cell_length_a   7.53925223
_cell_length_b   7.53833158
_cell_length_c   9.55565100
_cell_angle_alpha   90.00000000
_cell_angle_beta   90.00000000
_cell_angle_gamma   119.53097901
_symmetry_Int_Tables_number   1
_chemical_formula_structural   Y2Al7Ga2Ir3
_chemical_formula_sum   'Y4 Al14 Ga4 Ir6'
_cell_volume   472.52808724
_cell_formula_units_Z   2
loop_
 _symmetry_equiv_pos_site_id
 _symmetry_equiv_pos_as_xyz
  1  'x, y, z'
loop_
 _atom_site_type_symbol
 _atom_site_label
 _atom_site_symmetry_multiplicity
 _atom_site_fract_x
 _atom_site_fract_y
 _atom_site_fract_z
 _atom_site_occupancy
  Y  Y0  1  0.996351  0.671895  0.250000  1
  Y  Y1  1  0.003649  0.328105  0.750000  1
  Y  Y2  1  0.669784  0.993763  0.250000  1
  Y  Y3  1  0.330216  0.006237  0.750000  1
  Al  Al4  1  0.001186  0.334767  0.072961  1
  Al  Al5  1  0.998814  0.665233  0.927039  1
  Al  Al6  1  0.998814  0.665233  0.572961  1
  Al  Al7  1  0.335172  0.001728  0.426890  1
  Al  Al8  1  0.001186  0.334767  0.427039  1
  Al  Al9  1  0.664828  0.998272  0.573110  1
  Al  Al10  1  0.664828  0.998272  0.926890  1
  Al  Al11  1  0.335172  0.001728  0.073110  1
  Al  Al12  1  0.333741  0.334008  0.553136  1
  Al  Al13  1  0.666259  0.665992  0.446864  1
  Al  Al14  1  0.666259  0.665992  0.053136  1
  Al  Al15  1  0.333741  0.334008  0.946864  1
  Al  Al16  1  0.547928  0.338758  0.250000  1
  Al  Al17  1  0.452072  0.661242  0.750000  1
  Ga  Ga18  1  0.129331  0.129711  0.250000  1
  Ga  Ga19  1  0.870669  0.870289  0.750000  1
  Ga  Ga20  1  0.338529  0.545914  0.250000  1
  Ga  Ga21  1  0.661471  0.454086  0.750000  1
  Ir  Ir22  1  0.671094  0.327971  0.002310  1
  Ir  Ir23  1  0.328906  0.672029  0.997690  1
  Ir  Ir24  1  0.328906  0.672029  0.502310  1
  Ir  Ir25  1  0.671094  0.327971  0.497690  1
  Ir  Ir26  1  0.000000  0.000000  0.000000  1
  Ir  Ir27  1  0.000000  0.000000  0.500000  1
