# generated using pymatgen
data_V17(CrSi4)3
_symmetry_space_group_name_H-M   'P 1'
_cell_length_a   7.01960495
_cell_length_b   7.01960544
_cell_length_c   13.22097900
_cell_angle_alpha   90.00000000
_cell_angle_beta   90.00000000
_cell_angle_gamma   140.78746991
_symmetry_Int_Tables_number   1
_chemical_formula_structural   V17(CrSi4)3
_chemical_formula_sum   'V17 Cr3 Si12'
_cell_volume   411.85337478
_cell_formula_units_Z   1
loop_
 _symmetry_equiv_pos_site_id
 _symmetry_equiv_pos_as_xyz
  1  'x, y, z'
loop_
 _atom_site_type_symbol
 _atom_site_label
 _atom_site_symmetry_multiplicity
 _atom_site_fract_x
 _atom_site_fract_y
 _atom_site_fract_z
 _atom_site_occupancy
  V  V0  1  0.072433  0.422310  0.399745  1
  V  V1  1  0.575775  0.925937  0.901287  1
  V  V2  1  0.422310  0.072433  0.600255  1
  V  V3  1  0.925937  0.575775  0.098713  1
  V  V4  1  0.851373  0.651948  0.675511  1
  V  V5  1  0.349502  0.150692  0.174765  1
  V  V6  1  0.651948  0.851373  0.324489  1
  V  V7  1  0.150692  0.349502  0.825235  1
  V  V8  1  0.651948  0.851373  0.675511  1
  V  V9  1  0.150692  0.349502  0.174765  1
  V  V10  1  0.851373  0.651948  0.324489  1
  V  V11  1  0.349502  0.150692  0.825235  1
  V  V12  1  0.422310  0.072433  0.399745  1
  V  V13  1  0.925937  0.575775  0.901287  1
  V  V14  1  0.072433  0.422310  0.600255  1
  V  V15  1  0.575775  0.925937  0.098713  1
  V  V16  1  0.999094  0.999094  0.500000  1
  Cr  Cr17  1  0.501137  0.501137  0.000000  1
  Cr  Cr18  1  0.499603  0.499603  0.500000  1
  Cr  Cr19  1  0.000212  0.000212  0.000000  1
  Si  Si20  1  0.250347  0.749662  0.750648  1
  Si  Si21  1  0.749662  0.250347  0.249352  1
  Si  Si22  1  0.749662  0.250347  0.750648  1
  Si  Si23  1  0.250347  0.749662  0.249352  1
  Si  Si24  1  0.253473  0.253473  0.665050  1
  Si  Si25  1  0.750630  0.750630  0.163575  1
  Si  Si26  1  0.253473  0.253473  0.334950  1
  Si  Si27  1  0.750630  0.750630  0.836425  1
  Si  Si28  1  0.579880  0.909781  0.500000  1
  Si  Si29  1  0.087643  0.414490  0.000000  1
  Si  Si30  1  0.909781  0.579880  0.500000  1
  Si  Si31  1  0.414490  0.087643  0.000000  1
