# generated using pymatgen
data_Y3Cd5Pt
_symmetry_space_group_name_H-M   'P 1'
_cell_length_a   8.09322200
_cell_length_b   8.09322250
_cell_length_c   3.83336800
_cell_angle_alpha   90.00000000
_cell_angle_beta   90.00000000
_cell_angle_gamma   119.99998980
_symmetry_Int_Tables_number   1
_chemical_formula_structural   Y3Cd5Pt
_chemical_formula_sum   'Y3 Cd5 Pt1'
_cell_volume   217.44735178
_cell_formula_units_Z   1
loop_
 _symmetry_equiv_pos_site_id
 _symmetry_equiv_pos_as_xyz
  1  'x, y, z'
loop_
 _atom_site_type_symbol
 _atom_site_label
 _atom_site_symmetry_multiplicity
 _atom_site_fract_x
 _atom_site_fract_y
 _atom_site_fract_z
 _atom_site_occupancy
  Y  Y0  1  0.575630  0.963531  0.000000  1
  Y  Y1  1  0.036469  0.612099  0.000000  1
  Y  Y2  1  0.387901  0.424370  0.000000  1
  Cd  Cd3  1  0.277144  0.007762  0.500000  1
  Cd  Cd4  1  0.992238  0.269382  0.500000  1
  Cd  Cd5  1  0.730618  0.722856  0.500000  1
  Cd  Cd6  1  0.666667  0.333333  0.500000  1
  Cd  Cd7  1  0.000000  0.000000  0.000000  1
  Pt  Pt8  1  0.333333  0.666667  0.500000  1
