# generated using pymatgen
data_Tm3NiSn3PtRh
_symmetry_space_group_name_H-M   'P 1'
_cell_length_a   7.53923200
_cell_length_b   7.53923162
_cell_length_c   3.72447500
_cell_angle_alpha   90.00000000
_cell_angle_beta   90.00000000
_cell_angle_gamma   120.00000166
_symmetry_Int_Tables_number   1
_chemical_formula_structural   Tm3NiSn3PtRh
_chemical_formula_sum   'Tm3 Ni1 Sn3 Pt1 Rh1'
_cell_volume   183.33689915
_cell_formula_units_Z   1
loop_
 _symmetry_equiv_pos_site_id
 _symmetry_equiv_pos_as_xyz
  1  'x, y, z'
loop_
 _atom_site_type_symbol
 _atom_site_label
 _atom_site_symmetry_multiplicity
 _atom_site_fract_x
 _atom_site_fract_y
 _atom_site_fract_z
 _atom_site_occupancy
  Tm  Tm0  1  0.002794  0.404473  0.000000  1
  Tm  Tm1  1  0.595527  0.598321  0.000000  1
  Tm  Tm2  1  0.401679  0.997206  0.000000  1
  Ni  Ni3  1  0.000000  0.000000  0.000000  1
  Sn  Sn4  1  0.003298  0.746820  0.500000  1
  Sn  Sn5  1  0.253180  0.256478  0.500000  1
  Sn  Sn6  1  0.743522  0.996702  0.500000  1
  Pt  Pt7  1  0.666667  0.333333  0.500000  1
  Rh  Rh8  1  0.333333  0.666667  0.500000  1
