# generated using pymatgen
data_HoEr5CrB14Os
_symmetry_space_group_name_H-M   'P 1'
_cell_length_a   8.00769106
_cell_length_b   8.00769093
_cell_length_c   9.28725200
_cell_angle_alpha   90.00000000
_cell_angle_beta   90.00000000
_cell_angle_gamma   155.01451485
_symmetry_Int_Tables_number   1
_chemical_formula_structural   HoEr5CrB14Os
_chemical_formula_sum   'Ho1 Er5 Cr1 B14 Os1'
_cell_volume   251.54406957
_cell_formula_units_Z   1
loop_
 _symmetry_equiv_pos_site_id
 _symmetry_equiv_pos_as_xyz
  1  'x, y, z'
loop_
 _atom_site_type_symbol
 _atom_site_label
 _atom_site_symmetry_multiplicity
 _atom_site_fract_x
 _atom_site_fract_y
 _atom_site_fract_z
 _atom_site_occupancy
  Ho  Ho0  1  0.755728  0.244272  0.250000  1
  Er  Er1  1  0.242055  0.757945  0.750000  1
  Er  Er2  1  0.894325  0.105675  0.561935  1
  Er  Er3  1  0.105617  0.894383  0.441351  1
  Er  Er4  1  0.105617  0.894383  0.058649  1
  Er  Er5  1  0.894325  0.105675  0.938065  1
  Cr  Cr6  1  0.052607  0.947393  0.750000  1
  B  B7  1  0.544273  0.455727  0.250000  1
  B  B8  1  0.457053  0.542947  0.750000  1
  B  B9  1  0.520717  0.479283  0.904288  1
  B  B10  1  0.479853  0.520147  0.094686  1
  B  B11  1  0.479853  0.520147  0.405314  1
  B  B12  1  0.520717  0.479283  0.595712  1
  B  B13  1  0.631450  0.368550  0.848544  1
  B  B14  1  0.368143  0.631857  0.149573  1
  B  B15  1  0.727898  0.272102  0.966263  1
  B  B16  1  0.272958  0.727042  0.033966  1
  B  B17  1  0.272958  0.727042  0.466034  1
  B  B18  1  0.727898  0.272102  0.533737  1
  B  B19  1  0.631450  0.368550  0.651456  1
  B  B20  1  0.368143  0.631857  0.350427  1
  Os  Os21  1  0.946362  0.053638  0.250000  1
