# generated using pymatgen
data_Rb8SbIr2WBr24
_symmetry_space_group_name_H-M   'P 1'
_cell_length_a   13.25416772
_cell_length_b   13.25416708
_cell_length_c   13.25416791
_cell_angle_alpha   131.61286572
_cell_angle_beta   131.61286386
_cell_angle_gamma   70.84115282
_symmetry_Int_Tables_number   1
_chemical_formula_structural   Rb8SbIr2WBr24
_chemical_formula_sum   'Rb8 Sb1 Ir2 W1 Br24'
_cell_volume   1274.73472980
_cell_formula_units_Z   1
loop_
 _symmetry_equiv_pos_site_id
 _symmetry_equiv_pos_as_xyz
  1  'x, y, z'
loop_
 _atom_site_type_symbol
 _atom_site_label
 _atom_site_symmetry_multiplicity
 _atom_site_fract_x
 _atom_site_fract_y
 _atom_site_fract_z
 _atom_site_occupancy
  Rb  Rb0  1  0.105691  0.630649  0.999522  1
  Rb  Rb1  1  0.369351  0.894309  0.000478  1
  Rb  Rb2  1  0.631127  0.630649  0.524957  1
  Rb  Rb3  1  0.369351  0.368873  0.475043  1
  Rb  Rb4  1  0.893831  0.368873  0.999522  1
  Rb  Rb5  1  0.893831  0.894309  0.524957  1
  Rb  Rb6  1  0.105691  0.106169  0.475043  1
  Rb  Rb7  1  0.631127  0.106169  0.000478  1
  Sb  Sb8  1  0.000000  0.000000  0.000000  1
  Ir  Ir9  1  0.750000  0.250000  0.500000  1
  Ir  Ir10  1  0.250000  0.750000  0.500000  1
  W  W11  1  0.500000  0.500000  0.000000  1
  Br  Br12  1  0.253393  0.999481  0.253912  1
  Br  Br13  1  0.000519  0.746607  0.746088  1
  Br  Br14  1  0.251530  0.982788  0.731259  1
  Br  Br15  1  0.748687  0.479930  0.731245  1
  Br  Br16  1  0.479729  0.748470  0.731259  1
  Br  Br17  1  0.128019  0.128019  0.000000  1
  Br  Br18  1  0.499851  0.730782  0.230931  1
  Br  Br19  1  0.866174  0.366174  0.500000  1
  Br  Br20  1  0.000519  0.254431  0.253912  1
  Br  Br21  1  0.383533  0.383533  0.000000  1
  Br  Br22  1  0.616467  0.616467  0.000000  1
  Br  Br23  1  0.499851  0.268921  0.769069  1
  Br  Br24  1  0.269218  0.500149  0.769069  1
  Br  Br25  1  0.520070  0.251313  0.268755  1
  Br  Br26  1  0.366117  0.866117  0.500000  1
  Br  Br27  1  0.633826  0.133826  0.500000  1
  Br  Br28  1  0.251530  0.520271  0.268741  1
  Br  Br29  1  0.133883  0.633883  0.500000  1
  Br  Br30  1  0.017212  0.748470  0.268741  1
  Br  Br31  1  0.982558  0.251313  0.731245  1
  Br  Br32  1  0.745569  0.999481  0.746088  1
  Br  Br33  1  0.731079  0.500149  0.230931  1
  Br  Br34  1  0.748687  0.017442  0.268755  1
  Br  Br35  1  0.871981  0.871981  0.000000  1
