# generated using pymatgen
data_Th4Pd3Ru
_symmetry_space_group_name_H-M   'P 1'
_cell_length_a   7.30024993
_cell_length_b   4.51890700
_cell_length_c   5.88398366
_cell_angle_alpha   90.00000000
_cell_angle_beta   90.71309346
_cell_angle_gamma   90.00000000
_symmetry_Int_Tables_number   1
_chemical_formula_structural   Th4Pd3Ru
_chemical_formula_sum   'Th4 Pd3 Ru1'
_cell_volume   194.09258926
_cell_formula_units_Z   1
loop_
 _symmetry_equiv_pos_site_id
 _symmetry_equiv_pos_as_xyz
  1  'x, y, z'
loop_
 _atom_site_type_symbol
 _atom_site_label
 _atom_site_symmetry_multiplicity
 _atom_site_fract_x
 _atom_site_fract_y
 _atom_site_fract_z
 _atom_site_occupancy
  Th  Th0  1  0.176897  0.250001  0.137188  1
  Th  Th1  1  0.828100  0.750000  0.845645  1
  Th  Th2  1  0.683266  0.250001  0.362157  1
  Th  Th3  1  0.308686  0.750000  0.640105  1
  Pd  Pd4  1  0.948837  0.750000  0.339866  1
  Pd  Pd5  1  0.545953  0.250001  0.850042  1
  Pd  Pd6  1  0.456422  0.750000  0.149772  1
  Ru  Ru7  1  0.051841  0.250001  0.675227  1
