# generated using pymatgen
data_Ho3Zr2Bi3Se
_symmetry_space_group_name_H-M   'P 1'
_cell_length_a   9.06919200
_cell_length_b   9.06919279
_cell_length_c   6.31715500
_cell_angle_alpha   90.00000000
_cell_angle_beta   90.00000000
_cell_angle_gamma   120.00000441
_symmetry_Int_Tables_number   1
_chemical_formula_structural   Ho3Zr2Bi3Se
_chemical_formula_sum   'Ho6 Zr4 Bi6 Se2'
_cell_volume   449.97602595
_cell_formula_units_Z   2
loop_
 _symmetry_equiv_pos_site_id
 _symmetry_equiv_pos_as_xyz
  1  'x, y, z'
loop_
 _atom_site_type_symbol
 _atom_site_label
 _atom_site_symmetry_multiplicity
 _atom_site_fract_x
 _atom_site_fract_y
 _atom_site_fract_z
 _atom_site_occupancy
  Ho  Ho0  1  0.738939  0.738939  0.750000  1
  Ho  Ho1  1  0.261061  0.000000  0.750000  1
  Ho  Ho2  1  0.000000  0.261061  0.750000  1
  Ho  Ho3  1  0.261061  0.261061  0.250000  1
  Ho  Ho4  1  0.738939  0.000000  0.250000  1
  Ho  Ho5  1  0.000000  0.738939  0.250000  1
  Zr  Zr6  1  0.666667  0.333333  0.000000  1
  Zr  Zr7  1  0.333333  0.666667  0.000000  1
  Zr  Zr8  1  0.333333  0.666667  0.500000  1
  Zr  Zr9  1  0.666667  0.333333  0.500000  1
  Bi  Bi10  1  0.395883  0.395883  0.750000  1
  Bi  Bi11  1  0.604117  0.000000  0.750000  1
  Bi  Bi12  1  0.000000  0.604117  0.750000  1
  Bi  Bi13  1  0.604117  0.604117  0.250000  1
  Bi  Bi14  1  0.395883  0.000000  0.250000  1
  Bi  Bi15  1  0.000000  0.395883  0.250000  1
  Se  Se16  1  0.000000  0.000000  0.000000  1
  Se  Se17  1  0.000000  0.000000  0.500000  1
