# generated using pymatgen
data_Dy2Er2Cd3Co2
_symmetry_space_group_name_H-M   'P 1'
_cell_length_a   3.69656300
_cell_length_b   7.35752000
_cell_length_c   7.95266768
_cell_angle_alpha   71.06191809
_cell_angle_beta   90.00000000
_cell_angle_gamma   90.00000000
_symmetry_Int_Tables_number   1
_chemical_formula_structural   Dy2Er2Cd3Co2
_chemical_formula_sum   'Dy2 Er2 Cd3 Co2'
_cell_volume   204.58499794
_cell_formula_units_Z   1
loop_
 _symmetry_equiv_pos_site_id
 _symmetry_equiv_pos_as_xyz
  1  'x, y, z'
loop_
 _atom_site_type_symbol
 _atom_site_label
 _atom_site_symmetry_multiplicity
 _atom_site_fract_x
 _atom_site_fract_y
 _atom_site_fract_z
 _atom_site_occupancy
  Dy  Dy0  1  0.500000  0.397377  0.312116  1
  Dy  Dy1  1  0.500000  0.602623  0.687884  1
  Er  Er2  1  0.500000  0.904155  0.224789  1
  Er  Er3  1  0.500000  0.095845  0.775211  1
  Cd  Cd4  1  0.000000  0.707431  0.001973  1
  Cd  Cd5  1  0.000000  0.292569  0.998027  1
  Cd  Cd6  1  0.000000  0.000000  0.500000  1
  Co  Co7  1  0.000000  0.649976  0.395912  1
  Co  Co8  1  0.000000  0.350024  0.604088  1
