# generated using pymatgen
data_Pr4P6N13
_symmetry_space_group_name_H-M   'P 1'
_cell_length_a   7.54359551
_cell_length_b   7.54359607
_cell_length_c   7.54359700
_cell_angle_alpha   109.47122044
_cell_angle_beta   109.47122194
_cell_angle_gamma   109.47122543
_symmetry_Int_Tables_number   1
_chemical_formula_structural   Pr4P6N13
_chemical_formula_sum   'Pr4 P6 N13'
_cell_volume   330.45579782
_cell_formula_units_Z   1
loop_
 _symmetry_equiv_pos_site_id
 _symmetry_equiv_pos_as_xyz
  1  'x, y, z'
loop_
 _atom_site_type_symbol
 _atom_site_label
 _atom_site_symmetry_multiplicity
 _atom_site_fract_x
 _atom_site_fract_y
 _atom_site_fract_z
 _atom_site_occupancy
  Pr  Pr0  1  0.684976  0.000000  0.000000  1
  Pr  Pr1  1  0.000000  0.000000  0.684976  1
  Pr  Pr2  1  0.000000  0.684976  0.000000  1
  Pr  Pr3  1  0.315024  0.315024  0.315024  1
  P  P4  1  0.250000  0.750000  0.500000  1
  P  P5  1  0.750000  0.250000  0.500000  1
  P  P6  1  0.750000  0.500000  0.250000  1
  P  P7  1  0.250000  0.500000  0.750000  1
  P  P8  1  0.500000  0.750000  0.250000  1
  P  P9  1  0.500000  0.250000  0.750000  1
  N  N10  1  0.000000  0.000000  0.000000  1
  N  N11  1  0.694464  0.297893  0.297893  1
  N  N12  1  0.297893  0.694464  0.297893  1
  N  N13  1  0.305536  0.603429  0.603429  1
  N  N14  1  0.603429  0.603429  0.305536  1
  N  N15  1  0.396571  0.702107  0.000000  1
  N  N16  1  0.000000  0.702107  0.396571  1
  N  N17  1  0.603429  0.305536  0.603429  1
  N  N18  1  0.702107  0.000000  0.396571  1
  N  N19  1  0.396571  0.000000  0.702107  1
  N  N20  1  0.702107  0.396571  0.000000  1
  N  N21  1  0.297893  0.297893  0.694464  1
  N  N22  1  0.000000  0.396571  0.702107  1
