# generated using pymatgen
data_Tb4Ho7Er(GaCo2)2
_symmetry_space_group_name_H-M   'P 1'
_cell_length_a   8.22563281
_cell_length_b   8.22267225
_cell_length_c   8.22267199
_cell_angle_alpha   106.96494761
_cell_angle_beta   109.21906621
_cell_angle_gamma   112.25798074
_symmetry_Int_Tables_number   1
_chemical_formula_structural   Tb4Ho7Er(GaCo2)2
_chemical_formula_sum   'Tb4 Ho7 Er1 Ga2 Co4'
_cell_volume   427.28593637
_cell_formula_units_Z   1
loop_
 _symmetry_equiv_pos_site_id
 _symmetry_equiv_pos_as_xyz
  1  'x, y, z'
loop_
 _atom_site_type_symbol
 _atom_site_label
 _atom_site_symmetry_multiplicity
 _atom_site_fract_x
 _atom_site_fract_y
 _atom_site_fract_z
 _atom_site_occupancy
  Tb  Tb0  1  0.698352  0.261499  0.959996  1
  Tb  Tb1  1  0.301604  0.738623  0.040094  1
  Tb  Tb2  1  0.698352  0.738356  0.436854  1
  Tb  Tb3  1  0.301604  0.261510  0.562980  1
  Ho  Ho4  1  0.810845  0.138372  0.327268  1
  Ho  Ho5  1  0.810845  0.483577  0.672472  1
  Ho  Ho6  1  0.189049  0.861707  0.672749  1
  Ho  Ho7  1  0.189049  0.516300  0.327343  1
  Ho  Ho8  1  0.601562  0.780931  0.820631  1
  Ho  Ho9  1  0.960292  0.780952  0.179340  1
  Ho  Ho10  1  0.039843  0.219070  0.820773  1
  Er  Er11  1  0.398476  0.219136  0.179339  1
  Ga  Ga12  1  0.499926  0.499861  0.000065  1
  Ga  Ga13  1  0.499990  0.999995  0.499995  1
  Co  Co14  1  0.839089  0.499941  0.339148  1
  Co  Co15  1  0.160778  0.499955  0.660823  1
  Co  Co16  1  0.000173  0.115273  0.115231  1
  Co  Co17  1  0.000173  0.884941  0.884899  1
