# generated using pymatgen
data_Er2VRu3
_symmetry_space_group_name_H-M   'P 1'
_cell_length_a   5.09495944
_cell_length_b   5.09495942
_cell_length_c   5.09496080
_cell_angle_alpha   66.05742177
_cell_angle_beta   66.05740765
_cell_angle_gamma   66.05742164
_symmetry_Int_Tables_number   1
_chemical_formula_structural   Er2VRu3
_chemical_formula_sum   'Er2 V1 Ru3'
_cell_volume   105.77324198
_cell_formula_units_Z   1
loop_
 _symmetry_equiv_pos_site_id
 _symmetry_equiv_pos_as_xyz
  1  'x, y, z'
loop_
 _atom_site_type_symbol
 _atom_site_label
 _atom_site_symmetry_multiplicity
 _atom_site_fract_x
 _atom_site_fract_y
 _atom_site_fract_z
 _atom_site_occupancy
  Er  Er0  1  0.628770  0.628770  0.628770  1
  Er  Er1  1  0.371230  0.371230  0.371230  1
  V  V2  1  0.000000  0.000000  0.000000  1
  Ru  Ru3  1  0.000000  0.500000  0.000000  1
  Ru  Ru4  1  0.500000  0.000000  0.000000  1
  Ru  Ru5  1  0.000000  0.000000  0.500000  1
