# generated using pymatgen
data_Tb6CeErAlPd24
_symmetry_space_group_name_H-M   'P 1'
_cell_length_a   8.36517577
_cell_length_b   8.36515398
_cell_length_c   8.36520500
_cell_angle_alpha   89.96275315
_cell_angle_beta   90.03713705
_cell_angle_gamma   90.04700346
_symmetry_Int_Tables_number   1
_chemical_formula_structural   Tb6CeErAlPd24
_chemical_formula_sum   'Tb6 Ce1 Er1 Al1 Pd24'
_cell_volume   585.36300256
_cell_formula_units_Z   1
loop_
 _symmetry_equiv_pos_site_id
 _symmetry_equiv_pos_as_xyz
  1  'x, y, z'
loop_
 _atom_site_type_symbol
 _atom_site_label
 _atom_site_symmetry_multiplicity
 _atom_site_fract_x
 _atom_site_fract_y
 _atom_site_fract_z
 _atom_site_occupancy
  Tb  Tb0  1  0.251416  0.251835  0.251821  1
  Tb  Tb1  1  0.748044  0.747897  0.747912  1
  Tb  Tb2  1  0.748165  0.748584  0.251821  1
  Tb  Tb3  1  0.748197  0.251804  0.748604  1
  Tb  Tb4  1  0.252101  0.251957  0.747912  1
  Tb  Tb5  1  0.252103  0.747897  0.747887  1
  Ce  Ce6  1  0.745853  0.254148  0.254153  1
  Er  Er7  1  0.252094  0.747908  0.252002  1
  Al  Al8  1  0.000398  0.999602  0.999628  1
  Pd  Pd9  1  0.259754  0.500479  0.000295  1
  Pd  Pd10  1  0.740375  0.499284  0.001022  1
  Pd  Pd11  1  0.999041  0.259625  0.499228  1
  Pd  Pd12  1  0.500716  0.259625  0.001022  1
  Pd  Pd13  1  0.000803  0.740244  0.499497  1
  Pd  Pd14  1  0.499522  0.740245  0.000296  1
  Pd  Pd15  1  0.500268  0.000452  0.259630  1
  Pd  Pd16  1  0.259757  0.999196  0.499496  1
  Pd  Pd17  1  0.499984  0.999708  0.740253  1
  Pd  Pd18  1  0.740374  0.000958  0.499227  1
  Pd  Pd19  1  0.999546  0.499731  0.259629  1
  Pd  Pd20  1  0.000292  0.500015  0.740254  1
  Pd  Pd21  1  0.253013  0.500573  0.499450  1
  Pd  Pd22  1  0.746862  0.499469  0.499403  1
  Pd  Pd23  1  0.500532  0.253138  0.499402  1
  Pd  Pd24  1  0.499428  0.746988  0.499449  1
  Pd  Pd25  1  0.500018  0.499983  0.253135  1
  Pd  Pd26  1  0.499956  0.500044  0.746982  1
  Pd  Pd27  1  0.288986  0.999321  0.000349  1
  Pd  Pd28  1  0.710955  0.999953  0.000015  1
  Pd  Pd29  1  0.000046  0.289045  0.000015  1
  Pd  Pd30  1  0.000680  0.711015  0.000350  1
  Pd  Pd31  1  0.000526  0.999473  0.288943  1
  Pd  Pd32  1  0.000195  0.999803  0.710919  1
