# generated using pymatgen
data_Dy10InSnSb4
_symmetry_space_group_name_H-M   'P 1'
_cell_length_a   6.44115500
_cell_length_b   8.99680768
_cell_length_c   8.97751671
_cell_angle_alpha   120.07112727
_cell_angle_beta   90.00001779
_cell_angle_gamma   89.99997199
_symmetry_Int_Tables_number   1
_chemical_formula_structural   Dy10InSnSb4
_chemical_formula_sum   'Dy10 In1 Sn1 Sb4'
_cell_volume   450.22263403
_cell_formula_units_Z   1
loop_
 _symmetry_equiv_pos_site_id
 _symmetry_equiv_pos_as_xyz
  1  'x, y, z'
loop_
 _atom_site_type_symbol
 _atom_site_label
 _atom_site_symmetry_multiplicity
 _atom_site_fract_x
 _atom_site_fract_y
 _atom_site_fract_z
 _atom_site_occupancy
  Dy  Dy0  1  0.498917  0.334732  0.668909  1
  Dy  Dy1  1  0.498917  0.665822  0.331091  1
  Dy  Dy2  1  0.001082  0.665823  0.331091  1
  Dy  Dy3  1  0.001082  0.334733  0.668909  1
  Dy  Dy4  1  0.750001  0.241669  0.000000  1
  Dy  Dy5  1  0.750001  0.754732  0.759314  1
  Dy  Dy6  1  0.750001  0.995418  0.240686  1
  Dy  Dy7  1  0.249999  0.758996  0.000000  1
  Dy  Dy8  1  0.250001  0.245484  0.242049  1
  Dy  Dy9  1  0.250001  0.003436  0.757951  1
  In  In10  1  0.749999  0.604384  0.000000  1
  Sn  Sn11  1  0.250000  0.394360  0.000000  1
  Sb  Sb12  1  0.750001  0.389392  0.390425  1
  Sb  Sb13  1  0.750001  0.998966  0.609575  1
  Sb  Sb14  1  0.250000  0.610875  0.609698  1
  Sb  Sb15  1  0.250000  0.001177  0.390302  1
