# generated using pymatgen
data_La8GeSBr12
_symmetry_space_group_name_H-M   'P 1'
_cell_length_a   4.24173900
_cell_length_b   13.82613759
_cell_length_c   14.63570700
_cell_angle_alpha   89.98330789
_cell_angle_beta   90.00000000
_cell_angle_gamma   90.00000000
_symmetry_Int_Tables_number   1
_chemical_formula_structural   La8GeSBr12
_chemical_formula_sum   'La8 Ge1 S1 Br12'
_cell_volume   858.33832576
_cell_formula_units_Z   1
loop_
 _symmetry_equiv_pos_site_id
 _symmetry_equiv_pos_as_xyz
  1  'x, y, z'
loop_
 _atom_site_type_symbol
 _atom_site_label
 _atom_site_symmetry_multiplicity
 _atom_site_fract_x
 _atom_site_fract_y
 _atom_site_fract_z
 _atom_site_occupancy
  La  La0  1  0.500000  0.116558  0.343945  1
  La  La1  1  0.500000  0.883442  0.656055  1
  La  La2  1  0.500000  0.622514  0.164090  1
  La  La3  1  0.500000  0.377486  0.835910  1
  La  La4  1  0.000000  0.113259  0.575340  1
  La  La5  1  0.000000  0.886741  0.424660  1
  La  La6  1  0.000000  0.623695  0.917190  1
  La  La7  1  0.000000  0.376305  0.082810  1
  Ge  Ge8  1  0.500000  0.500000  0.000000  1
  S  S9  1  0.500000  0.000000  0.500000  1
  Br  Br10  1  0.500000  0.239857  0.167060  1
  Br  Br11  1  0.500000  0.760143  0.832940  1
  Br  Br12  1  0.500000  0.750050  0.339809  1
  Br  Br13  1  0.500000  0.249950  0.660191  1
  Br  Br14  1  0.000000  0.255278  0.413582  1
  Br  Br15  1  0.000000  0.744722  0.586418  1
  Br  Br16  1  0.000000  0.757825  0.088218  1
  Br  Br17  1  0.000000  0.242175  0.911782  1
  Br  Br18  1  0.000000  0.000212  0.244131  1
  Br  Br19  1  0.000000  0.999788  0.755869  1
  Br  Br20  1  0.000000  0.501938  0.259852  1
  Br  Br21  1  0.000000  0.498062  0.740148  1
