# generated using pymatgen
data_Tb6Zn5GaC2
_symmetry_space_group_name_H-M   'P 1'
_cell_length_a   9.19515354
_cell_length_b   9.22030239
_cell_length_c   9.22030078
_cell_angle_alpha   60.08998862
_cell_angle_beta   60.09019193
_cell_angle_gamma   60.09019245
_symmetry_Int_Tables_number   1
_chemical_formula_structural   Tb6Zn5GaC2
_chemical_formula_sum   'Tb12 Zn10 Ga2 C4'
_cell_volume   553.88581531
_cell_formula_units_Z   2
loop_
 _symmetry_equiv_pos_site_id
 _symmetry_equiv_pos_as_xyz
  1  'x, y, z'
loop_
 _atom_site_type_symbol
 _atom_site_label
 _atom_site_symmetry_multiplicity
 _atom_site_fract_x
 _atom_site_fract_y
 _atom_site_fract_z
 _atom_site_occupancy
  Tb  Tb0  1  0.447189  0.446922  0.052478  1
  Tb  Tb1  1  0.053410  0.446922  0.052478  1
  Tb  Tb2  1  0.446838  0.053162  0.053162  1
  Tb  Tb3  1  0.053410  0.052478  0.446922  1
  Tb  Tb4  1  0.447189  0.052478  0.446922  1
  Tb  Tb5  1  0.052420  0.447580  0.447580  1
  Tb  Tb6  1  0.802811  0.803078  0.197522  1
  Tb  Tb7  1  0.196590  0.803078  0.197522  1
  Tb  Tb8  1  0.803162  0.196838  0.196838  1
  Tb  Tb9  1  0.196590  0.197522  0.803078  1
  Tb  Tb10  1  0.802811  0.197522  0.803078  1
  Tb  Tb11  1  0.197580  0.802420  0.802420  1
  Zn  Zn12  1  0.825810  0.828707  0.519672  1
  Zn  Zn13  1  0.825810  0.519672  0.828707  1
  Zn  Zn14  1  0.520906  0.827468  0.827468  1
  Zn  Zn15  1  0.824159  0.827468  0.827468  1
  Zn  Zn16  1  0.424190  0.421293  0.730328  1
  Zn  Zn17  1  0.424190  0.730328  0.421293  1
  Zn  Zn18  1  0.729094  0.422532  0.422532  1
  Zn  Zn19  1  0.425841  0.422532  0.422532  1
  Zn  Zn20  1  0.625000  0.625000  0.125000  1
  Zn  Zn21  1  0.625000  0.125000  0.625000  1
  Ga  Ga22  1  0.125000  0.625000  0.625000  1
  Ga  Ga23  1  0.625000  0.625000  0.625000  1
  C  C24  1  0.125000  0.125000  0.625000  1
  C  C25  1  0.125000  0.625000  0.125000  1
  C  C26  1  0.625000  0.125000  0.125000  1
  C  C27  1  0.125000  0.125000  0.125000  1
