# generated using pymatgen
data_Nd7Dy3(SnBi)4
_symmetry_space_group_name_H-M   'P 1'
_cell_length_a   8.40948400
_cell_length_b   8.45247904
_cell_length_c   16.08580000
_cell_angle_alpha   90.00542964
_cell_angle_beta   90.00000000
_cell_angle_gamma   90.00000000
_symmetry_Int_Tables_number   1
_chemical_formula_structural   Nd7Dy3(SnBi)4
_chemical_formula_sum   'Nd14 Dy6 Sn8 Bi8'
_cell_volume   1143.39453925
_cell_formula_units_Z   2
loop_
 _symmetry_equiv_pos_site_id
 _symmetry_equiv_pos_as_xyz
  1  'x, y, z'
loop_
 _atom_site_type_symbol
 _atom_site_label
 _atom_site_symmetry_multiplicity
 _atom_site_fract_x
 _atom_site_fract_y
 _atom_site_fract_z
 _atom_site_occupancy
  Nd  Nd0  1  0.612985  0.162124  0.379600  1
  Nd  Nd1  1  0.112985  0.337876  0.120400  1
  Nd  Nd2  1  0.612234  0.161691  0.121608  1
  Nd  Nd3  1  0.112234  0.338309  0.378392  1
  Nd  Nd4  1  0.388219  0.838549  0.621431  1
  Nd  Nd5  1  0.888219  0.661451  0.878569  1
  Nd  Nd6  1  0.551922  0.327505  0.890288  1
  Nd  Nd7  1  0.051922  0.172495  0.609712  1
  Nd  Nd8  1  0.448165  0.672771  0.390863  1
  Nd  Nd9  1  0.948165  0.827229  0.109137  1
  Nd  Nd10  1  0.448944  0.673524  0.108481  1
  Nd  Nd11  1  0.948944  0.826476  0.391519  1
  Nd  Nd12  1  0.551440  0.328804  0.610635  1
  Nd  Nd13  1  0.051440  0.171196  0.889365  1
  Dy  Dy14  1  0.385502  0.839890  0.875318  1
  Dy  Dy15  1  0.885502  0.660110  0.624682  1
  Dy  Dy16  1  0.217646  0.497325  0.749702  1
  Dy  Dy17  1  0.717646  0.002675  0.750298  1
  Dy  Dy18  1  0.782672  0.503796  0.250861  1
  Dy  Dy19  1  0.282672  0.996204  0.249139  1
  Sn  Sn20  1  0.585795  0.628813  0.750752  1
  Sn  Sn21  1  0.085795  0.871187  0.749248  1
  Sn  Sn22  1  0.414251  0.374410  0.250165  1
  Sn  Sn23  1  0.914251  0.125590  0.249835  1
  Sn  Sn24  1  0.355744  0.142095  0.750681  1
  Sn  Sn25  1  0.855744  0.357905  0.749319  1
  Sn  Sn26  1  0.645132  0.856700  0.250051  1
  Sn  Sn27  1  0.145132  0.643300  0.249949  1
  Bi  Bi28  1  0.271629  0.017410  0.044488  1
  Bi  Bi29  1  0.771629  0.482590  0.455512  1
  Bi  Bi30  1  0.732703  0.974962  0.548471  1
  Bi  Bi31  1  0.232703  0.525038  0.951529  1
  Bi  Bi32  1  0.724199  0.978126  0.951822  1
  Bi  Bi33  1  0.224199  0.521874  0.548178  1
  Bi  Bi34  1  0.270819  0.019844  0.452584  1
  Bi  Bi35  1  0.770819  0.480156  0.047416  1
