# generated using pymatgen
data_TmHf7(Nb3Si4)4
_symmetry_space_group_name_H-M   'P 1'
_cell_length_a   6.88602326
_cell_length_b   6.88128069
_cell_length_c   12.74822552
_cell_angle_alpha   89.99102130
_cell_angle_beta   89.96820999
_cell_angle_gamma   90.05913898
_symmetry_Int_Tables_number   1
_chemical_formula_structural   TmHf7(Nb3Si4)4
_chemical_formula_sum   'Tm1 Hf7 Nb12 Si16'
_cell_volume   604.06989547
_cell_formula_units_Z   1
loop_
 _symmetry_equiv_pos_site_id
 _symmetry_equiv_pos_as_xyz
  1  'x, y, z'
loop_
 _atom_site_type_symbol
 _atom_site_label
 _atom_site_symmetry_multiplicity
 _atom_site_fract_x
 _atom_site_fract_y
 _atom_site_fract_z
 _atom_site_occupancy
  Tm  Tm0  1  0.661133  0.002322  0.281092  1
  Hf  Hf1  1  0.003988  0.343536  0.217996  1
  Hf  Hf2  1  0.999807  0.660200  0.718908  1
  Hf  Hf3  1  0.160609  0.501649  0.470307  1
  Hf  Hf4  1  0.499051  0.839269  0.030652  1
  Hf  Hf5  1  0.840716  0.498819  0.967908  1
  Hf  Hf6  1  0.501960  0.159267  0.532223  1
  Hf  Hf7  1  0.339953  0.000647  0.781010  1
  Nb  Nb8  1  0.169007  0.169603  0.999353  1
  Nb  Nb9  1  0.831358  0.830453  0.501111  1
  Nb  Nb10  1  0.328193  0.666789  0.250151  1
  Nb  Nb11  1  0.669699  0.330631  0.750118  1
  Nb  Nb12  1  0.152205  0.994935  0.377245  1
  Nb  Nb13  1  0.847533  0.003621  0.875032  1
  Nb  Nb14  1  0.503622  0.652468  0.626920  1
  Nb  Nb15  1  0.347866  0.497637  0.873194  1
  Nb  Nb16  1  0.493611  0.346469  0.124452  1
  Nb  Nb17  1  0.651927  0.502451  0.374607  1
  Nb  Nb18  1  0.997658  0.153384  0.625225  1
  Nb  Nb19  1  0.002748  0.844704  0.121981  1
  Si  Si20  1  0.295015  0.042236  0.186056  1
  Si  Si21  1  0.700779  0.956153  0.686647  1
  Si  Si22  1  0.455068  0.797891  0.437882  1
  Si  Si23  1  0.200799  0.544301  0.062592  1
  Si  Si24  1  0.542925  0.200143  0.935939  1
  Si  Si25  1  0.800076  0.457668  0.564049  1
  Si  Si26  1  0.044148  0.300411  0.813485  1
  Si  Si27  1  0.956711  0.698632  0.313584  1
  Si  Si28  1  0.361396  0.293786  0.322711  1
  Si  Si29  1  0.635780  0.708730  0.823100  1
  Si  Si30  1  0.207986  0.864739  0.573576  1
  Si  Si31  1  0.135363  0.792361  0.926819  1
  Si  Si32  1  0.793716  0.136595  0.070476  1
  Si  Si33  1  0.868099  0.210948  0.430024  1
  Si  Si34  1  0.292537  0.364809  0.676981  1
  Si  Si35  1  0.706962  0.631745  0.176593  1
