# generated using pymatgen
data_TbDy4ZrTc4(P6Ir7)2
_symmetry_space_group_name_H-M   'P 1'
_cell_length_a   12.63525200
_cell_length_b   12.73232905
_cell_length_c   3.98412100
_cell_angle_alpha   90.00000000
_cell_angle_beta   90.00000000
_cell_angle_gamma   120.15318994
_symmetry_Int_Tables_number   1
_chemical_formula_structural   TbDy4ZrTc4(P6Ir7)2
_chemical_formula_sum   'Tb1 Dy4 Zr1 Tc4 P12 Ir14'
_cell_volume   554.22032110
_cell_formula_units_Z   1
loop_
 _symmetry_equiv_pos_site_id
 _symmetry_equiv_pos_as_xyz
  1  'x, y, z'
loop_
 _atom_site_type_symbol
 _atom_site_label
 _atom_site_symmetry_multiplicity
 _atom_site_fract_x
 _atom_site_fract_y
 _atom_site_fract_z
 _atom_site_occupancy
  Tb  Tb0  1  0.999860  0.814568  0.000000  1
  Dy  Dy1  1  0.334017  0.666882  0.500000  1
  Dy  Dy2  1  0.666048  0.332762  0.500000  1
  Dy  Dy3  1  0.188716  0.186817  0.000000  1
  Dy  Dy4  1  0.808501  0.996516  0.000000  1
  Zr  Zr5  1  0.998506  0.444545  0.500000  1
  Tc  Tc6  1  0.549221  0.544537  0.500000  1
  Tc  Tc7  1  0.456825  0.008779  0.500000  1
  Tc  Tc8  1  0.618794  0.797970  0.500000  1
  Tc  Tc9  1  0.204193  0.826497  0.500000  1
  P  P10  1  0.007451  0.651801  0.500000  1
  P  P11  1  0.365994  0.363841  0.500000  1
  P  P12  1  0.630876  0.990396  0.500000  1
  P  P13  1  0.519087  0.694177  0.000000  1
  P  P14  1  0.309026  0.832396  0.000000  1
  P  P15  1  0.171504  0.484009  0.000000  1
  P  P16  1  0.484879  0.171168  0.000000  1
  P  P17  1  0.685234  0.517723  0.000000  1
  P  P18  1  0.829448  0.311164  0.000000  1
  P  P19  1  0.999452  0.173956  0.500000  1
  P  P20  1  0.815229  0.819860  0.500000  1
  P  P21  1  0.179656  0.997452  0.500000  1
  Ir  Ir22  1  0.507927  0.875463  0.000000  1
  Ir  Ir23  1  0.125865  0.640172  0.000000  1
  Ir  Ir24  1  0.363518  0.495644  0.000000  1
  Ir  Ir25  1  0.490577  0.359326  0.000000  1
  Ir  Ir26  1  0.861725  0.504879  0.000000  1
  Ir  Ir27  1  0.641293  0.134248  0.000000  1
  Ir  Ir28  1  0.000150  0.275877  0.000000  1
  Ir  Ir29  1  0.714647  0.712056  0.000000  1
  Ir  Ir30  1  0.288639  0.007693  0.000000  1
  Ir  Ir31  1  0.183976  0.372877  0.500000  1
  Ir  Ir32  1  0.376546  0.183879  0.500000  1
  Ir  Ir33  1  0.807834  0.627024  0.500000  1
  Ir  Ir34  1  0.815643  0.186432  0.500000  1
  Ir  Ir35  1  0.999142  0.996610  0.500000  1
