# generated using pymatgen
data_TbYLuThNi4
_symmetry_space_group_name_H-M   'P 1'
_cell_length_a   4.19667400
_cell_length_b   5.49178034
_cell_length_c   7.00806494
_cell_angle_alpha   90.57770521
_cell_angle_beta   90.00000000
_cell_angle_gamma   90.00000000
_symmetry_Int_Tables_number   1
_chemical_formula_structural   TbYLuThNi4
_chemical_formula_sum   'Tb1 Y1 Lu1 Th1 Ni4'
_cell_volume   161.50814647
_cell_formula_units_Z   1
loop_
 _symmetry_equiv_pos_site_id
 _symmetry_equiv_pos_as_xyz
  1  'x, y, z'
loop_
 _atom_site_type_symbol
 _atom_site_label
 _atom_site_symmetry_multiplicity
 _atom_site_fract_x
 _atom_site_fract_y
 _atom_site_fract_z
 _atom_site_occupancy
  Tb  Tb0  1  0.000000  0.110921  0.686838  1
  Y  Y1  1  0.500000  0.612797  0.820230  1
  Lu  Lu2  1  0.000000  0.887594  0.177446  1
  Th  Th3  1  0.500000  0.388824  0.316533  1
  Ni  Ni4  1  0.000000  0.623447  0.528923  1
  Ni  Ni5  1  0.000000  0.380493  0.045268  1
  Ni  Ni6  1  0.500000  0.883691  0.452803  1
  Ni  Ni7  1  0.500000  0.112232  0.971961  1
