# generated using pymatgen
data_Ho4ErVReO12
_symmetry_space_group_name_H-M   'P 1'
_cell_length_a   6.76241623
_cell_length_b   6.76241710
_cell_length_c   7.42635704
_cell_angle_alpha   73.89804322
_cell_angle_beta   73.89803697
_cell_angle_gamma   50.21799523
_symmetry_Int_Tables_number   1
_chemical_formula_structural   Ho4ErVReO12
_chemical_formula_sum   'Ho4 Er1 V1 Re1 O12'
_cell_volume   248.44106438
_cell_formula_units_Z   1
loop_
 _symmetry_equiv_pos_site_id
 _symmetry_equiv_pos_as_xyz
  1  'x, y, z'
loop_
 _atom_site_type_symbol
 _atom_site_label
 _atom_site_symmetry_multiplicity
 _atom_site_fract_x
 _atom_site_fract_y
 _atom_site_fract_z
 _atom_site_occupancy
  Ho  Ho0  1  0.709174  0.681519  0.640288  1
  Ho  Ho1  1  0.318481  0.290826  0.359712  1
  Ho  Ho2  1  0.686687  0.684859  0.176702  1
  Ho  Ho3  1  0.315141  0.313313  0.823298  1
  Er  Er4  1  0.007061  0.992939  0.500000  1
  V  V5  1  0.767748  0.232252  0.000000  1
  Re  Re6  1  0.217790  0.782210  0.000000  1
  O  O7  1  0.998766  0.003715  0.198948  1
  O  O8  1  0.996285  0.001234  0.801052  1
  O  O9  1  0.571128  0.091146  0.083920  1
  O  O10  1  0.410808  0.906465  0.917252  1
  O  O11  1  0.908854  0.428872  0.916080  1
  O  O12  1  0.093535  0.589192  0.082748  1
  O  O13  1  0.488690  0.510650  0.181820  1
  O  O14  1  0.489350  0.511310  0.818180  1
  O  O15  1  0.407252  0.895236  0.430125  1
  O  O16  1  0.598186  0.089702  0.578017  1
  O  O17  1  0.104764  0.592748  0.569875  1
  O  O18  1  0.910298  0.401814  0.421983  1
