# generated using pymatgen
data_LaPr3(Al8Pt3)3
_symmetry_space_group_name_H-M   'P 1'
_cell_length_a   7.57023269
_cell_length_b   7.59061794
_cell_length_c   13.38474443
_cell_angle_alpha   84.85168164
_cell_angle_beta   100.60104983
_cell_angle_gamma   119.65054817
_symmetry_Int_Tables_number   1
_chemical_formula_structural   LaPr3(Al8Pt3)3
_chemical_formula_sum   'La1 Pr3 Al24 Pt9'
_cell_volume   657.00487988
_cell_formula_units_Z   1
loop_
 _symmetry_equiv_pos_site_id
 _symmetry_equiv_pos_as_xyz
  1  'x, y, z'
loop_
 _atom_site_type_symbol
 _atom_site_label
 _atom_site_symmetry_multiplicity
 _atom_site_fract_x
 _atom_site_fract_y
 _atom_site_fract_z
 _atom_site_occupancy
  La  La0  1  0.231783  0.498048  0.192261  1
  Pr  Pr1  1  0.437152  0.830973  0.808112  1
  Pr  Pr2  1  0.562848  0.169039  0.192002  1
  Pr  Pr3  1  0.768725  0.502058  0.808224  1
  Al  Al4  1  0.479508  0.166231  0.945909  1
  Al  Al5  1  0.520964  0.834325  0.053688  1
  Al  Al6  1  0.020716  0.167316  0.559328  1
  Al  Al7  1  0.978807  0.832337  0.440837  1
  Al  Al8  1  0.354464  0.834210  0.557234  1
  Al  Al9  1  0.646066  0.166739  0.442491  1
  Al  Al10  1  0.621042  0.835344  0.333977  1
  Al  Al11  1  0.380267  0.165821  0.666649  1
  Al  Al12  1  0.055228  0.493224  0.665729  1
  Al  Al13  1  0.943644  0.506629  0.334694  1
  Al  Al14  1  0.730746  0.840921  0.664986  1
  Al  Al15  1  0.269336  0.157988  0.335766  1
  Al  Al16  1  0.147827  0.497021  0.946524  1
  Al  Al17  1  0.851446  0.502484  0.053003  1
  Al  Al18  1  0.819682  0.834657  0.956208  1
  Al  Al19  1  0.180145  0.164569  0.043416  1
  Al  Al20  1  0.314021  0.500683  0.442535  1
  Al  Al21  1  0.686353  0.499223  0.557949  1
  Al  Al22  1  0.101105  0.838021  0.184005  1
  Al  Al23  1  0.899011  0.163928  0.815737  1
  Al  Al24  1  0.304510  0.366915  0.814543  1
  Al  Al25  1  0.697280  0.633151  0.185236  1
  Al  Al26  1  0.102416  0.961905  0.815240  1
  Al  Al27  1  0.895861  0.036815  0.184640  1
  Pt  Pt28  1  0.384884  0.505401  0.635941  1
  Pt  Pt29  1  0.614494  0.494973  0.363905  1
  Pt  Pt30  1  0.171089  0.829322  0.999592  1
  Pt  Pt31  1  0.828725  0.170279  0.000254  1
  Pt  Pt32  1  0.292895  0.832445  0.363465  1
  Pt  Pt33  1  0.706438  0.166489  0.636357  1
  Pt  Pt34  1  0.047041  0.828155  0.634857  1
  Pt  Pt35  1  0.953552  0.172454  0.364946  1
  Pt  Pt36  1  0.499929  0.499905  0.999758  1
