# generated using pymatgen
data_Au2(ICl)3
_symmetry_space_group_name_H-M   'P 1'
_cell_length_a   21.18080700
_cell_length_b   6.80969741
_cell_length_c   9.46352836
_cell_angle_alpha   63.97422600
_cell_angle_beta   90.00000000
_cell_angle_gamma   90.00000000
_symmetry_Int_Tables_number   1
_chemical_formula_structural   Au2(ICl)3
_chemical_formula_sum   'Au8 I12 Cl12'
_cell_volume   1226.55846170
_cell_formula_units_Z   4
loop_
 _symmetry_equiv_pos_site_id
 _symmetry_equiv_pos_as_xyz
  1  'x, y, z'
loop_
 _atom_site_type_symbol
 _atom_site_label
 _atom_site_symmetry_multiplicity
 _atom_site_fract_x
 _atom_site_fract_y
 _atom_site_fract_z
 _atom_site_occupancy
  Au  Au0  1  0.709935  0.627045  0.216124  1
  Au  Au1  1  0.209935  0.372955  0.283876  1
  Au  Au2  1  0.290065  0.372955  0.783876  1
  Au  Au3  1  0.790065  0.627045  0.716124  1
  Au  Au4  1  0.536069  0.741785  0.240252  1
  Au  Au5  1  0.036069  0.258215  0.259748  1
  Au  Au6  1  0.463931  0.258215  0.759748  1
  Au  Au7  1  0.963931  0.741785  0.740252  1
  I  I8  1  0.767614  0.276409  0.210367  1
  I  I9  1  0.267614  0.723591  0.289633  1
  I  I10  1  0.232386  0.723591  0.789633  1
  I  I11  1  0.732386  0.276409  0.710367  1
  I  I12  1  0.816629  0.834475  0.208064  1
  I  I13  1  0.316629  0.165525  0.291936  1
  I  I14  1  0.183371  0.165525  0.791936  1
  I  I15  1  0.683371  0.834475  0.708064  1
  I  I16  1  0.898400  0.415497  0.736132  1
  I  I17  1  0.398400  0.584503  0.763868  1
  I  I18  1  0.101600  0.584503  0.263868  1
  I  I19  1  0.601600  0.415497  0.236132  1
  Cl  Cl20  1  0.056121  0.548709  0.770492  1
  Cl  Cl21  1  0.556121  0.451291  0.729508  1
  Cl  Cl22  1  0.943879  0.451291  0.229508  1
  Cl  Cl23  1  0.443879  0.548709  0.270492  1
  Cl  Cl24  1  0.019740  0.037894  0.739475  1
  Cl  Cl25  1  0.519740  0.962106  0.760525  1
  Cl  Cl26  1  0.980260  0.962106  0.260525  1
  Cl  Cl27  1  0.480260  0.037894  0.239475  1
  Cl  Cl28  1  0.865657  0.923349  0.711715  1
  Cl  Cl29  1  0.365657  0.076651  0.788285  1
  Cl  Cl30  1  0.134343  0.076651  0.288285  1
  Cl  Cl31  1  0.634343  0.923349  0.211715  1
