# generated using pymatgen
data_Ba4Ca8Mo3WN16
_symmetry_space_group_name_H-M   'P 1'
_cell_length_a   9.43601826
_cell_length_b   10.27186607
_cell_length_c   11.76135196
_cell_angle_alpha   90.04570393
_cell_angle_beta   89.99236987
_cell_angle_gamma   90.02552973
_symmetry_Int_Tables_number   1
_chemical_formula_structural   Ba4Ca8Mo3WN16
_chemical_formula_sum   'Ba8 Ca16 Mo6 W2 N32'
_cell_volume   1139.97461909
_cell_formula_units_Z   2
loop_
 _symmetry_equiv_pos_site_id
 _symmetry_equiv_pos_as_xyz
  1  'x, y, z'
loop_
 _atom_site_type_symbol
 _atom_site_label
 _atom_site_symmetry_multiplicity
 _atom_site_fract_x
 _atom_site_fract_y
 _atom_site_fract_z
 _atom_site_occupancy
  Ba  Ba0  1  0.182648  0.738014  0.877276  1
  Ba  Ba1  1  0.817352  0.261986  0.122724  1
  Ba  Ba2  1  0.318052  0.239726  0.122189  1
  Ba  Ba3  1  0.817205  0.761602  0.377911  1
  Ba  Ba4  1  0.681948  0.760274  0.877811  1
  Ba  Ba5  1  0.182795  0.238398  0.622089  1
  Ba  Ba6  1  0.683363  0.262234  0.621508  1
  Ba  Ba7  1  0.316637  0.737766  0.378492  1
  Ca  Ca8  1  0.032645  0.621530  0.603736  1
  Ca  Ca9  1  0.967355  0.378470  0.396264  1
  Ca  Ca10  1  0.467309  0.121415  0.396325  1
  Ca  Ca11  1  0.966383  0.878116  0.103514  1
  Ca  Ca12  1  0.532691  0.878585  0.603675  1
  Ca  Ca13  1  0.033617  0.121884  0.896486  1
  Ca  Ca14  1  0.532461  0.378846  0.896080  1
  Ca  Ca15  1  0.467539  0.621154  0.103920  1
  Ca  Ca16  1  0.378881  0.540948  0.630131  1
  Ca  Ca17  1  0.621119  0.459052  0.369869  1
  Ca  Ca18  1  0.121196  0.040991  0.369773  1
  Ca  Ca19  1  0.622260  0.958926  0.131031  1
  Ca  Ca20  1  0.878804  0.959009  0.630227  1
  Ca  Ca21  1  0.377740  0.041074  0.868969  1
  Ca  Ca22  1  0.878939  0.458527  0.869780  1
  Ca  Ca23  1  0.121061  0.541473  0.130220  1
  Mo  Mo24  1  0.199415  0.902519  0.611560  1
  Mo  Mo25  1  0.800585  0.097481  0.388440  1
  Mo  Mo26  1  0.300537  0.402287  0.388524  1
  Mo  Mo27  1  0.800591  0.597444  0.111637  1
  Mo  Mo28  1  0.699463  0.597713  0.611476  1
  Mo  Mo29  1  0.199409  0.402556  0.888363  1
  W  W30  1  0.699299  0.097303  0.888101  1
  W  W31  1  0.300701  0.902697  0.111899  1
  N  N32  1  0.303224  0.760748  0.667031  1
  N  N33  1  0.696776  0.239252  0.332969  1
  N  N34  1  0.196599  0.260754  0.332749  1
  N  N35  1  0.697335  0.739350  0.167541  1
  N  N36  1  0.803401  0.739246  0.667251  1
  N  N37  1  0.302665  0.260650  0.832459  1
  N  N38  1  0.803783  0.239288  0.832041  1
  N  N39  1  0.196217  0.760712  0.167959  1
  N  N40  1  0.321723  0.510771  0.972367  1
  N  N41  1  0.678277  0.489229  0.027633  1
  N  N42  1  0.178758  0.011026  0.027136  1
  N  N43  1  0.678740  0.989168  0.472524  1
  N  N44  1  0.821242  0.988974  0.972864  1
  N  N45  1  0.321260  0.010832  0.527476  1
  N  N46  1  0.821409  0.489189  0.527453  1
  N  N47  1  0.178591  0.510811  0.472547  1
  N  N48  1  0.110825  0.495461  0.769335  1
  N  N49  1  0.889175  0.504539  0.230665  1
  N  N50  1  0.389740  0.996102  0.231066  1
  N  N51  1  0.888825  0.004550  0.269159  1
  N  N52  1  0.610260  0.003898  0.768934  1
  N  N53  1  0.111175  0.995450  0.730841  1
  N  N54  1  0.610760  0.505167  0.730698  1
  N  N55  1  0.389240  0.494833  0.269302  1
  N  N56  1  0.059689  0.843437  0.509524  1
  N  N57  1  0.940311  0.156563  0.490476  1
  N  N58  1  0.440120  0.343419  0.490670  1
  N  N59  1  0.940061  0.656344  0.009438  1
  N  N60  1  0.559880  0.656581  0.509330  1
  N  N61  1  0.059939  0.343656  0.990562  1
  N  N62  1  0.559390  0.157327  0.990210  1
  N  N63  1  0.440610  0.842673  0.009790  1
