# generated using pymatgen
data_CrB3Ru2W3
_symmetry_space_group_name_H-M   'P 1'
_cell_length_a   3.02975600
_cell_length_b   6.37677600
_cell_length_c   10.66876400
_cell_angle_alpha   90.00000000
_cell_angle_beta   90.00000000
_cell_angle_gamma   90.00000000
_symmetry_Int_Tables_number   1
_chemical_formula_structural   CrB3Ru2W3
_chemical_formula_sum   'Cr2 B6 Ru4 W6'
_cell_volume   206.12132434
_cell_formula_units_Z   2
loop_
 _symmetry_equiv_pos_site_id
 _symmetry_equiv_pos_as_xyz
  1  'x, y, z'
loop_
 _atom_site_type_symbol
 _atom_site_label
 _atom_site_symmetry_multiplicity
 _atom_site_fract_x
 _atom_site_fract_y
 _atom_site_fract_z
 _atom_site_occupancy
  Cr  Cr0  1  0.500000  0.810167  0.250000  1
  Cr  Cr1  1  0.500000  0.189833  0.750000  1
  B  B2  1  0.500000  0.056283  0.088176  1
  B  B3  1  0.500000  0.943717  0.911824  1
  B  B4  1  0.500000  0.056283  0.411824  1
  B  B5  1  0.500000  0.943717  0.588176  1
  B  B6  1  0.000000  0.569523  0.250000  1
  B  B7  1  0.000000  0.430477  0.750000  1
  Ru  Ru8  1  0.500000  0.439496  0.122549  1
  Ru  Ru9  1  0.500000  0.560504  0.877451  1
  Ru  Ru10  1  0.500000  0.439496  0.377451  1
  Ru  Ru11  1  0.500000  0.560504  0.622549  1
  W  W12  1  0.000000  0.208685  0.953745  1
  W  W13  1  0.000000  0.791315  0.046255  1
  W  W14  1  0.000000  0.208685  0.546255  1
  W  W15  1  0.000000  0.791315  0.453745  1
  W  W16  1  0.000000  0.140963  0.250000  1
  W  W17  1  0.000000  0.859037  0.750000  1
