# generated using pymatgen
data_Pa5Nb3Fe15CoP12
_symmetry_space_group_name_H-M   'P 1'
_cell_length_a   12.21135800
_cell_length_b   12.21135729
_cell_length_c   3.73531600
_cell_angle_alpha   90.00000000
_cell_angle_beta   90.00000000
_cell_angle_gamma   119.99999651
_symmetry_Int_Tables_number   1
_chemical_formula_structural   Pa5Nb3Fe15CoP12
_chemical_formula_sum   'Pa5 Nb3 Fe15 Co1 P12'
_cell_volume   482.37622791
_cell_formula_units_Z   1
loop_
 _symmetry_equiv_pos_site_id
 _symmetry_equiv_pos_as_xyz
  1  'x, y, z'
loop_
 _atom_site_type_symbol
 _atom_site_label
 _atom_site_symmetry_multiplicity
 _atom_site_fract_x
 _atom_site_fract_y
 _atom_site_fract_z
 _atom_site_occupancy
  Pa  Pa0  1  0.813013  0.000000  0.500000  1
  Pa  Pa1  1  0.000000  0.813013  0.500000  1
  Pa  Pa2  1  0.186987  0.186987  0.500000  1
  Pa  Pa3  1  0.333333  0.666667  0.000000  1
  Pa  Pa4  1  0.666667  0.333333  0.000000  1
  Nb  Nb5  1  0.431773  0.000000  0.000000  1
  Nb  Nb6  1  0.000000  0.431773  0.000000  1
  Nb  Nb7  1  0.568227  0.568227  0.000000  1
  Fe  Fe8  1  0.275507  0.000000  0.500000  1
  Fe  Fe9  1  0.000000  0.275507  0.500000  1
  Fe  Fe10  1  0.724493  0.724493  0.500000  1
  Fe  Fe11  1  0.629560  0.811841  0.000000  1
  Fe  Fe12  1  0.188159  0.817720  0.000000  1
  Fe  Fe13  1  0.182280  0.370440  0.000000  1
  Fe  Fe14  1  0.370440  0.182280  0.000000  1
  Fe  Fe15  1  0.811841  0.629560  0.000000  1
  Fe  Fe16  1  0.817720  0.188159  0.000000  1
  Fe  Fe17  1  0.512930  0.873390  0.500000  1
  Fe  Fe18  1  0.126610  0.639540  0.500000  1
  Fe  Fe19  1  0.360460  0.487070  0.500000  1
  Fe  Fe20  1  0.487070  0.360460  0.500000  1
  Fe  Fe21  1  0.873390  0.512930  0.500000  1
  Fe  Fe22  1  0.639540  0.126610  0.500000  1
  Co  Co23  1  0.000000  0.000000  0.000000  1
  P  P24  1  0.181780  0.000000  0.000000  1
  P  P25  1  0.000000  0.181780  0.000000  1
  P  P26  1  0.818220  0.818220  0.000000  1
  P  P27  1  0.527256  0.696424  0.500000  1
  P  P28  1  0.303576  0.830832  0.500000  1
  P  P29  1  0.169168  0.472744  0.500000  1
  P  P30  1  0.472744  0.169168  0.500000  1
  P  P31  1  0.696424  0.527256  0.500000  1
  P  P32  1  0.830832  0.303576  0.500000  1
  P  P33  1  0.635195  0.000000  0.000000  1
  P  P34  1  0.000000  0.635195  0.000000  1
  P  P35  1  0.364805  0.364805  0.000000  1
