# generated using pymatgen
data_Rb8Na4YHo3Sb8
_symmetry_space_group_name_H-M   'P 1'
_cell_length_a   11.33978225
_cell_length_b   11.33978075
_cell_length_c   7.48321814
_cell_angle_alpha   90.01653782
_cell_angle_beta   89.98346590
_cell_angle_gamma   98.48699407
_symmetry_Int_Tables_number   1
_chemical_formula_structural   Rb8Na4YHo3Sb8
_chemical_formula_sum   'Rb8 Na4 Y1 Ho3 Sb8'
_cell_volume   951.73431027
_cell_formula_units_Z   1
loop_
 _symmetry_equiv_pos_site_id
 _symmetry_equiv_pos_as_xyz
  1  'x, y, z'
loop_
 _atom_site_type_symbol
 _atom_site_label
 _atom_site_symmetry_multiplicity
 _atom_site_fract_x
 _atom_site_fract_y
 _atom_site_fract_z
 _atom_site_occupancy
  Rb  Rb0  1  0.070709  0.429354  0.250065  1
  Rb  Rb1  1  0.429354  0.070709  0.749935  1
  Rb  Rb2  1  0.929224  0.570740  0.750005  1
  Rb  Rb3  1  0.570740  0.929224  0.249995  1
  Rb  Rb4  1  0.676341  0.323679  0.215841  1
  Rb  Rb5  1  0.823594  0.176340  0.715794  1
  Rb  Rb6  1  0.323679  0.676341  0.784159  1
  Rb  Rb7  1  0.176340  0.823594  0.284206  1
  Na  Na8  1  0.382509  0.382509  0.000000  1
  Na  Na9  1  0.117580  0.117580  0.500000  1
  Na  Na10  1  0.617592  0.617592  0.000000  1
  Na  Na11  1  0.882384  0.882384  0.500000  1
  Y  Y12  1  0.131045  0.131045  0.000000  1
  Ho  Ho13  1  0.369283  0.369283  0.500000  1
  Ho  Ho14  1  0.868975  0.868975  0.000000  1
  Ho  Ho15  1  0.630864  0.630864  0.500000  1
  Sb  Sb16  1  0.846388  0.653603  0.249975  1
  Sb  Sb17  1  0.653603  0.846388  0.750025  1
  Sb  Sb18  1  0.153745  0.347209  0.749029  1
  Sb  Sb19  1  0.347209  0.153745  0.250971  1
  Sb  Sb20  1  0.898785  0.100045  0.211953  1
  Sb  Sb21  1  0.600351  0.399659  0.711335  1
  Sb  Sb22  1  0.100045  0.898785  0.788047  1
  Sb  Sb23  1  0.399659  0.600351  0.288665  1
