# generated using pymatgen
data_DyErRh6
_symmetry_space_group_name_H-M   'P 1'
_cell_length_a   5.24841500
_cell_length_b   5.24841499
_cell_length_c   17.59039800
_cell_angle_alpha   90.00000000
_cell_angle_beta   90.00000000
_cell_angle_gamma   119.99999374
_symmetry_Int_Tables_number   1
_chemical_formula_structural   DyErRh6
_chemical_formula_sum   'Dy3 Er3 Rh18'
_cell_volume   419.62626209
_cell_formula_units_Z   3
loop_
 _symmetry_equiv_pos_site_id
 _symmetry_equiv_pos_as_xyz
  1  'x, y, z'
loop_
 _atom_site_type_symbol
 _atom_site_label
 _atom_site_symmetry_multiplicity
 _atom_site_fract_x
 _atom_site_fract_y
 _atom_site_fract_z
 _atom_site_occupancy
  Dy  Dy0  1  0.333333  0.666666  0.041566  1
  Dy  Dy1  1  0.333333  0.666666  0.250152  1
  Dy  Dy2  1  0.666667  0.333334  0.749983  1
  Er  Er3  1  0.333333  0.666666  0.458235  1
  Er  Er4  1  0.666667  0.333334  0.541755  1
  Er  Er5  1  0.666667  0.333334  0.957979  1
  Rh  Rh6  1  0.000000  0.000000  0.999917  1
  Rh  Rh7  1  0.334480  0.167240  0.125565  1
  Rh  Rh8  1  0.832759  0.167240  0.125565  1
  Rh  Rh9  1  0.832760  0.665520  0.125565  1
  Rh  Rh10  1  0.000000  0.000000  0.250032  1
  Rh  Rh11  1  0.666667  0.333334  0.250042  1
  Rh  Rh12  1  0.334562  0.167281  0.374773  1
  Rh  Rh13  1  0.832718  0.167281  0.374773  1
  Rh  Rh14  1  0.832719  0.665438  0.374773  1
  Rh  Rh15  1  0.000000  0.000000  0.499992  1
  Rh  Rh16  1  0.167343  0.334686  0.625226  1
  Rh  Rh17  1  0.167344  0.832657  0.625226  1
  Rh  Rh18  1  0.665314  0.832657  0.625226  1
  Rh  Rh19  1  0.000000  0.000000  0.749901  1
  Rh  Rh20  1  0.333333  0.666666  0.749973  1
  Rh  Rh21  1  0.167222  0.334443  0.874595  1
  Rh  Rh22  1  0.167223  0.832778  0.874595  1
  Rh  Rh23  1  0.665557  0.832778  0.874595  1
