# generated using pymatgen
data_Y2HoGaCo3
_symmetry_space_group_name_H-M   'P 1'
_cell_length_a   5.37784835
_cell_length_b   5.37784890
_cell_length_c   12.81458400
_cell_angle_alpha   90.00000000
_cell_angle_beta   90.00000000
_cell_angle_gamma   134.77991705
_symmetry_Int_Tables_number   1
_chemical_formula_structural   Y2HoGaCo3
_chemical_formula_sum   'Y4 Ho2 Ga2 Co6'
_cell_volume   263.06827083
_cell_formula_units_Z   2
loop_
 _symmetry_equiv_pos_site_id
 _symmetry_equiv_pos_as_xyz
  1  'x, y, z'
loop_
 _atom_site_type_symbol
 _atom_site_label
 _atom_site_symmetry_multiplicity
 _atom_site_fract_x
 _atom_site_fract_y
 _atom_site_fract_z
 _atom_site_occupancy
  Y  Y0  1  0.706739  0.293261  0.603014  1
  Y  Y1  1  0.293261  0.706739  0.396986  1
  Y  Y2  1  0.293261  0.706739  0.103014  1
  Y  Y3  1  0.706739  0.293261  0.896986  1
  Ho  Ho4  1  0.002542  0.997458  0.250000  1
  Ho  Ho5  1  0.997458  0.002542  0.750000  1
  Ga  Ga6  1  0.000000  0.000000  0.000000  1
  Ga  Ga7  1  0.000000  0.000000  0.500000  1
  Co  Co8  1  0.696462  0.303538  0.250000  1
  Co  Co9  1  0.303538  0.696462  0.750000  1
  Co  Co10  1  0.418773  0.581227  0.596276  1
  Co  Co11  1  0.581227  0.418773  0.403724  1
  Co  Co12  1  0.581227  0.418773  0.096276  1
  Co  Co13  1  0.418773  0.581227  0.903724  1
