# generated using pymatgen
data_Ca3Ho(Si3Pd5)4
_symmetry_space_group_name_H-M   'P 1'
_cell_length_a   4.03402000
_cell_length_b   19.73175800
_cell_length_c   7.31437546
_cell_angle_alpha   89.93475043
_cell_angle_beta   90.00000000
_cell_angle_gamma   90.00000000
_symmetry_Int_Tables_number   1
_chemical_formula_structural   Ca3Ho(Si3Pd5)4
_chemical_formula_sum   'Ca3 Ho1 Si12 Pd20'
_cell_volume   582.21152148
_cell_formula_units_Z   1
loop_
 _symmetry_equiv_pos_site_id
 _symmetry_equiv_pos_as_xyz
  1  'x, y, z'
loop_
 _atom_site_type_symbol
 _atom_site_label
 _atom_site_symmetry_multiplicity
 _atom_site_fract_x
 _atom_site_fract_y
 _atom_site_fract_z
 _atom_site_occupancy
  Ca  Ca0  1  0.750000  0.643061  0.122702  1
  Ca  Ca1  1  0.250000  0.356318  0.877379  1
  Ca  Ca2  1  0.250000  0.857308  0.622937  1
  Ho  Ho3  1  0.750000  0.144131  0.376856  1
  Si  Si4  1  0.750000  0.739460  0.628931  1
  Si  Si5  1  0.250000  0.259438  0.370799  1
  Si  Si6  1  0.250000  0.760730  0.128930  1
  Si  Si7  1  0.750000  0.239268  0.871489  1
  Si  Si8  1  0.750000  0.923527  0.348284  1
  Si  Si9  1  0.250000  0.076906  0.647908  1
  Si  Si10  1  0.250000  0.576476  0.848798  1
  Si  Si11  1  0.750000  0.423264  0.151539  1
  Si  Si12  1  0.750000  0.916564  0.908145  1
  Si  Si13  1  0.250000  0.084336  0.097999  1
  Si  Si14  1  0.250000  0.583762  0.407234  1
  Si  Si15  1  0.750000  0.415699  0.591657  1
  Pd  Pd16  1  0.750000  0.799508  0.327267  1
  Pd  Pd17  1  0.250000  0.199270  0.669670  1
  Pd  Pd18  1  0.250000  0.700119  0.827765  1
  Pd  Pd19  1  0.750000  0.299482  0.172784  1
  Pd  Pd20  1  0.750000  0.992832  0.625681  1
  Pd  Pd21  1  0.250000  0.008034  0.374117  1
  Pd  Pd22  1  0.250000  0.506768  0.125881  1
  Pd  Pd23  1  0.750000  0.493199  0.873954  1
  Pd  Pd24  1  0.750000  0.512430  0.377158  1
  Pd  Pd25  1  0.250000  0.487326  0.622734  1
  Pd  Pd26  1  0.250000  0.988522  0.877142  1
  Pd  Pd27  1  0.750000  0.012944  0.123170  1
  Pd  Pd28  1  0.750000  0.796556  0.932393  1
  Pd  Pd29  1  0.250000  0.203333  0.069141  1
  Pd  Pd30  1  0.250000  0.703696  0.433100  1
  Pd  Pd31  1  0.750000  0.296080  0.568825  1
  Pd  Pd32  1  0.750000  0.616517  0.642456  1
  Pd  Pd33  1  0.250000  0.383056  0.356812  1
  Pd  Pd34  1  0.250000  0.883766  0.143385  1
  Pd  Pd35  1  0.750000  0.116313  0.854978  1
