# generated using pymatgen
data_DyLuCuSi3
_symmetry_space_group_name_H-M   'P 1'
_cell_length_a   7.95684750
_cell_length_b   7.95804509
_cell_length_c   5.62667078
_cell_angle_alpha   69.28414178
_cell_angle_beta   69.41868875
_cell_angle_gamma   41.40890247
_symmetry_Int_Tables_number   1
_chemical_formula_structural   DyLuCuSi3
_chemical_formula_sum   'Dy2 Lu2 Cu2 Si6'
_cell_volume   218.26987539
_cell_formula_units_Z   2
loop_
 _symmetry_equiv_pos_site_id
 _symmetry_equiv_pos_as_xyz
  1  'x, y, z'
loop_
 _atom_site_type_symbol
 _atom_site_label
 _atom_site_symmetry_multiplicity
 _atom_site_fract_x
 _atom_site_fract_y
 _atom_site_fract_z
 _atom_site_occupancy
  Dy  Dy0  1  0.744174  0.255826  0.744175  1
  Dy  Dy1  1  0.749648  0.750352  0.749649  1
  Lu  Lu2  1  0.249727  0.250273  0.249728  1
  Lu  Lu3  1  0.255032  0.744968  0.255033  1
  Cu  Cu4  1  0.837558  0.829537  0.168213  1
  Cu  Cu5  1  0.168213  0.164693  0.837558  1
  Si  Si6  1  0.839608  0.329164  0.161158  1
  Si  Si7  1  0.669637  0.160960  0.328085  1
  Si  Si8  1  0.667496  0.670790  0.329664  1
  Si  Si9  1  0.329663  0.332052  0.667497  1
  Si  Si10  1  0.328085  0.841319  0.669637  1
  Si  Si11  1  0.161158  0.670072  0.839607  1
