# generated using pymatgen
data_Gd2Si6(Pd6Pt)3
_symmetry_space_group_name_H-M   'P 1'
_cell_length_a   8.68213035
_cell_length_b   8.68212990
_cell_length_c   8.68213000
_cell_angle_alpha   60.08999139
_cell_angle_beta   60.08998549
_cell_angle_gamma   60.08998848
_symmetry_Int_Tables_number   1
_chemical_formula_structural   Gd2Si6(Pd6Pt)3
_chemical_formula_sum   'Gd2 Si6 Pd18 Pt3'
_cell_volume   463.71221650
_cell_formula_units_Z   1
loop_
 _symmetry_equiv_pos_site_id
 _symmetry_equiv_pos_as_xyz
  1  'x, y, z'
loop_
 _atom_site_type_symbol
 _atom_site_label
 _atom_site_symmetry_multiplicity
 _atom_site_fract_x
 _atom_site_fract_y
 _atom_site_fract_z
 _atom_site_occupancy
  Gd  Gd0  1  0.749878  0.749878  0.749878  1
  Gd  Gd1  1  0.249307  0.249307  0.249307  1
  Si  Si2  1  0.734559  0.734559  0.264667  1
  Si  Si3  1  0.267208  0.733289  0.267208  1
  Si  Si4  1  0.733289  0.267208  0.267208  1
  Si  Si5  1  0.267208  0.267208  0.733289  1
  Si  Si6  1  0.734559  0.264667  0.734559  1
  Si  Si7  1  0.264667  0.734559  0.734559  1
  Pd  Pd8  1  0.999651  0.999651  0.999651  1
  Pd  Pd9  1  0.615155  0.615155  0.615155  1
  Pd  Pd10  1  0.384203  0.384203  0.850911  1
  Pd  Pd11  1  0.384203  0.850911  0.384203  1
  Pd  Pd12  1  0.850911  0.384203  0.384203  1
  Pd  Pd13  1  0.382287  0.382287  0.382287  1
  Pd  Pd14  1  0.999885  0.999885  0.343033  1
  Pd  Pd15  1  0.656056  0.000226  0.343073  1
  Pd  Pd16  1  0.000226  0.656056  0.343073  1
  Pd  Pd17  1  0.656056  0.343073  0.000226  1
  Pd  Pd18  1  0.999885  0.343033  0.999885  1
  Pd  Pd19  1  0.000226  0.343073  0.656056  1
  Pd  Pd20  1  0.343073  0.656056  0.000226  1
  Pd  Pd21  1  0.343073  0.000226  0.656056  1
  Pd  Pd22  1  0.343033  0.999885  0.999885  1
  Pd  Pd23  1  0.000602  0.000602  0.655092  1
  Pd  Pd24  1  0.000602  0.655092  0.000602  1
  Pd  Pd25  1  0.655092  0.000602  0.000602  1
  Pt  Pt26  1  0.614828  0.614828  0.155449  1
  Pt  Pt27  1  0.614828  0.155449  0.614828  1
  Pt  Pt28  1  0.155449  0.614828  0.614828  1
