# generated using pymatgen
data_YbPr3DyRu2
_symmetry_space_group_name_H-M   'P 1'
_cell_length_a   8.80941798
_cell_length_b   8.80942036
_cell_length_c   7.30468986
_cell_angle_alpha   84.02663650
_cell_angle_beta   84.02664318
_cell_angle_gamma   44.04370643
_symmetry_Int_Tables_number   1
_chemical_formula_structural   YbPr3DyRu2
_chemical_formula_sum   'Yb2 Pr6 Dy2 Ru4'
_cell_volume   391.61259159
_cell_formula_units_Z   2
loop_
 _symmetry_equiv_pos_site_id
 _symmetry_equiv_pos_as_xyz
  1  'x, y, z'
loop_
 _atom_site_type_symbol
 _atom_site_label
 _atom_site_symmetry_multiplicity
 _atom_site_fract_x
 _atom_site_fract_y
 _atom_site_fract_z
 _atom_site_occupancy
  Yb  Yb0  1  0.198263  0.982192  0.585068  1
  Yb  Yb1  1  0.017808  0.801737  0.914932  1
  Pr  Pr2  1  0.207803  0.361959  0.311103  1
  Pr  Pr3  1  0.638041  0.792197  0.188897  1
  Pr  Pr4  1  0.791948  0.637395  0.688833  1
  Pr  Pr5  1  0.362605  0.208052  0.811167  1
  Pr  Pr6  1  0.979772  0.202286  0.083629  1
  Pr  Pr7  1  0.797714  0.020228  0.416371  1
  Dy  Dy8  1  0.562191  0.437809  0.750000  1
  Dy  Dy9  1  0.430418  0.569582  0.250000  1
  Ru  Ru10  1  0.185641  0.591825  0.567348  1
  Ru  Ru11  1  0.408175  0.814359  0.932652  1
  Ru  Ru12  1  0.815401  0.395781  0.429221  1
  Ru  Ru13  1  0.604219  0.184599  0.070779  1
