# generated using pymatgen
data_YEr9(SiHg)4
_symmetry_space_group_name_H-M   'P 1'
_cell_length_a   8.70930317
_cell_length_b   8.70176414
_cell_length_c   7.51261987
_cell_angle_alpha   89.94450008
_cell_angle_beta   89.98932394
_cell_angle_gamma   129.01193124
_symmetry_Int_Tables_number   1
_chemical_formula_structural   YEr9(SiHg)4
_chemical_formula_sum   'Y1 Er9 Si4 Hg4'
_cell_volume   442.39584885
_cell_formula_units_Z   1
loop_
 _symmetry_equiv_pos_site_id
 _symmetry_equiv_pos_as_xyz
  1  'x, y, z'
loop_
 _atom_site_type_symbol
 _atom_site_label
 _atom_site_symmetry_multiplicity
 _atom_site_fract_x
 _atom_site_fract_y
 _atom_site_fract_z
 _atom_site_occupancy
  Y  Y0  1  0.052767  0.308004  0.325037  1
  Er  Er1  1  0.947432  0.692545  0.674588  1
  Er  Er2  1  0.447360  0.192769  0.825490  1
  Er  Er3  1  0.807082  0.552456  0.174342  1
  Er  Er4  1  0.552459  0.807076  0.174343  1
  Er  Er5  1  0.193119  0.447770  0.825551  1
  Er  Er6  1  0.692666  0.947265  0.674902  1
  Er  Er7  1  0.306957  0.052448  0.325380  1
  Er  Er8  1  0.000002  0.999572  0.999670  1
  Er  Er9  1  0.500440  0.500119  0.500187  1
  Si  Si10  1  0.379594  0.378801  0.123588  1
  Si  Si11  1  0.621362  0.621279  0.875837  1
  Si  Si12  1  0.121431  0.121121  0.624878  1
  Si  Si13  1  0.878155  0.877780  0.375887  1
  Hg  Hg14  1  0.783121  0.216109  0.999118  1
  Hg  Hg15  1  0.216219  0.783667  0.000027  1
  Hg  Hg16  1  0.715321  0.283676  0.500561  1
  Hg  Hg17  1  0.284513  0.717543  0.500613  1
