# generated using pymatgen
data_Nd4B4I5
_symmetry_space_group_name_H-M   'P 1'
_cell_length_a   9.89672984
_cell_length_b   9.89672935
_cell_length_c   10.16865784
_cell_angle_alpha   73.64429442
_cell_angle_beta   73.64429420
_cell_angle_gamma   25.37093513
_symmetry_Int_Tables_number   1
_chemical_formula_structural   Nd4B4I5
_chemical_formula_sum   'Nd4 B4 I5'
_cell_volume   408.58664162
_cell_formula_units_Z   1
loop_
 _symmetry_equiv_pos_site_id
 _symmetry_equiv_pos_as_xyz
  1  'x, y, z'
loop_
 _atom_site_type_symbol
 _atom_site_label
 _atom_site_symmetry_multiplicity
 _atom_site_fract_x
 _atom_site_fract_y
 _atom_site_fract_z
 _atom_site_occupancy
  Nd  Nd0  1  0.507786  0.507786  0.751279  1
  Nd  Nd1  1  0.493406  0.493406  0.248396  1
  Nd  Nd2  1  0.133129  0.133129  0.934631  1
  Nd  Nd3  1  0.867553  0.867553  0.064356  1
  B  B4  1  0.315116  0.685561  0.999998  1
  B  B5  1  0.685561  0.315116  0.999998  1
  B  B6  1  0.998160  0.998160  0.094687  1
  B  B7  1  0.002347  0.002347  0.905338  1
  I  I8  1  0.680395  0.680395  0.685491  1
  I  I9  1  0.320810  0.320810  0.314762  1
  I  I10  1  0.331199  0.331199  0.850094  1
  I  I11  1  0.670808  0.670808  0.145779  1
  I  I12  1  0.008029  0.008029  0.495392  1
