# generated using pymatgen
data_DyTh2Sc(AsPt)4
_symmetry_space_group_name_H-M   'P 1'
_cell_length_a   4.30183500
_cell_length_b   4.30183578
_cell_length_c   15.36297500
_cell_angle_alpha   90.00000000
_cell_angle_beta   90.00000000
_cell_angle_gamma   120.00000172
_symmetry_Int_Tables_number   1
_chemical_formula_structural   DyTh2Sc(AsPt)4
_chemical_formula_sum   'Dy1 Th2 Sc1 As4 Pt4'
_cell_volume   246.21444216
_cell_formula_units_Z   1
loop_
 _symmetry_equiv_pos_site_id
 _symmetry_equiv_pos_as_xyz
  1  'x, y, z'
loop_
 _atom_site_type_symbol
 _atom_site_label
 _atom_site_symmetry_multiplicity
 _atom_site_fract_x
 _atom_site_fract_y
 _atom_site_fract_z
 _atom_site_occupancy
  Dy  Dy0  1  0.000000  0.000000  0.750000  1
  Th  Th1  1  0.000000  0.000000  0.495519  1
  Th  Th2  1  0.000000  0.000000  0.004481  1
  Sc  Sc3  1  0.000000  0.000000  0.250000  1
  As  As4  1  0.333333  0.666667  0.883322  1
  As  As5  1  0.666667  0.333333  0.121809  1
  As  As6  1  0.666667  0.333333  0.378191  1
  As  As7  1  0.333333  0.666667  0.616678  1
  Pt  Pt8  1  0.333333  0.666667  0.347480  1
  Pt  Pt9  1  0.666667  0.333333  0.639745  1
  Pt  Pt10  1  0.666667  0.333333  0.860255  1
  Pt  Pt11  1  0.333333  0.666667  0.152520  1
