# generated using pymatgen
data_Na4PaBiTe6
_symmetry_space_group_name_H-M   'P 1'
_cell_length_a   7.84535012
_cell_length_b   7.84535091
_cell_length_c   7.93229200
_cell_angle_alpha   80.45086912
_cell_angle_beta   80.45088297
_cell_angle_gamma   120.12896058
_symmetry_Int_Tables_number   1
_chemical_formula_structural   Na4PaBiTe6
_chemical_formula_sum   'Na4 Pa1 Bi1 Te6'
_cell_volume   398.25209580
_cell_formula_units_Z   1
loop_
 _symmetry_equiv_pos_site_id
 _symmetry_equiv_pos_as_xyz
  1  'x, y, z'
loop_
 _atom_site_type_symbol
 _atom_site_label
 _atom_site_symmetry_multiplicity
 _atom_site_fract_x
 _atom_site_fract_y
 _atom_site_fract_z
 _atom_site_occupancy
  Na  Na0  1  0.000116  0.999884  0.000000  1
  Na  Na1  1  0.502890  0.497110  0.500000  1
  Na  Na2  1  0.837203  0.162797  0.500000  1
  Na  Na3  1  0.159684  0.840316  0.500000  1
  Pa  Pa4  1  0.332848  0.667152  0.000000  1
  Bi  Bi5  1  0.668236  0.331764  0.000000  1
  Te  Te6  1  0.266205  0.278393  0.234508  1
  Te  Te7  1  0.423069  0.066487  0.765653  1
  Te  Te8  1  0.089957  0.435326  0.766847  1
  Te  Te9  1  0.721607  0.733795  0.765492  1
  Te  Te10  1  0.564674  0.910043  0.233153  1
  Te  Te11  1  0.933513  0.576931  0.234347  1
