# generated using pymatgen
data_Tm7Lu5Co6Sn
_symmetry_space_group_name_H-M   'P 1'
_cell_length_a   8.21577182
_cell_length_b   8.21375858
_cell_length_c   8.21577136
_cell_angle_alpha   109.34053179
_cell_angle_beta   109.46009719
_cell_angle_gamma   109.62308899
_symmetry_Int_Tables_number   1
_chemical_formula_structural   Tm7Lu5Co6Sn
_chemical_formula_sum   'Tm7 Lu5 Co6 Sn1'
_cell_volume   426.73754098
_cell_formula_units_Z   1
loop_
 _symmetry_equiv_pos_site_id
 _symmetry_equiv_pos_as_xyz
  1  'x, y, z'
loop_
 _atom_site_type_symbol
 _atom_site_label
 _atom_site_symmetry_multiplicity
 _atom_site_fract_x
 _atom_site_fract_y
 _atom_site_fract_z
 _atom_site_occupancy
  Tm  Tm0  1  0.805892  0.698477  0.504031  1
  Tm  Tm1  1  0.194446  0.301632  0.496434  1
  Tm  Tm2  1  0.194448  0.698477  0.892584  1
  Tm  Tm3  1  0.805196  0.301632  0.107186  1
  Tm  Tm4  1  0.698305  0.503657  0.805350  1
  Tm  Tm5  1  0.301492  0.495839  0.194349  1
  Tm  Tm6  1  0.698434  0.892996  0.194562  1
  Lu  Lu7  1  0.302146  0.107588  0.805442  1
  Lu  Lu8  1  0.503080  0.806187  0.697525  1
  Lu  Lu9  1  0.496624  0.194025  0.302309  1
  Lu  Lu10  1  0.108663  0.806187  0.303109  1
  Lu  Lu11  1  0.891715  0.194025  0.697399  1
  Co  Co12  1  0.885071  0.385063  0.499992  1
  Co  Co13  1  0.114940  0.615107  0.500167  1
  Co  Co14  1  0.385271  0.499393  0.885236  1
  Co  Co15  1  0.614157  0.499393  0.114122  1
  Co  Co16  1  0.500006  0.885987  0.385981  1
  Co  Co17  1  0.499775  0.114201  0.614427  1
  Sn  Sn18  1  0.000340  0.000134  0.999794  1
