# generated using pymatgen
data_BaSrLiMn2H17
_symmetry_space_group_name_H-M   'P 1'
_cell_length_a   4.89223440
_cell_length_b   4.89223533
_cell_length_c   9.22368725
_cell_angle_alpha   90.03547671
_cell_angle_beta   89.96452376
_cell_angle_gamma   119.21359681
_symmetry_Int_Tables_number   1
_chemical_formula_structural   BaSrLiMn2H17
_chemical_formula_sum   'Ba1 Sr1 Li1 Mn2 H17'
_cell_volume   192.68012323
_cell_formula_units_Z   1
loop_
 _symmetry_equiv_pos_site_id
 _symmetry_equiv_pos_as_xyz
  1  'x, y, z'
loop_
 _atom_site_type_symbol
 _atom_site_label
 _atom_site_symmetry_multiplicity
 _atom_site_fract_x
 _atom_site_fract_y
 _atom_site_fract_z
 _atom_site_occupancy
  Ba  Ba0  1  0.991609  0.008391  0.492172  1
  Sr  Sr1  1  0.995020  0.004980  0.988074  1
  Li  Li2  1  0.657488  0.342512  0.231616  1
  Mn  Mn3  1  0.318255  0.681745  0.244521  1
  Mn  Mn4  1  0.649909  0.350091  0.759045  1
  H  H5  1  0.522214  0.477786  0.881576  1
  H  H6  1  0.434462  0.565538  0.377473  1
  H  H7  1  0.521584  0.478416  0.639038  1
  H  H8  1  0.483654  0.972861  0.352946  1
  H  H9  1  0.916828  0.481207  0.644849  1
  H  H10  1  0.471584  0.921758  0.114980  1
  H  H11  1  0.920488  0.481193  0.872427  1
  H  H12  1  0.518793  0.083172  0.644849  1
  H  H13  1  0.027139  0.516346  0.352946  1
  H  H14  1  0.518807  0.079512  0.872427  1
  H  H15  1  0.078242  0.528416  0.114980  1
  H  H16  1  0.659127  0.749780  0.210091  1
  H  H17  1  0.806533  0.706686  0.754413  1
  H  H18  1  0.293314  0.193467  0.754413  1
  H  H19  1  0.250220  0.340873  0.210091  1
  H  H20  1  0.135280  0.864720  0.232524  1
  H  H21  1  0.829449  0.170551  0.754548  1
