# generated using pymatgen
data_CeHo7(InRh)2
_symmetry_space_group_name_H-M   'P 1'
_cell_length_a   9.63141235
_cell_length_b   9.63141150
_cell_length_c   9.66671000
_cell_angle_alpha   59.87869757
_cell_angle_beta   59.87870050
_cell_angle_gamma   59.89716239
_symmetry_Int_Tables_number   1
_chemical_formula_structural   CeHo7(InRh)2
_chemical_formula_sum   'Ce2 Ho14 In4 Rh4'
_cell_volume   632.42274228
_cell_formula_units_Z   2
loop_
 _symmetry_equiv_pos_site_id
 _symmetry_equiv_pos_as_xyz
  1  'x, y, z'
loop_
 _atom_site_type_symbol
 _atom_site_label
 _atom_site_symmetry_multiplicity
 _atom_site_fract_x
 _atom_site_fract_y
 _atom_site_fract_z
 _atom_site_occupancy
  Ce  Ce0  1  0.595672  0.595672  0.599282  1
  Ce  Ce1  1  0.595672  0.595672  0.209374  1
  Ho  Ho2  1  0.603057  0.195431  0.600757  1
  Ho  Ho3  1  0.195431  0.603057  0.600757  1
  Ho  Ho4  1  0.061536  0.439540  0.438805  1
  Ho  Ho5  1  0.439540  0.061536  0.060120  1
  Ho  Ho6  1  0.439540  0.061536  0.438805  1
  Ho  Ho7  1  0.061536  0.439540  0.060120  1
  Ho  Ho8  1  0.437776  0.437776  0.062224  1
  Ho  Ho9  1  0.061292  0.061292  0.438708  1
  Ho  Ho10  1  0.187240  0.813603  0.812456  1
  Ho  Ho11  1  0.813603  0.187240  0.186700  1
  Ho  Ho12  1  0.813603  0.187240  0.812456  1
  Ho  Ho13  1  0.187240  0.813603  0.186700  1
  Ho  Ho14  1  0.811604  0.811604  0.188396  1
  Ho  Ho15  1  0.189658  0.189658  0.810342  1
  In  In16  1  0.833319  0.833319  0.834166  1
  In  In17  1  0.833319  0.833319  0.499196  1
  In  In18  1  0.832394  0.500810  0.833398  1
  In  In19  1  0.500810  0.832394  0.833398  1
  Rh  Rh20  1  0.393669  0.393669  0.391892  1
  Rh  Rh21  1  0.393669  0.393669  0.820768  1
  Rh  Rh22  1  0.398223  0.820599  0.390589  1
  Rh  Rh23  1  0.820599  0.398223  0.390589  1
