# generated using pymatgen
data_Dy3Ho7Si5Bi
_symmetry_space_group_name_H-M   'P 1'
_cell_length_a   8.51116600
_cell_length_b   8.55336051
_cell_length_c   6.34758300
_cell_angle_alpha   90.00000000
_cell_angle_beta   90.00000000
_cell_angle_gamma   119.83694838
_symmetry_Int_Tables_number   1
_chemical_formula_structural   Dy3Ho7Si5Bi
_chemical_formula_sum   'Dy3 Ho7 Si5 Bi1'
_cell_volume   400.84462904
_cell_formula_units_Z   1
loop_
 _symmetry_equiv_pos_site_id
 _symmetry_equiv_pos_as_xyz
  1  'x, y, z'
loop_
 _atom_site_type_symbol
 _atom_site_label
 _atom_site_symmetry_multiplicity
 _atom_site_fract_x
 _atom_site_fract_y
 _atom_site_fract_z
 _atom_site_occupancy
  Dy  Dy0  1  0.998511  0.243312  0.250000  1
  Dy  Dy1  1  0.755200  0.756688  0.250000  1
  Dy  Dy2  1  0.240106  0.000000  0.250000  1
  Ho  Ho3  1  0.984682  0.745060  0.750000  1
  Ho  Ho4  1  0.767836  0.000000  0.750000  1
  Ho  Ho5  1  0.239623  0.254940  0.750000  1
  Ho  Ho6  1  0.330802  0.654097  0.494994  1
  Ho  Ho7  1  0.676706  0.345903  0.005006  1
  Ho  Ho8  1  0.676706  0.345903  0.494994  1
  Ho  Ho9  1  0.330802  0.654097  0.005006  1
  Si  Si10  1  0.393377  0.390987  0.250000  1
  Si  Si11  1  0.002390  0.609013  0.250000  1
  Si  Si12  1  0.998818  0.394517  0.750000  1
  Si  Si13  1  0.604301  0.605483  0.750000  1
  Si  Si14  1  0.606912  0.000000  0.250000  1
  Bi  Bi15  1  0.393228  0.000000  0.750000  1
