# generated using pymatgen
data_Pr16Tm4Ir11Pt
_symmetry_space_group_name_H-M   'P 1'
_cell_length_a   11.28210883
_cell_length_b   11.28210883
_cell_length_c   6.55565676
_cell_angle_alpha   90.05947134
_cell_angle_beta   90.05947134
_cell_angle_gamma   89.77724305
_symmetry_Int_Tables_number   1
_chemical_formula_structural   Pr16Tm4Ir11Pt
_chemical_formula_sum   'Pr16 Tm4 Ir11 Pt1'
_cell_volume   834.43599131
_cell_formula_units_Z   1
loop_
 _symmetry_equiv_pos_site_id
 _symmetry_equiv_pos_as_xyz
  1  'x, y, z'
loop_
 _atom_site_type_symbol
 _atom_site_label
 _atom_site_symmetry_multiplicity
 _atom_site_fract_x
 _atom_site_fract_y
 _atom_site_fract_z
 _atom_site_occupancy
  Pr  Pr0  1  0.288083  0.087326  0.381277  1
  Pr  Pr1  1  0.288587  0.912351  0.880471  1
  Pr  Pr2  1  0.709829  0.086174  0.876580  1
  Pr  Pr3  1  0.710197  0.909817  0.381771  1
  Pr  Pr4  1  0.586990  0.787909  0.882280  1
  Pr  Pr5  1  0.584506  0.212790  0.382328  1
  Pr  Pr6  1  0.412363  0.788013  0.381359  1
  Pr  Pr7  1  0.412565  0.212092  0.881707  1
  Pr  Pr8  1  0.212091  0.413010  0.617720  1
  Pr  Pr9  1  0.211987  0.587637  0.118641  1
  Pr  Pr10  1  0.787210  0.415494  0.117672  1
  Pr  Pr11  1  0.787908  0.587435  0.618293  1
  Pr  Pr12  1  0.912674  0.711917  0.118723  1
  Pr  Pr13  1  0.913826  0.290171  0.623420  1
  Pr  Pr14  1  0.087649  0.711413  0.619529  1
  Pr  Pr15  1  0.090183  0.289803  0.118229  1
  Tm  Tm16  1  0.001529  0.998403  0.501500  1
  Tm  Tm17  1  0.001597  0.998471  0.998500  1
  Tm  Tm18  1  0.499879  0.500052  0.999745  1
  Tm  Tm19  1  0.499948  0.500121  0.500255  1
  Ir  Ir20  1  0.853863  0.854483  0.749889  1
  Ir  Ir21  1  0.145517  0.146137  0.750111  1
  Ir  Ir22  1  0.146103  0.853897  0.250000  1
  Ir  Ir23  1  0.647154  0.352846  0.750000  1
  Ir  Ir24  1  0.646690  0.646625  0.250164  1
  Ir  Ir25  1  0.353375  0.353310  0.249836  1
  Ir  Ir26  1  0.353331  0.646669  0.750000  1
  Ir  Ir27  1  0.500575  0.000130  0.117595  1
  Ir  Ir28  1  0.500287  0.000156  0.616720  1
  Ir  Ir29  1  0.999844  0.499713  0.883280  1
  Ir  Ir30  1  0.999870  0.499425  0.382405  1
  Pt  Pt31  1  0.853792  0.146208  0.250000  1
