# generated using pymatgen
data_CsSb12Ir3Os
_symmetry_space_group_name_H-M   'P 1'
_cell_length_a   8.21207220
_cell_length_b   8.21207161
_cell_length_c   8.21207105
_cell_angle_alpha   109.48155157
_cell_angle_beta   109.48154931
_cell_angle_gamma   109.48153349
_symmetry_Int_Tables_number   1
_chemical_formula_structural   CsSb12Ir3Os
_chemical_formula_sum   'Cs1 Sb12 Ir3 Os1'
_cell_volume   426.15754071
_cell_formula_units_Z   1
loop_
 _symmetry_equiv_pos_site_id
 _symmetry_equiv_pos_as_xyz
  1  'x, y, z'
loop_
 _atom_site_type_symbol
 _atom_site_label
 _atom_site_symmetry_multiplicity
 _atom_site_fract_x
 _atom_site_fract_y
 _atom_site_fract_z
 _atom_site_occupancy
  Cs  Cs0  1  0.000000  0.000000  0.000000  1
  Sb  Sb1  1  0.156100  0.811958  0.655509  1
  Sb  Sb2  1  0.158793  0.499984  0.344290  1
  Sb  Sb3  1  0.500016  0.655710  0.841207  1
  Sb  Sb4  1  0.344491  0.843900  0.188042  1
  Sb  Sb5  1  0.811958  0.655509  0.156100  1
  Sb  Sb6  1  0.655710  0.841207  0.500016  1
  Sb  Sb7  1  0.188042  0.344491  0.843900  1
  Sb  Sb8  1  0.655509  0.156100  0.811958  1
  Sb  Sb9  1  0.344290  0.158793  0.499984  1
  Sb  Sb10  1  0.499984  0.344290  0.158793  1
  Sb  Sb11  1  0.841207  0.500016  0.655710  1
  Sb  Sb12  1  0.843900  0.188042  0.344491  1
  Ir  Ir13  1  0.000000  0.000000  0.500000  1
  Ir  Ir14  1  0.500000  0.000000  0.000000  1
  Ir  Ir15  1  0.000000  0.500000  0.000000  1
  Os  Os16  1  0.500000  0.500000  0.500000  1
