# generated using pymatgen
data_Nd3Sm5(OsBr4)2
_symmetry_space_group_name_H-M   'P 1'
_cell_length_a   9.28802273
_cell_length_b   9.31423500
_cell_length_c   6.65747990
_cell_angle_alpha   89.68110525
_cell_angle_beta   89.45888866
_cell_angle_gamma   89.39407243
_symmetry_Int_Tables_number   1
_chemical_formula_structural   Nd3Sm5(OsBr4)2
_chemical_formula_sum   'Nd3 Sm5 Os2 Br8'
_cell_volume   575.87759386
_cell_formula_units_Z   1
loop_
 _symmetry_equiv_pos_site_id
 _symmetry_equiv_pos_as_xyz
  1  'x, y, z'
loop_
 _atom_site_type_symbol
 _atom_site_label
 _atom_site_symmetry_multiplicity
 _atom_site_fract_x
 _atom_site_fract_y
 _atom_site_fract_z
 _atom_site_occupancy
  Nd  Nd0  1  0.747871  0.099976  0.994795  1
  Nd  Nd1  1  0.099816  0.748165  0.493988  1
  Nd  Nd2  1  0.095944  0.250605  0.997733  1
  Sm  Sm3  1  0.246785  0.094184  0.496559  1
  Sm  Sm4  1  0.903537  0.753982  0.007631  1
  Sm  Sm5  1  0.902182  0.246799  0.511027  1
  Sm  Sm6  1  0.247587  0.903255  0.009966  1
  Sm  Sm7  1  0.753620  0.903014  0.508212  1
  Os  Os8  1  0.997275  0.002181  0.253015  1
  Os  Os9  1  0.002460  0.997270  0.751921  1
  Br  Br10  1  0.589038  0.181279  0.567074  1
  Br  Br11  1  0.814407  0.591726  0.424092  1
  Br  Br12  1  0.408045  0.181743  0.075409  1
  Br  Br13  1  0.184567  0.404842  0.567198  1
  Br  Br14  1  0.592042  0.813607  0.924273  1
  Br  Br15  1  0.414819  0.820609  0.426277  1
  Br  Br16  1  0.183282  0.591011  0.063996  1
  Br  Br17  1  0.816724  0.415752  0.926833  1
