# generated using pymatgen
data_TbNdTc5(PRh)7
_symmetry_space_group_name_H-M   'P 1'
_cell_length_a   3.95300700
_cell_length_b   9.49327577
_cell_length_c   9.52367065
_cell_angle_alpha   119.61675718
_cell_angle_beta   89.99937835
_cell_angle_gamma   90.00190505
_symmetry_Int_Tables_number   1
_chemical_formula_structural   TbNdTc5(PRh)7
_chemical_formula_sum   'Tb1 Nd1 Tc5 P7 Rh7'
_cell_volume   310.70119356
_cell_formula_units_Z   1
loop_
 _symmetry_equiv_pos_site_id
 _symmetry_equiv_pos_as_xyz
  1  'x, y, z'
loop_
 _atom_site_type_symbol
 _atom_site_label
 _atom_site_symmetry_multiplicity
 _atom_site_fract_x
 _atom_site_fract_y
 _atom_site_fract_z
 _atom_site_occupancy
  Tb  Tb0  1  0.762002  0.333360  0.666510  1
  Nd  Nd1  1  0.261997  0.668058  0.333219  1
  Tc  Tc2  1  0.761953  0.093779  0.871936  1
  Tc  Tc3  1  0.761861  0.126113  0.217973  1
  Tc  Tc4  1  0.761902  0.781967  0.906862  1
  Tc  Tc5  1  0.261879  0.886752  0.159409  1
  Tc  Tc6  1  0.261947  0.841580  0.727601  1
  P  P7  1  0.261638  0.996747  0.997627  1
  P  P8  1  0.761915  0.884335  0.602414  1
  P  P9  1  0.761842  0.399339  0.287089  1
  P  P10  1  0.761866  0.719157  0.117553  1
  P  P11  1  0.261938  0.114501  0.410564  1
  P  P12  1  0.261950  0.587941  0.703236  1
  P  P13  1  0.261901  0.295754  0.882551  1
  Rh  Rh14  1  0.261887  0.271219  0.111811  1
  Rh  Rh15  1  0.761915  0.607374  0.560266  1
  Rh  Rh16  1  0.761922  0.439548  0.051021  1
  Rh  Rh17  1  0.761910  0.951530  0.392915  1
  Rh  Rh18  1  0.261898  0.367014  0.434871  1
  Rh  Rh19  1  0.261944  0.563092  0.931154  1
  Rh  Rh20  1  0.261934  0.070839  0.633420  1
