# generated using pymatgen
data_Er12Si12Tc3Rh
_symmetry_space_group_name_H-M   'P 1'
_cell_length_a   4.14273500
_cell_length_b   10.78372698
_cell_length_c   12.34194423
_cell_angle_alpha   90.16325255
_cell_angle_beta   90.00000000
_cell_angle_gamma   90.00000000
_symmetry_Int_Tables_number   1
_chemical_formula_structural   Er12Si12Tc3Rh
_chemical_formula_sum   'Er12 Si12 Tc3 Rh1'
_cell_volume   551.36329925
_cell_formula_units_Z   1
loop_
 _symmetry_equiv_pos_site_id
 _symmetry_equiv_pos_as_xyz
  1  'x, y, z'
loop_
 _atom_site_type_symbol
 _atom_site_label
 _atom_site_symmetry_multiplicity
 _atom_site_fract_x
 _atom_site_fract_y
 _atom_site_fract_z
 _atom_site_occupancy
  Er  Er0  1  0.250000  0.878887  0.020456  1
  Er  Er1  1  0.250000  0.622963  0.520482  1
  Er  Er2  1  0.750000  0.121389  0.980723  1
  Er  Er3  1  0.750000  0.379338  0.480512  1
  Er  Er4  1  0.250000  0.922434  0.605337  1
  Er  Er5  1  0.250000  0.577012  0.105155  1
  Er  Er6  1  0.750000  0.077374  0.394381  1
  Er  Er7  1  0.750000  0.422325  0.893181  1
  Er  Er8  1  0.250000  0.665482  0.799533  1
  Er  Er9  1  0.250000  0.834817  0.299042  1
  Er  Er10  1  0.750000  0.335434  0.200613  1
  Er  Er11  1  0.750000  0.159568  0.699920  1
  Si  Si12  1  0.250000  0.013971  0.823232  1
  Si  Si13  1  0.250000  0.487573  0.322053  1
  Si  Si14  1  0.750000  0.986291  0.178152  1
  Si  Si15  1  0.750000  0.515306  0.678653  1
  Si  Si16  1  0.250000  0.248692  0.842466  1
  Si  Si17  1  0.250000  0.248765  0.344422  1
  Si  Si18  1  0.750000  0.748919  0.155434  1
  Si  Si19  1  0.750000  0.751515  0.657024  1
  Si  Si20  1  0.250000  0.198879  0.542223  1
  Si  Si21  1  0.250000  0.301107  0.041471  1
  Si  Si22  1  0.750000  0.803014  0.458160  1
  Si  Si23  1  0.750000  0.697423  0.957790  1
  Tc  Tc24  1  0.250000  0.391069  0.680940  1
  Tc  Tc25  1  0.250000  0.110018  0.179569  1
  Tc  Tc26  1  0.750000  0.611477  0.319503  1
  Rh  Rh27  1  0.750000  0.888956  0.819576  1
