# generated using pymatgen
data_Er10AlHgBi4
_symmetry_space_group_name_H-M   'P 1'
_cell_length_a   8.87180800
_cell_length_b   8.87180714
_cell_length_c   6.39647400
_cell_angle_alpha   90.00000000
_cell_angle_beta   90.00000000
_cell_angle_gamma   120.21598507
_symmetry_Int_Tables_number   1
_chemical_formula_structural   Er10AlHgBi4
_chemical_formula_sum   'Er10 Al1 Hg1 Bi4'
_cell_volume   435.05701380
_cell_formula_units_Z   1
loop_
 _symmetry_equiv_pos_site_id
 _symmetry_equiv_pos_as_xyz
  1  'x, y, z'
loop_
 _atom_site_type_symbol
 _atom_site_label
 _atom_site_symmetry_multiplicity
 _atom_site_fract_x
 _atom_site_fract_y
 _atom_site_fract_z
 _atom_site_occupancy
  Er  Er0  1  0.656707  0.342529  0.998706  1
  Er  Er1  1  0.342529  0.656707  0.998706  1
  Er  Er2  1  0.342529  0.656707  0.501294  1
  Er  Er3  1  0.656707  0.342529  0.501294  1
  Er  Er4  1  0.753775  0.753775  0.750000  1
  Er  Er5  1  0.243139  0.016469  0.750000  1
  Er  Er6  1  0.016469  0.243139  0.750000  1
  Er  Er7  1  0.241504  0.241504  0.250000  1
  Er  Er8  1  0.757016  0.987136  0.250000  1
  Er  Er9  1  0.987136  0.757016  0.250000  1
  Al  Al10  1  0.397761  0.397761  0.750000  1
  Hg  Hg11  1  0.603272  0.603272  0.250000  1
  Bi  Bi12  1  0.612252  0.007283  0.750000  1
  Bi  Bi13  1  0.007283  0.612252  0.750000  1
  Bi  Bi14  1  0.388331  0.993594  0.250000  1
  Bi  Bi15  1  0.993594  0.388331  0.250000  1
