# generated using pymatgen
data_La5Pr5Si8N3
_symmetry_space_group_name_H-M   'P 1'
_cell_length_a   11.06154200
_cell_length_b   11.04249683
_cell_length_c   4.62463800
_cell_angle_alpha   90.00000000
_cell_angle_beta   90.00000000
_cell_angle_gamma   120.05707557
_symmetry_Int_Tables_number   1
_chemical_formula_structural   La5Pr5Si8N3
_chemical_formula_sum   'La5 Pr5 Si8 N3'
_cell_volume   488.92389970
_cell_formula_units_Z   1
loop_
 _symmetry_equiv_pos_site_id
 _symmetry_equiv_pos_as_xyz
  1  'x, y, z'
loop_
 _atom_site_type_symbol
 _atom_site_label
 _atom_site_symmetry_multiplicity
 _atom_site_fract_x
 _atom_site_fract_y
 _atom_site_fract_z
 _atom_site_occupancy
  La  La0  1  0.226078  0.805153  0.000000  1
  La  La1  1  0.229628  0.427607  0.000000  1
  La  La2  1  0.802024  0.572393  0.000000  1
  La  La3  1  0.420926  0.194847  0.000000  1
  La  La4  1  0.000539  0.000000  0.000000  1
  Pr  Pr5  1  0.514014  0.000000  0.500000  1
  Pr  Pr6  1  0.577615  0.777072  0.000000  1
  Pr  Pr7  1  0.016051  0.505487  0.500000  1
  Pr  Pr8  1  0.800544  0.222928  0.000000  1
  Pr  Pr9  1  0.510565  0.494513  0.500000  1
  Si  Si10  1  0.664642  0.328154  0.500000  1
  Si  Si11  1  0.001020  0.783718  0.500000  1
  Si  Si12  1  0.336488  0.671846  0.500000  1
  Si  Si13  1  0.217301  0.216282  0.500000  1
  Si  Si14  1  0.785643  0.783357  0.500000  1
  Si  Si15  1  0.786523  0.000000  0.500000  1
  Si  Si16  1  0.212892  0.000000  0.500000  1
  Si  Si17  1  0.002286  0.216643  0.500000  1
  N  N18  1  0.475573  0.521031  0.000000  1
  N  N19  1  0.465107  0.000000  0.000000  1
  N  N20  1  0.954541  0.478969  0.000000  1
