# generated using pymatgen
data_Pr3(CdAu2)2
_symmetry_space_group_name_H-M   'P 1'
_cell_length_a   8.02507670
_cell_length_b   8.02507756
_cell_length_c   3.96403200
_cell_angle_alpha   90.00000000
_cell_angle_beta   90.00000000
_cell_angle_gamma   119.58016498
_symmetry_Int_Tables_number   1
_chemical_formula_structural   Pr3(CdAu2)2
_chemical_formula_sum   'Pr3 Cd2 Au4'
_cell_volume   222.01791016
_cell_formula_units_Z   1
loop_
 _symmetry_equiv_pos_site_id
 _symmetry_equiv_pos_as_xyz
  1  'x, y, z'
loop_
 _atom_site_type_symbol
 _atom_site_label
 _atom_site_symmetry_multiplicity
 _atom_site_fract_x
 _atom_site_fract_y
 _atom_site_fract_z
 _atom_site_occupancy
  Pr  Pr0  1  0.418160  0.418160  0.500000  1
  Pr  Pr1  1  0.985970  0.603862  0.500000  1
  Pr  Pr2  1  0.603862  0.985970  0.500000  1
  Cd  Cd3  1  0.263390  0.004842  0.000000  1
  Cd  Cd4  1  0.004842  0.263390  0.000000  1
  Au  Au5  1  0.665529  0.320782  0.000000  1
  Au  Au6  1  0.007966  0.007966  0.500000  1
  Au  Au7  1  0.320782  0.665529  0.000000  1
  Au  Au8  1  0.729498  0.729498  0.000000  1
