# generated using pymatgen
data_Li6LuNb5Rh12
_symmetry_space_group_name_H-M   'P 1'
_cell_length_a   4.40247300
_cell_length_b   6.16026500
_cell_length_c   13.18046400
_cell_angle_alpha   90.00000000
_cell_angle_beta   90.00093365
_cell_angle_gamma   90.00000000
_symmetry_Int_Tables_number   1
_chemical_formula_structural   Li6LuNb5Rh12
_chemical_formula_sum   'Li6 Lu1 Nb5 Rh12'
_cell_volume   357.45946026
_cell_formula_units_Z   1
loop_
 _symmetry_equiv_pos_site_id
 _symmetry_equiv_pos_as_xyz
  1  'x, y, z'
loop_
 _atom_site_type_symbol
 _atom_site_label
 _atom_site_symmetry_multiplicity
 _atom_site_fract_x
 _atom_site_fract_y
 _atom_site_fract_z
 _atom_site_occupancy
  Li  Li0  1  0.000000  0.499999  0.000000  1
  Li  Li1  1  0.499914  0.000000  0.168504  1
  Li  Li2  1  0.999967  0.499999  0.335581  1
  Li  Li3  1  0.500001  0.000000  0.500000  1
  Li  Li4  1  0.000033  0.499999  0.664418  1
  Li  Li5  1  0.500088  0.000000  0.831495  1
  Lu  Lu6  1  0.000000  0.000000  0.000000  1
  Nb  Nb7  1  0.499919  0.499999  0.167494  1
  Nb  Nb8  1  0.999926  0.000000  0.334851  1
  Nb  Nb9  1  0.500001  0.499999  0.500000  1
  Nb  Nb10  1  0.000074  0.000000  0.665148  1
  Nb  Nb11  1  0.500083  0.499999  0.832507  1
  Rh  Rh12  1  0.500001  0.263006  0.000000  1
  Rh  Rh13  1  0.500001  0.736994  0.000000  1
  Rh  Rh14  1  0.999912  0.255520  0.174744  1
  Rh  Rh15  1  0.999912  0.744480  0.174744  1
  Rh  Rh16  1  0.499934  0.249348  0.335729  1
  Rh  Rh17  1  0.499934  0.750652  0.335729  1
  Rh  Rh18  1  0.000000  0.251222  0.500000  1
  Rh  Rh19  1  0.000000  0.748778  0.500000  1
  Rh  Rh20  1  0.500065  0.249348  0.664271  1
  Rh  Rh21  1  0.500065  0.750652  0.664271  1
  Rh  Rh22  1  0.000087  0.255520  0.825255  1
  Rh  Rh23  1  0.000087  0.744480  0.825255  1
