# generated using pymatgen
data_Ag3PtF12
_symmetry_space_group_name_H-M   'P 1'
_cell_length_a   5.46189647
_cell_length_b   5.70691759
_cell_length_c   8.12153135
_cell_angle_alpha   95.24526994
_cell_angle_beta   88.19131110
_cell_angle_gamma   90.63013299
_symmetry_Int_Tables_number   1
_chemical_formula_structural   Ag3PtF12
_chemical_formula_sum   'Ag3 Pt1 F12'
_cell_volume   251.95889918
_cell_formula_units_Z   1
loop_
 _symmetry_equiv_pos_site_id
 _symmetry_equiv_pos_as_xyz
  1  'x, y, z'
loop_
 _atom_site_type_symbol
 _atom_site_label
 _atom_site_symmetry_multiplicity
 _atom_site_fract_x
 _atom_site_fract_y
 _atom_site_fract_z
 _atom_site_occupancy
  Ag  Ag0  1  0.000000  0.000000  0.000000  1
  Ag  Ag1  1  0.500000  0.500000  0.500000  1
  Ag  Ag2  1  0.000000  0.000000  0.500000  1
  Pt  Pt3  1  0.500000  0.500000  0.000000  1
  F  F4  1  0.922347  0.000031  0.758031  1
  F  F5  1  0.188771  0.324509  0.552054  1
  F  F6  1  0.218089  0.653542  0.916047  1
  F  F7  1  0.332577  0.491392  0.213367  1
  F  F8  1  0.358774  0.191924  0.929483  1
  F  F9  1  0.324825  0.810345  0.535290  1
  F  F10  1  0.675175  0.189655  0.464710  1
  F  F11  1  0.641226  0.808076  0.070517  1
  F  F12  1  0.667423  0.508608  0.786633  1
  F  F13  1  0.781911  0.346458  0.083953  1
  F  F14  1  0.811229  0.675491  0.447946  1
  F  F15  1  0.077653  0.999969  0.241969  1
