# generated using pymatgen
data_Nd4Er2CoCl10
_symmetry_space_group_name_H-M   'P 1'
_cell_length_a   7.30094484
_cell_length_b   9.05475206
_cell_length_c   9.12356700
_cell_angle_alpha   108.83746330
_cell_angle_beta   107.24563106
_cell_angle_gamma   95.87900816
_symmetry_Int_Tables_number   1
_chemical_formula_structural   Nd4Er2CoCl10
_chemical_formula_sum   'Nd4 Er2 Co1 Cl10'
_cell_volume   531.91277061
_cell_formula_units_Z   1
loop_
 _symmetry_equiv_pos_site_id
 _symmetry_equiv_pos_as_xyz
  1  'x, y, z'
loop_
 _atom_site_type_symbol
 _atom_site_label
 _atom_site_symmetry_multiplicity
 _atom_site_fract_x
 _atom_site_fract_y
 _atom_site_fract_z
 _atom_site_occupancy
  Nd  Nd0  1  0.133427  0.761080  0.054119  1
  Nd  Nd1  1  0.628767  0.807335  0.849864  1
  Nd  Nd2  1  0.870186  0.240037  0.951261  1
  Nd  Nd3  1  0.979744  0.106614  0.313086  1
  Er  Er4  1  0.360324  0.181229  0.135119  1
  Er  Er5  1  0.027876  0.902995  0.701887  1
  Co  Co6  1  0.998988  0.998719  0.001547  1
  Cl  Cl7  1  0.440164  0.077662  0.830270  1
  Cl  Cl8  1  0.757534  0.549286  0.923058  1
  Cl  Cl9  1  0.252253  0.441761  0.082431  1
  Cl  Cl10  1  0.919352  0.158395  0.637217  1
  Cl  Cl11  1  0.665478  0.734709  0.542469  1
  Cl  Cl12  1  0.546565  0.929242  0.169556  1
  Cl  Cl13  1  0.089108  0.837996  0.380443  1
  Cl  Cl14  1  0.768400  0.338250  0.246474  1
  Cl  Cl15  1  0.193369  0.658333  0.739346  1
  Cl  Cl16  1  0.368465  0.276356  0.441851  1
