# generated using pymatgen
data_Y4Ga18(CoPd)3
_symmetry_space_group_name_H-M   'P 1'
_cell_length_a   7.53939388
_cell_length_b   7.53939423
_cell_length_c   9.50169583
_cell_angle_alpha   90.12527970
_cell_angle_beta   90.12527726
_cell_angle_gamma   119.74497390
_symmetry_Int_Tables_number   1
_chemical_formula_structural   Y4Ga18(CoPd)3
_chemical_formula_sum   'Y4 Ga18 Co3 Pd3'
_cell_volume   468.93305683
_cell_formula_units_Z   1
loop_
 _symmetry_equiv_pos_site_id
 _symmetry_equiv_pos_as_xyz
  1  'x, y, z'
loop_
 _atom_site_type_symbol
 _atom_site_label
 _atom_site_symmetry_multiplicity
 _atom_site_fract_x
 _atom_site_fract_y
 _atom_site_fract_z
 _atom_site_occupancy
  Y  Y0  1  0.668811  0.997040  0.749816  1
  Y  Y1  1  0.331603  0.003471  0.250822  1
  Y  Y2  1  0.996529  0.668397  0.749178  1
  Y  Y3  1  0.002960  0.331189  0.250184  1
  Ga  Ga4  1  0.011408  0.666174  0.077555  1
  Ga  Ga5  1  0.674295  0.011005  0.427107  1
  Ga  Ga6  1  0.992249  0.665884  0.427294  1
  Ga  Ga7  1  0.009940  0.343279  0.922576  1
  Ga  Ga8  1  0.656721  0.990060  0.077424  1
  Ga  Ga9  1  0.333826  0.988592  0.922445  1
  Ga  Ga10  1  0.675845  0.669372  0.560203  1
  Ga  Ga11  1  0.334649  0.342075  0.064460  1
  Ga  Ga12  1  0.657925  0.665351  0.935540  1
  Ga  Ga13  1  0.330628  0.324155  0.439797  1
  Ga  Ga14  1  0.124456  0.124900  0.741999  1
  Ga  Ga15  1  0.875100  0.875544  0.258001  1
  Ga  Ga16  1  0.662174  0.452892  0.258564  1
  Ga  Ga17  1  0.337231  0.547032  0.755670  1
  Ga  Ga18  1  0.452968  0.662769  0.244330  1
  Ga  Ga19  1  0.547108  0.337826  0.741436  1
  Ga  Ga20  1  0.334116  0.007751  0.572706  1
  Ga  Ga21  1  0.988995  0.325705  0.572893  1
  Co  Co22  1  0.330233  0.669767  0.000000  1
  Co  Co23  1  0.670239  0.329761  0.500000  1
  Co  Co24  1  0.999507  0.000493  0.500000  1
  Pd  Pd25  1  0.671122  0.328878  0.000000  1
  Pd  Pd26  1  0.328916  0.671084  0.500000  1
  Pd  Pd27  1  0.000446  0.999554  0.000000  1
