# generated using pymatgen
data_Hf2NbSb3
_symmetry_space_group_name_H-M   'P 1'
_cell_length_a   5.44230371
_cell_length_b   5.44230373
_cell_length_c   13.71982600
_cell_angle_alpha   90.00000000
_cell_angle_beta   90.00000000
_cell_angle_gamma   138.72078755
_symmetry_Int_Tables_number   1
_chemical_formula_structural   Hf2NbSb3
_chemical_formula_sum   'Hf4 Nb2 Sb6'
_cell_volume   268.08947634
_cell_formula_units_Z   2
loop_
 _symmetry_equiv_pos_site_id
 _symmetry_equiv_pos_as_xyz
  1  'x, y, z'
loop_
 _atom_site_type_symbol
 _atom_site_label
 _atom_site_symmetry_multiplicity
 _atom_site_fract_x
 _atom_site_fract_y
 _atom_site_fract_z
 _atom_site_occupancy
  Hf  Hf0  1  0.930959  0.069041  0.612327  1
  Hf  Hf1  1  0.069041  0.930959  0.387673  1
  Hf  Hf2  1  0.069041  0.930959  0.112327  1
  Hf  Hf3  1  0.930959  0.069041  0.887673  1
  Nb  Nb4  1  0.391690  0.608310  0.250000  1
  Nb  Nb5  1  0.608310  0.391690  0.750000  1
  Sb  Sb6  1  0.683598  0.316402  0.250000  1
  Sb  Sb7  1  0.316402  0.683598  0.750000  1
  Sb  Sb8  1  0.641801  0.358199  0.548643  1
  Sb  Sb9  1  0.358199  0.641801  0.451357  1
  Sb  Sb10  1  0.358199  0.641801  0.048643  1
  Sb  Sb11  1  0.641801  0.358199  0.951357  1
