# generated using pymatgen
data_Hf10SiSn6Au
_symmetry_space_group_name_H-M   'P 1'
_cell_length_a   8.65883400
_cell_length_b   8.65883518
_cell_length_c   5.85239000
_cell_angle_alpha   90.00000000
_cell_angle_beta   90.00000000
_cell_angle_gamma   120.00000312
_symmetry_Int_Tables_number   1
_chemical_formula_structural   Hf10SiSn6Au
_chemical_formula_sum   'Hf10 Si1 Sn6 Au1'
_cell_volume   379.99927193
_cell_formula_units_Z   1
loop_
 _symmetry_equiv_pos_site_id
 _symmetry_equiv_pos_as_xyz
  1  'x, y, z'
loop_
 _atom_site_type_symbol
 _atom_site_label
 _atom_site_symmetry_multiplicity
 _atom_site_fract_x
 _atom_site_fract_y
 _atom_site_fract_z
 _atom_site_occupancy
  Hf  Hf0  1  0.731136  0.731136  0.764752  1
  Hf  Hf1  1  0.268864  0.000000  0.764752  1
  Hf  Hf2  1  0.000000  0.268864  0.764752  1
  Hf  Hf3  1  0.268864  0.268864  0.235248  1
  Hf  Hf4  1  0.731136  0.000000  0.235248  1
  Hf  Hf5  1  0.000000  0.731136  0.235248  1
  Hf  Hf6  1  0.666667  0.333333  0.000000  1
  Hf  Hf7  1  0.333333  0.666667  0.000000  1
  Hf  Hf8  1  0.333333  0.666667  0.500000  1
  Hf  Hf9  1  0.666667  0.333333  0.500000  1
  Si  Si10  1  0.000000  0.000000  0.000000  1
  Sn  Sn11  1  0.387890  0.387890  0.743980  1
  Sn  Sn12  1  0.612110  0.000000  0.743980  1
  Sn  Sn13  1  0.000000  0.612110  0.743980  1
  Sn  Sn14  1  0.612110  0.612110  0.256020  1
  Sn  Sn15  1  0.387890  0.000000  0.256020  1
  Sn  Sn16  1  0.000000  0.387890  0.256020  1
  Au  Au17  1  0.000000  0.000000  0.500000  1
