# generated using pymatgen
data_Ho2Sc3Si7(Pt2Rh)3
_symmetry_space_group_name_H-M   'P 1'
_cell_length_a   10.06002600
_cell_length_b   10.06002543
_cell_length_c   3.92245200
_cell_angle_alpha   90.00000000
_cell_angle_beta   90.00000000
_cell_angle_gamma   119.99999529
_symmetry_Int_Tables_number   1
_chemical_formula_structural   Ho2Sc3Si7(Pt2Rh)3
_chemical_formula_sum   'Ho2 Sc3 Si7 Pt6 Rh3'
_cell_volume   343.78464230
_cell_formula_units_Z   1
loop_
 _symmetry_equiv_pos_site_id
 _symmetry_equiv_pos_as_xyz
  1  'x, y, z'
loop_
 _atom_site_type_symbol
 _atom_site_label
 _atom_site_symmetry_multiplicity
 _atom_site_fract_x
 _atom_site_fract_y
 _atom_site_fract_z
 _atom_site_occupancy
  Ho  Ho0  1  0.000000  0.000000  0.000000  1
  Ho  Ho1  1  0.333333  0.666667  0.500000  1
  Sc  Sc2  1  0.894399  0.455217  0.500000  1
  Sc  Sc3  1  0.560817  0.105601  0.500000  1
  Sc  Sc4  1  0.544783  0.439183  0.500000  1
  Si  Si5  1  0.244624  0.197148  0.500000  1
  Si  Si6  1  0.802852  0.047477  0.500000  1
  Si  Si7  1  0.952523  0.755376  0.500000  1
  Si  Si8  1  0.559470  0.649971  0.000000  1
  Si  Si9  1  0.350029  0.909499  0.000000  1
  Si  Si10  1  0.090501  0.440530  0.000000  1
  Si  Si11  1  0.666667  0.333333  0.000000  1
  Pt  Pt12  1  0.312868  0.410964  0.000000  1
  Pt  Pt13  1  0.589036  0.901904  0.000000  1
  Pt  Pt14  1  0.098096  0.687132  0.000000  1
  Pt  Pt15  1  0.384176  0.173377  0.000000  1
  Pt  Pt16  1  0.826623  0.210799  0.000000  1
  Pt  Pt17  1  0.789201  0.615824  0.000000  1
  Rh  Rh18  1  0.221309  0.938503  0.500000  1
  Rh  Rh19  1  0.061497  0.282808  0.500000  1
  Rh  Rh20  1  0.717192  0.778691  0.500000  1
