# generated using pymatgen
data_Yb3LuMnFe3B16
_symmetry_space_group_name_H-M   'P 1'
_cell_length_a   3.32906200
_cell_length_b   5.88155292
_cell_length_c   11.37543003
_cell_angle_alpha   89.91593849
_cell_angle_beta   90.00000000
_cell_angle_gamma   90.00000000
_symmetry_Int_Tables_number   1
_chemical_formula_structural   Yb3LuMnFe3B16
_chemical_formula_sum   'Yb3 Lu1 Mn1 Fe3 B16'
_cell_volume   222.73129804
_cell_formula_units_Z   1
loop_
 _symmetry_equiv_pos_site_id
 _symmetry_equiv_pos_as_xyz
  1  'x, y, z'
loop_
 _atom_site_type_symbol
 _atom_site_label
 _atom_site_symmetry_multiplicity
 _atom_site_fract_x
 _atom_site_fract_y
 _atom_site_fract_z
 _atom_site_occupancy
  Yb  Yb0  1  0.000000  0.626132  0.350325  1
  Yb  Yb1  1  0.000000  0.373617  0.650241  1
  Yb  Yb2  1  0.000000  0.127271  0.151516  1
  Lu  Lu3  1  0.000000  0.874156  0.848731  1
  Mn  Mn4  1  0.000000  0.630663  0.083387  1
  Fe  Fe5  1  0.000000  0.372156  0.913278  1
  Fe  Fe6  1  0.000000  0.127024  0.417979  1
  Fe  Fe7  1  0.000000  0.872183  0.585893  1
  B  B8  1  0.500000  0.781648  0.183974  1
  B  B9  1  0.500000  0.218849  0.816510  1
  B  B10  1  0.500000  0.278948  0.318242  1
  B  B11  1  0.500000  0.719683  0.683392  1
  B  B12  1  0.500000  0.863209  0.030203  1
  B  B13  1  0.500000  0.138434  0.966605  1
  B  B14  1  0.500000  0.360796  0.468481  1
  B  B15  1  0.500000  0.638865  0.532950  1
  B  B16  1  0.500000  0.887442  0.454660  1
  B  B17  1  0.500000  0.111679  0.547281  1
  B  B18  1  0.500000  0.385839  0.044728  1
  B  B19  1  0.500000  0.611625  0.951096  1
  B  B20  1  0.500000  0.975861  0.310474  1
  B  B21  1  0.500000  0.023839  0.691366  1
  B  B22  1  0.500000  0.474565  0.190516  1
  B  B23  1  0.500000  0.525517  0.808170  1
