# generated using pymatgen
data_Dy4Lu4Ti11Si16Au
_symmetry_space_group_name_H-M   'P 1'
_cell_length_a   7.03607545
_cell_length_b   7.03744811
_cell_length_c   12.83453489
_cell_angle_alpha   89.92966641
_cell_angle_beta   90.10325757
_cell_angle_gamma   89.70241877
_symmetry_Int_Tables_number   1
_chemical_formula_structural   Dy4Lu4Ti11Si16Au
_chemical_formula_sum   'Dy4 Lu4 Ti11 Si16 Au1'
_cell_volume   635.50494374
_cell_formula_units_Z   1
loop_
 _symmetry_equiv_pos_site_id
 _symmetry_equiv_pos_as_xyz
  1  'x, y, z'
loop_
 _atom_site_type_symbol
 _atom_site_label
 _atom_site_symmetry_multiplicity
 _atom_site_fract_x
 _atom_site_fract_y
 _atom_site_fract_z
 _atom_site_occupancy
  Dy  Dy0  1  0.842253  0.498744  0.285403  1
  Dy  Dy1  1  0.503205  0.159625  0.216466  1
  Dy  Dy2  1  0.498569  0.841717  0.714643  1
  Dy  Dy3  1  0.343069  0.999718  0.469092  1
  Lu  Lu4  1  0.998493  0.659076  0.032774  1
  Lu  Lu5  1  0.999202  0.343847  0.531771  1
  Lu  Lu6  1  0.659228  0.998144  0.966649  1
  Lu  Lu7  1  0.158830  0.501693  0.783427  1
  Ti  Ti8  1  0.347988  0.504718  0.376793  1
  Ti  Ti9  1  0.851969  0.992363  0.377308  1
  Ti  Ti10  1  0.007848  0.149585  0.124841  1
  Ti  Ti11  1  0.992905  0.852150  0.623325  1
  Ti  Ti12  1  0.505104  0.349134  0.624016  1
  Ti  Ti13  1  0.149325  0.007900  0.874738  1
  Ti  Ti14  1  0.826043  0.174044  0.749850  1
  Ti  Ti15  1  0.173322  0.825410  0.250048  1
  Ti  Ti16  1  0.326894  0.327344  0.999699  1
  Ti  Ti17  1  0.492854  0.649628  0.124968  1
  Ti  Ti18  1  0.649096  0.493162  0.874308  1
  Si  Si19  1  0.060658  0.711937  0.434539  1
  Si  Si20  1  0.953006  0.293153  0.935079  1
  Si  Si21  1  0.715880  0.063465  0.566272  1
  Si  Si22  1  0.207725  0.454480  0.184447  1
  Si  Si23  1  0.795705  0.544608  0.690222  1
  Si  Si24  1  0.452698  0.208618  0.815480  1
  Si  Si25  1  0.545557  0.792087  0.309445  1
  Si  Si26  1  0.291952  0.951281  0.063964  1
  Si  Si27  1  0.798995  0.866456  0.182655  1
  Si  Si28  1  0.277939  0.624057  0.572137  1
  Si  Si29  1  0.706812  0.368828  0.066524  1
  Si  Si30  1  0.627723  0.282158  0.429892  1
  Si  Si31  1  0.366979  0.705529  0.931801  1
  Si  Si32  1  0.132087  0.202486  0.317337  1
  Si  Si33  1  0.200480  0.135682  0.682711  1
  Si  Si34  1  0.867987  0.797138  0.817366  1
  Au  Au35  1  0.671621  0.670036  0.500010  1
