# generated using pymatgen
data_Cs8Sc2O7
_symmetry_space_group_name_H-M   'P 1'
_cell_length_a   18.83247600
_cell_length_b   7.40114142
_cell_length_c   7.59713623
_cell_angle_alpha   60.61340559
_cell_angle_beta   90.00000000
_cell_angle_gamma   90.00000000
_symmetry_Int_Tables_number   1
_chemical_formula_structural   Cs8Sc2O7
_chemical_formula_sum   'Cs16 Sc4 O14'
_cell_volume   922.65221963
_cell_formula_units_Z   2
loop_
 _symmetry_equiv_pos_site_id
 _symmetry_equiv_pos_as_xyz
  1  'x, y, z'
loop_
 _atom_site_type_symbol
 _atom_site_label
 _atom_site_symmetry_multiplicity
 _atom_site_fract_x
 _atom_site_fract_y
 _atom_site_fract_z
 _atom_site_occupancy
  Cs  Cs0  1  0.992760  0.234665  0.234741  1
  Cs  Cs1  1  0.492760  0.265335  0.765259  1
  Cs  Cs2  1  0.007240  0.765335  0.765259  1
  Cs  Cs3  1  0.507240  0.734665  0.234741  1
  Cs  Cs4  1  0.191366  0.236801  0.217521  1
  Cs  Cs5  1  0.691366  0.263199  0.782479  1
  Cs  Cs6  1  0.808634  0.763199  0.782479  1
  Cs  Cs7  1  0.308634  0.736801  0.217521  1
  Cs  Cs8  1  0.788750  0.213827  0.238784  1
  Cs  Cs9  1  0.288750  0.286173  0.761216  1
  Cs  Cs10  1  0.211250  0.786173  0.761216  1
  Cs  Cs11  1  0.711250  0.713827  0.238784  1
  Cs  Cs12  1  0.914373  0.357818  0.637571  1
  Cs  Cs13  1  0.414373  0.142182  0.362429  1
  Cs  Cs14  1  0.085627  0.642182  0.362429  1
  Cs  Cs15  1  0.585627  0.857818  0.637571  1
  Sc  Sc16  1  0.595112  0.360623  0.139718  1
  Sc  Sc17  1  0.095112  0.139377  0.860282  1
  Sc  Sc18  1  0.404888  0.639377  0.860282  1
  Sc  Sc19  1  0.904888  0.860623  0.139718  1
  O  O20  1  0.500000  0.500000  0.000000  1
  O  O21  1  0.000000  0.000000  0.000000  1
  O  O22  1  0.598600  0.337524  0.413247  1
  O  O23  1  0.098600  0.162476  0.586753  1
  O  O24  1  0.401400  0.662476  0.586753  1
  O  O25  1  0.901400  0.837524  0.413247  1
  O  O26  1  0.325568  0.455553  0.033275  1
  O  O27  1  0.825568  0.044447  0.966725  1
  O  O28  1  0.674432  0.544447  0.966725  1
  O  O29  1  0.174432  0.955553  0.033275  1
  O  O30  1  0.606164  0.084607  0.152772  1
  O  O31  1  0.106164  0.415393  0.847228  1
  O  O32  1  0.393836  0.915393  0.847228  1
  O  O33  1  0.893836  0.584607  0.152772  1
