# generated using pymatgen
data_HoTm2(Ni3P2)3
_symmetry_space_group_name_H-M   'P 1'
_cell_length_a   3.75604400
_cell_length_b   10.44244000
_cell_length_c   12.26650100
_cell_angle_alpha   90.00000000
_cell_angle_beta   90.00000000
_cell_angle_gamma   90.00000000
_symmetry_Int_Tables_number   1
_chemical_formula_structural   HoTm2(Ni3P2)3
_chemical_formula_sum   'Ho2 Tm4 Ni18 P12'
_cell_volume   481.11994190
_cell_formula_units_Z   2
loop_
 _symmetry_equiv_pos_site_id
 _symmetry_equiv_pos_as_xyz
  1  'x, y, z'
loop_
 _atom_site_type_symbol
 _atom_site_label
 _atom_site_symmetry_multiplicity
 _atom_site_fract_x
 _atom_site_fract_y
 _atom_site_fract_z
 _atom_site_occupancy
  Ho  Ho0  1  0.751677  0.000000  0.478360  1
  Ho  Ho1  1  0.251677  0.500000  0.521640  1
  Tm  Tm2  1  0.251881  0.683143  0.794147  1
  Tm  Tm3  1  0.251881  0.316857  0.794147  1
  Tm  Tm4  1  0.751881  0.816857  0.205853  1
  Tm  Tm5  1  0.751881  0.183143  0.205853  1
  Ni  Ni6  1  0.752461  0.000000  0.016728  1
  Ni  Ni7  1  0.252461  0.500000  0.983272  1
  Ni  Ni8  1  0.251762  0.198644  0.572009  1
  Ni  Ni9  1  0.251762  0.801356  0.572009  1
  Ni  Ni10  1  0.751762  0.301356  0.427991  1
  Ni  Ni11  1  0.751762  0.698644  0.427991  1
  Ni  Ni12  1  0.251637  0.621323  0.288308  1
  Ni  Ni13  1  0.251637  0.378677  0.288308  1
  Ni  Ni14  1  0.751637  0.878677  0.711692  1
  Ni  Ni15  1  0.751637  0.121323  0.711692  1
  Ni  Ni16  1  0.252473  0.167192  0.004845  1
  Ni  Ni17  1  0.252473  0.832808  0.004845  1
  Ni  Ni18  1  0.752473  0.332808  0.995155  1
  Ni  Ni19  1  0.752473  0.667192  0.995155  1
  Ni  Ni20  1  0.250225  0.000000  0.842205  1
  Ni  Ni21  1  0.750225  0.500000  0.157795  1
  Ni  Ni22  1  0.251762  0.000000  0.300560  1
  Ni  Ni23  1  0.751762  0.500000  0.699440  1
  P  P24  1  0.251703  0.186800  0.385379  1
  P  P25  1  0.251703  0.813200  0.385379  1
  P  P26  1  0.751703  0.313200  0.614621  1
  P  P27  1  0.751703  0.686800  0.614621  1
  P  P28  1  0.252175  0.000000  0.124623  1
  P  P29  1  0.752175  0.500000  0.875377  1
  P  P30  1  0.251980  0.652763  0.107532  1
  P  P31  1  0.251980  0.347237  0.107532  1
  P  P32  1  0.751980  0.847237  0.892468  1
  P  P33  1  0.751980  0.152763  0.892468  1
  P  P34  1  0.251631  0.000000  0.655984  1
  P  P35  1  0.751631  0.500000  0.344016  1
