# generated using pymatgen
data_DyTh8Se17
_symmetry_space_group_name_H-M   'P 1'
_cell_length_a   8.52611991
_cell_length_b   8.52611931
_cell_length_c   11.41843279
_cell_angle_alpha   80.03593919
_cell_angle_beta   80.03593706
_cell_angle_gamma   64.90773516
_symmetry_Int_Tables_number   1
_chemical_formula_structural   DyTh8Se17
_chemical_formula_sum   'Dy1 Th8 Se17'
_cell_volume   735.74990060
_cell_formula_units_Z   1
loop_
 _symmetry_equiv_pos_site_id
 _symmetry_equiv_pos_as_xyz
  1  'x, y, z'
loop_
 _atom_site_type_symbol
 _atom_site_label
 _atom_site_symmetry_multiplicity
 _atom_site_fract_x
 _atom_site_fract_y
 _atom_site_fract_z
 _atom_site_occupancy
  Dy  Dy0  1  0.000000  0.000000  0.000000  1
  Th  Th1  1  0.185412  0.694864  0.700206  1
  Th  Th2  1  0.694864  0.185412  0.700206  1
  Th  Th3  1  0.814588  0.305136  0.299794  1
  Th  Th4  1  0.305136  0.814588  0.299794  1
  Th  Th5  1  0.793381  0.793381  0.461167  1
  Th  Th6  1  0.206619  0.206619  0.538833  1
  Th  Th7  1  0.319208  0.319208  0.018042  1
  Th  Th8  1  0.680792  0.680792  0.981958  1
  Se  Se9  1  0.177193  0.569630  0.468338  1
  Se  Se10  1  0.569630  0.177193  0.468338  1
  Se  Se11  1  0.822807  0.430370  0.531662  1
  Se  Se12  1  0.430370  0.822807  0.531662  1
  Se  Se13  1  0.055857  0.665974  0.960952  1
  Se  Se14  1  0.665974  0.055857  0.960952  1
  Se  Se15  1  0.944143  0.334026  0.039048  1
  Se  Se16  1  0.334026  0.944143  0.039048  1
  Se  Se17  1  0.790474  0.790474  0.721752  1
  Se  Se18  1  0.209526  0.209526  0.278248  1
  Se  Se19  1  0.938012  0.938012  0.240295  1
  Se  Se20  1  0.061988  0.061988  0.759705  1
  Se  Se21  1  0.696311  0.696311  0.246836  1
  Se  Se22  1  0.303689  0.303689  0.753164  1
  Se  Se23  1  0.481465  0.481465  0.166769  1
  Se  Se24  1  0.518535  0.518535  0.833231  1
  Se  Se25  1  0.000000  0.000000  0.500000  1
