# generated using pymatgen
data_Pr3Al12CuOs3
_symmetry_space_group_name_H-M   'P 1'
_cell_length_a   8.92478953
_cell_length_b   8.99805953
_cell_length_c   9.66389600
_cell_angle_alpha   90.00000000
_cell_angle_beta   90.00000000
_cell_angle_gamma   120.27194746
_symmetry_Int_Tables_number   1
_chemical_formula_structural   Pr3Al12CuOs3
_chemical_formula_sum   'Pr6 Al24 Cu2 Os6'
_cell_volume   670.24422796
_cell_formula_units_Z   2
loop_
 _symmetry_equiv_pos_site_id
 _symmetry_equiv_pos_as_xyz
  1  'x, y, z'
loop_
 _atom_site_type_symbol
 _atom_site_label
 _atom_site_symmetry_multiplicity
 _atom_site_fract_x
 _atom_site_fract_y
 _atom_site_fract_z
 _atom_site_occupancy
  Pr  Pr0  1  0.193378  0.381368  0.250000  1
  Pr  Pr1  1  0.806622  0.618632  0.750000  1
  Pr  Pr2  1  0.613119  0.806560  0.250000  1
  Pr  Pr3  1  0.386881  0.193440  0.750000  1
  Pr  Pr4  1  0.193378  0.812010  0.250000  1
  Pr  Pr5  1  0.806622  0.187990  0.750000  1
  Al  Al6  1  0.337124  0.668563  0.014480  1
  Al  Al7  1  0.662876  0.331437  0.985520  1
  Al  Al8  1  0.662876  0.331437  0.514480  1
  Al  Al9  1  0.337124  0.668563  0.485520  1
  Al  Al10  1  0.168097  0.324376  0.575597  1
  Al  Al11  1  0.831903  0.675624  0.424403  1
  Al  Al12  1  0.671422  0.835710  0.575036  1
  Al  Al13  1  0.831903  0.675624  0.075597  1
  Al  Al14  1  0.328578  0.164290  0.424964  1
  Al  Al15  1  0.168097  0.324376  0.924403  1
  Al  Al16  1  0.168097  0.843719  0.575597  1
  Al  Al17  1  0.328578  0.164290  0.075036  1
  Al  Al18  1  0.831903  0.156281  0.424403  1
  Al  Al19  1  0.671422  0.835710  0.924964  1
  Al  Al20  1  0.831903  0.156281  0.075597  1
  Al  Al21  1  0.168097  0.843719  0.924403  1
  Al  Al22  1  0.561730  0.124769  0.250000  1
  Al  Al23  1  0.438270  0.875231  0.750000  1
  Al  Al24  1  0.874310  0.437155  0.250000  1
  Al  Al25  1  0.125690  0.562845  0.750000  1
  Al  Al26  1  0.561730  0.436962  0.250000  1
  Al  Al27  1  0.438270  0.563038  0.750000  1
  Al  Al28  1  0.003578  0.001789  0.250000  1
  Al  Al29  1  0.996422  0.998211  0.750000  1
  Cu  Cu30  1  0.000000  0.500000  0.000000  1
  Cu  Cu31  1  0.000000  0.500000  0.500000  1
  Os  Os32  1  0.500000  0.000000  0.000000  1
  Os  Os33  1  0.500000  0.000000  0.500000  1
  Os  Os34  1  0.500000  0.500000  0.000000  1
  Os  Os35  1  0.500000  0.500000  0.500000  1
  Os  Os36  1  0.000000  0.000000  0.000000  1
  Os  Os37  1  0.000000  0.000000  0.500000  1
