# generated using pymatgen
data_Ho16Hg4OsRh3
_symmetry_space_group_name_H-M   'P 1'
_cell_length_a   9.53837780
_cell_length_b   9.57471153
_cell_length_c   9.53837800
_cell_angle_alpha   60.12545667
_cell_angle_beta   60.00000623
_cell_angle_gamma   60.12545859
_symmetry_Int_Tables_number   1
_chemical_formula_structural   Ho16Hg4OsRh3
_chemical_formula_sum   'Ho16 Hg4 Os1 Rh3'
_cell_volume   617.13577313
_cell_formula_units_Z   1
loop_
 _symmetry_equiv_pos_site_id
 _symmetry_equiv_pos_as_xyz
  1  'x, y, z'
loop_
 _atom_site_type_symbol
 _atom_site_label
 _atom_site_symmetry_multiplicity
 _atom_site_fract_x
 _atom_site_fract_y
 _atom_site_fract_z
 _atom_site_occupancy
  Ho  Ho0  1  0.186454  0.187362  0.813092  1
  Ho  Ho1  1  0.600249  0.600204  0.199299  1
  Ho  Ho2  1  0.438735  0.059493  0.438735  1
  Ho  Ho3  1  0.438705  0.439521  0.060888  1
  Ho  Ho4  1  0.813092  0.187362  0.813092  1
  Ho  Ho5  1  0.189006  0.814485  0.189006  1
  Ho  Ho6  1  0.438735  0.059493  0.063037  1
  Ho  Ho7  1  0.189006  0.814485  0.807503  1
  Ho  Ho8  1  0.060888  0.439521  0.060888  1
  Ho  Ho9  1  0.807503  0.814485  0.189006  1
  Ho  Ho10  1  0.199299  0.600204  0.600249  1
  Ho  Ho11  1  0.060888  0.439521  0.438705  1
  Ho  Ho12  1  0.063037  0.059493  0.438735  1
  Ho  Ho13  1  0.813092  0.187362  0.186454  1
  Ho  Ho14  1  0.600591  0.198228  0.600591  1
  Ho  Ho15  1  0.600249  0.600204  0.600249  1
  Hg  Hg16  1  0.833168  0.833795  0.833168  1
  Hg  Hg17  1  0.833168  0.833795  0.499871  1
  Hg  Hg18  1  0.499871  0.833795  0.833168  1
  Hg  Hg19  1  0.833158  0.500526  0.833158  1
  Os  Os20  1  0.392832  0.821503  0.392832  1
  Rh  Rh21  1  0.392521  0.391724  0.392521  1
  Rh  Rh22  1  0.823234  0.391724  0.392521  1
  Rh  Rh23  1  0.392521  0.391724  0.823234  1
