# generated using pymatgen
data_CaEu2TaN3
_symmetry_space_group_name_H-M   'P 1'
_cell_length_a   7.00844474
_cell_length_b   7.00844516
_cell_length_c   5.32444300
_cell_angle_alpha   90.00000000
_cell_angle_beta   90.00000000
_cell_angle_gamma   101.42807536
_symmetry_Int_Tables_number   1
_chemical_formula_structural   CaEu2TaN3
_chemical_formula_sum   'Ca2 Eu4 Ta2 N6'
_cell_volume   256.34259896
_cell_formula_units_Z   2
loop_
 _symmetry_equiv_pos_site_id
 _symmetry_equiv_pos_as_xyz
  1  'x, y, z'
loop_
 _atom_site_type_symbol
 _atom_site_label
 _atom_site_symmetry_multiplicity
 _atom_site_fract_x
 _atom_site_fract_y
 _atom_site_fract_z
 _atom_site_occupancy
  Ca  Ca0  1  0.394253  0.174582  0.750000  1
  Ca  Ca1  1  0.174582  0.394253  0.250000  1
  Eu  Eu2  1  0.600921  0.827090  0.250000  1
  Eu  Eu3  1  0.893445  0.111718  0.750000  1
  Eu  Eu4  1  0.827090  0.600921  0.750000  1
  Eu  Eu5  1  0.111718  0.893445  0.250000  1
  Ta  Ta6  1  0.309215  0.689976  0.750000  1
  Ta  Ta7  1  0.689976  0.309215  0.250000  1
  N  N8  1  0.586596  0.816192  0.750000  1
  N  N9  1  0.872261  0.129413  0.250000  1
  N  N10  1  0.129413  0.872261  0.750000  1
  N  N11  1  0.816192  0.586596  0.250000  1
  N  N12  1  0.414321  0.180017  0.250000  1
  N  N13  1  0.180017  0.414321  0.750000  1
