# generated using pymatgen
data_Ac(As3Ru)4
_symmetry_space_group_name_H-M   'P 1'
_cell_length_a   7.48364157
_cell_length_b   7.48364196
_cell_length_c   7.48364100
_cell_angle_alpha   109.47121804
_cell_angle_beta   109.47121910
_cell_angle_gamma   109.47122494
_symmetry_Int_Tables_number   1
_chemical_formula_structural   Ac(As3Ru)4
_chemical_formula_sum   'Ac1 As12 Ru4'
_cell_volume   322.63912689
_cell_formula_units_Z   1
loop_
 _symmetry_equiv_pos_site_id
 _symmetry_equiv_pos_as_xyz
  1  'x, y, z'
loop_
 _atom_site_type_symbol
 _atom_site_label
 _atom_site_symmetry_multiplicity
 _atom_site_fract_x
 _atom_site_fract_y
 _atom_site_fract_z
 _atom_site_occupancy
  Ac  Ac0  1  0.000000  0.000000  0.000000  1
  As  As1  1  0.350948  0.501598  0.150650  1
  As  As2  1  0.649052  0.799702  0.150650  1
  As  As3  1  0.849350  0.350948  0.200298  1
  As  As4  1  0.501598  0.150650  0.350948  1
  As  As5  1  0.200298  0.849350  0.350948  1
  As  As6  1  0.849350  0.649052  0.498402  1
  As  As7  1  0.150650  0.350948  0.501598  1
  As  As8  1  0.799702  0.150650  0.649052  1
  As  As9  1  0.498402  0.849350  0.649052  1
  As  As10  1  0.150650  0.649052  0.799702  1
  As  As11  1  0.350948  0.200298  0.849350  1
  As  As12  1  0.649052  0.498402  0.849350  1
  Ru  Ru13  1  0.500000  0.000000  0.000000  1
  Ru  Ru14  1  0.000000  0.500000  0.000000  1
  Ru  Ru15  1  0.000000  0.000000  0.500000  1
  Ru  Ru16  1  0.500000  0.500000  0.500000  1
