# generated using pymatgen
data_ZnSn4(BIr3)2
_symmetry_space_group_name_H-M   'P 1'
_cell_length_a   6.63645511
_cell_length_b   6.61111515
_cell_length_c   5.63104900
_cell_angle_alpha   90.00000000
_cell_angle_beta   90.00000000
_cell_angle_gamma   119.87376386
_symmetry_Int_Tables_number   1
_chemical_formula_structural   ZnSn4(BIr3)2
_chemical_formula_sum   'Zn1 Sn4 B2 Ir6'
_cell_volume   214.23077355
_cell_formula_units_Z   1
loop_
 _symmetry_equiv_pos_site_id
 _symmetry_equiv_pos_as_xyz
  1  'x, y, z'
loop_
 _atom_site_type_symbol
 _atom_site_label
 _atom_site_symmetry_multiplicity
 _atom_site_fract_x
 _atom_site_fract_y
 _atom_site_fract_z
 _atom_site_occupancy
  Zn  Zn0  1  0.000000  0.595388  0.000000  1
  Sn  Sn1  1  0.671810  0.337781  0.500000  1
  Sn  Sn2  1  0.399795  0.406000  0.000000  1
  Sn  Sn3  1  0.600205  0.006204  0.000000  1
  Sn  Sn4  1  0.328190  0.665973  0.500000  1
  B  B5  1  0.000000  0.002295  0.500000  1
  B  B6  1  0.000000  0.988940  0.000000  1
  Ir  Ir7  1  0.000000  0.255834  0.745155  1
  Ir  Ir8  1  0.000000  0.255834  0.254845  1
  Ir  Ir9  1  0.744611  0.743743  0.255750  1
  Ir  Ir10  1  0.255389  0.999132  0.744250  1
  Ir  Ir11  1  0.255389  0.999132  0.255750  1
  Ir  Ir12  1  0.744611  0.743743  0.744250  1
