# generated using pymatgen
data_Sc6TaNb(V3Si4)4
_symmetry_space_group_name_H-M   'P 1'
_cell_length_a   6.59285109
_cell_length_b   6.59311570
_cell_length_c   12.19321552
_cell_angle_alpha   90.04838773
_cell_angle_beta   89.85695245
_cell_angle_gamma   90.00517046
_symmetry_Int_Tables_number   1
_chemical_formula_structural   Sc6TaNb(V3Si4)4
_chemical_formula_sum   'Sc6 Ta1 Nb1 V12 Si16'
_cell_volume   530.00589986
_cell_formula_units_Z   1
loop_
 _symmetry_equiv_pos_site_id
 _symmetry_equiv_pos_as_xyz
  1  'x, y, z'
loop_
 _atom_site_type_symbol
 _atom_site_label
 _atom_site_symmetry_multiplicity
 _atom_site_fract_x
 _atom_site_fract_y
 _atom_site_fract_z
 _atom_site_occupancy
  Sc  Sc0  1  0.161766  0.498824  0.779731  1
  Sc  Sc1  1  0.501209  0.837267  0.720552  1
  Sc  Sc2  1  0.500655  0.164404  0.220302  1
  Sc  Sc3  1  0.998452  0.337353  0.529098  1
  Sc  Sc4  1  0.664259  0.000072  0.971260  1
  Sc  Sc5  1  0.338404  0.999169  0.469317  1
  Ta  Ta6  1  0.840429  0.507112  0.280239  1
  Nb  Nb7  1  0.006255  0.657280  0.030823  1
  V  V8  1  0.330652  0.335849  0.000550  1
  V  V9  1  0.163815  0.829436  0.248874  1
  V  V10  1  0.833244  0.167111  0.751365  1
  V  V11  1  0.668417  0.667124  0.498437  1
  V  V12  1  0.002696  0.158151  0.126773  1
  V  V13  1  0.343003  0.505260  0.374153  1
  V  V14  1  0.656813  0.495567  0.878993  1
  V  V15  1  0.507649  0.343422  0.623040  1
  V  V16  1  0.492642  0.656399  0.124043  1
  V  V17  1  0.993698  0.841947  0.626633  1
  V  V18  1  0.154418  0.006700  0.875439  1
  V  V19  1  0.841888  0.991655  0.371218  1
  Si  Si20  1  0.292947  0.960987  0.065119  1
  Si  Si21  1  0.539296  0.793446  0.313940  1
  Si  Si22  1  0.461349  0.206236  0.814856  1
  Si  Si23  1  0.794428  0.538911  0.685669  1
  Si  Si24  1  0.204909  0.458275  0.185274  1
  Si  Si25  1  0.706393  0.039045  0.564221  1
  Si  Si26  1  0.958650  0.295362  0.935271  1
  Si  Si27  1  0.040021  0.706315  0.435224  1
  Si  Si28  1  0.707638  0.372977  0.073545  1
  Si  Si29  1  0.126802  0.205367  0.320435  1
  Si  Si30  1  0.869970  0.793882  0.822662  1
  Si  Si31  1  0.204101  0.129637  0.679751  1
  Si  Si32  1  0.795432  0.867152  0.176890  1
  Si  Si33  1  0.297356  0.629481  0.569568  1
  Si  Si34  1  0.368703  0.705856  0.929464  1
  Si  Si35  1  0.631640  0.296970  0.427271  1
