# generated using pymatgen
data_Sr2Ir2Br
_symmetry_space_group_name_H-M   'P 1'
_cell_length_a   4.34594300
_cell_length_b   4.34594235
_cell_length_c   17.31405600
_cell_angle_alpha   90.00000000
_cell_angle_beta   90.00000000
_cell_angle_gamma   120.00001257
_symmetry_Int_Tables_number   1
_chemical_formula_structural   Sr2Ir2Br
_chemical_formula_sum   'Sr4 Ir4 Br2'
_cell_volume   283.20269463
_cell_formula_units_Z   2
loop_
 _symmetry_equiv_pos_site_id
 _symmetry_equiv_pos_as_xyz
  1  'x, y, z'
loop_
 _atom_site_type_symbol
 _atom_site_label
 _atom_site_symmetry_multiplicity
 _atom_site_fract_x
 _atom_site_fract_y
 _atom_site_fract_z
 _atom_site_occupancy
  Sr  Sr0  1  0.000000  0.000000  0.116321  1
  Sr  Sr1  1  0.000000  0.000000  0.383679  1
  Sr  Sr2  1  0.000000  0.000000  0.616321  1
  Sr  Sr3  1  0.000000  0.000000  0.883679  1
  Ir  Ir4  1  0.333333  0.666667  0.000612  1
  Ir  Ir5  1  0.333333  0.666667  0.499388  1
  Ir  Ir6  1  0.666668  0.333335  0.500612  1
  Ir  Ir7  1  0.666668  0.333335  0.999388  1
  Br  Br8  1  0.666668  0.333335  0.250000  1
  Br  Br9  1  0.333333  0.666667  0.750000  1
