# generated using pymatgen
data_CsLuP2Se7
_symmetry_space_group_name_H-M   'P 1'
_cell_length_a   7.20491130
_cell_length_b   7.20491242
_cell_length_c   7.39822452
_cell_angle_alpha   84.26452932
_cell_angle_beta   84.26452698
_cell_angle_gamma   97.79529267
_symmetry_Int_Tables_number   1
_chemical_formula_structural   CsLuP2Se7
_chemical_formula_sum   'Cs1 Lu1 P2 Se7'
_cell_volume   376.07633626
_cell_formula_units_Z   1
loop_
 _symmetry_equiv_pos_site_id
 _symmetry_equiv_pos_as_xyz
  1  'x, y, z'
loop_
 _atom_site_type_symbol
 _atom_site_label
 _atom_site_symmetry_multiplicity
 _atom_site_fract_x
 _atom_site_fract_y
 _atom_site_fract_z
 _atom_site_occupancy
  Cs  Cs0  1  0.096336  0.903664  0.000000  1
  Lu  Lu1  1  0.507336  0.492664  0.500000  1
  P  P2  1  0.659404  0.944955  0.579761  1
  P  P3  1  0.055045  0.340596  0.420239  1
  Se  Se4  1  0.648862  0.689523  0.776264  1
  Se  Se5  1  0.310477  0.351138  0.223736  1
  Se  Se6  1  0.533123  0.867815  0.333801  1
  Se  Se7  1  0.132185  0.466877  0.666199  1
  Se  Se8  1  0.549320  0.164155  0.729723  1
  Se  Se9  1  0.835845  0.450680  0.270277  1
  Se  Se10  1  0.984247  0.015753  0.500000  1
