# generated using pymatgen
data_Dy3(FeOs2)2
_symmetry_space_group_name_H-M   'P 1'
_cell_length_a   5.26576685
_cell_length_b   5.25888868
_cell_length_c   13.03404953
_cell_angle_alpha   90.50085663
_cell_angle_beta   89.76145957
_cell_angle_gamma   119.06773717
_symmetry_Int_Tables_number   1
_chemical_formula_structural   Dy3(FeOs2)2
_chemical_formula_sum   'Dy6 Fe4 Os8'
_cell_volume   315.46605389
_cell_formula_units_Z   2
loop_
 _symmetry_equiv_pos_site_id
 _symmetry_equiv_pos_as_xyz
  1  'x, y, z'
loop_
 _atom_site_type_symbol
 _atom_site_label
 _atom_site_symmetry_multiplicity
 _atom_site_fract_x
 _atom_site_fract_y
 _atom_site_fract_z
 _atom_site_occupancy
  Dy  Dy0  1  0.330995  0.666769  0.917139  1
  Dy  Dy1  1  0.997100  0.999030  0.250255  1
  Dy  Dy2  1  0.665656  0.334356  0.583377  1
  Dy  Dy3  1  0.334344  0.665644  0.666623  1
  Dy  Dy4  1  0.002900  0.000970  0.999745  1
  Dy  Dy5  1  0.669005  0.333231  0.332861  1
  Fe  Fe6  1  0.500000  0.500000  0.125000  1
  Fe  Fe7  1  0.167125  0.836287  0.458145  1
  Fe  Fe8  1  0.832875  0.163713  0.791855  1
  Fe  Fe9  1  0.500000  0.000000  0.125000  1
  Os  Os10  1  0.170429  0.338903  0.456811  1
  Os  Os11  1  0.829571  0.661097  0.793189  1
  Os  Os12  1  0.333091  0.670531  0.287329  1
  Os  Os13  1  0.000000  0.000000  0.625000  1
  Os  Os14  1  0.666909  0.329469  0.962671  1
  Os  Os15  1  0.000000  0.500000  0.125000  1
  Os  Os16  1  0.666529  0.833273  0.457626  1
  Os  Os17  1  0.333471  0.166727  0.792374  1
