# generated using pymatgen
data_SrTbSi7Pd12
_symmetry_space_group_name_H-M   'P 1'
_cell_length_a   10.07221600
_cell_length_b   10.07221520
_cell_length_c   3.87275900
_cell_angle_alpha   90.00000000
_cell_angle_beta   90.00000000
_cell_angle_gamma   120.00000264
_symmetry_Int_Tables_number   1
_chemical_formula_structural   SrTbSi7Pd12
_chemical_formula_sum   'Sr1 Tb1 Si7 Pd12'
_cell_volume   340.25233853
_cell_formula_units_Z   1
loop_
 _symmetry_equiv_pos_site_id
 _symmetry_equiv_pos_as_xyz
  1  'x, y, z'
loop_
 _atom_site_type_symbol
 _atom_site_label
 _atom_site_symmetry_multiplicity
 _atom_site_fract_x
 _atom_site_fract_y
 _atom_site_fract_z
 _atom_site_occupancy
  Sr  Sr0  1  0.000000  0.000000  0.749576  1
  Tb  Tb1  1  0.666667  0.333333  0.247592  1
  Si  Si2  1  0.333333  0.666667  0.467947  1
  Si  Si3  1  0.735611  0.780512  0.249402  1
  Si  Si4  1  0.044901  0.264389  0.249402  1
  Si  Si5  1  0.219488  0.955099  0.249402  1
  Si  Si6  1  0.925832  0.550322  0.748921  1
  Si  Si7  1  0.624491  0.074168  0.748921  1
  Si  Si8  1  0.449678  0.375509  0.748921  1
  Pd  Pd9  1  0.770260  0.048291  0.248418  1
  Pd  Pd10  1  0.278031  0.229740  0.248418  1
  Pd  Pd11  1  0.951709  0.721969  0.248418  1
  Pd  Pd12  1  0.891015  0.289099  0.750523  1
  Pd  Pd13  1  0.398084  0.108985  0.750523  1
  Pd  Pd14  1  0.710901  0.601916  0.750523  1
  Pd  Pd15  1  0.479795  0.554178  0.249648  1
  Pd  Pd16  1  0.074381  0.520205  0.249648  1
  Pd  Pd17  1  0.445822  0.925619  0.249648  1
  Pd  Pd18  1  0.189860  0.776752  0.748554  1
  Pd  Pd19  1  0.586893  0.810140  0.748554  1
  Pd  Pd20  1  0.223248  0.413107  0.748554  1
