# generated using pymatgen
data_Y4TiPt15
_symmetry_space_group_name_H-M   'P 1'
_cell_length_a   4.09982000
_cell_length_b   4.09982000
_cell_length_c   20.44575800
_cell_angle_alpha   90.00000000
_cell_angle_beta   90.00000000
_cell_angle_gamma   90.00000000
_symmetry_Int_Tables_number   1
_chemical_formula_structural   Y4TiPt15
_chemical_formula_sum   'Y4 Ti1 Pt15'
_cell_volume   343.66301470
_cell_formula_units_Z   1
loop_
 _symmetry_equiv_pos_site_id
 _symmetry_equiv_pos_as_xyz
  1  'x, y, z'
loop_
 _atom_site_type_symbol
 _atom_site_label
 _atom_site_symmetry_multiplicity
 _atom_site_fract_x
 _atom_site_fract_y
 _atom_site_fract_z
 _atom_site_occupancy
  Y  Y0  1  0.000000  0.000000  0.195625  1
  Y  Y1  1  0.000000  0.000000  0.398295  1
  Y  Y2  1  0.000000  0.000000  0.601705  1
  Y  Y3  1  0.000000  0.000000  0.804375  1
  Ti  Ti4  1  0.000000  0.000000  0.000000  1
  Pt  Pt5  1  0.500000  0.500000  0.000000  1
  Pt  Pt6  1  0.500000  0.500000  0.193048  1
  Pt  Pt7  1  0.500000  0.500000  0.397807  1
  Pt  Pt8  1  0.500000  0.500000  0.602193  1
  Pt  Pt9  1  0.500000  0.500000  0.806952  1
  Pt  Pt10  1  0.500000  0.000000  0.090579  1
  Pt  Pt11  1  0.500000  0.000000  0.295860  1
  Pt  Pt12  1  0.500000  0.000000  0.500000  1
  Pt  Pt13  1  0.500000  0.000000  0.704140  1
  Pt  Pt14  1  0.500000  0.000000  0.909421  1
  Pt  Pt15  1  0.000000  0.500000  0.090579  1
  Pt  Pt16  1  0.000000  0.500000  0.295860  1
  Pt  Pt17  1  0.000000  0.500000  0.500000  1
  Pt  Pt18  1  0.000000  0.500000  0.704140  1
  Pt  Pt19  1  0.000000  0.500000  0.909421  1
