# generated using pymatgen
data_Ce7Y3Si8N3
_symmetry_space_group_name_H-M   'P 1'
_cell_length_a   10.49781300
_cell_length_b   10.49781434
_cell_length_c   4.58859400
_cell_angle_alpha   90.00000000
_cell_angle_beta   90.00000000
_cell_angle_gamma   119.99999893
_symmetry_Int_Tables_number   1
_chemical_formula_structural   Ce7Y3Si8N3
_chemical_formula_sum   'Ce7 Y3 Si8 N3'
_cell_volume   437.93331972
_cell_formula_units_Z   1
loop_
 _symmetry_equiv_pos_site_id
 _symmetry_equiv_pos_as_xyz
  1  'x, y, z'
loop_
 _atom_site_type_symbol
 _atom_site_label
 _atom_site_symmetry_multiplicity
 _atom_site_fract_x
 _atom_site_fract_y
 _atom_site_fract_z
 _atom_site_occupancy
  Ce  Ce0  1  0.213550  0.786450  0.000000  1
  Ce  Ce1  1  0.213550  0.427101  0.000000  1
  Ce  Ce2  1  0.786450  0.572899  0.000000  1
  Ce  Ce3  1  0.427101  0.213550  0.000000  1
  Ce  Ce4  1  0.000000  0.000000  0.000000  1
  Ce  Ce5  1  0.572899  0.786450  0.000000  1
  Ce  Ce6  1  0.786450  0.213550  0.000000  1
  Y  Y7  1  0.500000  0.000000  0.500000  1
  Y  Y8  1  0.000000  0.500000  0.500000  1
  Y  Y9  1  0.500000  0.500000  0.500000  1
  Si  Si10  1  0.666667  0.333333  0.500000  1
  Si  Si11  1  0.000000  0.777906  0.500000  1
  Si  Si12  1  0.333333  0.666667  0.500000  1
  Si  Si13  1  0.222094  0.222094  0.500000  1
  Si  Si14  1  0.777906  0.777906  0.500000  1
  Si  Si15  1  0.777906  0.000000  0.500000  1
  Si  Si16  1  0.222094  0.000000  0.500000  1
  Si  Si17  1  0.000000  0.222094  0.500000  1
  N  N18  1  0.500000  0.500000  0.000000  1
  N  N19  1  0.500000  0.000000  0.000000  1
  N  N20  1  0.000000  0.500000  0.000000  1
