# generated using pymatgen
data_NaPrGeO4
_symmetry_space_group_name_H-M   'P 1'
_cell_length_a   5.41422700
_cell_length_b   6.78764100
_cell_length_c   11.92430900
_cell_angle_alpha   90.00000000
_cell_angle_beta   90.00000000
_cell_angle_gamma   90.00000000
_symmetry_Int_Tables_number   1
_chemical_formula_structural   NaPrGeO4
_chemical_formula_sum   'Na4 Pr4 Ge4 O16'
_cell_volume   438.21631870
_cell_formula_units_Z   4
loop_
 _symmetry_equiv_pos_site_id
 _symmetry_equiv_pos_as_xyz
  1  'x, y, z'
loop_
 _atom_site_type_symbol
 _atom_site_label
 _atom_site_symmetry_multiplicity
 _atom_site_fract_x
 _atom_site_fract_y
 _atom_site_fract_z
 _atom_site_occupancy
  Na  Na0  1  0.500000  0.500000  0.000000  1
  Na  Na1  1  0.500000  0.000000  0.000000  1
  Na  Na2  1  0.000000  0.000000  0.500000  1
  Na  Na3  1  0.000000  0.500000  0.500000  1
  Pr  Pr4  1  0.499692  0.250000  0.280017  1
  Pr  Pr5  1  0.500308  0.750000  0.719983  1
  Pr  Pr6  1  0.000308  0.250000  0.780017  1
  Pr  Pr7  1  0.999692  0.750000  0.219983  1
  Ge  Ge8  1  0.561375  0.750000  0.405013  1
  Ge  Ge9  1  0.938625  0.750000  0.905013  1
  Ge  Ge10  1  0.438625  0.250000  0.594987  1
  Ge  Ge11  1  0.061375  0.250000  0.094987  1
  O  O12  1  0.738661  0.250000  0.106967  1
  O  O13  1  0.261339  0.750000  0.893033  1
  O  O14  1  0.761339  0.250000  0.606967  1
  O  O15  1  0.238661  0.750000  0.393033  1
  O  O16  1  0.813327  0.750000  0.041804  1
  O  O17  1  0.186673  0.250000  0.958196  1
  O  O18  1  0.686673  0.750000  0.541804  1
  O  O19  1  0.313327  0.250000  0.458196  1
  O  O20  1  0.706478  0.548395  0.330440  1
  O  O21  1  0.293522  0.048395  0.669560  1
  O  O22  1  0.793522  0.548395  0.830440  1
  O  O23  1  0.206478  0.048395  0.169560  1
  O  O24  1  0.206478  0.451605  0.169560  1
  O  O25  1  0.793522  0.951605  0.830440  1
  O  O26  1  0.293522  0.451605  0.669560  1
  O  O27  1  0.706478  0.951605  0.330440  1
