# generated using pymatgen
data_BaNaY(Si3Pd10)2
_symmetry_space_group_name_H-M   'P 1'
_cell_length_a   8.77883378
_cell_length_b   8.77883512
_cell_length_c   8.77883400
_cell_angle_alpha   60.00000424
_cell_angle_beta   59.99999915
_cell_angle_gamma   59.99999799
_symmetry_Int_Tables_number   1
_chemical_formula_structural   BaNaY(Si3Pd10)2
_chemical_formula_sum   'Ba1 Na1 Y1 Si6 Pd20'
_cell_volume   478.40483716
_cell_formula_units_Z   1
loop_
 _symmetry_equiv_pos_site_id
 _symmetry_equiv_pos_as_xyz
  1  'x, y, z'
loop_
 _atom_site_type_symbol
 _atom_site_label
 _atom_site_symmetry_multiplicity
 _atom_site_fract_x
 _atom_site_fract_y
 _atom_site_fract_z
 _atom_site_occupancy
  Ba  Ba0  1  0.250000  0.250000  0.250000  1
  Na  Na1  1  0.000000  0.000000  0.000000  1
  Y  Y2  1  0.750000  0.750000  0.750000  1
  Si  Si3  1  0.734760  0.265240  0.265240  1
  Si  Si4  1  0.265240  0.734760  0.734760  1
  Si  Si5  1  0.265240  0.734760  0.265240  1
  Si  Si6  1  0.734760  0.265240  0.734760  1
  Si  Si7  1  0.265240  0.265240  0.734760  1
  Si  Si8  1  0.734760  0.734760  0.265240  1
  Pd  Pd9  1  0.390535  0.390535  0.390535  1
  Pd  Pd10  1  0.617315  0.617315  0.617315  1
  Pd  Pd11  1  0.390535  0.390535  0.828396  1
  Pd  Pd12  1  0.390535  0.828396  0.390535  1
  Pd  Pd13  1  0.617315  0.617315  0.148053  1
  Pd  Pd14  1  0.617315  0.148053  0.617315  1
  Pd  Pd15  1  0.828396  0.390535  0.390535  1
  Pd  Pd16  1  0.148053  0.617315  0.617315  1
  Pd  Pd17  1  0.350522  0.994711  0.994711  1
  Pd  Pd18  1  0.660057  0.994711  0.994711  1
  Pd  Pd19  1  0.994711  0.350522  0.660057  1
  Pd  Pd20  1  0.994711  0.660057  0.350522  1
  Pd  Pd21  1  0.994711  0.350522  0.994711  1
  Pd  Pd22  1  0.660057  0.994711  0.350522  1
  Pd  Pd23  1  0.994711  0.660057  0.994711  1
  Pd  Pd24  1  0.350522  0.994711  0.660057  1
  Pd  Pd25  1  0.994711  0.994711  0.350522  1
  Pd  Pd26  1  0.994711  0.994711  0.660057  1
  Pd  Pd27  1  0.660057  0.350522  0.994711  1
  Pd  Pd28  1  0.350522  0.660057  0.994711  1
