# generated using pymatgen
data_Ho3(In2Ni)2
_symmetry_space_group_name_H-M   'P 1'
_cell_length_a   7.76527500
_cell_length_b   7.76527502
_cell_length_c   3.69690000
_cell_angle_alpha   90.00000000
_cell_angle_beta   90.00000000
_cell_angle_gamma   120.00000645
_symmetry_Int_Tables_number   1
_chemical_formula_structural   Ho3(In2Ni)2
_chemical_formula_sum   'Ho3 In4 Ni2'
_cell_volume   193.05541556
_cell_formula_units_Z   1
loop_
 _symmetry_equiv_pos_site_id
 _symmetry_equiv_pos_as_xyz
  1  'x, y, z'
loop_
 _atom_site_type_symbol
 _atom_site_label
 _atom_site_symmetry_multiplicity
 _atom_site_fract_x
 _atom_site_fract_y
 _atom_site_fract_z
 _atom_site_occupancy
  Ho  Ho0  1  0.052340  0.298798  0.500000  1
  Ho  Ho1  1  0.701202  0.753541  0.500000  1
  Ho  Ho2  1  0.246459  0.947660  0.500000  1
  In  In3  1  0.669452  0.084131  0.000000  1
  In  In4  1  0.915869  0.585322  0.000000  1
  In  In5  1  0.414678  0.330548  0.000000  1
  In  In6  1  0.333333  0.666667  0.000000  1
  Ni  Ni7  1  0.666667  0.333333  0.500000  1
  Ni  Ni8  1  0.000000  0.000000  0.000000  1
