# generated using pymatgen
data_NaHoCr3Ni9As7
_symmetry_space_group_name_H-M   'P 1'
_cell_length_a   9.52157700
_cell_length_b   9.52157713
_cell_length_c   3.79265700
_cell_angle_alpha   90.00000000
_cell_angle_beta   90.00000000
_cell_angle_gamma   119.99999609
_symmetry_Int_Tables_number   1
_chemical_formula_structural   NaHoCr3Ni9As7
_chemical_formula_sum   'Na1 Ho1 Cr3 Ni9 As7'
_cell_volume   297.77757582
_cell_formula_units_Z   1
loop_
 _symmetry_equiv_pos_site_id
 _symmetry_equiv_pos_as_xyz
  1  'x, y, z'
loop_
 _atom_site_type_symbol
 _atom_site_label
 _atom_site_symmetry_multiplicity
 _atom_site_fract_x
 _atom_site_fract_y
 _atom_site_fract_z
 _atom_site_occupancy
  Na  Na0  1  0.666667  0.333333  0.500000  1
  Ho  Ho1  1  0.333333  0.666667  0.000000  1
  Cr  Cr2  1  0.223748  0.121592  0.500000  1
  Cr  Cr3  1  0.878408  0.102156  0.500000  1
  Cr  Cr4  1  0.897844  0.776252  0.500000  1
  Ni  Ni5  1  0.121840  0.280900  0.000000  1
  Ni  Ni6  1  0.719100  0.840940  0.000000  1
  Ni  Ni7  1  0.159060  0.878160  0.000000  1
  Ni  Ni8  1  0.428836  0.373147  0.000000  1
  Ni  Ni9  1  0.626853  0.055690  0.000000  1
  Ni  Ni10  1  0.944310  0.571164  0.000000  1
  Ni  Ni11  1  0.051779  0.433939  0.500000  1
  Ni  Ni12  1  0.566061  0.617841  0.500000  1
  Ni  Ni13  1  0.382159  0.948221  0.500000  1
  As  As14  1  0.291767  0.409620  0.500000  1
  As  As15  1  0.590380  0.882147  0.500000  1
  As  As16  1  0.117853  0.708233  0.500000  1
  As  As17  1  0.415909  0.119375  0.000000  1
  As  As18  1  0.880625  0.296534  0.000000  1
  As  As19  1  0.703466  0.584091  0.000000  1
  As  As20  1  0.000000  0.000000  0.000000  1
