# generated using pymatgen
data_Dy5LuCo16(ReP6)2
_symmetry_space_group_name_H-M   'P 1'
_cell_length_a   3.72417800
_cell_length_b   10.52162934
_cell_length_c   12.21972040
_cell_angle_alpha   90.02919960
_cell_angle_beta   90.00000000
_cell_angle_gamma   90.00000000
_symmetry_Int_Tables_number   1
_chemical_formula_structural   Dy5LuCo16(ReP6)2
_chemical_formula_sum   'Dy5 Lu1 Co16 Re2 P12'
_cell_volume   478.82260046
_cell_formula_units_Z   1
loop_
 _symmetry_equiv_pos_site_id
 _symmetry_equiv_pos_as_xyz
  1  'x, y, z'
loop_
 _atom_site_type_symbol
 _atom_site_label
 _atom_site_symmetry_multiplicity
 _atom_site_fract_x
 _atom_site_fract_y
 _atom_site_fract_z
 _atom_site_occupancy
  Dy  Dy0  1  0.000000  0.500138  0.524523  1
  Dy  Dy1  1  0.500000  0.999687  0.474997  1
  Dy  Dy2  1  0.500000  0.181376  0.205817  1
  Dy  Dy3  1  0.000000  0.681948  0.794136  1
  Dy  Dy4  1  0.000000  0.318221  0.794478  1
  Lu  Lu5  1  0.500000  0.818431  0.205852  1
  Co  Co6  1  0.500000  0.500191  0.701982  1
  Co  Co7  1  0.000000  0.998614  0.297420  1
  Co  Co8  1  0.000000  0.500781  0.988512  1
  Co  Co9  1  0.500000  0.999187  0.012672  1
  Co  Co10  1  0.500000  0.332451  0.990142  1
  Co  Co11  1  0.500000  0.668279  0.990472  1
  Co  Co12  1  0.000000  0.167036  0.010511  1
  Co  Co13  1  0.000000  0.832276  0.011640  1
  Co  Co14  1  0.500000  0.296502  0.431035  1
  Co  Co15  1  0.500000  0.703484  0.429919  1
  Co  Co16  1  0.000000  0.203183  0.568774  1
  Co  Co17  1  0.000000  0.796570  0.568114  1
  Co  Co18  1  0.500000  0.879214  0.708101  1
  Co  Co19  1  0.500000  0.120737  0.708589  1
  Co  Co20  1  0.000000  0.622255  0.290723  1
  Co  Co21  1  0.000000  0.379615  0.291547  1
  Re  Re22  1  0.500000  0.500451  0.156198  1
  Re  Re23  1  0.000000  0.999577  0.844075  1
  P  P24  1  0.500000  0.500378  0.880382  1
  P  P25  1  0.000000  0.998671  0.120764  1
  P  P26  1  0.500000  0.499767  0.349106  1
  P  P27  1  0.000000  0.000013  0.650727  1
  P  P28  1  0.500000  0.311692  0.615916  1
  P  P29  1  0.500000  0.688602  0.615390  1
  P  P30  1  0.000000  0.187882  0.383813  1
  P  P31  1  0.000000  0.811782  0.382264  1
  P  P32  1  0.500000  0.845989  0.892237  1
  P  P33  1  0.500000  0.153839  0.892861  1
  P  P34  1  0.000000  0.655389  0.108708  1
  P  P35  1  0.000000  0.345790  0.107608  1
