# generated using pymatgen
data_Ce3Tm(SiTc)4
_symmetry_space_group_name_H-M   'P 1'
_cell_length_a   4.51181300
_cell_length_b   7.16383568
_cell_length_c   6.87267214
_cell_angle_alpha   88.50834256
_cell_angle_beta   90.00000000
_cell_angle_gamma   90.00000000
_symmetry_Int_Tables_number   1
_chemical_formula_structural   Ce3Tm(SiTc)4
_chemical_formula_sum   'Ce3 Tm1 Si4 Tc4'
_cell_volume   222.06245519
_cell_formula_units_Z   1
loop_
 _symmetry_equiv_pos_site_id
 _symmetry_equiv_pos_as_xyz
  1  'x, y, z'
loop_
 _atom_site_type_symbol
 _atom_site_label
 _atom_site_symmetry_multiplicity
 _atom_site_fract_x
 _atom_site_fract_y
 _atom_site_fract_z
 _atom_site_occupancy
  Ce  Ce0  1  0.250000  0.973853  0.820712  1
  Ce  Ce1  1  0.750000  0.030112  0.179503  1
  Ce  Ce2  1  0.250000  0.472690  0.688498  1
  Tm  Tm3  1  0.750000  0.523893  0.315736  1
  Si  Si4  1  0.250000  0.313062  0.118800  1
  Si  Si5  1  0.750000  0.692483  0.889462  1
  Si  Si6  1  0.250000  0.802921  0.388202  1
  Si  Si7  1  0.750000  0.193733  0.607385  1
  Tc  Tc8  1  0.750000  0.853029  0.553081  1
  Tc  Tc9  1  0.250000  0.149653  0.444692  1
  Tc  Tc10  1  0.750000  0.343363  0.940259  1
  Tc  Tc11  1  0.250000  0.651208  0.053671  1
