# generated using pymatgen
data_Sc6AlIn2(GaAu2)3
_symmetry_space_group_name_H-M   'P 1'
_cell_length_a   7.46550521
_cell_length_b   7.42610736
_cell_length_c   7.27348714
_cell_angle_alpha   90.00000282
_cell_angle_beta   89.88686817
_cell_angle_gamma   119.82559684
_symmetry_Int_Tables_number   1
_chemical_formula_structural   Sc6AlIn2(GaAu2)3
_chemical_formula_sum   'Sc6 Al1 In2 Ga3 Au6'
_cell_volume   349.82686595
_cell_formula_units_Z   1
loop_
 _symmetry_equiv_pos_site_id
 _symmetry_equiv_pos_as_xyz
  1  'x, y, z'
loop_
 _atom_site_type_symbol
 _atom_site_label
 _atom_site_symmetry_multiplicity
 _atom_site_fract_x
 _atom_site_fract_y
 _atom_site_fract_z
 _atom_site_occupancy
  Sc  Sc0  1  0.594369  0.981763  0.756334  1
  Sc  Sc1  1  0.018793  0.611476  0.755182  1
  Sc  Sc2  1  0.387044  0.405769  0.753093  1
  Sc  Sc3  1  0.981207  0.592683  0.244818  1
  Sc  Sc4  1  0.612956  0.018725  0.246907  1
  Sc  Sc5  1  0.405631  0.387394  0.243666  1
  Al  Al6  1  0.000000  0.255731  0.500000  1
  In  In7  1  0.735003  0.735872  0.499633  1
  In  In8  1  0.264997  0.000870  0.500367  1
  Ga  Ga9  1  0.720253  0.720625  0.999655  1
  Ga  Ga10  1  0.279747  0.000372  0.000345  1
  Ga  Ga11  1  0.000000  0.287016  0.000000  1
  Au  Au12  1  0.999928  0.011714  0.772660  1
  Au  Au13  1  0.000072  0.011786  0.227340  1
  Au  Au14  1  0.665114  0.333131  0.969915  1
  Au  Au15  1  0.682018  0.329536  0.530247  1
  Au  Au16  1  0.317982  0.647519  0.469753  1
  Au  Au17  1  0.334886  0.668018  0.030085  1
