# generated using pymatgen
data_TbEr2In3IrPd2
_symmetry_space_group_name_H-M   'P 1'
_cell_length_a   7.71778554
_cell_length_b   7.72964467
_cell_length_c   3.78393500
_cell_angle_alpha   90.00000000
_cell_angle_beta   90.00000000
_cell_angle_gamma   119.87689668
_symmetry_Int_Tables_number   1
_chemical_formula_structural   TbEr2In3IrPd2
_chemical_formula_sum   'Tb1 Er2 In3 Ir1 Pd2'
_cell_volume   195.73294478
_cell_formula_units_Z   1
loop_
 _symmetry_equiv_pos_site_id
 _symmetry_equiv_pos_as_xyz
  1  'x, y, z'
loop_
 _atom_site_type_symbol
 _atom_site_label
 _atom_site_symmetry_multiplicity
 _atom_site_fract_x
 _atom_site_fract_y
 _atom_site_fract_z
 _atom_site_occupancy
  Tb  Tb0  1  0.415116  0.016825  0.500000  1
  Er  Er1  1  0.602642  0.584733  0.500000  1
  Er  Er2  1  0.981759  0.397519  0.500000  1
  In  In3  1  0.261192  0.266856  0.000000  1
  In  In4  1  0.735023  0.995576  0.000000  1
  In  In5  1  0.003471  0.738024  0.000000  1
  Ir  Ir6  1  0.668507  0.335713  0.000000  1
  Pd  Pd7  1  0.999340  0.000033  0.500000  1
  Pd  Pd8  1  0.332951  0.664720  0.000000  1
