# generated using pymatgen
data_TbEr15Cd4TcNi3
_symmetry_space_group_name_H-M   'P 1'
_cell_length_a   9.53584036
_cell_length_b   9.53584045
_cell_length_c   9.53626119
_cell_angle_alpha   59.39910737
_cell_angle_beta   59.39910560
_cell_angle_gamma   59.33229545
_symmetry_Int_Tables_number   1
_chemical_formula_structural   TbEr15Cd4TcNi3
_chemical_formula_sum   'Tb1 Er15 Cd4 Tc1 Ni3'
_cell_volume   604.47313795
_cell_formula_units_Z   1
loop_
 _symmetry_equiv_pos_site_id
 _symmetry_equiv_pos_as_xyz
  1  'x, y, z'
loop_
 _atom_site_type_symbol
 _atom_site_label
 _atom_site_symmetry_multiplicity
 _atom_site_fract_x
 _atom_site_fract_y
 _atom_site_fract_z
 _atom_site_occupancy
  Tb  Tb0  1  0.938852  0.938852  0.556332  1
  Er  Er1  1  0.346965  0.346965  0.347141  1
  Er  Er2  1  0.352106  0.352106  0.954648  1
  Er  Er3  1  0.352455  0.954664  0.351646  1
  Er  Er4  1  0.954664  0.352455  0.351646  1
  Er  Er5  1  0.809932  0.187898  0.186850  1
  Er  Er6  1  0.186838  0.811244  0.811528  1
  Er  Er7  1  0.187898  0.809932  0.186850  1
  Er  Er8  1  0.811244  0.186838  0.811528  1
  Er  Er9  1  0.187482  0.187482  0.810228  1
  Er  Er10  1  0.811368  0.811368  0.186335  1
  Er  Er11  1  0.935794  0.564505  0.565411  1
  Er  Er12  1  0.555222  0.939071  0.939624  1
  Er  Er13  1  0.564505  0.935794  0.565411  1
  Er  Er14  1  0.939071  0.555222  0.939624  1
  Er  Er15  1  0.565341  0.565341  0.936004  1
  Cd  Cd16  1  0.579974  0.579974  0.579950  1
  Cd  Cd17  1  0.580034  0.580034  0.255272  1
  Cd  Cd18  1  0.579116  0.256238  0.579969  1
  Cd  Cd19  1  0.256238  0.579116  0.579969  1
  Tc  Tc20  1  0.144284  0.144284  0.143199  1
  Ni  Ni21  1  0.142555  0.142555  0.576080  1
  Ni  Ni22  1  0.142323  0.575742  0.142379  1
  Ni  Ni23  1  0.575742  0.142323  0.142379  1
