# generated using pymatgen
data_Lu12Cd2Fe2Tc
_symmetry_space_group_name_H-M   'P 1'
_cell_length_a   8.18367370
_cell_length_b   8.18367437
_cell_length_c   8.18367383
_cell_angle_alpha   108.49798324
_cell_angle_beta   108.49797370
_cell_angle_gamma   111.43574212
_symmetry_Int_Tables_number   1
_chemical_formula_structural   Lu12Cd2Fe2Tc
_chemical_formula_sum   'Lu12 Cd2 Fe2 Tc1'
_cell_volume   421.53974637
_cell_formula_units_Z   1
loop_
 _symmetry_equiv_pos_site_id
 _symmetry_equiv_pos_as_xyz
  1  'x, y, z'
loop_
 _atom_site_type_symbol
 _atom_site_label
 _atom_site_symmetry_multiplicity
 _atom_site_fract_x
 _atom_site_fract_y
 _atom_site_fract_z
 _atom_site_occupancy
  Lu  Lu0  1  0.309011  0.309011  0.618023  1
  Lu  Lu1  1  0.690989  0.690989  0.381977  1
  Lu  Lu2  1  0.690989  0.309011  0.000000  1
  Lu  Lu3  1  0.309011  0.690989  0.000000  1
  Lu  Lu4  1  0.193034  0.431707  0.238673  1
  Lu  Lu5  1  0.806966  0.568293  0.761327  1
  Lu  Lu6  1  0.193034  0.954360  0.761327  1
  Lu  Lu7  1  0.954360  0.193034  0.761327  1
  Lu  Lu8  1  0.806966  0.045640  0.238673  1
  Lu  Lu9  1  0.045640  0.806966  0.238673  1
  Lu  Lu10  1  0.431707  0.193034  0.238673  1
  Lu  Lu11  1  0.568293  0.806966  0.761327  1
  Cd  Cd12  1  0.000000  0.500000  0.500000  1
  Cd  Cd13  1  0.500000  0.000000  0.500000  1
  Fe  Fe14  1  0.382224  0.382224  0.000000  1
  Fe  Fe15  1  0.617776  0.617776  0.000000  1
  Tc  Tc16  1  0.000000  0.000000  0.000000  1
