# generated using pymatgen
data_Er4CoNi10(P4Ru3)3
_symmetry_space_group_name_H-M   'P 1'
_cell_length_a   3.77247500
_cell_length_b   10.69409103
_cell_length_c   11.89235009
_cell_angle_alpha   90.01830184
_cell_angle_beta   90.00000000
_cell_angle_gamma   90.00000000
_symmetry_Int_Tables_number   1
_chemical_formula_structural   Er4CoNi10(P4Ru3)3
_chemical_formula_sum   'Er4 Co1 Ni10 P12 Ru9'
_cell_volume   479.77532732
_cell_formula_units_Z   1
loop_
 _symmetry_equiv_pos_site_id
 _symmetry_equiv_pos_as_xyz
  1  'x, y, z'
loop_
 _atom_site_type_symbol
 _atom_site_label
 _atom_site_symmetry_multiplicity
 _atom_site_fract_x
 _atom_site_fract_y
 _atom_site_fract_z
 _atom_site_occupancy
  Er  Er0  1  0.250000  0.591777  0.709141  1
  Er  Er1  1  0.250000  0.908534  0.207848  1
  Er  Er2  1  0.750000  0.412892  0.294406  1
  Er  Er3  1  0.750000  0.089635  0.792198  1
  Co  Co4  1  0.750000  0.965576  0.570960  1
  Ni  Ni5  1  0.250000  0.271156  0.683685  1
  Ni  Ni6  1  0.750000  0.774427  0.816841  1
  Ni  Ni7  1  0.750000  0.726058  0.315088  1
  Ni  Ni8  1  0.250000  0.884600  0.702473  1
  Ni  Ni9  1  0.250000  0.611805  0.202427  1
  Ni  Ni10  1  0.750000  0.104187  0.299396  1
  Ni  Ni11  1  0.750000  0.387895  0.795682  1
  Ni  Ni12  1  0.250000  0.464134  0.929891  1
  Ni  Ni13  1  0.250000  0.037869  0.429789  1
  Ni  Ni14  1  0.750000  0.533919  0.069513  1
  P  P15  1  0.250000  0.419744  0.112924  1
  P  P16  1  0.250000  0.075420  0.613520  1
  P  P17  1  0.750000  0.580605  0.887051  1
  P  P18  1  0.750000  0.917569  0.390781  1
  P  P19  1  0.250000  0.271185  0.871637  1
  P  P20  1  0.250000  0.232131  0.378709  1
  P  P21  1  0.750000  0.727936  0.125642  1
  P  P22  1  0.750000  0.773652  0.627206  1
  P  P23  1  0.250000  0.599333  0.389967  1
  P  P24  1  0.250000  0.900518  0.889102  1
  P  P25  1  0.750000  0.404363  0.610717  1
  P  P26  1  0.750000  0.098619  0.109631  1
  Ru  Ru27  1  0.250000  0.708894  0.985518  1
  Ru  Ru28  1  0.250000  0.795086  0.483282  1
  Ru  Ru29  1  0.750000  0.289984  0.009110  1
  Ru  Ru30  1  0.750000  0.212949  0.511096  1
  Ru  Ru31  1  0.250000  0.408119  0.493709  1
  Ru  Ru32  1  0.250000  0.094180  0.984577  1
  Ru  Ru33  1  0.750000  0.599249  0.511390  1
  Ru  Ru34  1  0.750000  0.904255  0.010902  1
  Ru  Ru35  1  0.250000  0.221742  0.184192  1
