# generated using pymatgen
data_Tm4MnB12Os
_symmetry_space_group_name_H-M   'P 1'
_cell_length_a   3.56967200
_cell_length_b   9.04456652
_cell_length_c   11.41253491
_cell_angle_alpha   90.06635944
_cell_angle_beta   90.00000000
_cell_angle_gamma   90.00000000
_symmetry_Int_Tables_number   1
_chemical_formula_structural   Tm4MnB12Os
_chemical_formula_sum   'Tm8 Mn2 B24 Os2'
_cell_volume   368.46640544
_cell_formula_units_Z   2
loop_
 _symmetry_equiv_pos_site_id
 _symmetry_equiv_pos_as_xyz
  1  'x, y, z'
loop_
 _atom_site_type_symbol
 _atom_site_label
 _atom_site_symmetry_multiplicity
 _atom_site_fract_x
 _atom_site_fract_y
 _atom_site_fract_z
 _atom_site_occupancy
  Tm  Tm0  1  0.000000  0.326569  0.416020  1
  Tm  Tm1  1  0.000000  0.673431  0.583980  1
  Tm  Tm2  1  0.000000  0.820239  0.087782  1
  Tm  Tm3  1  0.000000  0.179761  0.912218  1
  Tm  Tm4  1  0.000000  0.939691  0.371430  1
  Tm  Tm5  1  0.000000  0.060309  0.628571  1
  Tm  Tm6  1  0.000000  0.446080  0.131196  1
  Tm  Tm7  1  0.000000  0.553920  0.868803  1
  Mn  Mn8  1  0.000000  0.638479  0.320366  1
  Mn  Mn9  1  0.000000  0.361521  0.679634  1
  B  B10  1  0.500000  0.553733  0.432654  1
  B  B11  1  0.500000  0.446267  0.567346  1
  B  B12  1  0.500000  0.053201  0.066526  1
  B  B13  1  0.500000  0.946799  0.933474  1
  B  B14  1  0.500000  0.746257  0.418437  1
  B  B15  1  0.500000  0.253743  0.581563  1
  B  B16  1  0.500000  0.249660  0.080588  1
  B  B17  1  0.500000  0.750340  0.919412  1
  B  B18  1  0.500000  0.789885  0.266235  1
  B  B19  1  0.500000  0.210115  0.733765  1
  B  B20  1  0.500000  0.292625  0.235373  1
  B  B21  1  0.500000  0.707374  0.764627  1
  B  B22  1  0.500000  0.631473  0.186594  1
  B  B23  1  0.500000  0.368527  0.813406  1
  B  B24  1  0.500000  0.131149  0.315309  1
  B  B25  1  0.500000  0.868851  0.684691  1
  B  B26  1  0.500000  0.981129  0.212745  1
  B  B27  1  0.500000  0.018871  0.787255  1
  B  B28  1  0.500000  0.484816  0.288837  1
  B  B29  1  0.500000  0.515184  0.711163  1
  B  B30  1  0.500000  0.603567  0.028690  1
  B  B31  1  0.500000  0.396433  0.971310  1
  B  B32  1  0.500000  0.104330  0.471144  1
  B  B33  1  0.500000  0.895670  0.528856  1
  Os  Os34  1  0.000000  0.137947  0.178734  1
  Os  Os35  1  0.000000  0.862053  0.821266  1
