# generated using pymatgen
data_SmHo15(LuPb4)4
_symmetry_space_group_name_H-M   'P 1'
_cell_length_a   8.19874754
_cell_length_b   8.26672109
_cell_length_c   15.60333000
_cell_angle_alpha   90.04807963
_cell_angle_beta   89.66096484
_cell_angle_gamma   89.87368688
_symmetry_Int_Tables_number   1
_chemical_formula_structural   SmHo15(LuPb4)4
_chemical_formula_sum   'Sm1 Ho15 Lu4 Pb16'
_cell_volume   1057.52167134
_cell_formula_units_Z   1
loop_
 _symmetry_equiv_pos_site_id
 _symmetry_equiv_pos_as_xyz
  1  'x, y, z'
loop_
 _atom_site_type_symbol
 _atom_site_label
 _atom_site_symmetry_multiplicity
 _atom_site_fract_x
 _atom_site_fract_y
 _atom_site_fract_z
 _atom_site_occupancy
  Sm  Sm0  1  0.966104  0.822317  0.598248  1
  Ho  Ho1  1  0.623955  0.157681  0.621586  1
  Ho  Ho2  1  0.121590  0.341551  0.879595  1
  Ho  Ho3  1  0.377936  0.842534  0.121100  1
  Ho  Ho4  1  0.875432  0.657511  0.377713  1
  Ho  Ho5  1  0.376019  0.842691  0.378382  1
  Ho  Ho6  1  0.878634  0.657835  0.121145  1
  Ho  Ho7  1  0.621329  0.157753  0.879116  1
  Ho  Ho8  1  0.122860  0.342128  0.621670  1
  Ho  Ho9  1  0.462982  0.675063  0.599537  1
  Ho  Ho10  1  0.959607  0.825054  0.899011  1
  Ho  Ho11  1  0.539331  0.324691  0.100556  1
  Ho  Ho12  1  0.037631  0.176433  0.399816  1
  Ho  Ho13  1  0.536153  0.324271  0.400494  1
  Ho  Ho14  1  0.039521  0.175119  0.100711  1
  Ho  Ho15  1  0.461340  0.675074  0.900495  1
  Lu  Lu16  1  0.790219  0.495652  0.750601  1
  Lu  Lu17  1  0.290875  0.004842  0.750718  1
  Lu  Lu18  1  0.209223  0.504160  0.249914  1
  Lu  Lu19  1  0.709030  0.995581  0.249283  1
  Pb  Pb20  1  0.717230  0.968121  0.454773  1
  Pb  Pb21  1  0.220442  0.531868  0.044142  1
  Pb  Pb22  1  0.279341  0.031180  0.956377  1
  Pb  Pb23  1  0.780500  0.464553  0.543146  1
  Pb  Pb24  1  0.285651  0.037387  0.543057  1
  Pb  Pb25  1  0.779757  0.467476  0.956454  1
  Pb  Pb26  1  0.720149  0.967823  0.043648  1
  Pb  Pb27  1  0.217378  0.534983  0.456578  1
  Pb  Pb28  1  0.428192  0.373479  0.750264  1
  Pb  Pb29  1  0.928429  0.126887  0.750495  1
  Pb  Pb30  1  0.571358  0.626213  0.249518  1
  Pb  Pb31  1  0.071021  0.874057  0.249818  1
  Pb  Pb32  1  0.648781  0.843722  0.750050  1
  Pb  Pb33  1  0.152047  0.654133  0.751499  1
  Pb  Pb34  1  0.350121  0.156421  0.250294  1
  Pb  Pb35  1  0.849830  0.343761  0.250196  1
