# generated using pymatgen
data_TaMnNbP2Rh
_symmetry_space_group_name_H-M   'P 1'
_cell_length_a   3.66444300
_cell_length_b   6.27978282
_cell_length_c   7.14470712
_cell_angle_alpha   88.77997890
_cell_angle_beta   90.00000000
_cell_angle_gamma   90.00000000
_symmetry_Int_Tables_number   1
_chemical_formula_structural   TaMnNbP2Rh
_chemical_formula_sum   'Ta2 Mn2 Nb2 P4 Rh2'
_cell_volume   164.37605830
_cell_formula_units_Z   2
loop_
 _symmetry_equiv_pos_site_id
 _symmetry_equiv_pos_as_xyz
  1  'x, y, z'
loop_
 _atom_site_type_symbol
 _atom_site_label
 _atom_site_symmetry_multiplicity
 _atom_site_fract_x
 _atom_site_fract_y
 _atom_site_fract_z
 _atom_site_occupancy
  Ta  Ta0  1  0.250000  0.521276  0.682139  1
  Ta  Ta1  1  0.750000  0.478724  0.317861  1
  Mn  Mn2  1  0.750000  0.359660  0.940254  1
  Mn  Mn3  1  0.250000  0.640340  0.059746  1
  Nb  Nb4  1  0.250000  0.027141  0.836065  1
  Nb  Nb5  1  0.750000  0.972859  0.163935  1
  P  P6  1  0.250000  0.281988  0.112021  1
  P  P7  1  0.750000  0.718012  0.887979  1
  P  P8  1  0.250000  0.761061  0.363370  1
  P  P9  1  0.750000  0.238939  0.636630  1
  Rh  Rh10  1  0.750000  0.849941  0.566153  1
  Rh  Rh11  1  0.250000  0.150059  0.433847  1
