# generated using pymatgen
data_SmEr2Co8P6W
_symmetry_space_group_name_H-M   'P 1'
_cell_length_a   3.73026500
_cell_length_b   10.57738500
_cell_length_c   12.26869400
_cell_angle_alpha   90.00000000
_cell_angle_beta   90.00000000
_cell_angle_gamma   90.00000000
_symmetry_Int_Tables_number   1
_chemical_formula_structural   SmEr2Co8P6W
_chemical_formula_sum   'Sm2 Er4 Co16 P12 W2'
_cell_volume   484.07909981
_cell_formula_units_Z   2
loop_
 _symmetry_equiv_pos_site_id
 _symmetry_equiv_pos_as_xyz
  1  'x, y, z'
loop_
 _atom_site_type_symbol
 _atom_site_label
 _atom_site_symmetry_multiplicity
 _atom_site_fract_x
 _atom_site_fract_y
 _atom_site_fract_z
 _atom_site_occupancy
  Sm  Sm0  1  0.750000  0.250000  0.475160  1
  Sm  Sm1  1  0.250000  0.750000  0.524840  1
  Er  Er2  1  0.250000  0.930702  0.795945  1
  Er  Er3  1  0.250000  0.569298  0.795945  1
  Er  Er4  1  0.750000  0.069298  0.204055  1
  Er  Er5  1  0.750000  0.430702  0.204055  1
  Co  Co6  1  0.250000  0.250000  0.296469  1
  Co  Co7  1  0.750000  0.750000  0.703531  1
  Co  Co8  1  0.750000  0.250000  0.013133  1
  Co  Co9  1  0.250000  0.750000  0.986867  1
  Co  Co10  1  0.250000  0.417470  0.009766  1
  Co  Co11  1  0.250000  0.082530  0.009766  1
  Co  Co12  1  0.750000  0.582530  0.990234  1
  Co  Co13  1  0.750000  0.917470  0.990234  1
  Co  Co14  1  0.250000  0.454769  0.569715  1
  Co  Co15  1  0.250000  0.045231  0.569715  1
  Co  Co16  1  0.750000  0.545231  0.430285  1
  Co  Co17  1  0.750000  0.954769  0.430285  1
  Co  Co18  1  0.250000  0.871815  0.290660  1
  Co  Co19  1  0.250000  0.628185  0.290660  1
  Co  Co20  1  0.750000  0.128185  0.709340  1
  Co  Co21  1  0.750000  0.371815  0.709340  1
  P  P22  1  0.250000  0.250000  0.119049  1
  P  P23  1  0.750000  0.750000  0.880951  1
  P  P24  1  0.250000  0.250000  0.652289  1
  P  P25  1  0.750000  0.750000  0.347711  1
  P  P26  1  0.250000  0.440481  0.382596  1
  P  P27  1  0.250000  0.059519  0.382596  1
  P  P28  1  0.750000  0.559519  0.617404  1
  P  P29  1  0.750000  0.940481  0.617404  1
  P  P30  1  0.250000  0.906165  0.106981  1
  P  P31  1  0.250000  0.593835  0.106981  1
  P  P32  1  0.750000  0.093835  0.893019  1
  P  P33  1  0.750000  0.406165  0.893019  1
  W  W34  1  0.250000  0.250000  0.845027  1
  W  W35  1  0.750000  0.750000  0.154973  1
