# generated using pymatgen
data_TbGdMn6P7Ir6
_symmetry_space_group_name_H-M   'P 1'
_cell_length_a   9.42516700
_cell_length_b   9.42516765
_cell_length_c   3.85210100
_cell_angle_alpha   90.00000000
_cell_angle_beta   90.00000000
_cell_angle_gamma   119.99999533
_symmetry_Int_Tables_number   1
_chemical_formula_structural   TbGdMn6P7Ir6
_chemical_formula_sum   'Tb1 Gd1 Mn6 P7 Ir6'
_cell_volume   296.35103986
_cell_formula_units_Z   1
loop_
 _symmetry_equiv_pos_site_id
 _symmetry_equiv_pos_as_xyz
  1  'x, y, z'
loop_
 _atom_site_type_symbol
 _atom_site_label
 _atom_site_symmetry_multiplicity
 _atom_site_fract_x
 _atom_site_fract_y
 _atom_site_fract_z
 _atom_site_occupancy
  Tb  Tb0  1  0.666667  0.333333  0.000000  1
  Gd  Gd1  1  0.333333  0.666667  0.500000  1
  Mn  Mn2  1  0.269094  0.110527  0.000000  1
  Mn  Mn3  1  0.841432  0.730906  0.000000  1
  Mn  Mn4  1  0.889473  0.158568  0.000000  1
  Mn  Mn5  1  0.095395  0.881602  0.500000  1
  Mn  Mn6  1  0.786207  0.904605  0.500000  1
  Mn  Mn7  1  0.118398  0.213793  0.500000  1
  P  P8  1  0.298410  0.889313  0.000000  1
  P  P9  1  0.590903  0.701590  0.000000  1
  P  P10  1  0.110687  0.409097  0.000000  1
  P  P11  1  0.394774  0.277497  0.500000  1
  P  P12  1  0.882723  0.605226  0.500000  1
  P  P13  1  0.722503  0.117277  0.500000  1
  P  P14  1  0.000000  0.000000  0.000000  1
  Ir  Ir15  1  0.062660  0.637886  0.000000  1
  Ir  Ir16  1  0.575227  0.937340  0.000000  1
  Ir  Ir17  1  0.362114  0.424773  0.000000  1
  Ir  Ir18  1  0.441250  0.054740  0.500000  1
  Ir  Ir19  1  0.613490  0.558750  0.500000  1
  Ir  Ir20  1  0.945260  0.386510  0.500000  1
