# generated using pymatgen
data_Tm2ZrSc(Al3Ir)6
_symmetry_space_group_name_H-M   'P 1'
_cell_length_a   7.51183701
_cell_length_b   7.50945145
_cell_length_c   9.36448700
_cell_angle_alpha   90.00000000
_cell_angle_beta   90.00000000
_cell_angle_gamma   119.65268441
_symmetry_Int_Tables_number   1
_chemical_formula_structural   Tm2ZrSc(Al3Ir)6
_chemical_formula_sum   'Tm2 Zr1 Sc1 Al18 Ir6'
_cell_volume   459.06936768
_cell_formula_units_Z   1
loop_
 _symmetry_equiv_pos_site_id
 _symmetry_equiv_pos_as_xyz
  1  'x, y, z'
loop_
 _atom_site_type_symbol
 _atom_site_label
 _atom_site_symmetry_multiplicity
 _atom_site_fract_x
 _atom_site_fract_y
 _atom_site_fract_z
 _atom_site_occupancy
  Tm  Tm0  1  0.006101  0.326858  0.750000  1
  Tm  Tm1  1  0.328492  0.007000  0.750000  1
  Zr  Zr2  1  0.996533  0.672048  0.250000  1
  Sc  Sc3  1  0.671650  0.995979  0.250000  1
  Al  Al4  1  0.122705  0.121910  0.250000  1
  Al  Al5  1  0.869861  0.869301  0.750000  1
  Al  Al6  1  0.997164  0.334500  0.080692  1
  Al  Al7  1  0.999437  0.664757  0.928320  1
  Al  Al8  1  0.999437  0.664757  0.571680  1
  Al  Al9  1  0.335706  0.998316  0.419097  1
  Al  Al10  1  0.997164  0.334500  0.419308  1
  Al  Al11  1  0.664533  0.998732  0.572378  1
  Al  Al12  1  0.664533  0.998732  0.927622  1
  Al  Al13  1  0.335706  0.998316  0.080903  1
  Al  Al14  1  0.333824  0.333979  0.551248  1
  Al  Al15  1  0.669089  0.669701  0.440665  1
  Al  Al16  1  0.669089  0.669701  0.059335  1
  Al  Al17  1  0.333824  0.333979  0.948752  1
  Al  Al18  1  0.338651  0.553876  0.250000  1
  Al  Al19  1  0.660336  0.451505  0.750000  1
  Al  Al20  1  0.555823  0.342131  0.250000  1
  Al  Al21  1  0.450663  0.659504  0.750000  1
  Ir  Ir22  1  0.672476  0.328016  0.000669  1
  Ir  Ir23  1  0.327300  0.672185  0.001338  1
  Ir  Ir24  1  0.327300  0.672185  0.498662  1
  Ir  Ir25  1  0.672476  0.328016  0.499331  1
  Ir  Ir26  1  0.000065  0.999756  0.000387  1
  Ir  Ir27  1  0.000065  0.999756  0.499613  1
