# generated using pymatgen
data_TmScCoB6
_symmetry_space_group_name_H-M   'P 1'
_cell_length_a   3.41293400
_cell_length_b   8.90525900
_cell_length_c   11.23427000
_cell_angle_alpha   90.00000000
_cell_angle_beta   90.00000000
_cell_angle_gamma   90.00000000
_symmetry_Int_Tables_number   1
_chemical_formula_structural   TmScCoB6
_chemical_formula_sum   'Tm4 Sc4 Co4 B24'
_cell_volume   341.44385587
_cell_formula_units_Z   4
loop_
 _symmetry_equiv_pos_site_id
 _symmetry_equiv_pos_as_xyz
  1  'x, y, z'
loop_
 _atom_site_type_symbol
 _atom_site_label
 _atom_site_symmetry_multiplicity
 _atom_site_fract_x
 _atom_site_fract_y
 _atom_site_fract_z
 _atom_site_occupancy
  Tm  Tm0  1  0.500000  0.322140  0.414421  1
  Tm  Tm1  1  0.500000  0.677860  0.585579  1
  Tm  Tm2  1  0.500000  0.177860  0.914421  1
  Tm  Tm3  1  0.500000  0.822140  0.085579  1
  Sc  Sc4  1  0.500000  0.444120  0.128198  1
  Sc  Sc5  1  0.500000  0.555880  0.871802  1
  Sc  Sc6  1  0.500000  0.055880  0.628198  1
  Sc  Sc7  1  0.500000  0.944120  0.371802  1
  Co  Co8  1  0.500000  0.141849  0.181894  1
  Co  Co9  1  0.500000  0.858151  0.818106  1
  Co  Co10  1  0.500000  0.358151  0.681894  1
  Co  Co11  1  0.500000  0.641849  0.318106  1
  B  B12  1  0.000000  0.100520  0.473170  1
  B  B13  1  0.000000  0.899480  0.526830  1
  B  B14  1  0.000000  0.399480  0.973170  1
  B  B15  1  0.000000  0.600520  0.026830  1
  B  B16  1  0.000000  0.131326  0.317051  1
  B  B17  1  0.000000  0.868674  0.682949  1
  B  B18  1  0.000000  0.368674  0.817051  1
  B  B19  1  0.000000  0.631326  0.182949  1
  B  B20  1  0.000000  0.054976  0.067084  1
  B  B21  1  0.000000  0.945024  0.932916  1
  B  B22  1  0.000000  0.445024  0.567084  1
  B  B23  1  0.000000  0.554976  0.432916  1
  B  B24  1  0.000000  0.484194  0.286618  1
  B  B25  1  0.000000  0.515806  0.713382  1
  B  B26  1  0.000000  0.015806  0.786618  1
  B  B27  1  0.000000  0.984194  0.213382  1
  B  B28  1  0.000000  0.251303  0.082304  1
  B  B29  1  0.000000  0.748697  0.917696  1
  B  B30  1  0.000000  0.248697  0.582304  1
  B  B31  1  0.000000  0.751303  0.417696  1
  B  B32  1  0.000000  0.294360  0.235934  1
  B  B33  1  0.000000  0.705640  0.764066  1
  B  B34  1  0.000000  0.205640  0.735934  1
  B  B35  1  0.000000  0.794360  0.264066  1
