# generated using pymatgen
data_Tb4Zn3(Ga5Pd2)3
_symmetry_space_group_name_H-M   'P 1'
_cell_length_a   7.61850200
_cell_length_b   7.64021412
_cell_length_c   9.56275700
_cell_angle_alpha   90.00000000
_cell_angle_beta   90.00000000
_cell_angle_gamma   119.30425922
_symmetry_Int_Tables_number   1
_chemical_formula_structural   Tb4Zn3(Ga5Pd2)3
_chemical_formula_sum   'Tb4 Zn3 Ga15 Pd6'
_cell_volume   485.39030906
_cell_formula_units_Z   1
loop_
 _symmetry_equiv_pos_site_id
 _symmetry_equiv_pos_as_xyz
  1  'x, y, z'
loop_
 _atom_site_type_symbol
 _atom_site_label
 _atom_site_symmetry_multiplicity
 _atom_site_fract_x
 _atom_site_fract_y
 _atom_site_fract_z
 _atom_site_occupancy
  Tb  Tb0  1  0.996526  0.670961  0.250000  1
  Tb  Tb1  1  0.003361  0.329844  0.750000  1
  Tb  Tb2  1  0.672758  0.998727  0.250000  1
  Tb  Tb3  1  0.329308  0.003215  0.750000  1
  Zn  Zn4  1  0.139285  0.137938  0.250000  1
  Zn  Zn5  1  0.865134  0.864682  0.750000  1
  Zn  Zn6  1  0.342177  0.544116  0.250000  1
  Ga  Ga7  1  0.006648  0.336307  0.086219  1
  Ga  Ga8  1  0.996445  0.666771  0.917504  1
  Ga  Ga9  1  0.996445  0.666771  0.582496  1
  Ga  Ga10  1  0.333537  0.000639  0.415811  1
  Ga  Ga11  1  0.006648  0.336307  0.413781  1
  Ga  Ga12  1  0.667512  0.998056  0.583126  1
  Ga  Ga13  1  0.667512  0.998056  0.916874  1
  Ga  Ga14  1  0.333537  0.000639  0.084189  1
  Ga  Ga15  1  0.331094  0.330864  0.561387  1
  Ga  Ga16  1  0.664103  0.666918  0.432734  1
  Ga  Ga17  1  0.664103  0.666918  0.067266  1
  Ga  Ga18  1  0.331094  0.330864  0.938613  1
  Ga  Ga19  1  0.657488  0.455060  0.750000  1
  Ga  Ga20  1  0.539898  0.341875  0.250000  1
  Ga  Ga21  1  0.456762  0.657158  0.750000  1
  Pd  Pd22  1  0.673942  0.326831  0.000066  1
  Pd  Pd23  1  0.326524  0.673064  0.996556  1
  Pd  Pd24  1  0.326524  0.673064  0.503444  1
  Pd  Pd25  1  0.673942  0.326831  0.499934  1
  Pd  Pd26  1  0.998849  0.998764  0.000616  1
  Pd  Pd27  1  0.998849  0.998764  0.499384  1
