# generated using pymatgen
data_Sm3CBr5
_symmetry_space_group_name_H-M   'P 1'
_cell_length_a   7.53789924
_cell_length_b   9.06452724
_cell_length_c   9.16809976
_cell_angle_alpha   107.91230221
_cell_angle_beta   97.11802841
_cell_angle_gamma   105.36119302
_symmetry_Int_Tables_number   1
_chemical_formula_structural   Sm3CBr5
_chemical_formula_sum   'Sm6 C2 Br10'
_cell_volume   560.18918559
_cell_formula_units_Z   2
loop_
 _symmetry_equiv_pos_site_id
 _symmetry_equiv_pos_as_xyz
  1  'x, y, z'
loop_
 _atom_site_type_symbol
 _atom_site_label
 _atom_site_symmetry_multiplicity
 _atom_site_fract_x
 _atom_site_fract_y
 _atom_site_fract_z
 _atom_site_occupancy
  Sm  Sm0  1  0.888472  0.957112  0.229080  1
  Sm  Sm1  1  0.111528  0.042888  0.770920  1
  Sm  Sm2  1  0.027340  0.722817  0.917230  1
  Sm  Sm3  1  0.972660  0.277183  0.082770  1
  Sm  Sm4  1  0.611398  0.850847  0.802209  1
  Sm  Sm5  1  0.388602  0.149153  0.197791  1
  C  C6  1  0.906662  0.966487  0.954064  1
  C  C7  1  0.093338  0.033513  0.045936  1
  Br  Br8  1  0.749425  0.914558  0.537747  1
  Br  Br9  1  0.250575  0.085442  0.462253  1
  Br  Br10  1  0.457541  0.818545  0.085677  1
  Br  Br11  1  0.542459  0.181455  0.914323  1
  Br  Br12  1  0.819000  0.267795  0.356198  1
  Br  Br13  1  0.181000  0.732205  0.643802  1
  Br  Br14  1  0.910276  0.629411  0.173823  1
  Br  Br15  1  0.089724  0.370589  0.826177  1
  Br  Br16  1  0.652102  0.535580  0.721951  1
  Br  Br17  1  0.347898  0.464420  0.278049  1
