# generated using pymatgen
data_Tb(Ga3Pt)3
_symmetry_space_group_name_H-M   'P 1'
_cell_length_a   10.48162008
_cell_length_b   10.48161960
_cell_length_c   10.48161911
_cell_angle_alpha   42.55614745
_cell_angle_beta   42.55615158
_cell_angle_gamma   42.55614801
_symmetry_Int_Tables_number   1
_chemical_formula_structural   Tb(Ga3Pt)3
_chemical_formula_sum   'Tb2 Ga18 Pt6'
_cell_volume   476.98925787
_cell_formula_units_Z   2
loop_
 _symmetry_equiv_pos_site_id
 _symmetry_equiv_pos_as_xyz
  1  'x, y, z'
loop_
 _atom_site_type_symbol
 _atom_site_label
 _atom_site_symmetry_multiplicity
 _atom_site_fract_x
 _atom_site_fract_y
 _atom_site_fract_z
 _atom_site_occupancy
  Tb  Tb0  1  0.166860  0.166860  0.166860  1
  Tb  Tb1  1  0.833140  0.833140  0.833140  1
  Ga  Ga2  1  0.049022  0.049022  0.049022  1
  Ga  Ga3  1  0.703860  0.500000  0.296140  1
  Ga  Ga4  1  0.666164  0.333836  0.000000  1
  Ga  Ga5  1  0.107950  0.438914  0.769565  1
  Ga  Ga6  1  0.438914  0.769565  0.107950  1
  Ga  Ga7  1  0.384305  0.384305  0.384305  1
  Ga  Ga8  1  0.333836  0.000000  0.666164  1
  Ga  Ga9  1  0.615695  0.615695  0.615695  1
  Ga  Ga10  1  0.230435  0.561086  0.892050  1
  Ga  Ga11  1  0.561086  0.892050  0.230435  1
  Ga  Ga12  1  0.500000  0.296140  0.703860  1
  Ga  Ga13  1  0.769565  0.107950  0.438914  1
  Ga  Ga14  1  0.950978  0.950978  0.950978  1
  Ga  Ga15  1  0.296140  0.703860  0.500000  1
  Ga  Ga16  1  0.000000  0.666164  0.333836  1
  Ga  Ga17  1  0.714846  0.714846  0.714846  1
  Ga  Ga18  1  0.285154  0.285154  0.285154  1
  Ga  Ga19  1  0.892050  0.230435  0.561086  1
  Pt  Pt20  1  0.240809  0.921311  0.581492  1
  Pt  Pt21  1  0.921311  0.581492  0.240809  1
  Pt  Pt22  1  0.759191  0.418508  0.078689  1
  Pt  Pt23  1  0.078689  0.759191  0.418508  1
  Pt  Pt24  1  0.418508  0.078689  0.759191  1
  Pt  Pt25  1  0.581492  0.240809  0.921311  1
