# generated using pymatgen
data_Ce2Ho3MnSb2
_symmetry_space_group_name_H-M   'P 1'
_cell_length_a   7.83803500
_cell_length_b   8.85944500
_cell_length_c   12.02273500
_cell_angle_alpha   90.00000000
_cell_angle_beta   90.00000000
_cell_angle_gamma   90.00000000
_symmetry_Int_Tables_number   1
_chemical_formula_structural   Ce2Ho3MnSb2
_chemical_formula_sum   'Ce8 Ho12 Mn4 Sb8'
_cell_volume   834.86641284
_cell_formula_units_Z   4
loop_
 _symmetry_equiv_pos_site_id
 _symmetry_equiv_pos_as_xyz
  1  'x, y, z'
loop_
 _atom_site_type_symbol
 _atom_site_label
 _atom_site_symmetry_multiplicity
 _atom_site_fract_x
 _atom_site_fract_y
 _atom_site_fract_z
 _atom_site_occupancy
  Ce  Ce0  1  0.840515  0.988954  0.053809  1
  Ce  Ce1  1  0.340515  0.011046  0.446191  1
  Ce  Ce2  1  0.159485  0.488954  0.946191  1
  Ce  Ce3  1  0.659485  0.511046  0.553809  1
  Ce  Ce4  1  0.159485  0.011046  0.946191  1
  Ce  Ce5  1  0.659485  0.988954  0.553809  1
  Ce  Ce6  1  0.840515  0.511046  0.053809  1
  Ce  Ce7  1  0.340515  0.488954  0.446191  1
  Ho  Ho8  1  0.174309  0.750000  0.214594  1
  Ho  Ho9  1  0.674309  0.250000  0.285406  1
  Ho  Ho10  1  0.825691  0.250000  0.785406  1
  Ho  Ho11  1  0.325691  0.750000  0.714594  1
  Ho  Ho12  1  0.476966  0.750000  0.000956  1
  Ho  Ho13  1  0.976966  0.250000  0.499044  1
  Ho  Ho14  1  0.523034  0.250000  0.999044  1
  Ho  Ho15  1  0.023034  0.750000  0.500956  1
  Ho  Ho16  1  0.644098  0.750000  0.292592  1
  Ho  Ho17  1  0.144098  0.250000  0.207408  1
  Ho  Ho18  1  0.355902  0.250000  0.707408  1
  Ho  Ho19  1  0.855902  0.750000  0.792592  1
  Mn  Mn20  1  0.388923  0.750000  0.468214  1
  Mn  Mn21  1  0.888923  0.250000  0.031786  1
  Mn  Mn22  1  0.611077  0.250000  0.531786  1
  Mn  Mn23  1  0.111077  0.750000  0.968214  1
  Sb  Sb24  1  0.938766  0.993226  0.326392  1
  Sb  Sb25  1  0.438766  0.006774  0.173608  1
  Sb  Sb26  1  0.061234  0.493226  0.673608  1
  Sb  Sb27  1  0.561234  0.506774  0.826392  1
  Sb  Sb28  1  0.061234  0.006774  0.673608  1
  Sb  Sb29  1  0.561234  0.993226  0.826392  1
  Sb  Sb30  1  0.938766  0.506774  0.326392  1
  Sb  Sb31  1  0.438766  0.493226  0.173608  1
