# generated using pymatgen
data_Er8Cd2NiOs
_symmetry_space_group_name_H-M   'P 1'
_cell_length_a   9.49221067
_cell_length_b   9.49221028
_cell_length_c   9.59672500
_cell_angle_alpha   59.63541402
_cell_angle_beta   59.63527315
_cell_angle_gamma   59.37162350
_symmetry_Int_Tables_number   1
_chemical_formula_structural   Er8Cd2NiOs
_chemical_formula_sum   'Er16 Cd4 Ni2 Os2'
_cell_volume   605.12448599
_cell_formula_units_Z   2
loop_
 _symmetry_equiv_pos_site_id
 _symmetry_equiv_pos_as_xyz
  1  'x, y, z'
loop_
 _atom_site_type_symbol
 _atom_site_label
 _atom_site_symmetry_multiplicity
 _atom_site_fract_x
 _atom_site_fract_y
 _atom_site_fract_z
 _atom_site_occupancy
  Er  Er0  1  0.350626  0.350677  0.341393  1
  Er  Er1  1  0.350633  0.350680  0.957314  1
  Er  Er2  1  0.352159  0.956328  0.345741  1
  Er  Er3  1  0.956344  0.352187  0.345723  1
  Er  Er4  1  0.810854  0.185540  0.190611  1
  Er  Er5  1  0.185531  0.810831  0.813037  1
  Er  Er6  1  0.185532  0.810830  0.190604  1
  Er  Er7  1  0.810862  0.185540  0.812993  1
  Er  Er8  1  0.188322  0.188340  0.811658  1
  Er  Er9  1  0.809503  0.809456  0.190519  1
  Er  Er10  1  0.939194  0.555555  0.567082  1
  Er  Er11  1  0.555546  0.939197  0.938152  1
  Er  Er12  1  0.555536  0.939193  0.567098  1
  Er  Er13  1  0.939200  0.555558  0.938153  1
  Er  Er14  1  0.565941  0.565957  0.934061  1
  Er  Er15  1  0.941567  0.941561  0.558443  1
  Cd  Cd16  1  0.579113  0.579113  0.583230  1
  Cd  Cd17  1  0.579123  0.579113  0.258532  1
  Cd  Cd18  1  0.579976  0.256232  0.581914  1
  Cd  Cd19  1  0.256251  0.579959  0.581895  1
  Ni  Ni20  1  0.142487  0.577827  0.139855  1
  Ni  Ni21  1  0.577891  0.142520  0.139818  1
  Os  Os22  1  0.143899  0.143900  0.138195  1
  Os  Os23  1  0.143907  0.143904  0.573977  1
