# generated using pymatgen
data_Ti3VRe2P3
_symmetry_space_group_name_H-M   'P 1'
_cell_length_a   6.63126794
_cell_length_b   6.63127036
_cell_length_c   3.26923900
_cell_angle_alpha   90.00000000
_cell_angle_beta   90.00000000
_cell_angle_gamma   120.11329785
_symmetry_Int_Tables_number   1
_chemical_formula_structural   Ti3VRe2P3
_chemical_formula_sum   'Ti3 V1 Re2 P3'
_cell_volume   124.35798096
_cell_formula_units_Z   1
loop_
 _symmetry_equiv_pos_site_id
 _symmetry_equiv_pos_as_xyz
  1  'x, y, z'
loop_
 _atom_site_type_symbol
 _atom_site_label
 _atom_site_symmetry_multiplicity
 _atom_site_fract_x
 _atom_site_fract_y
 _atom_site_fract_z
 _atom_site_occupancy
  Ti  Ti0  1  0.412210  0.412210  0.500000  1
  Ti  Ti1  1  0.596321  0.995541  0.500000  1
  Ti  Ti2  1  0.995541  0.596321  0.500000  1
  V  V3  1  0.742329  0.742329  0.000000  1
  Re  Re4  1  0.001435  0.257513  0.000000  1
  Re  Re5  1  0.257513  0.001435  0.000000  1
  P  P6  1  0.668567  0.337539  0.000000  1
  P  P7  1  0.337539  0.668567  0.000000  1
  P  P8  1  0.988546  0.988546  0.500000  1
