# generated using pymatgen
data_Th10Ge2Bi5Pb
_symmetry_space_group_name_H-M   'P 1'
_cell_length_a   9.66483800
_cell_length_b   9.67512139
_cell_length_c   6.62326000
_cell_angle_alpha   90.00000000
_cell_angle_beta   90.00000000
_cell_angle_gamma   120.03520405
_symmetry_Int_Tables_number   1
_chemical_formula_structural   Th10Ge2Bi5Pb
_chemical_formula_sum   'Th10 Ge2 Bi5 Pb1'
_cell_volume   536.16599486
_cell_formula_units_Z   1
loop_
 _symmetry_equiv_pos_site_id
 _symmetry_equiv_pos_as_xyz
  1  'x, y, z'
loop_
 _atom_site_type_symbol
 _atom_site_label
 _atom_site_symmetry_multiplicity
 _atom_site_fract_x
 _atom_site_fract_y
 _atom_site_fract_z
 _atom_site_occupancy
  Th  Th0  1  0.667316  0.333798  0.500709  1
  Th  Th1  1  0.332684  0.666481  0.500709  1
  Th  Th2  1  0.332684  0.666481  0.999291  1
  Th  Th3  1  0.667316  0.333798  0.999291  1
  Th  Th4  1  0.742272  0.741828  0.250000  1
  Th  Th5  1  0.257728  0.999555  0.250000  1
  Th  Th6  1  0.000000  0.257458  0.250000  1
  Th  Th7  1  0.257077  0.258413  0.750000  1
  Th  Th8  1  0.742923  0.001336  0.750000  1
  Th  Th9  1  0.000000  0.741402  0.750000  1
  Ge  Ge10  1  0.000000  0.999526  0.500247  1
  Ge  Ge11  1  0.000000  0.999526  0.999753  1
  Bi  Bi12  1  0.389213  0.389609  0.250000  1
  Bi  Bi13  1  0.610787  0.000396  0.250000  1
  Bi  Bi14  1  0.000000  0.609571  0.250000  1
  Bi  Bi15  1  0.610881  0.611398  0.750000  1
  Bi  Bi16  1  0.389119  0.000515  0.750000  1
  Pb  Pb17  1  0.000000  0.388913  0.750000  1
