# generated using pymatgen
data_Tm4Ga5(CoNi2)3
_symmetry_space_group_name_H-M   'P 1'
_cell_length_a   5.19385703
_cell_length_b   5.19385760
_cell_length_c   12.05553300
_cell_angle_alpha   77.56019035
_cell_angle_beta   77.56018895
_cell_angle_gamma   60.00000607
_symmetry_Int_Tables_number   1
_chemical_formula_structural   Tm4Ga5(CoNi2)3
_chemical_formula_sum   'Tm4 Ga5 Co3 Ni6'
_cell_volume   272.78998151
_cell_formula_units_Z   1
loop_
 _symmetry_equiv_pos_site_id
 _symmetry_equiv_pos_as_xyz
  1  'x, y, z'
loop_
 _atom_site_type_symbol
 _atom_site_label
 _atom_site_symmetry_multiplicity
 _atom_site_fract_x
 _atom_site_fract_y
 _atom_site_fract_z
 _atom_site_occupancy
  Tm  Tm0  1  0.954382  0.954382  0.136853  1
  Tm  Tm1  1  0.045618  0.045618  0.863147  1
  Tm  Tm2  1  0.855139  0.855139  0.434584  1
  Tm  Tm3  1  0.144861  0.144861  0.565416  1
  Ga  Ga4  1  0.500000  0.500000  0.500000  1
  Ga  Ga5  1  0.721524  0.721524  0.835430  1
  Ga  Ga6  1  0.278476  0.278476  0.164570  1
  Ga  Ga7  1  0.611521  0.611521  0.165435  1
  Ga  Ga8  1  0.388479  0.388479  0.834565  1
  Co  Co9  1  0.000000  0.500000  0.000000  1
  Co  Co10  1  0.500000  0.000000  0.000000  1
  Co  Co11  1  0.500000  0.500000  0.000000  1
  Ni  Ni12  1  0.386259  0.386259  0.332694  1
  Ni  Ni13  1  0.894791  0.386259  0.332694  1
  Ni  Ni14  1  0.386259  0.894791  0.332694  1
  Ni  Ni15  1  0.613741  0.613741  0.667306  1
  Ni  Ni16  1  0.105209  0.613741  0.667306  1
  Ni  Ni17  1  0.613741  0.105209  0.667306  1
