# generated using pymatgen
data_YbZr2(USb2)5
_symmetry_space_group_name_H-M   'P 1'
_cell_length_a   9.26664005
_cell_length_b   9.26096071
_cell_length_c   6.22048700
_cell_angle_alpha   90.00000000
_cell_angle_beta   90.00000000
_cell_angle_gamma   120.03253127
_symmetry_Int_Tables_number   1
_chemical_formula_structural   YbZr2(USb2)5
_chemical_formula_sum   'Yb1 Zr2 U5 Sb10'
_cell_volume   462.15844806
_cell_formula_units_Z   1
loop_
 _symmetry_equiv_pos_site_id
 _symmetry_equiv_pos_as_xyz
  1  'x, y, z'
loop_
 _atom_site_type_symbol
 _atom_site_label
 _atom_site_symmetry_multiplicity
 _atom_site_fract_x
 _atom_site_fract_y
 _atom_site_fract_z
 _atom_site_occupancy
  Yb  Yb0  1  0.381066  0.999975  0.750000  1
  Zr  Zr1  1  0.999865  0.999996  0.998304  1
  Zr  Zr2  1  0.999865  0.999996  0.501696  1
  U  U3  1  0.386461  0.382784  0.250000  1
  U  U4  1  0.003681  0.617258  0.250000  1
  U  U5  1  0.000142  0.388673  0.750000  1
  U  U6  1  0.611525  0.611372  0.750000  1
  U  U7  1  0.616589  0.999986  0.250000  1
  Sb  Sb8  1  0.670416  0.335781  0.498199  1
  Sb  Sb9  1  0.334655  0.664225  0.001785  1
  Sb  Sb10  1  0.727350  0.999976  0.750000  1
  Sb  Sb11  1  0.728168  0.727599  0.250000  1
  Sb  Sb12  1  0.334655  0.664225  0.498215  1
  Sb  Sb13  1  0.670416  0.335781  0.001801  1
  Sb  Sb14  1  0.269232  0.999972  0.250000  1
  Sb  Sb15  1  0.269639  0.273864  0.750000  1
  Sb  Sb16  1  0.995748  0.726142  0.750000  1
  Sb  Sb17  1  0.000526  0.272397  0.250000  1
