# generated using pymatgen
data_Ac3Nd(AgAs2)4
_symmetry_space_group_name_H-M   'P 1'
_cell_length_a   4.16712000
_cell_length_b   4.24254954
_cell_length_c   21.88311918
_cell_angle_alpha   89.81379475
_cell_angle_beta   90.00000000
_cell_angle_gamma   90.00000000
_symmetry_Int_Tables_number   1
_chemical_formula_structural   Ac3Nd(AgAs2)4
_chemical_formula_sum   'Ac3 Nd1 Ag4 As8'
_cell_volume   386.87428337
_cell_formula_units_Z   1
loop_
 _symmetry_equiv_pos_site_id
 _symmetry_equiv_pos_as_xyz
  1  'x, y, z'
loop_
 _atom_site_type_symbol
 _atom_site_label
 _atom_site_symmetry_multiplicity
 _atom_site_fract_x
 _atom_site_fract_y
 _atom_site_fract_z
 _atom_site_occupancy
  Ac  Ac0  1  0.250000  0.727008  0.113162  1
  Ac  Ac1  1  0.750000  0.223183  0.382835  1
  Ac  Ac2  1  0.250000  0.776715  0.619399  1
  Nd  Nd3  1  0.750000  0.271860  0.881767  1
  Ag  Ag4  1  0.750000  0.724827  0.248391  1
  Ag  Ag5  1  0.250000  0.224968  0.249026  1
  Ag  Ag6  1  0.750000  0.774619  0.754466  1
  Ag  Ag7  1  0.250000  0.274194  0.754845  1
  As  As8  1  0.750000  0.226117  0.165298  1
  As  As9  1  0.250000  0.723768  0.331767  1
  As  As10  1  0.750000  0.276193  0.670852  1
  As  As11  1  0.250000  0.772063  0.839441  1
  As  As12  1  0.250000  0.191966  0.995789  1
  As  As13  1  0.750000  0.689426  0.498636  1
  As  As14  1  0.250000  0.311545  0.502941  1
  As  As15  1  0.750000  0.811549  0.991385  1
