# generated using pymatgen
data_Pr32Rh19Au3
_symmetry_space_group_name_H-M   'P 1'
_cell_length_a   11.92451400
_cell_length_b   11.92451367
_cell_length_c   10.10286000
_cell_angle_alpha   90.00000000
_cell_angle_beta   90.00000000
_cell_angle_gamma   90.74560768
_symmetry_Int_Tables_number   1
_chemical_formula_structural   Pr32Rh19Au3
_chemical_formula_sum   'Pr32 Rh19 Au3'
_cell_volume   1436.44474330
_cell_formula_units_Z   1
loop_
 _symmetry_equiv_pos_site_id
 _symmetry_equiv_pos_as_xyz
  1  'x, y, z'
loop_
 _atom_site_type_symbol
 _atom_site_label
 _atom_site_symmetry_multiplicity
 _atom_site_fract_x
 _atom_site_fract_y
 _atom_site_fract_z
 _atom_site_occupancy
  Pr  Pr0  1  0.499132  0.499125  0.812448  1
  Pr  Pr1  1  0.995636  0.995671  0.811445  1
  Pr  Pr2  1  0.499132  0.499125  0.187552  1
  Pr  Pr3  1  0.995636  0.995671  0.188555  1
  Pr  Pr4  1  0.714435  0.073805  0.000000  1
  Pr  Pr5  1  0.297151  0.914411  0.000000  1
  Pr  Pr6  1  0.214471  0.432577  0.000000  1
  Pr  Pr7  1  0.785844  0.577096  0.000000  1
  Pr  Pr8  1  0.432601  0.214464  0.000000  1
  Pr  Pr9  1  0.577116  0.785859  0.000000  1
  Pr  Pr10  1  0.073822  0.714433  0.000000  1
  Pr  Pr11  1  0.914434  0.297135  0.000000  1
  Pr  Pr12  1  0.584271  0.200859  0.691560  1
  Pr  Pr13  1  0.416506  0.796147  0.691830  1
  Pr  Pr14  1  0.081591  0.298074  0.693074  1
  Pr  Pr15  1  0.915388  0.701093  0.691516  1
  Pr  Pr16  1  0.298080  0.081593  0.693064  1
  Pr  Pr17  1  0.701090  0.915408  0.691515  1
  Pr  Pr18  1  0.200853  0.584258  0.691563  1
  Pr  Pr19  1  0.796161  0.416524  0.691826  1
  Pr  Pr20  1  0.416506  0.796147  0.308170  1
  Pr  Pr21  1  0.584271  0.200859  0.308440  1
  Pr  Pr22  1  0.915388  0.701093  0.308484  1
  Pr  Pr23  1  0.081591  0.298074  0.306926  1
  Pr  Pr24  1  0.701090  0.915408  0.308485  1
  Pr  Pr25  1  0.298080  0.081593  0.306936  1
  Pr  Pr26  1  0.796161  0.416524  0.308174  1
  Pr  Pr27  1  0.200853  0.584258  0.308437  1
  Pr  Pr28  1  0.630834  0.630821  0.500000  1
  Pr  Pr29  1  0.364620  0.364614  0.500000  1
  Pr  Pr30  1  0.130678  0.869166  0.500000  1
  Pr  Pr31  1  0.869132  0.130699  0.500000  1
  Rh  Rh32  1  0.673525  0.673522  0.772411  1
  Rh  Rh33  1  0.323387  0.323395  0.776307  1
  Rh  Rh34  1  0.175498  0.828798  0.773203  1
  Rh  Rh35  1  0.828810  0.175499  0.773189  1
  Rh  Rh36  1  0.323387  0.323395  0.223693  1
  Rh  Rh37  1  0.673525  0.673522  0.227589  1
  Rh  Rh38  1  0.828810  0.175499  0.226811  1
  Rh  Rh39  1  0.175498  0.828798  0.226797  1
  Rh  Rh40  1  0.119663  0.119656  0.500000  1
  Rh  Rh41  1  0.883217  0.883221  0.500000  1
  Rh  Rh42  1  0.612578  0.384043  0.500000  1
  Rh  Rh43  1  0.384027  0.612570  0.500000  1
  Rh  Rh44  1  0.501664  0.999256  0.847169  1
  Rh  Rh45  1  0.999247  0.501670  0.847185  1
  Rh  Rh46  1  0.501664  0.999256  0.152831  1
  Rh  Rh47  1  0.999247  0.501670  0.152815  1
  Rh  Rh48  1  0.856156  0.856165  0.000000  1
  Rh  Rh49  1  0.649974  0.354248  0.000000  1
  Rh  Rh50  1  0.354284  0.649956  0.000000  1
  Au  Au51  1  0.499077  0.999244  0.500000  1
  Au  Au52  1  0.999244  0.499071  0.500000  1
  Au  Au53  1  0.154967  0.154964  0.000000  1
