# generated using pymatgen
data_PrGd2Ho3(SbO7)2
_symmetry_space_group_name_H-M   'P 1'
_cell_length_a   6.50756262
_cell_length_b   6.52807155
_cell_length_c   7.59713357
_cell_angle_alpha   89.93322338
_cell_angle_beta   90.08211167
_cell_angle_gamma   109.11293603
_symmetry_Int_Tables_number   1
_chemical_formula_structural   PrGd2Ho3(SbO7)2
_chemical_formula_sum   'Pr1 Gd2 Ho3 Sb2 O14'
_cell_volume   304.94872533
_cell_formula_units_Z   1
loop_
 _symmetry_equiv_pos_site_id
 _symmetry_equiv_pos_as_xyz
  1  'x, y, z'
loop_
 _atom_site_type_symbol
 _atom_site_label
 _atom_site_symmetry_multiplicity
 _atom_site_fract_x
 _atom_site_fract_y
 _atom_site_fract_z
 _atom_site_occupancy
  Pr  Pr0  1  0.499918  0.500339  0.500902  1
  Gd  Gd1  1  0.485543  0.484061  0.998565  1
  Gd  Gd2  1  0.998733  0.531249  0.245318  1
  Ho  Ho3  1  0.998144  0.470024  0.750036  1
  Ho  Ho4  1  0.532753  0.999338  0.754788  1
  Ho  Ho5  1  0.469550  0.997860  0.250135  1
  Sb  Sb6  1  0.000303  0.999906  0.501194  1
  Sb  Sb7  1  0.000675  0.000785  0.999032  1
  O  O8  1  0.928847  0.069130  0.749835  1
  O  O9  1  0.071768  0.935904  0.250361  1
  O  O10  1  0.362066  0.641857  0.242518  1
  O  O11  1  0.640954  0.356122  0.756506  1
  O  O12  1  0.364410  0.635480  0.757096  1
  O  O13  1  0.628889  0.360806  0.243434  1
  O  O14  1  0.322626  0.071399  0.971218  1
  O  O15  1  0.678865  0.932776  0.471188  1
  O  O16  1  0.319876  0.063277  0.533012  1
  O  O17  1  0.684591  0.942676  0.032882  1
  O  O18  1  0.070866  0.320689  0.472534  1
  O  O19  1  0.933588  0.683783  0.965334  1
  O  O20  1  0.928321  0.678768  0.530867  1
  O  O21  1  0.078713  0.323770  0.023245  1
