# generated using pymatgen
data_Zr4Nb3Si3PW
_symmetry_space_group_name_H-M   'P 1'
_cell_length_a   3.59595800
_cell_length_b   7.00604369
_cell_length_c   8.42284414
_cell_angle_alpha   89.98424566
_cell_angle_beta   90.00000000
_cell_angle_gamma   90.00000000
_symmetry_Int_Tables_number   1
_chemical_formula_structural   Zr4Nb3Si3PW
_chemical_formula_sum   'Zr4 Nb3 Si3 P1 W1'
_cell_volume   212.20040106
_cell_formula_units_Z   1
loop_
 _symmetry_equiv_pos_site_id
 _symmetry_equiv_pos_as_xyz
  1  'x, y, z'
loop_
 _atom_site_type_symbol
 _atom_site_label
 _atom_site_symmetry_multiplicity
 _atom_site_fract_x
 _atom_site_fract_y
 _atom_site_fract_z
 _atom_site_occupancy
  Zr  Zr0  1  0.250000  0.544339  0.836048  1
  Zr  Zr1  1  0.750000  0.962757  0.332091  1
  Zr  Zr2  1  0.250000  0.038891  0.669234  1
  Zr  Zr3  1  0.750000  0.458220  0.168763  1
  Nb  Nb4  1  0.250000  0.131395  0.061940  1
  Nb  Nb5  1  0.250000  0.632924  0.439613  1
  Nb  Nb6  1  0.750000  0.364295  0.556835  1
  Si  Si7  1  0.750000  0.742881  0.642420  1
  Si  Si8  1  0.250000  0.756508  0.135853  1
  Si  Si9  1  0.750000  0.242630  0.859127  1
  P  P10  1  0.250000  0.256749  0.358650  1
  W  W11  1  0.750000  0.868410  0.939425  1
