# generated using pymatgen
data_Eu3Ta4O14
_symmetry_space_group_name_H-M   'P 1'
_cell_length_a   7.48033869
_cell_length_b   7.48033834
_cell_length_c   7.48033849
_cell_angle_alpha   60.42949157
_cell_angle_beta   60.42949383
_cell_angle_gamma   60.42949775
_symmetry_Int_Tables_number   1
_chemical_formula_structural   Eu3Ta4O14
_chemical_formula_sum   'Eu3 Ta4 O14'
_cell_volume   298.84489214
_cell_formula_units_Z   1
loop_
 _symmetry_equiv_pos_site_id
 _symmetry_equiv_pos_as_xyz
  1  'x, y, z'
loop_
 _atom_site_type_symbol
 _atom_site_label
 _atom_site_symmetry_multiplicity
 _atom_site_fract_x
 _atom_site_fract_y
 _atom_site_fract_z
 _atom_site_occupancy
  Eu  Eu0  1  0.000000  0.500000  0.500000  1
  Eu  Eu1  1  0.500000  0.500000  0.000000  1
  Eu  Eu2  1  0.500000  0.000000  0.500000  1
  Ta  Ta3  1  0.000000  0.000000  0.000000  1
  Ta  Ta4  1  0.500000  0.000000  0.000000  1
  Ta  Ta5  1  0.000000  0.000000  0.500000  1
  Ta  Ta6  1  0.000000  0.500000  0.000000  1
  O  O7  1  0.945283  0.311995  0.311995  1
  O  O8  1  0.315694  0.931980  0.931980  1
  O  O9  1  0.311995  0.311995  0.945283  1
  O  O10  1  0.931980  0.931980  0.315694  1
  O  O11  1  0.931980  0.315694  0.931980  1
  O  O12  1  0.311995  0.945283  0.311995  1
  O  O13  1  0.054717  0.688005  0.688005  1
  O  O14  1  0.684306  0.068020  0.068020  1
  O  O15  1  0.688005  0.688005  0.054717  1
  O  O16  1  0.068020  0.068020  0.684306  1
  O  O17  1  0.068020  0.684306  0.068020  1
  O  O18  1  0.688005  0.054717  0.688005  1
  O  O19  1  0.358147  0.358147  0.358147  1
  O  O20  1  0.641853  0.641853  0.641853  1
