# generated using pymatgen
data_UTl3F7
_symmetry_space_group_name_H-M   'P 1'
_cell_length_a   9.76566191
_cell_length_b   9.76566235
_cell_length_c   11.89700700
_cell_angle_alpha   114.23154206
_cell_angle_beta   114.23154965
_cell_angle_gamma   90.00000065
_symmetry_Int_Tables_number   1
_chemical_formula_structural   UTl3F7
_chemical_formula_sum   'U4 Tl12 F28'
_cell_volume   923.91367223
_cell_formula_units_Z   4
loop_
 _symmetry_equiv_pos_site_id
 _symmetry_equiv_pos_as_xyz
  1  'x, y, z'
loop_
 _atom_site_type_symbol
 _atom_site_label
 _atom_site_symmetry_multiplicity
 _atom_site_fract_x
 _atom_site_fract_y
 _atom_site_fract_z
 _atom_site_occupancy
  U  U0  1  0.858171  0.108171  0.716343  1
  U  U1  1  0.608171  0.358171  0.216343  1
  U  U2  1  0.141829  0.891829  0.283657  1
  U  U3  1  0.391829  0.641829  0.783657  1
  Tl  Tl4  1  0.211803  0.485762  0.988607  1
  Tl  Tl5  1  0.502843  0.711803  0.488607  1
  Tl  Tl6  1  0.985762  0.276804  0.488607  1
  Tl  Tl7  1  0.776804  0.002843  0.988607  1
  Tl  Tl8  1  0.788197  0.514238  0.011393  1
  Tl  Tl9  1  0.497157  0.288197  0.511393  1
  Tl  Tl10  1  0.014238  0.723196  0.511393  1
  Tl  Tl11  1  0.223196  0.997157  0.011393  1
  Tl  Tl12  1  0.375000  0.125000  0.750000  1
  Tl  Tl13  1  0.625000  0.875000  0.250000  1
  Tl  Tl14  1  0.875000  0.625000  0.750000  1
  Tl  Tl15  1  0.125000  0.375000  0.250000  1
  F  F16  1  0.661405  0.139207  0.207945  1
  F  F17  1  0.068738  0.161405  0.707945  1
  F  F18  1  0.639207  0.046540  0.707945  1
  F  F19  1  0.546540  0.568738  0.207945  1
  F  F20  1  0.338595  0.860793  0.792055  1
  F  F21  1  0.931262  0.838595  0.292055  1
  F  F22  1  0.360793  0.953460  0.292055  1
  F  F23  1  0.453460  0.431262  0.792055  1
  F  F24  1  0.135106  0.547825  0.708448  1
  F  F25  1  0.160623  0.635106  0.208448  1
  F  F26  1  0.047825  0.073343  0.208448  1
  F  F27  1  0.573343  0.660623  0.708448  1
  F  F28  1  0.864894  0.452175  0.291552  1
  F  F29  1  0.839377  0.364894  0.791552  1
  F  F30  1  0.952175  0.926657  0.791552  1
  F  F31  1  0.426657  0.339377  0.291552  1
  F  F32  1  0.274079  0.524079  0.548158  1
  F  F33  1  0.024079  0.774079  0.048158  1
  F  F34  1  0.725921  0.475921  0.451842  1
  F  F35  1  0.975921  0.225921  0.951842  1
  F  F36  1  0.375598  0.248846  0.028028  1
  F  F37  1  0.779182  0.875598  0.528028  1
  F  F38  1  0.748846  0.152430  0.528028  1
  F  F39  1  0.652430  0.279182  0.028028  1
  F  F40  1  0.624402  0.751154  0.971972  1
  F  F41  1  0.220818  0.124402  0.471972  1
  F  F42  1  0.251154  0.847570  0.471972  1
  F  F43  1  0.347570  0.720818  0.971972  1
