# generated using pymatgen
data_CaGaPRu2
_symmetry_space_group_name_H-M   'P 1'
_cell_length_a   5.67975218
_cell_length_b   5.67975197
_cell_length_c   5.67975196
_cell_angle_alpha   136.72388750
_cell_angle_beta   136.72388691
_cell_angle_gamma   62.86315795
_symmetry_Int_Tables_number   1
_chemical_formula_structural   CaGaPRu2
_chemical_formula_sum   'Ca1 Ga1 P1 Ru2'
_cell_volume   85.03086456
_cell_formula_units_Z   1
loop_
 _symmetry_equiv_pos_site_id
 _symmetry_equiv_pos_as_xyz
  1  'x, y, z'
loop_
 _atom_site_type_symbol
 _atom_site_label
 _atom_site_symmetry_multiplicity
 _atom_site_fract_x
 _atom_site_fract_y
 _atom_site_fract_z
 _atom_site_occupancy
  Ca  Ca0  1  0.997591  0.997591  0.000000  1
  Ga  Ga1  1  0.378650  0.378650  0.000000  1
  P  P2  1  0.642238  0.642238  0.000000  1
  Ru  Ru3  1  0.240761  0.740761  0.500000  1
  Ru  Ru4  1  0.740761  0.240761  0.500000  1
