# generated using pymatgen
data_Tb2Lu4TcRh
_symmetry_space_group_name_H-M   'P 1'
_cell_length_a   6.24577500
_cell_length_b   7.30663900
_cell_length_c   9.03239100
_cell_angle_alpha   90.00000000
_cell_angle_beta   90.00000000
_cell_angle_gamma   90.00000000
_symmetry_Int_Tables_number   1
_chemical_formula_structural   Tb2Lu4TcRh
_chemical_formula_sum   'Tb4 Lu8 Tc2 Rh2'
_cell_volume   412.19879227
_cell_formula_units_Z   2
loop_
 _symmetry_equiv_pos_site_id
 _symmetry_equiv_pos_as_xyz
  1  'x, y, z'
loop_
 _atom_site_type_symbol
 _atom_site_label
 _atom_site_symmetry_multiplicity
 _atom_site_fract_x
 _atom_site_fract_y
 _atom_site_fract_z
 _atom_site_occupancy
  Tb  Tb0  1  0.874495  0.537545  0.250000  1
  Tb  Tb1  1  0.625505  0.037545  0.250000  1
  Tb  Tb2  1  0.135404  0.459603  0.750000  1
  Tb  Tb3  1  0.364596  0.959603  0.750000  1
  Lu  Lu4  1  0.330616  0.677465  0.067005  1
  Lu  Lu5  1  0.169384  0.177465  0.432995  1
  Lu  Lu6  1  0.663941  0.323628  0.560656  1
  Lu  Lu7  1  0.836059  0.823628  0.939344  1
  Lu  Lu8  1  0.663941  0.323628  0.939344  1
  Lu  Lu9  1  0.836059  0.823628  0.560656  1
  Lu  Lu10  1  0.330616  0.677465  0.432995  1
  Lu  Lu11  1  0.169384  0.177465  0.067005  1
  Tc  Tc12  1  0.039455  0.885539  0.250000  1
  Tc  Tc13  1  0.460545  0.385539  0.250000  1
  Rh  Rh14  1  0.947363  0.115126  0.750000  1
  Rh  Rh15  1  0.552637  0.615126  0.750000  1
