# generated using pymatgen
data_TbU(SO)2
_symmetry_space_group_name_H-M   'P 1'
_cell_length_a   3.78878900
_cell_length_b   3.78878900
_cell_length_c   6.72350000
_cell_angle_alpha   90.00000000
_cell_angle_beta   90.00000000
_cell_angle_gamma   90.00000000
_symmetry_Int_Tables_number   1
_chemical_formula_structural   TbU(SO)2
_chemical_formula_sum   'Tb1 U1 S2 O2'
_cell_volume   96.51531865
_cell_formula_units_Z   1
loop_
 _symmetry_equiv_pos_site_id
 _symmetry_equiv_pos_as_xyz
  1  'x, y, z'
loop_
 _atom_site_type_symbol
 _atom_site_label
 _atom_site_symmetry_multiplicity
 _atom_site_fract_x
 _atom_site_fract_y
 _atom_site_fract_z
 _atom_site_occupancy
  Tb  Tb0  1  0.000000  0.500000  0.788678  1
  U  U1  1  0.500000  0.000000  0.183571  1
  S  S2  1  0.500000  0.000000  0.633899  1
  S  S3  1  0.000000  0.500000  0.365375  1
  O  O4  1  0.000000  0.000000  0.014238  1
  O  O5  1  0.500000  0.500000  0.014238  1
