# generated using pymatgen
data_TbSm3Y2NiI10
_symmetry_space_group_name_H-M   'P 1'
_cell_length_a   7.76481883
_cell_length_b   9.78691464
_cell_length_c   9.82747153
_cell_angle_alpha   107.26626061
_cell_angle_beta   96.64150907
_cell_angle_gamma   104.72636024
_symmetry_Int_Tables_number   1
_chemical_formula_structural   TbSm3Y2NiI10
_chemical_formula_sum   'Tb1 Sm3 Y2 Ni1 I10'
_cell_volume   674.81504514
_cell_formula_units_Z   1
loop_
 _symmetry_equiv_pos_site_id
 _symmetry_equiv_pos_as_xyz
  1  'x, y, z'
loop_
 _atom_site_type_symbol
 _atom_site_label
 _atom_site_symmetry_multiplicity
 _atom_site_fract_x
 _atom_site_fract_y
 _atom_site_fract_z
 _atom_site_occupancy
  Tb  Tb0  1  0.969186  0.278625  0.084115  1
  Sm  Sm1  1  0.886208  0.959211  0.238924  1
  Sm  Sm2  1  0.114977  0.040820  0.761516  1
  Sm  Sm3  1  0.030322  0.716611  0.914660  1
  Y  Y4  1  0.659527  0.880218  0.839657  1
  Y  Y5  1  0.340405  0.121696  0.160630  1
  Ni  Ni6  1  0.000215  0.999732  0.000022  1
  I  I7  1  0.643000  0.552043  0.728217  1
  I  I8  1  0.348918  0.448038  0.269695  1
  I  I9  1  0.737644  0.912244  0.541229  1
  I  I10  1  0.263932  0.088708  0.458715  1
  I  I11  1  0.083667  0.370943  0.821850  1
  I  I12  1  0.914644  0.625006  0.181292  1
  I  I13  1  0.454034  0.818248  0.091864  1
  I  I14  1  0.549303  0.184725  0.910465  1
  I  I15  1  0.232199  0.744521  0.655222  1
  I  I16  1  0.771821  0.258613  0.341926  1
