# generated using pymatgen
data_Tb11DyTc3Ru
_symmetry_space_group_name_H-M   'P 1'
_cell_length_a   6.29223709
_cell_length_b   7.41752837
_cell_length_c   9.23806616
_cell_angle_alpha   90.00885552
_cell_angle_beta   90.01926877
_cell_angle_gamma   89.96514266
_symmetry_Int_Tables_number   1
_chemical_formula_structural   Tb11DyTc3Ru
_chemical_formula_sum   'Tb11 Dy1 Tc3 Ru1'
_cell_volume   431.16674031
_cell_formula_units_Z   1
loop_
 _symmetry_equiv_pos_site_id
 _symmetry_equiv_pos_as_xyz
  1  'x, y, z'
loop_
 _atom_site_type_symbol
 _atom_site_label
 _atom_site_symmetry_multiplicity
 _atom_site_fract_x
 _atom_site_fract_y
 _atom_site_fract_z
 _atom_site_occupancy
  Tb  Tb0  1  0.334712  0.676837  0.063824  1
  Tb  Tb1  1  0.163121  0.175650  0.437059  1
  Tb  Tb2  1  0.662871  0.324052  0.562738  1
  Tb  Tb3  1  0.836151  0.824397  0.937627  1
  Tb  Tb4  1  0.662847  0.323972  0.937337  1
  Tb  Tb5  1  0.836014  0.824217  0.562449  1
  Tb  Tb6  1  0.334854  0.676806  0.436145  1
  Tb  Tb7  1  0.874223  0.542308  0.249916  1
  Tb  Tb8  1  0.625040  0.040904  0.249877  1
  Tb  Tb9  1  0.131055  0.457129  0.750081  1
  Tb  Tb10  1  0.372824  0.956167  0.750101  1
  Dy  Dy11  1  0.163104  0.175610  0.062796  1
  Tc  Tc12  1  0.038645  0.886069  0.249930  1
  Tc  Tc13  1  0.462717  0.387790  0.249854  1
  Tc  Tc14  1  0.962734  0.113873  0.750261  1
  Ru  Ru15  1  0.539091  0.614220  0.750006  1
