# generated using pymatgen
data_NdBi2AuO6
_symmetry_space_group_name_H-M   'P 1'
_cell_length_a   3.98847270
_cell_length_b   5.71822753
_cell_length_c   7.05577565
_cell_angle_alpha   90.86772669
_cell_angle_beta   99.27619660
_cell_angle_gamma   89.96526528
_symmetry_Int_Tables_number   1
_chemical_formula_structural   NdBi2AuO6
_chemical_formula_sum   'Nd1 Bi2 Au1 O6'
_cell_volume   158.79814683
_cell_formula_units_Z   1
loop_
 _symmetry_equiv_pos_site_id
 _symmetry_equiv_pos_as_xyz
  1  'x, y, z'
loop_
 _atom_site_type_symbol
 _atom_site_label
 _atom_site_symmetry_multiplicity
 _atom_site_fract_x
 _atom_site_fract_y
 _atom_site_fract_z
 _atom_site_occupancy
  Nd  Nd0  1  0.999999  0.999996  0.499994  1
  Bi  Bi1  1  0.396568  0.496466  0.240950  1
  Bi  Bi2  1  0.603424  0.503543  0.759047  1
  Au  Au3  1  0.999988  0.999972  0.000040  1
  O  O4  1  0.930699  0.755042  0.197207  1
  O  O5  1  0.929957  0.240998  0.204857  1
  O  O6  1  0.499363  0.736536  0.499316  1
  O  O7  1  0.500642  0.263461  0.500692  1
  O  O8  1  0.070047  0.758994  0.795132  1
  O  O9  1  0.069314  0.244992  0.802765  1
