# generated using pymatgen
data_Ta4Mn4Si3As
_symmetry_space_group_name_H-M   'P 1'
_cell_length_a   3.58676600
_cell_length_b   6.35612327
_cell_length_c   7.45485056
_cell_angle_alpha   89.83822169
_cell_angle_beta   90.00000000
_cell_angle_gamma   90.00000000
_symmetry_Int_Tables_number   1
_chemical_formula_structural   Ta4Mn4Si3As
_chemical_formula_sum   'Ta4 Mn4 Si3 As1'
_cell_volume   169.95446015
_cell_formula_units_Z   1
loop_
 _symmetry_equiv_pos_site_id
 _symmetry_equiv_pos_as_xyz
  1  'x, y, z'
loop_
 _atom_site_type_symbol
 _atom_site_label
 _atom_site_symmetry_multiplicity
 _atom_site_fract_x
 _atom_site_fract_y
 _atom_site_fract_z
 _atom_site_occupancy
  Ta  Ta0  1  0.250000  0.968894  0.323470  1
  Ta  Ta1  1  0.250000  0.467147  0.171174  1
  Ta  Ta2  1  0.750000  0.042163  0.673602  1
  Ta  Ta3  1  0.750000  0.528001  0.832974  1
  Mn  Mn4  1  0.250000  0.357240  0.560037  1
  Mn  Mn5  1  0.250000  0.864036  0.942142  1
  Mn  Mn6  1  0.750000  0.635478  0.435357  1
  Mn  Mn7  1  0.750000  0.137225  0.060582  1
  Si  Si8  1  0.250000  0.233523  0.871293  1
  Si  Si9  1  0.750000  0.265160  0.367198  1
  Si  Si10  1  0.750000  0.765591  0.130052  1
  As  As11  1  0.250000  0.735544  0.632120  1
