# generated using pymatgen
data_Tb2DyFe8Os
_symmetry_space_group_name_H-M   'P 1'
_cell_length_a   8.78050164
_cell_length_b   8.78050157
_cell_length_c   8.78050227
_cell_angle_alpha   33.91926978
_cell_angle_beta   33.91927234
_cell_angle_gamma   33.91927166
_symmetry_Int_Tables_number   1
_chemical_formula_structural   Tb2DyFe8Os
_chemical_formula_sum   'Tb2 Dy1 Fe8 Os1'
_cell_volume   187.87408178
_cell_formula_units_Z   1
loop_
 _symmetry_equiv_pos_site_id
 _symmetry_equiv_pos_as_xyz
  1  'x, y, z'
loop_
 _atom_site_type_symbol
 _atom_site_label
 _atom_site_symmetry_multiplicity
 _atom_site_fract_x
 _atom_site_fract_y
 _atom_site_fract_z
 _atom_site_occupancy
  Tb  Tb0  1  0.000035  0.000035  0.000035  1
  Tb  Tb1  1  0.858042  0.858042  0.858042  1
  Dy  Dy2  1  0.141924  0.141924  0.141924  1
  Fe  Fe3  1  0.332565  0.332565  0.332565  1
  Fe  Fe4  1  0.667430  0.667430  0.667430  1
  Fe  Fe5  1  0.078490  0.580991  0.580991  1
  Fe  Fe6  1  0.580991  0.580991  0.078490  1
  Fe  Fe7  1  0.580991  0.078490  0.580991  1
  Fe  Fe8  1  0.419028  0.921513  0.419028  1
  Fe  Fe9  1  0.921513  0.419028  0.419028  1
  Fe  Fe10  1  0.419028  0.419028  0.921513  1
  Os  Os11  1  0.499962  0.499962  0.499962  1
