# generated using pymatgen
data_Y3Tm(LuSb)6
_symmetry_space_group_name_H-M   'P 1'
_cell_length_a   8.07280000
_cell_length_b   9.13928700
_cell_length_c   11.73825500
_cell_angle_alpha   90.00000000
_cell_angle_beta   90.00000000
_cell_angle_gamma   90.00000000
_symmetry_Int_Tables_number   1
_chemical_formula_structural   Y3Tm(LuSb)6
_chemical_formula_sum   'Y6 Tm2 Lu12 Sb12'
_cell_volume   866.04418227
_cell_formula_units_Z   2
loop_
 _symmetry_equiv_pos_site_id
 _symmetry_equiv_pos_as_xyz
  1  'x, y, z'
loop_
 _atom_site_type_symbol
 _atom_site_label
 _atom_site_symmetry_multiplicity
 _atom_site_fract_x
 _atom_site_fract_y
 _atom_site_fract_z
 _atom_site_occupancy
  Y  Y0  1  0.175559  0.750000  0.228874  1
  Y  Y1  1  0.675559  0.250000  0.271126  1
  Y  Y2  1  0.824166  0.250000  0.770736  1
  Y  Y3  1  0.324166  0.750000  0.729264  1
  Y  Y4  1  0.658531  0.750000  0.290599  1
  Y  Y5  1  0.158531  0.250000  0.209401  1
  Tm  Tm6  1  0.340055  0.250000  0.709359  1
  Tm  Tm7  1  0.840055  0.750000  0.790641  1
  Lu  Lu8  1  0.809959  0.938717  0.065111  1
  Lu  Lu9  1  0.309959  0.061283  0.434889  1
  Lu  Lu10  1  0.190496  0.438353  0.933833  1
  Lu  Lu11  1  0.690496  0.561647  0.566167  1
  Lu  Lu12  1  0.190496  0.061647  0.933833  1
  Lu  Lu13  1  0.690496  0.938353  0.566167  1
  Lu  Lu14  1  0.809959  0.561283  0.065111  1
  Lu  Lu15  1  0.309959  0.438717  0.434889  1
  Lu  Lu16  1  0.524498  0.250000  0.994836  1
  Lu  Lu17  1  0.024498  0.750000  0.505164  1
  Lu  Lu18  1  0.475377  0.750000  0.003821  1
  Lu  Lu19  1  0.975377  0.250000  0.496179  1
  Sb  Sb20  1  0.937576  0.991393  0.327573  1
  Sb  Sb21  1  0.437576  0.008607  0.172427  1
  Sb  Sb22  1  0.063311  0.491181  0.673241  1
  Sb  Sb23  1  0.563311  0.508819  0.826759  1
  Sb  Sb24  1  0.063311  0.008819  0.673241  1
  Sb  Sb25  1  0.563311  0.991181  0.826759  1
  Sb  Sb26  1  0.937576  0.508607  0.327573  1
  Sb  Sb27  1  0.437576  0.491393  0.172427  1
  Sb  Sb28  1  0.901465  0.250000  0.025048  1
  Sb  Sb29  1  0.401465  0.750000  0.474952  1
  Sb  Sb30  1  0.097665  0.750000  0.973324  1
  Sb  Sb31  1  0.597665  0.250000  0.526676  1
