# generated using pymatgen
data_KBa3MnCr3N8
_symmetry_space_group_name_H-M   'P 1'
_cell_length_a   6.45306961
_cell_length_b   6.45307008
_cell_length_c   7.81584427
_cell_angle_alpha   89.65537699
_cell_angle_beta   90.34462154
_cell_angle_gamma   126.33892385
_symmetry_Int_Tables_number   1
_chemical_formula_structural   KBa3MnCr3N8
_chemical_formula_sum   'K1 Ba3 Mn1 Cr3 N8'
_cell_volume   262.16715349
_cell_formula_units_Z   1
loop_
 _symmetry_equiv_pos_site_id
 _symmetry_equiv_pos_as_xyz
  1  'x, y, z'
loop_
 _atom_site_type_symbol
 _atom_site_label
 _atom_site_symmetry_multiplicity
 _atom_site_fract_x
 _atom_site_fract_y
 _atom_site_fract_z
 _atom_site_occupancy
  K  K0  1  0.842818  0.157182  0.562448  1
  Ba  Ba1  1  0.160230  0.839770  0.448126  1
  Ba  Ba2  1  0.661830  0.338170  0.059628  1
  Ba  Ba3  1  0.344005  0.655995  0.932035  1
  Mn  Mn4  1  0.550501  0.449499  0.634562  1
  Cr  Cr5  1  0.449429  0.550571  0.365048  1
  Cr  Cr6  1  0.951177  0.048823  0.137021  1
  Cr  Cr7  1  0.049380  0.950620  0.866497  1
  N  N8  1  0.893520  0.106480  0.914623  1
  N  N9  1  0.107875  0.892125  0.091964  1
  N  N10  1  0.603785  0.396215  0.409931  1
  N  N11  1  0.394215  0.605785  0.582859  1
  N  N12  1  0.339736  0.163559  0.751741  1
  N  N13  1  0.159594  0.344537  0.245887  1
  N  N14  1  0.655463  0.840406  0.245887  1
  N  N15  1  0.836441  0.660264  0.751741  1
