# generated using pymatgen
data_RbGaSiS4
_symmetry_space_group_name_H-M   'P 1'
_cell_length_a   16.01409005
_cell_length_b   6.75970616
_cell_length_c   7.62421800
_cell_angle_alpha   70.31416919
_cell_angle_beta   90.25535812
_cell_angle_gamma   90.10868514
_symmetry_Int_Tables_number   1
_chemical_formula_structural   RbGaSiS4
_chemical_formula_sum   'Rb4 Ga4 Si4 S16'
_cell_volume   777.08086579
_cell_formula_units_Z   4
loop_
 _symmetry_equiv_pos_site_id
 _symmetry_equiv_pos_as_xyz
  1  'x, y, z'
loop_
 _atom_site_type_symbol
 _atom_site_label
 _atom_site_symmetry_multiplicity
 _atom_site_fract_x
 _atom_site_fract_y
 _atom_site_fract_z
 _atom_site_occupancy
  Rb  Rb0  1  0.396718  0.953390  0.180640  1
  Rb  Rb1  1  0.895905  0.047340  0.818734  1
  Rb  Rb2  1  0.602978  0.528125  0.831929  1
  Rb  Rb3  1  0.102130  0.470974  0.167833  1
  Ga  Ga4  1  0.585416  0.163939  0.480537  1
  Ga  Ga5  1  0.084731  0.835116  0.520142  1
  Ga  Ga6  1  0.272470  0.589845  0.699112  1
  Ga  Ga7  1  0.772695  0.410915  0.301053  1
  Si  Si8  1  0.920620  0.683709  0.459648  1
  Si  Si9  1  0.726174  0.913518  0.277367  1
  Si  Si10  1  0.225531  0.086871  0.722280  1
  Si  Si11  1  0.420632  0.316506  0.539897  1
  S  S12  1  0.600875  0.885465  0.376987  1
  S  S13  1  0.099731  0.113456  0.623813  1
  S  S14  1  0.411319  0.585976  0.624137  1
  S  S15  1  0.911445  0.413985  0.375857  1
  S  S16  1  0.802032  0.791421  0.528224  1
  S  S17  1  0.301256  0.208733  0.471663  1
  S  S18  1  0.200915  0.715233  0.430150  1
  S  S19  1  0.702066  0.285104  0.570219  1
  S  S20  1  0.762949  0.219091  0.103464  1
  S  S21  1  0.262288  0.781118  0.896786  1
  S  S22  1  0.236290  0.264413  0.904390  1
  S  S23  1  0.736088  0.736162  0.095133  1
  S  S24  1  0.994137  0.919865  0.263754  1
  S  S25  1  0.495014  0.080596  0.735396  1
  S  S26  1  0.988765  0.604885  0.716705  1
  S  S27  1  0.488820  0.394248  0.284152  1
