# generated using pymatgen
data_LiErLu2(Co4P3)2
_symmetry_space_group_name_H-M   'P 1'
_cell_length_a   3.68955900
_cell_length_b   10.52401900
_cell_length_c   12.10085300
_cell_angle_alpha   90.00000000
_cell_angle_beta   90.00000000
_cell_angle_gamma   90.00000000
_symmetry_Int_Tables_number   1
_chemical_formula_structural   LiErLu2(Co4P3)2
_chemical_formula_sum   'Li2 Er2 Lu4 Co16 P12'
_cell_volume   469.86388824
_cell_formula_units_Z   2
loop_
 _symmetry_equiv_pos_site_id
 _symmetry_equiv_pos_as_xyz
  1  'x, y, z'
loop_
 _atom_site_type_symbol
 _atom_site_label
 _atom_site_symmetry_multiplicity
 _atom_site_fract_x
 _atom_site_fract_y
 _atom_site_fract_z
 _atom_site_occupancy
  Li  Li0  1  0.500000  0.500000  0.153937  1
  Li  Li1  1  0.000000  0.000000  0.846063  1
  Er  Er2  1  0.000000  0.500000  0.523889  1
  Er  Er3  1  0.500000  0.000000  0.476111  1
  Lu  Lu4  1  0.500000  0.820572  0.206015  1
  Lu  Lu5  1  0.500000  0.179428  0.206015  1
  Lu  Lu6  1  0.000000  0.679428  0.793985  1
  Lu  Lu7  1  0.000000  0.320572  0.793985  1
  Co  Co8  1  0.500000  0.500000  0.705090  1
  Co  Co9  1  0.000000  0.000000  0.294910  1
  Co  Co10  1  0.000000  0.500000  0.987410  1
  Co  Co11  1  0.500000  0.000000  0.012590  1
  Co  Co12  1  0.500000  0.332730  0.997060  1
  Co  Co13  1  0.500000  0.667270  0.997060  1
  Co  Co14  1  0.000000  0.167270  0.002940  1
  Co  Co15  1  0.000000  0.832730  0.002940  1
  Co  Co16  1  0.500000  0.296323  0.431088  1
  Co  Co17  1  0.500000  0.703677  0.431088  1
  Co  Co18  1  0.000000  0.203677  0.568912  1
  Co  Co19  1  0.000000  0.796323  0.568912  1
  Co  Co20  1  0.500000  0.877624  0.706696  1
  Co  Co21  1  0.500000  0.122376  0.706696  1
  Co  Co22  1  0.000000  0.622376  0.293304  1
  Co  Co23  1  0.000000  0.377624  0.293304  1
  P  P24  1  0.500000  0.500000  0.884649  1
  P  P25  1  0.000000  0.000000  0.115351  1
  P  P26  1  0.500000  0.500000  0.347122  1
  P  P27  1  0.000000  0.000000  0.652878  1
  P  P28  1  0.500000  0.311025  0.617193  1
  P  P29  1  0.500000  0.688975  0.617193  1
  P  P30  1  0.000000  0.188975  0.382807  1
  P  P31  1  0.000000  0.811025  0.382807  1
  P  P32  1  0.500000  0.842115  0.891749  1
  P  P33  1  0.500000  0.157885  0.891749  1
  P  P34  1  0.000000  0.657885  0.108251  1
  P  P35  1  0.000000  0.342115  0.108251  1
