# generated using pymatgen
data_Ce3TmScIr3
_symmetry_space_group_name_H-M   'P 1'
_cell_length_a   6.44415601
_cell_length_b   8.18026484
_cell_length_c   8.18028200
_cell_angle_alpha   119.99993189
_cell_angle_beta   89.99721708
_cell_angle_gamma   90.00555893
_symmetry_Int_Tables_number   1
_chemical_formula_structural   Ce3TmScIr3
_chemical_formula_sum   'Ce6 Tm2 Sc2 Ir6'
_cell_volume   373.45012868
_cell_formula_units_Z   2
loop_
 _symmetry_equiv_pos_site_id
 _symmetry_equiv_pos_as_xyz
  1  'x, y, z'
loop_
 _atom_site_type_symbol
 _atom_site_label
 _atom_site_symmetry_multiplicity
 _atom_site_fract_x
 _atom_site_fract_y
 _atom_site_fract_z
 _atom_site_occupancy
  Ce  Ce0  1  0.754632  0.257952  0.000000  1
  Ce  Ce1  1  0.754420  0.741980  0.741747  1
  Ce  Ce2  1  0.754420  0.000233  0.258253  1
  Ce  Ce3  1  0.245385  0.741948  0.000000  1
  Ce  Ce4  1  0.245517  0.258247  0.258094  1
  Ce  Ce5  1  0.245517  0.000154  0.741906  1
  Tm  Tm6  1  0.499995  0.333186  0.666484  1
  Tm  Tm7  1  0.499995  0.666702  0.333516  1
  Sc  Sc8  1  0.000110  0.666671  0.333498  1
  Sc  Sc9  1  0.000110  0.333173  0.666502  1
  Ir  Ir10  1  0.771410  0.610750  0.000000  1
  Ir  Ir11  1  0.771514  0.389367  0.389545  1
  Ir  Ir12  1  0.771514  0.999823  0.610455  1
  Ir  Ir13  1  0.228559  0.388974  0.000000  1
  Ir  Ir14  1  0.228450  0.610503  0.610165  1
  Ir  Ir15  1  0.228450  0.000338  0.389835  1
