# generated using pymatgen
data_Cd5AgAu18
_symmetry_space_group_name_H-M   'P 1'
_cell_length_a   6.03994600
_cell_length_b   14.66306215
_cell_length_c   5.05523786
_cell_angle_alpha   90.14829317
_cell_angle_beta   90.00000000
_cell_angle_gamma   90.00000000
_symmetry_Int_Tables_number   1
_chemical_formula_structural   Cd5AgAu18
_chemical_formula_sum   'Cd5 Ag1 Au18'
_cell_volume   447.71110996
_cell_formula_units_Z   1
loop_
 _symmetry_equiv_pos_site_id
 _symmetry_equiv_pos_as_xyz
  1  'x, y, z'
loop_
 _atom_site_type_symbol
 _atom_site_label
 _atom_site_symmetry_multiplicity
 _atom_site_fract_x
 _atom_site_fract_y
 _atom_site_fract_z
 _atom_site_occupancy
  Cd  Cd0  1  0.000000  0.999267  0.004617  1
  Cd  Cd1  1  0.500000  0.165174  0.336878  1
  Cd  Cd2  1  0.500000  0.833543  0.336537  1
  Cd  Cd3  1  0.000000  0.335564  0.663846  1
  Cd  Cd4  1  0.500000  0.500929  0.995419  1
  Ag  Ag5  1  0.000000  0.665633  0.664122  1
  Au  Au6  1  0.500000  0.999587  0.001049  1
  Au  Au7  1  0.249388  0.332437  0.164212  1
  Au  Au8  1  0.750612  0.332437  0.164212  1
  Au  Au9  1  0.247579  0.667814  0.164268  1
  Au  Au10  1  0.752421  0.667814  0.164268  1
  Au  Au11  1  0.000000  0.165859  0.337078  1
  Au  Au12  1  0.000000  0.832604  0.337619  1
  Au  Au13  1  0.250239  0.501481  0.492422  1
  Au  Au14  1  0.749760  0.501481  0.492422  1
  Au  Au15  1  0.248791  0.999185  0.507169  1
  Au  Au16  1  0.751209  0.999185  0.507169  1
  Au  Au17  1  0.500000  0.334820  0.662516  1
  Au  Au18  1  0.500000  0.665997  0.663036  1
  Au  Au19  1  0.250451  0.168078  0.835869  1
  Au  Au20  1  0.749548  0.168078  0.835869  1
  Au  Au21  1  0.249498  0.830840  0.836088  1
  Au  Au22  1  0.750501  0.830840  0.836088  1
  Au  Au23  1  0.000000  0.501345  0.997249  1
