# generated using pymatgen
data_Nd16MgAg3PtRh3
_symmetry_space_group_name_H-M   'P 1'
_cell_length_a   9.85928248
_cell_length_b   9.89986825
_cell_length_c   9.89986793
_cell_angle_alpha   60.43993672
_cell_angle_beta   60.30246861
_cell_angle_gamma   60.30246530
_symmetry_Int_Tables_number   1
_chemical_formula_structural   Nd16MgAg3PtRh3
_chemical_formula_sum   'Nd16 Mg1 Ag3 Pt1 Rh3'
_cell_volume   688.64580861
_cell_formula_units_Z   1
loop_
 _symmetry_equiv_pos_site_id
 _symmetry_equiv_pos_as_xyz
  1  'x, y, z'
loop_
 _atom_site_type_symbol
 _atom_site_label
 _atom_site_symmetry_multiplicity
 _atom_site_fract_x
 _atom_site_fract_y
 _atom_site_fract_z
 _atom_site_occupancy
  Nd  Nd0  1  0.598594  0.598029  0.598029  1
  Nd  Nd1  1  0.601890  0.601514  0.198305  1
  Nd  Nd2  1  0.601890  0.198305  0.601514  1
  Nd  Nd3  1  0.186206  0.605523  0.605523  1
  Nd  Nd4  1  0.055338  0.440675  0.440675  1
  Nd  Nd5  1  0.437090  0.061738  0.061738  1
  Nd  Nd6  1  0.438293  0.058266  0.438694  1
  Nd  Nd7  1  0.058352  0.440553  0.059000  1
  Nd  Nd8  1  0.438293  0.438694  0.058266  1
  Nd  Nd9  1  0.058352  0.059000  0.440553  1
  Nd  Nd10  1  0.185424  0.814695  0.814695  1
  Nd  Nd11  1  0.813568  0.187188  0.187188  1
  Nd  Nd12  1  0.812999  0.188240  0.814785  1
  Nd  Nd13  1  0.185967  0.814204  0.186734  1
  Nd  Nd14  1  0.812999  0.814785  0.188240  1
  Nd  Nd15  1  0.185967  0.186734  0.814204  1
  Mg  Mg16  1  0.541194  0.819740  0.819740  1
  Ag  Ag17  1  0.831644  0.834197  0.834197  1
  Ag  Ag18  1  0.830965  0.834072  0.501815  1
  Ag  Ag19  1  0.830965  0.501815  0.834072  1
  Pt  Pt20  1  0.391028  0.394045  0.394045  1
  Rh  Rh21  1  0.390546  0.393490  0.822275  1
  Rh  Rh22  1  0.390546  0.822275  0.393490  1
  Rh  Rh23  1  0.821886  0.392225  0.392225  1
