# generated using pymatgen
data_PrNdB8(IrRh)4
_symmetry_space_group_name_H-M   'P 1'
_cell_length_a   7.65682574
_cell_length_b   7.65086597
_cell_length_c   4.00801700
_cell_angle_alpha   89.99852404
_cell_angle_beta   90.02778070
_cell_angle_gamma   89.96848999
_symmetry_Int_Tables_number   1
_chemical_formula_structural   PrNdB8(IrRh)4
_chemical_formula_sum   'Pr1 Nd1 B8 Ir4 Rh4'
_cell_volume   234.79497362
_cell_formula_units_Z   1
loop_
 _symmetry_equiv_pos_site_id
 _symmetry_equiv_pos_as_xyz
  1  'x, y, z'
loop_
 _atom_site_type_symbol
 _atom_site_label
 _atom_site_symmetry_multiplicity
 _atom_site_fract_x
 _atom_site_fract_y
 _atom_site_fract_z
 _atom_site_occupancy
  Pr  Pr0  1  0.498510  0.499930  0.997825  1
  Nd  Nd1  1  0.998344  0.999539  0.497968  1
  B  B2  1  0.656835  0.782626  0.606352  1
  B  B3  1  0.160765  0.285023  0.891856  1
  B  B4  1  0.289234  0.837568  0.109638  1
  B  B5  1  0.716763  0.159835  0.108094  1
  B  B6  1  0.339681  0.216651  0.607683  1
  B  B7  1  0.836551  0.715447  0.891279  1
  B  B8  1  0.222095  0.657761  0.394910  1
  B  B9  1  0.783733  0.339123  0.392425  1
  Ir  Ir10  1  0.157586  0.390659  0.389766  1
  Ir  Ir11  1  0.841656  0.611058  0.391214  1
  Ir  Ir12  1  0.889865  0.341140  0.891062  1
  Ir  Ir13  1  0.389196  0.845217  0.611106  1
  Rh  Rh14  1  0.342595  0.111319  0.107322  1
  Rh  Rh15  1  0.656568  0.890668  0.108005  1
  Rh  Rh16  1  0.610368  0.156201  0.608715  1
  Rh  Rh17  1  0.109656  0.660235  0.894778  1
