# generated using pymatgen
data_CsErTe3O8
_symmetry_space_group_name_H-M   'P 1'
_cell_length_a   6.07146924
_cell_length_b   7.98376821
_cell_length_c   11.69817971
_cell_angle_alpha   100.66272697
_cell_angle_beta   89.36262180
_cell_angle_gamma   109.92905537
_symmetry_Int_Tables_number   1
_chemical_formula_structural   CsErTe3O8
_chemical_formula_sum   'Cs2 Er2 Te6 O16'
_cell_volume   523.05743119
_cell_formula_units_Z   2
loop_
 _symmetry_equiv_pos_site_id
 _symmetry_equiv_pos_as_xyz
  1  'x, y, z'
loop_
 _atom_site_type_symbol
 _atom_site_label
 _atom_site_symmetry_multiplicity
 _atom_site_fract_x
 _atom_site_fract_y
 _atom_site_fract_z
 _atom_site_occupancy
  Cs  Cs0  1  0.820714  0.112052  0.165029  1
  Cs  Cs1  1  0.179286  0.887948  0.834971  1
  Er  Er2  1  0.500000  0.500000  0.000000  1
  Er  Er3  1  0.000000  0.500000  0.500000  1
  Te  Te4  1  0.213204  0.990402  0.421374  1
  Te  Te5  1  0.786796  0.009598  0.578626  1
  Te  Te6  1  0.080567  0.683342  0.154441  1
  Te  Te7  1  0.919433  0.316658  0.845559  1
  Te  Te8  1  0.510566  0.520890  0.334077  1
  Te  Te9  1  0.489434  0.479110  0.665923  1
  O  O10  1  0.178508  0.748560  0.427100  1
  O  O11  1  0.821492  0.251440  0.572900  1
  O  O12  1  0.227787  0.930872  0.237598  1
  O  O13  1  0.772213  0.069128  0.762402  1
  O  O14  1  0.887047  0.960764  0.399184  1
  O  O15  1  0.112953  0.039236  0.600816  1
  O  O16  1  0.292845  0.692853  0.035175  1
  O  O17  1  0.707155  0.307147  0.964825  1
  O  O18  1  0.839266  0.721772  0.075187  1
  O  O19  1  0.160734  0.278228  0.924813  1
  O  O20  1  0.412665  0.430715  0.174878  1
  O  O21  1  0.587335  0.569285  0.825122  1
  O  O22  1  0.245564  0.372021  0.400964  1
  O  O23  1  0.754436  0.627979  0.599036  1
  O  O24  1  0.726285  0.401587  0.349158  1
  O  O25  1  0.273715  0.598413  0.650842  1
