# generated using pymatgen
data_Er5Tm5(IrPt2)2
_symmetry_space_group_name_H-M   'P 1'
_cell_length_a   10.93806008
_cell_length_b   10.93705000
_cell_length_c   6.30736205
_cell_angle_alpha   90.00000000
_cell_angle_beta   90.01404142
_cell_angle_gamma   90.00000000
_symmetry_Int_Tables_number   1
_chemical_formula_structural   Er5Tm5(IrPt2)2
_chemical_formula_sum   'Er10 Tm10 Ir4 Pt8'
_cell_volume   754.55039301
_cell_formula_units_Z   2
loop_
 _symmetry_equiv_pos_site_id
 _symmetry_equiv_pos_as_xyz
  1  'x, y, z'
loop_
 _atom_site_type_symbol
 _atom_site_label
 _atom_site_symmetry_multiplicity
 _atom_site_fract_x
 _atom_site_fract_y
 _atom_site_fract_z
 _atom_site_occupancy
  Er  Er0  1  0.295143  0.087141  0.373931  1
  Er  Er1  1  0.295143  0.912859  0.873931  1
  Er  Er2  1  0.704825  0.087112  0.873992  1
  Er  Er3  1  0.704825  0.912888  0.373992  1
  Er  Er4  1  0.587155  0.795256  0.874021  1
  Er  Er5  1  0.587155  0.204744  0.374021  1
  Er  Er6  1  0.413055  0.795380  0.374016  1
  Er  Er7  1  0.413055  0.204620  0.874016  1
  Er  Er8  1  0.204278  0.413094  0.625781  1
  Er  Er9  1  0.204278  0.586906  0.125781  1
  Tm  Tm10  1  0.795895  0.413241  0.125487  1
  Tm  Tm11  1  0.795895  0.586759  0.625487  1
  Tm  Tm12  1  0.913084  0.704183  0.125513  1
  Tm  Tm13  1  0.913084  0.295817  0.625513  1
  Tm  Tm14  1  0.086355  0.704331  0.625536  1
  Tm  Tm15  1  0.086355  0.295669  0.125536  1
  Tm  Tm16  1  0.999888  0.000076  0.500352  1
  Tm  Tm17  1  0.999888  0.999924  0.000352  1
  Tm  Tm18  1  0.500316  0.499960  0.000244  1
  Tm  Tm19  1  0.500316  0.500040  0.500244  1
  Ir  Ir20  1  0.500040  0.000039  0.119625  1
  Ir  Ir21  1  0.500040  0.999961  0.619625  1
  Ir  Ir22  1  0.999479  0.500049  0.880158  1
  Ir  Ir23  1  0.999479  0.499951  0.380158  1
  Pt  Pt24  1  0.847363  0.154445  0.250373  1
  Pt  Pt25  1  0.847363  0.845555  0.750373  1
  Pt  Pt26  1  0.152549  0.153895  0.750823  1
  Pt  Pt27  1  0.152549  0.846105  0.250823  1
  Pt  Pt28  1  0.654473  0.347345  0.750445  1
  Pt  Pt29  1  0.654473  0.652655  0.250445  1
  Pt  Pt30  1  0.346101  0.346890  0.249703  1
  Pt  Pt31  1  0.346101  0.653110  0.749703  1
