# generated using pymatgen
data_SmTh3FeCoB20
_symmetry_space_group_name_H-M   'P 1'
_cell_length_a   4.17304800
_cell_length_b   5.61312655
_cell_length_c   11.21073183
_cell_angle_alpha   90.37772703
_cell_angle_beta   90.00000000
_cell_angle_gamma   90.00000000
_symmetry_Int_Tables_number   1
_chemical_formula_structural   SmTh3FeCoB20
_chemical_formula_sum   'Sm1 Th3 Fe1 Co1 B20'
_cell_volume   262.59275521
_cell_formula_units_Z   1
loop_
 _symmetry_equiv_pos_site_id
 _symmetry_equiv_pos_as_xyz
  1  'x, y, z'
loop_
 _atom_site_type_symbol
 _atom_site_label
 _atom_site_symmetry_multiplicity
 _atom_site_fract_x
 _atom_site_fract_y
 _atom_site_fract_z
 _atom_site_occupancy
  Sm  Sm0  1  0.500000  0.301497  0.865520  1
  Th  Th1  1  0.500000  0.700233  0.132698  1
  Th  Th2  1  0.500000  0.794746  0.632713  1
  Th  Th3  1  0.500000  0.206851  0.368579  1
  Fe  Fe4  1  0.000000  0.500019  0.500015  1
  Co  Co5  1  0.000000  0.997899  0.000463  1
  B  B6  1  0.000000  0.127257  0.540708  1
  B  B7  1  0.000000  0.872552  0.460186  1
  B  B8  1  0.000000  0.625819  0.959332  1
  B  B9  1  0.000000  0.371709  0.039316  1
  B  B10  1  0.000000  0.151870  0.698244  1
  B  B11  1  0.000000  0.849182  0.302462  1
  B  B12  1  0.299944  0.201067  0.113052  1
  B  B13  1  0.300086  0.796475  0.886836  1
  B  B14  1  0.700281  0.702664  0.386581  1
  B  B15  1  0.700482  0.297288  0.614000  1
  B  B16  1  0.699914  0.796475  0.886836  1
  B  B17  1  0.700056  0.201067  0.113052  1
  B  B18  1  0.299518  0.297288  0.614000  1
  B  B19  1  0.299719  0.702664  0.386581  1
  B  B20  1  0.000000  0.036394  0.187372  1
  B  B21  1  0.000000  0.965120  0.813583  1
  B  B22  1  0.000000  0.537047  0.312205  1
  B  B23  1  0.000000  0.464511  0.686946  1
  B  B24  1  0.000000  0.348736  0.195973  1
  B  B25  1  0.000000  0.653571  0.802744  1
