# generated using pymatgen
data_NdZr2(Al2Cu)3
_symmetry_space_group_name_H-M   'P 1'
_cell_length_a   8.72918929
_cell_length_b   8.72919011
_cell_length_c   8.72919000
_cell_angle_alpha   35.62420260
_cell_angle_beta   35.62418384
_cell_angle_gamma   35.62419159
_symmetry_Int_Tables_number   1
_chemical_formula_structural   NdZr2(Al2Cu)3
_chemical_formula_sum   'Nd1 Zr2 Al6 Cu3'
_cell_volume   201.70824466
_cell_formula_units_Z   1
loop_
 _symmetry_equiv_pos_site_id
 _symmetry_equiv_pos_as_xyz
  1  'x, y, z'
loop_
 _atom_site_type_symbol
 _atom_site_label
 _atom_site_symmetry_multiplicity
 _atom_site_fract_x
 _atom_site_fract_y
 _atom_site_fract_z
 _atom_site_occupancy
  Nd  Nd0  1  0.000000  0.000000  0.000000  1
  Zr  Zr1  1  0.857458  0.857458  0.857458  1
  Zr  Zr2  1  0.142542  0.142542  0.142542  1
  Al  Al3  1  0.412323  0.412323  0.917670  1
  Al  Al4  1  0.917670  0.412323  0.412323  1
  Al  Al5  1  0.412323  0.917670  0.412323  1
  Al  Al6  1  0.587677  0.082330  0.587677  1
  Al  Al7  1  0.082330  0.587677  0.587677  1
  Al  Al8  1  0.587677  0.587677  0.082330  1
  Cu  Cu9  1  0.500000  0.500000  0.500000  1
  Cu  Cu10  1  0.665560  0.665560  0.665560  1
  Cu  Cu11  1  0.334440  0.334440  0.334440  1
