# generated using pymatgen
data_Tm4Si12Ni13Pt6Rh
_symmetry_space_group_name_H-M   'P 1'
_cell_length_a   3.86474400
_cell_length_b   19.00640161
_cell_length_c   6.81508331
_cell_angle_alpha   90.19330465
_cell_angle_beta   90.00000000
_cell_angle_gamma   90.00000000
_symmetry_Int_Tables_number   1
_chemical_formula_structural   Tm4Si12Ni13Pt6Rh
_chemical_formula_sum   'Tm4 Si12 Ni13 Pt6 Rh1'
_cell_volume   500.59825449
_cell_formula_units_Z   1
loop_
 _symmetry_equiv_pos_site_id
 _symmetry_equiv_pos_as_xyz
  1  'x, y, z'
loop_
 _atom_site_type_symbol
 _atom_site_label
 _atom_site_symmetry_multiplicity
 _atom_site_fract_x
 _atom_site_fract_y
 _atom_site_fract_z
 _atom_site_occupancy
  Tm  Tm0  1  0.750000  0.640961  0.131772  1
  Tm  Tm1  1  0.250000  0.359354  0.867845  1
  Tm  Tm2  1  0.250000  0.858528  0.631006  1
  Tm  Tm3  1  0.750000  0.141601  0.368572  1
  Si  Si4  1  0.750000  0.738144  0.621255  1
  Si  Si5  1  0.250000  0.261704  0.378634  1
  Si  Si6  1  0.250000  0.759649  0.122486  1
  Si  Si7  1  0.750000  0.240695  0.876688  1
  Si  Si8  1  0.750000  0.928600  0.337684  1
  Si  Si9  1  0.250000  0.069880  0.666846  1
  Si  Si10  1  0.250000  0.571271  0.834867  1
  Si  Si11  1  0.750000  0.428489  0.155684  1
  Si  Si12  1  0.750000  0.911742  0.925774  1
  Si  Si13  1  0.250000  0.089494  0.066426  1
  Si  Si14  1  0.250000  0.586894  0.426989  1
  Si  Si15  1  0.750000  0.413710  0.582949  1
  Ni  Ni16  1  0.750000  0.492368  0.855943  1
  Ni  Ni17  1  0.750000  0.515454  0.396255  1
  Ni  Ni18  1  0.250000  0.483844  0.612434  1
  Ni  Ni19  1  0.250000  0.981236  0.902381  1
  Ni  Ni20  1  0.750000  0.018293  0.096735  1
  Ni  Ni21  1  0.750000  0.793239  0.925456  1
  Ni  Ni22  1  0.250000  0.207556  0.073752  1
  Ni  Ni23  1  0.250000  0.705068  0.424977  1
  Ni  Ni24  1  0.750000  0.295106  0.574670  1
  Ni  Ni25  1  0.750000  0.614643  0.644267  1
  Ni  Ni26  1  0.250000  0.383945  0.367093  1
  Ni  Ni27  1  0.250000  0.880547  0.138153  1
  Ni  Ni28  1  0.750000  0.119611  0.861905  1
  Pt  Pt29  1  0.750000  0.801455  0.319672  1
  Pt  Pt30  1  0.250000  0.197659  0.679047  1
  Pt  Pt31  1  0.250000  0.697364  0.818734  1
  Pt  Pt32  1  0.750000  0.303087  0.181287  1
  Pt  Pt33  1  0.250000  0.008813  0.352254  1
  Pt  Pt34  1  0.250000  0.507250  0.133222  1
  Rh  Rh35  1  0.750000  0.992748  0.646288  1
