# generated using pymatgen
data_RbNa3(Ga3Te5)4
_symmetry_space_group_name_H-M   'P 1'
_cell_length_a   10.68134325
_cell_length_b   10.68134258
_cell_length_c   10.68134380
_cell_angle_alpha   89.99073645
_cell_angle_beta   89.99073305
_cell_angle_gamma   89.99073671
_symmetry_Int_Tables_number   1
_chemical_formula_structural   RbNa3(Ga3Te5)4
_chemical_formula_sum   'Rb1 Na3 Ga12 Te20'
_cell_volume   1218.64607082
_cell_formula_units_Z   1
loop_
 _symmetry_equiv_pos_site_id
 _symmetry_equiv_pos_as_xyz
  1  'x, y, z'
loop_
 _atom_site_type_symbol
 _atom_site_label
 _atom_site_symmetry_multiplicity
 _atom_site_fract_x
 _atom_site_fract_y
 _atom_site_fract_z
 _atom_site_occupancy
  Rb  Rb0  1  0.500000  0.500000  0.500000  1
  Na  Na1  1  0.254430  0.000000  0.745570  1
  Na  Na2  1  0.745570  0.254430  0.000000  1
  Na  Na3  1  0.000000  0.745570  0.254430  1
  Ga  Ga4  1  0.840859  0.881785  0.573163  1
  Ga  Ga5  1  0.573163  0.840859  0.881785  1
  Ga  Ga6  1  0.881785  0.573163  0.840859  1
  Ga  Ga7  1  0.159141  0.426837  0.118215  1
  Ga  Ga8  1  0.118215  0.159141  0.426837  1
  Ga  Ga9  1  0.426837  0.118215  0.159141  1
  Ga  Ga10  1  0.748131  0.163128  0.342479  1
  Ga  Ga11  1  0.342479  0.748131  0.163128  1
  Ga  Ga12  1  0.163128  0.342479  0.748131  1
  Ga  Ga13  1  0.251869  0.657521  0.836872  1
  Ga  Ga14  1  0.836872  0.251869  0.657521  1
  Ga  Ga15  1  0.657521  0.836872  0.251869  1
  Te  Te16  1  0.174105  0.825895  0.000000  1
  Te  Te17  1  0.825895  0.000000  0.174105  1
  Te  Te18  1  0.175937  0.175937  0.175937  1
  Te  Te19  1  0.824063  0.824063  0.824063  1
  Te  Te20  1  0.000000  0.174105  0.825895  1
  Te  Te21  1  0.923840  0.500000  0.076160  1
  Te  Te22  1  0.076160  0.923840  0.500000  1
  Te  Te23  1  0.500000  0.076160  0.923840  1
  Te  Te24  1  0.759249  0.697113  0.428058  1
  Te  Te25  1  0.428058  0.759249  0.697113  1
  Te  Te26  1  0.697113  0.428058  0.759249  1
  Te  Te27  1  0.240751  0.571942  0.302887  1
  Te  Te28  1  0.302887  0.240751  0.571942  1
  Te  Te29  1  0.571942  0.302887  0.240751  1
  Te  Te30  1  0.677788  0.072735  0.570758  1
  Te  Te31  1  0.570758  0.677788  0.072735  1
  Te  Te32  1  0.072735  0.570758  0.677788  1
  Te  Te33  1  0.322212  0.429242  0.927265  1
  Te  Te34  1  0.927265  0.322212  0.429242  1
  Te  Te35  1  0.429242  0.927265  0.322212  1
