# generated using pymatgen
data_Yb6Al3Si6NiO24
_symmetry_space_group_name_H-M   'P 1'
_cell_length_a   10.34119880
_cell_length_b   10.21521544
_cell_length_c   10.34119878
_cell_angle_alpha   109.22462906
_cell_angle_beta   109.71668034
_cell_angle_gamma   109.22461463
_symmetry_Int_Tables_number   1
_chemical_formula_structural   Yb6Al3Si6NiO24
_chemical_formula_sum   'Yb12 Al6 Si12 Ni2 O48'
_cell_volume   843.49038409
_cell_formula_units_Z   2
loop_
 _symmetry_equiv_pos_site_id
 _symmetry_equiv_pos_as_xyz
  1  'x, y, z'
loop_
 _atom_site_type_symbol
 _atom_site_label
 _atom_site_symmetry_multiplicity
 _atom_site_fract_x
 _atom_site_fract_y
 _atom_site_fract_z
 _atom_site_occupancy
  Yb  Yb0  1  0.374907  0.749999  0.125093  1
  Yb  Yb1  1  0.250186  0.375093  0.125094  1
  Yb  Yb2  1  0.374907  0.124907  0.249814  1
  Yb  Yb3  1  0.875508  0.625508  0.251014  1
  Yb  Yb4  1  0.751013  0.125508  0.375507  1
  Yb  Yb5  1  0.124493  0.250000  0.375507  1
  Yb  Yb6  1  0.875507  0.750001  0.624492  1
  Yb  Yb7  1  0.248987  0.874492  0.624494  1
  Yb  Yb8  1  0.124493  0.374493  0.748986  1
  Yb  Yb9  1  0.625094  0.875093  0.750186  1
  Yb  Yb10  1  0.749814  0.624908  0.874907  1
  Yb  Yb11  1  0.625092  0.250000  0.874907  1
  Al  Al12  1  0.000000  0.000000  0.000000  1
  Al  Al13  1  0.500000  0.000000  0.000000  1
  Al  Al14  1  0.000000  0.499999  0.000000  1
  Al  Al15  1  0.499999  0.500000  0.000000  1
  Al  Al16  1  0.499999  0.500000  0.500000  1
  Al  Al17  1  0.499999  0.000000  0.500000  1
  Si  Si18  1  0.873826  0.247694  0.121404  1
  Si  Si19  1  0.747578  0.873710  0.121404  1
  Si  Si20  1  0.621404  0.373709  0.247577  1
  Si  Si21  1  0.126173  0.873866  0.247577  1
  Si  Si22  1  0.252423  0.626133  0.373827  1
  Si  Si23  1  0.621404  0.747693  0.373827  1
  Si  Si24  1  0.747578  0.373866  0.626172  1
  Si  Si25  1  0.378595  0.252306  0.626172  1
  Si  Si26  1  0.873828  0.126135  0.752423  1
  Si  Si27  1  0.378596  0.626290  0.752423  1
  Si  Si28  1  0.252423  0.126289  0.878596  1
  Si  Si29  1  0.126174  0.752307  0.878596  1
  Ni  Ni30  1  0.000000  0.000000  0.500000  1
  Ni  Ni31  1  0.000000  0.500000  0.500000  1
  O  O32  1  0.199251  0.114944  0.010969  1
  O  O33  1  0.311717  0.896026  0.010970  1
  O  O34  1  0.697520  0.687651  0.082768  1
  O  O35  1  0.885247  0.395117  0.082768  1
  O  O36  1  0.612623  0.414656  0.103111  1
  O  O37  1  0.990489  0.688455  0.103111  1
  O  O38  1  0.009511  0.197965  0.112622  1
  O  O39  1  0.603111  0.914656  0.112623  1
  O  O40  1  0.199254  0.584308  0.188283  1
  O  O41  1  0.489031  0.603974  0.188284  1
  O  O42  1  0.114752  0.009868  0.197519  1
  O  O43  1  0.582768  0.187651  0.197520  1
  O  O44  1  0.311717  0.915690  0.300748  1
  O  O45  1  0.489031  0.385056  0.300748  1
  O  O46  1  0.910728  0.291940  0.303717  1
  O  O47  1  0.892989  0.011777  0.303717  1
  O  O48  1  0.582767  0.895116  0.385246  1
  O  O49  1  0.302482  0.490132  0.385248  1
  O  O50  1  0.803716  0.511777  0.392988  1
  O  O51  1  0.089272  0.881211  0.392990  1
  O  O52  1  0.803717  0.791939  0.410727  1
  O  O53  1  0.107011  0.618788  0.410728  1
  O  O54  1  0.387378  0.302034  0.490489  1
  O  O55  1  0.603111  0.188456  0.490489  1
  O  O56  1  0.396889  0.811545  0.509511  1
  O  O57  1  0.612623  0.697967  0.509513  1
  O  O58  1  0.892988  0.381211  0.589272  1
  O  O59  1  0.196283  0.208061  0.589273  1
  O  O60  1  0.910728  0.118789  0.607011  1
  O  O61  1  0.196284  0.488223  0.607011  1
  O  O62  1  0.417231  0.104883  0.614752  1
  O  O63  1  0.697520  0.509869  0.614754  1
  O  O64  1  0.107011  0.988222  0.696283  1
  O  O65  1  0.089271  0.708060  0.696283  1
  O  O66  1  0.688282  0.084309  0.699252  1
  O  O67  1  0.510970  0.614945  0.699253  1
  O  O68  1  0.417231  0.812348  0.802479  1
  O  O69  1  0.885248  0.990132  0.802482  1
  O  O70  1  0.510969  0.396027  0.811716  1
  O  O71  1  0.800746  0.415691  0.811716  1
  O  O72  1  0.396889  0.085343  0.887377  1
  O  O73  1  0.990489  0.802035  0.887379  1
  O  O74  1  0.387377  0.585343  0.896888  1
  O  O75  1  0.009511  0.311546  0.896889  1
  O  O76  1  0.302481  0.312349  0.917232  1
  O  O77  1  0.114753  0.604883  0.917232  1
  O  O78  1  0.688283  0.103973  0.989029  1
  O  O79  1  0.800749  0.885056  0.989032  1
