# generated using pymatgen
data_Pr5Mn2O12
_symmetry_space_group_name_H-M   'P 1'
_cell_length_a   7.09328836
_cell_length_b   7.09328863
_cell_length_c   7.64560543
_cell_angle_alpha   74.44580682
_cell_angle_beta   74.44580744
_cell_angle_gamma   49.69652382
_symmetry_Int_Tables_number   1
_chemical_formula_structural   Pr5Mn2O12
_chemical_formula_sum   'Pr5 Mn2 O12'
_cell_volume   280.27139711
_cell_formula_units_Z   1
loop_
 _symmetry_equiv_pos_site_id
 _symmetry_equiv_pos_as_xyz
  1  'x, y, z'
loop_
 _atom_site_type_symbol
 _atom_site_label
 _atom_site_symmetry_multiplicity
 _atom_site_fract_x
 _atom_site_fract_y
 _atom_site_fract_z
 _atom_site_occupancy
  Pr  Pr0  1  0.308199  0.308199  0.354213  1
  Pr  Pr1  1  0.691801  0.691801  0.645787  1
  Pr  Pr2  1  0.693213  0.693213  0.162471  1
  Pr  Pr3  1  0.306787  0.306787  0.837529  1
  Pr  Pr4  1  0.000000  0.000000  0.500000  1
  Mn  Mn5  1  0.755367  0.244633  0.000000  1
  Mn  Mn6  1  0.244633  0.755367  0.000000  1
  O  O7  1  0.095633  0.596758  0.577420  1
  O  O8  1  0.999158  0.999158  0.169695  1
  O  O9  1  0.403242  0.904367  0.422580  1
  O  O10  1  0.500367  0.500367  0.168270  1
  O  O11  1  0.100925  0.586803  0.076723  1
  O  O12  1  0.904367  0.403242  0.422580  1
  O  O13  1  0.000842  0.000842  0.830305  1
  O  O14  1  0.596758  0.095632  0.577420  1
  O  O15  1  0.499633  0.499633  0.831730  1
  O  O16  1  0.586803  0.100925  0.076723  1
  O  O17  1  0.413197  0.899075  0.923277  1
  O  O18  1  0.899075  0.413197  0.923277  1
