# generated using pymatgen
data_Th3Np(SnH4)2
_symmetry_space_group_name_H-M   'P 1'
_cell_length_a   6.31053585
_cell_length_b   6.31053644
_cell_length_c   6.38377606
_cell_angle_alpha   105.61638523
_cell_angle_beta   105.61639126
_cell_angle_gamma   117.08814560
_symmetry_Int_Tables_number   1
_chemical_formula_structural   Th3Np(SnH4)2
_chemical_formula_sum   'Th3 Np1 Sn2 H8'
_cell_volume   193.89490500
_cell_formula_units_Z   1
loop_
 _symmetry_equiv_pos_site_id
 _symmetry_equiv_pos_as_xyz
  1  'x, y, z'
loop_
 _atom_site_type_symbol
 _atom_site_label
 _atom_site_symmetry_multiplicity
 _atom_site_fract_x
 _atom_site_fract_y
 _atom_site_fract_z
 _atom_site_occupancy
  Th  Th0  1  0.660227  0.160264  0.820492  1
  Th  Th1  1  0.159841  0.340159  0.500000  1
  Th  Th2  1  0.339736  0.839773  0.179508  1
  Np  Np3  1  0.844277  0.655723  0.500000  1
  Sn  Sn4  1  0.749698  0.750302  0.000000  1
  Sn  Sn5  1  0.249698  0.250302  0.000000  1
  H  H6  1  0.218562  0.971603  0.500000  1
  H  H7  1  0.482142  0.721979  0.500000  1
  H  H8  1  0.722632  0.227930  0.249525  1
  H  H9  1  0.973107  0.478406  0.750475  1
  H  H10  1  0.272070  0.777368  0.750475  1
  H  H11  1  0.528397  0.281438  0.500000  1
  H  H12  1  0.021594  0.526893  0.249525  1
  H  H13  1  0.778021  0.017858  0.500000  1
