# generated using pymatgen
data_Th10Si16Ge
_symmetry_space_group_name_H-M   'P 1'
_cell_length_a   11.46607815
_cell_length_b   11.41578482
_cell_length_c   11.46607926
_cell_angle_alpha   143.53210608
_cell_angle_beta   137.61573265
_cell_angle_gamma   57.20198900
_symmetry_Int_Tables_number   1
_chemical_formula_structural   Th10Si16Ge
_chemical_formula_sum   'Th10 Si16 Ge1'
_cell_volume   596.18675113
_cell_formula_units_Z   1
loop_
 _symmetry_equiv_pos_site_id
 _symmetry_equiv_pos_as_xyz
  1  'x, y, z'
loop_
 _atom_site_type_symbol
 _atom_site_label
 _atom_site_symmetry_multiplicity
 _atom_site_fract_x
 _atom_site_fract_y
 _atom_site_fract_z
 _atom_site_occupancy
  Th  Th0  1  0.057126  0.566644  0.024021  1
  Th  Th1  1  0.351764  0.367625  0.518086  1
  Th  Th2  1  0.153255  0.167192  0.520670  1
  Th  Th3  1  0.452254  0.963775  0.017753  1
  Th  Th4  1  0.646524  0.167192  0.013939  1
  Th  Th5  1  0.946022  0.963775  0.511520  1
  Th  Th6  1  0.849539  0.367625  0.015860  1
  Th  Th7  1  0.542623  0.566644  0.509518  1
  Th  Th8  1  0.244830  0.761075  0.004178  1
  Th  Th9  1  0.756897  0.761075  0.516245  1
  Si  Si10  1  0.108600  0.051759  0.943157  1
  Si  Si11  1  0.799305  0.201246  0.401942  1
  Si  Si12  1  0.300114  0.897758  0.597644  1
  Si  Si13  1  0.401170  0.504094  0.102924  1
  Si  Si14  1  0.888284  0.845814  0.957530  1
  Si  Si15  1  0.101931  0.706796  0.604865  1
  Si  Si16  1  0.198909  0.613619  0.414709  1
  Si  Si17  1  0.701072  0.297411  0.596340  1
  Si  Si18  1  0.001624  0.428678  0.427054  1
  Si  Si19  1  0.704481  0.651429  0.946948  1
  Si  Si20  1  0.599534  0.701435  0.101900  1
  Si  Si21  1  0.999806  0.085087  0.085282  1
  Si  Si22  1  0.500652  0.410221  0.909569  1
  Si  Si23  1  0.296165  0.243084  0.946920  1
  Si  Si24  1  0.594066  0.040706  0.446638  1
  Si  Si25  1  0.406437  0.852452  0.446015  1
  Ge  Ge26  1  0.897015  0.504706  0.607693  1
