# generated using pymatgen
data_YbLuB6Ru
_symmetry_space_group_name_H-M   'P 1'
_cell_length_a   3.61424100
_cell_length_b   9.07708200
_cell_length_c   11.44647600
_cell_angle_alpha   90.00000000
_cell_angle_beta   90.00000000
_cell_angle_gamma   90.00000000
_symmetry_Int_Tables_number   1
_chemical_formula_structural   YbLuB6Ru
_chemical_formula_sum   'Yb4 Lu4 B24 Ru4'
_cell_volume   375.52181301
_cell_formula_units_Z   4
loop_
 _symmetry_equiv_pos_site_id
 _symmetry_equiv_pos_as_xyz
  1  'x, y, z'
loop_
 _atom_site_type_symbol
 _atom_site_label
 _atom_site_symmetry_multiplicity
 _atom_site_fract_x
 _atom_site_fract_y
 _atom_site_fract_z
 _atom_site_occupancy
  Yb  Yb0  1  0.000000  0.325038  0.414620  1
  Yb  Yb1  1  0.000000  0.674962  0.585380  1
  Yb  Yb2  1  0.000000  0.825038  0.085380  1
  Yb  Yb3  1  0.000000  0.174962  0.914620  1
  Lu  Lu4  1  0.000000  0.942281  0.367089  1
  Lu  Lu5  1  0.000000  0.057719  0.632911  1
  Lu  Lu6  1  0.000000  0.442281  0.132911  1
  Lu  Lu7  1  0.000000  0.557719  0.867089  1
  B  B8  1  0.500000  0.554002  0.432925  1
  B  B9  1  0.500000  0.445998  0.567075  1
  B  B10  1  0.500000  0.054002  0.067075  1
  B  B11  1  0.500000  0.945998  0.932925  1
  B  B12  1  0.500000  0.750009  0.417743  1
  B  B13  1  0.500000  0.249991  0.582257  1
  B  B14  1  0.500000  0.250009  0.082257  1
  B  B15  1  0.500000  0.749991  0.917743  1
  B  B16  1  0.500000  0.791891  0.264462  1
  B  B17  1  0.500000  0.208109  0.735538  1
  B  B18  1  0.500000  0.291891  0.235538  1
  B  B19  1  0.500000  0.708109  0.764462  1
  B  B20  1  0.500000  0.630895  0.185062  1
  B  B21  1  0.500000  0.369105  0.814938  1
  B  B22  1  0.500000  0.130895  0.314938  1
  B  B23  1  0.500000  0.869105  0.685062  1
  B  B24  1  0.500000  0.982885  0.211625  1
  B  B25  1  0.500000  0.017115  0.788375  1
  B  B26  1  0.500000  0.482885  0.288375  1
  B  B27  1  0.500000  0.517115  0.711625  1
  B  B28  1  0.500000  0.595809  0.026347  1
  B  B29  1  0.500000  0.404191  0.973653  1
  B  B30  1  0.500000  0.095809  0.473653  1
  B  B31  1  0.500000  0.904191  0.526347  1
  Ru  Ru32  1  0.000000  0.639518  0.319593  1
  Ru  Ru33  1  0.000000  0.360482  0.680407  1
  Ru  Ru34  1  0.000000  0.139518  0.180407  1
  Ru  Ru35  1  0.000000  0.860482  0.819593  1
