# generated using pymatgen
data_Eu2Cu2NiP4
_symmetry_space_group_name_H-M   'P 1'
_cell_length_a   7.92940360
_cell_length_b   7.92940452
_cell_length_c   7.92940399
_cell_angle_alpha   137.74892278
_cell_angle_beta   107.72773029
_cell_angle_gamma   87.43805604
_symmetry_Int_Tables_number   1
_chemical_formula_structural   Eu2Cu2NiP4
_chemical_formula_sum   'Eu4 Cu4 Ni2 P8'
_cell_volume   306.33577841
_cell_formula_units_Z   2
loop_
 _symmetry_equiv_pos_site_id
 _symmetry_equiv_pos_as_xyz
  1  'x, y, z'
loop_
 _atom_site_type_symbol
 _atom_site_label
 _atom_site_symmetry_multiplicity
 _atom_site_fract_x
 _atom_site_fract_y
 _atom_site_fract_z
 _atom_site_occupancy
  Eu  Eu0  1  0.106253  0.882859  0.223394  1
  Eu  Eu1  1  0.893747  0.117141  0.776606  1
  Eu  Eu2  1  0.340537  0.617141  0.723394  1
  Eu  Eu3  1  0.659463  0.382859  0.276606  1
  Cu  Cu4  1  0.265690  0.015690  0.750000  1
  Cu  Cu5  1  0.734310  0.484310  0.750000  1
  Cu  Cu6  1  0.265690  0.515690  0.250000  1
  Cu  Cu7  1  0.734310  0.984310  0.250000  1
  Ni  Ni8  1  0.500000  0.750000  0.250000  1
  Ni  Ni9  1  0.500000  0.250000  0.750000  1
  P  P10  1  0.484985  0.114897  0.370088  1
  P  P11  1  0.515015  0.885103  0.629912  1
  P  P12  1  0.255190  0.385103  0.870088  1
  P  P13  1  0.744810  0.614897  0.129912  1
  P  P14  1  0.993617  0.362507  0.631110  1
  P  P15  1  0.006383  0.637493  0.368890  1
  P  P16  1  0.731398  0.862507  0.868890  1
  P  P17  1  0.268602  0.137493  0.131110  1
