# generated using pymatgen
data_Tb5DyMg2(Co4P3)4
_symmetry_space_group_name_H-M   'P 1'
_cell_length_a   3.72887800
_cell_length_b   10.61867001
_cell_length_c   12.27199901
_cell_angle_alpha   90.00500685
_cell_angle_beta   90.00000000
_cell_angle_gamma   90.00000000
_symmetry_Int_Tables_number   1
_chemical_formula_structural   Tb5DyMg2(Co4P3)4
_chemical_formula_sum   'Tb5 Dy1 Mg2 Co16 P12'
_cell_volume   485.91869609
_cell_formula_units_Z   1
loop_
 _symmetry_equiv_pos_site_id
 _symmetry_equiv_pos_as_xyz
  1  'x, y, z'
loop_
 _atom_site_type_symbol
 _atom_site_label
 _atom_site_symmetry_multiplicity
 _atom_site_fract_x
 _atom_site_fract_y
 _atom_site_fract_z
 _atom_site_occupancy
  Tb  Tb0  1  0.000000  0.500005  0.525911  1
  Tb  Tb1  1  0.500000  0.999887  0.474093  1
  Tb  Tb2  1  0.500000  0.177755  0.206421  1
  Tb  Tb3  1  0.000000  0.678070  0.793458  1
  Tb  Tb4  1  0.000000  0.322097  0.793649  1
  Dy  Dy5  1  0.500000  0.822167  0.206359  1
  Mg  Mg6  1  0.500000  0.500049  0.156145  1
  Mg  Mg7  1  0.000000  0.999955  0.843847  1
  Co  Co8  1  0.500000  0.500066  0.705495  1
  Co  Co9  1  0.000000  0.999621  0.294408  1
  Co  Co10  1  0.000000  0.500168  0.988982  1
  Co  Co11  1  0.500000  0.999797  0.011298  1
  Co  Co12  1  0.500000  0.332491  0.996923  1
  Co  Co13  1  0.500000  0.667665  0.997086  1
  Co  Co14  1  0.000000  0.167349  0.003231  1
  Co  Co15  1  0.000000  0.832493  0.003258  1
  Co  Co16  1  0.500000  0.296471  0.431930  1
  Co  Co17  1  0.500000  0.703608  0.431739  1
  Co  Co18  1  0.000000  0.203443  0.568036  1
  Co  Co19  1  0.000000  0.796564  0.567888  1
  Co  Co20  1  0.500000  0.878092  0.705520  1
  Co  Co21  1  0.500000  0.121815  0.705538  1
  Co  Co22  1  0.000000  0.622222  0.294189  1
  Co  Co23  1  0.000000  0.378124  0.294433  1
  P  P24  1  0.500000  0.500070  0.885849  1
  P  P25  1  0.000000  0.999678  0.114439  1
  P  P26  1  0.500000  0.499985  0.354830  1
  P  P27  1  0.000000  0.999939  0.645111  1
  P  P28  1  0.500000  0.308963  0.615128  1
  P  P29  1  0.500000  0.691165  0.614985  1
  P  P30  1  0.000000  0.190918  0.384858  1
  P  P31  1  0.000000  0.809110  0.384497  1
  P  P32  1  0.500000  0.839220  0.893222  1
  P  P33  1  0.500000  0.160716  0.893273  1
  P  P34  1  0.000000  0.661096  0.107154  1
  P  P35  1  0.000000  0.339168  0.106817  1
