# generated using pymatgen
data_DyHo2In3SnPd2
_symmetry_space_group_name_H-M   'P 1'
_cell_length_a   7.60942719
_cell_length_b   7.61923384
_cell_length_c   4.16978000
_cell_angle_alpha   90.00000000
_cell_angle_beta   90.00000000
_cell_angle_gamma   119.95904931
_symmetry_Int_Tables_number   1
_chemical_formula_structural   DyHo2In3SnPd2
_chemical_formula_sum   'Dy1 Ho2 In3 Sn1 Pd2'
_cell_volume   209.45276824
_cell_formula_units_Z   1
loop_
 _symmetry_equiv_pos_site_id
 _symmetry_equiv_pos_as_xyz
  1  'x, y, z'
loop_
 _atom_site_type_symbol
 _atom_site_label
 _atom_site_symmetry_multiplicity
 _atom_site_fract_x
 _atom_site_fract_y
 _atom_site_fract_z
 _atom_site_occupancy
  Dy  Dy0  1  0.600328  0.017530  0.500000  1
  Ho  Ho1  1  0.417236  0.398870  0.500000  1
  Ho  Ho2  1  0.981210  0.582713  0.500000  1
  In  In3  1  0.757983  0.743917  0.000000  1
  In  In4  1  0.985737  0.242136  0.000000  1
  In  In5  1  0.256916  0.014529  0.000000  1
  Sn  Sn6  1  0.332509  0.665531  0.000000  1
  Pd  Pd7  1  0.667028  0.334605  0.000000  1
  Pd  Pd8  1  0.001054  0.000165  0.500000  1
