# generated using pymatgen
data_BaCd2(H6Ir)2
_symmetry_space_group_name_H-M   'P 1'
_cell_length_a   4.98957800
_cell_length_b   4.98957860
_cell_length_c   8.29448800
_cell_angle_alpha   90.00000000
_cell_angle_beta   90.00000000
_cell_angle_gamma   119.99999599
_symmetry_Int_Tables_number   1
_chemical_formula_structural   BaCd2(H6Ir)2
_chemical_formula_sum   'Ba1 Cd2 H12 Ir2'
_cell_volume   178.83310510
_cell_formula_units_Z   1
loop_
 _symmetry_equiv_pos_site_id
 _symmetry_equiv_pos_as_xyz
  1  'x, y, z'
loop_
 _atom_site_type_symbol
 _atom_site_label
 _atom_site_symmetry_multiplicity
 _atom_site_fract_x
 _atom_site_fract_y
 _atom_site_fract_z
 _atom_site_occupancy
  Ba  Ba0  1  0.000000  0.000000  0.000000  1
  Cd  Cd1  1  0.666667  0.333333  0.370896  1
  Cd  Cd2  1  0.333333  0.666667  0.629104  1
  H  H3  1  0.167347  0.832653  0.376903  1
  H  H4  1  0.665307  0.832653  0.376903  1
  H  H5  1  0.167347  0.334693  0.376903  1
  H  H6  1  0.832653  0.167347  0.623097  1
  H  H7  1  0.334693  0.167347  0.623097  1
  H  H8  1  0.832653  0.665307  0.623097  1
  H  H9  1  0.512785  0.025571  0.847961  1
  H  H10  1  0.512785  0.487215  0.847961  1
  H  H11  1  0.974429  0.487215  0.847961  1
  H  H12  1  0.487215  0.974429  0.152039  1
  H  H13  1  0.487215  0.512785  0.152039  1
  H  H14  1  0.025571  0.512785  0.152039  1
  Ir  Ir15  1  0.666667  0.333333  0.723369  1
  Ir  Ir16  1  0.333333  0.666667  0.276631  1
