# generated using pymatgen
data_La3Tb8(Yb3Ir4)3
_symmetry_space_group_name_H-M   'P 1'
_cell_length_a   11.00555189
_cell_length_b   11.09564049
_cell_length_c   6.29453989
_cell_angle_alpha   90.17188164
_cell_angle_beta   89.87528793
_cell_angle_gamma   89.96695247
_symmetry_Int_Tables_number   1
_chemical_formula_structural   La3Tb8(Yb3Ir4)3
_chemical_formula_sum   'La3 Tb8 Yb9 Ir12'
_cell_volume   768.64381342
_cell_formula_units_Z   1
loop_
 _symmetry_equiv_pos_site_id
 _symmetry_equiv_pos_as_xyz
  1  'x, y, z'
loop_
 _atom_site_type_symbol
 _atom_site_label
 _atom_site_symmetry_multiplicity
 _atom_site_fract_x
 _atom_site_fract_y
 _atom_site_fract_z
 _atom_site_occupancy
  La  La0  1  0.593313  0.206329  0.379464  1
  La  La1  1  0.411423  0.792795  0.378893  1
  La  La2  1  0.406690  0.207385  0.881155  1
  Tb  Tb3  1  0.207944  0.414966  0.621273  1
  Tb  Tb4  1  0.207985  0.586147  0.121384  1
  Tb  Tb5  1  0.790121  0.415532  0.124713  1
  Tb  Tb6  1  0.788783  0.588699  0.624659  1
  Tb  Tb7  1  0.911888  0.710854  0.127757  1
  Tb  Tb8  1  0.911767  0.289861  0.628144  1
  Tb  Tb9  1  0.086570  0.710786  0.626119  1
  Tb  Tb10  1  0.085904  0.290357  0.126896  1
  Yb  Yb11  1  0.287634  0.086827  0.377905  1
  Yb  Yb12  1  0.289923  0.910467  0.877688  1
  Yb  Yb13  1  0.713194  0.080928  0.877755  1
  Yb  Yb14  1  0.712090  0.911115  0.379132  1
  Yb  Yb15  1  0.592214  0.793685  0.876820  1
  Yb  Yb16  1  0.000499  0.999913  0.495242  1
  Yb  Yb17  1  0.001110  0.999051  0.994150  1
  Yb  Yb18  1  0.501295  0.505150  0.989175  1
  Yb  Yb19  1  0.500793  0.499521  0.490533  1
  Ir  Ir20  1  0.853358  0.166388  0.247145  1
  Ir  Ir21  1  0.857398  0.832428  0.747402  1
  Ir  Ir22  1  0.145752  0.167253  0.749120  1
  Ir  Ir23  1  0.147798  0.833109  0.247195  1
  Ir  Ir24  1  0.661007  0.348963  0.749156  1
  Ir  Ir25  1  0.663446  0.649504  0.248187  1
  Ir  Ir26  1  0.337815  0.351785  0.243657  1
  Ir  Ir27  1  0.335676  0.648207  0.743221  1
  Ir  Ir28  1  0.499770  0.000789  0.122680  1
  Ir  Ir29  1  0.499385  0.001440  0.627555  1
  Ir  Ir30  1  0.998509  0.499936  0.888179  1
  Ir  Ir31  1  0.998943  0.499831  0.387648  1
