# generated using pymatgen
data_YbU(B4Ru)2
_symmetry_space_group_name_H-M   'P 1'
_cell_length_a   5.94411054
_cell_length_b   11.48203505
_cell_length_c   3.54446300
_cell_angle_alpha   90.00000000
_cell_angle_beta   90.00000000
_cell_angle_gamma   90.04887163
_symmetry_Int_Tables_number   1
_chemical_formula_structural   YbU(B4Ru)2
_chemical_formula_sum   'Yb2 U2 B16 Ru4'
_cell_volume   241.91123270
_cell_formula_units_Z   2
loop_
 _symmetry_equiv_pos_site_id
 _symmetry_equiv_pos_as_xyz
  1  'x, y, z'
loop_
 _atom_site_type_symbol
 _atom_site_label
 _atom_site_symmetry_multiplicity
 _atom_site_fract_x
 _atom_site_fract_y
 _atom_site_fract_z
 _atom_site_occupancy
  Yb  Yb0  1  0.627925  0.352557  0.000000  1
  Yb  Yb1  1  0.372077  0.647444  0.000000  1
  U  U2  1  0.127982  0.152234  0.000000  1
  U  U3  1  0.872017  0.847766  0.000000  1
  B  B4  1  0.474010  0.191681  0.500000  1
  B  B5  1  0.525988  0.808319  0.500000  1
  B  B6  1  0.976140  0.308407  0.500000  1
  B  B7  1  0.023862  0.691593  0.500000  1
  B  B8  1  0.288145  0.313920  0.500000  1
  B  B9  1  0.711855  0.686079  0.500000  1
  B  B10  1  0.791260  0.186297  0.500000  1
  B  B11  1  0.208742  0.813703  0.500000  1
  B  B12  1  0.362754  0.469407  0.500000  1
  B  B13  1  0.637245  0.530593  0.500000  1
  B  B14  1  0.868632  0.032680  0.500000  1
  B  B15  1  0.131367  0.967319  0.500000  1
  B  B16  1  0.385711  0.047276  0.500000  1
  B  B17  1  0.614290  0.952723  0.500000  1
  B  B18  1  0.886276  0.454246  0.500000  1
  B  B19  1  0.113725  0.545754  0.500000  1
  Ru  Ru20  1  0.137049  0.405691  0.000000  1
  Ru  Ru21  1  0.862949  0.594309  0.000000  1
  Ru  Ru22  1  0.642540  0.092445  0.000000  1
  Ru  Ru23  1  0.357459  0.907554  0.000000  1
