# generated using pymatgen
data_Nd3Mn2Ni7P6
_symmetry_space_group_name_H-M   'P 1'
_cell_length_a   3.85511000
_cell_length_b   10.72580300
_cell_length_c   12.54299800
_cell_angle_alpha   90.00000000
_cell_angle_beta   90.00000000
_cell_angle_gamma   90.00000000
_symmetry_Int_Tables_number   1
_chemical_formula_structural   Nd3Mn2Ni7P6
_chemical_formula_sum   'Nd6 Mn4 Ni14 P12'
_cell_volume   518.64231081
_cell_formula_units_Z   2
loop_
 _symmetry_equiv_pos_site_id
 _symmetry_equiv_pos_as_xyz
  1  'x, y, z'
loop_
 _atom_site_type_symbol
 _atom_site_label
 _atom_site_symmetry_multiplicity
 _atom_site_fract_x
 _atom_site_fract_y
 _atom_site_fract_z
 _atom_site_occupancy
  Nd  Nd0  1  0.000000  0.500000  0.518942  1
  Nd  Nd1  1  0.500000  0.000000  0.481058  1
  Nd  Nd2  1  0.500000  0.817618  0.206408  1
  Nd  Nd3  1  0.500000  0.182382  0.206408  1
  Nd  Nd4  1  0.000000  0.682382  0.793592  1
  Nd  Nd5  1  0.000000  0.317618  0.793592  1
  Mn  Mn6  1  0.500000  0.500000  0.152594  1
  Mn  Mn7  1  0.000000  0.000000  0.847406  1
  Mn  Mn8  1  0.000000  0.500000  0.989617  1
  Mn  Mn9  1  0.500000  0.000000  0.010383  1
  Ni  Ni10  1  0.500000  0.500000  0.701446  1
  Ni  Ni11  1  0.000000  0.000000  0.298554  1
  Ni  Ni12  1  0.500000  0.330519  0.993899  1
  Ni  Ni13  1  0.500000  0.669481  0.993899  1
  Ni  Ni14  1  0.000000  0.169481  0.006101  1
  Ni  Ni15  1  0.000000  0.830519  0.006101  1
  Ni  Ni16  1  0.500000  0.299702  0.427066  1
  Ni  Ni17  1  0.500000  0.700298  0.427066  1
  Ni  Ni18  1  0.000000  0.200298  0.572934  1
  Ni  Ni19  1  0.000000  0.799702  0.572934  1
  Ni  Ni20  1  0.500000  0.882394  0.712418  1
  Ni  Ni21  1  0.500000  0.117606  0.712418  1
  Ni  Ni22  1  0.000000  0.617606  0.287582  1
  Ni  Ni23  1  0.000000  0.382394  0.287582  1
  P  P24  1  0.500000  0.500000  0.885051  1
  P  P25  1  0.000000  0.000000  0.114949  1
  P  P26  1  0.500000  0.500000  0.340801  1
  P  P27  1  0.000000  0.000000  0.659199  1
  P  P28  1  0.500000  0.309243  0.612718  1
  P  P29  1  0.500000  0.690757  0.612718  1
  P  P30  1  0.000000  0.190757  0.387282  1
  P  P31  1  0.000000  0.809243  0.387282  1
  P  P32  1  0.500000  0.849321  0.894452  1
  P  P33  1  0.500000  0.150679  0.894452  1
  P  P34  1  0.000000  0.650679  0.105548  1
  P  P35  1  0.000000  0.349321  0.105548  1
