# generated using pymatgen
data_Yb3Lu(B4Ru5)2
_symmetry_space_group_name_H-M   'P 1'
_cell_length_a   3.00865600
_cell_length_b   8.68667988
_cell_length_c   10.19216471
_cell_angle_alpha   90.00118411
_cell_angle_beta   90.00000000
_cell_angle_gamma   90.00000000
_symmetry_Int_Tables_number   1
_chemical_formula_structural   Yb3Lu(B4Ru5)2
_chemical_formula_sum   'Yb3 Lu1 B8 Ru10'
_cell_volume   266.37458455
_cell_formula_units_Z   1
loop_
 _symmetry_equiv_pos_site_id
 _symmetry_equiv_pos_as_xyz
  1  'x, y, z'
loop_
 _atom_site_type_symbol
 _atom_site_label
 _atom_site_symmetry_multiplicity
 _atom_site_fract_x
 _atom_site_fract_y
 _atom_site_fract_z
 _atom_site_occupancy
  Yb  Yb0  1  0.500000  0.841884  0.182116  1
  Yb  Yb1  1  0.500000  0.157945  0.818081  1
  Yb  Yb2  1  0.500000  0.658009  0.682146  1
  Lu  Lu3  1  0.500000  0.342799  0.317481  1
  B  B4  1  0.500000  0.964873  0.589774  1
  B  B5  1  0.500000  0.034928  0.411409  1
  B  B6  1  0.500000  0.853192  0.899598  1
  B  B7  1  0.500000  0.147488  0.099548  1
  B  B8  1  0.500000  0.647277  0.399764  1
  B  B9  1  0.500000  0.352381  0.601755  1
  B  B10  1  0.500000  0.465822  0.910123  1
  B  B11  1  0.500000  0.535532  0.088099  1
  Ru  Ru12  1  0.000000  0.656537  0.954636  1
  Ru  Ru13  1  0.000000  0.343112  0.047017  1
  Ru  Ru14  1  0.000000  0.842828  0.453450  1
  Ru  Ru15  1  0.000000  0.157022  0.544924  1
  Ru  Ru16  1  0.000000  0.000216  0.000587  1
  Ru  Ru17  1  0.000000  0.404512  0.760061  1
  Ru  Ru18  1  0.000000  0.594898  0.239585  1
  Ru  Ru19  1  0.000000  0.498418  0.499585  1
  Ru  Ru20  1  0.000000  0.904476  0.739978  1
  Ru  Ru21  1  0.000000  0.095853  0.260281  1
