# generated using pymatgen
data_Na3GeS3
_symmetry_space_group_name_H-M   'P 1'
_cell_length_a   11.48951500
_cell_length_b   7.95953508
_cell_length_c   8.17201097
_cell_angle_alpha   61.11953910
_cell_angle_beta   90.00000000
_cell_angle_gamma   90.00000000
_symmetry_Int_Tables_number   1
_chemical_formula_structural   Na3GeS3
_chemical_formula_sum   'Na12 Ge4 S12'
_cell_volume   654.39295732
_cell_formula_units_Z   4
loop_
 _symmetry_equiv_pos_site_id
 _symmetry_equiv_pos_as_xyz
  1  'x, y, z'
loop_
 _atom_site_type_symbol
 _atom_site_label
 _atom_site_symmetry_multiplicity
 _atom_site_fract_x
 _atom_site_fract_y
 _atom_site_fract_z
 _atom_site_occupancy
  Na  Na0  1  0.270054  0.224053  0.532122  1
  Na  Na1  1  0.770054  0.275947  0.467878  1
  Na  Na2  1  0.729946  0.775947  0.467878  1
  Na  Na3  1  0.229946  0.724053  0.532122  1
  Na  Na4  1  0.558821  0.010713  0.772797  1
  Na  Na5  1  0.058821  0.489287  0.227203  1
  Na  Na6  1  0.441179  0.989287  0.227203  1
  Na  Na7  1  0.941179  0.510713  0.772797  1
  Na  Na8  1  0.164557  0.976401  0.004881  1
  Na  Na9  1  0.664557  0.523599  0.995119  1
  Na  Na10  1  0.835443  0.023599  0.995119  1
  Na  Na11  1  0.335443  0.476401  0.004881  1
  Ge  Ge12  1  0.990058  0.962103  0.663571  1
  Ge  Ge13  1  0.490058  0.537897  0.336429  1
  Ge  Ge14  1  0.009942  0.037897  0.336429  1
  Ge  Ge15  1  0.509942  0.462103  0.663571  1
  S  S16  1  0.383456  0.229497  0.836880  1
  S  S17  1  0.883456  0.270503  0.163120  1
  S  S18  1  0.616544  0.770503  0.163120  1
  S  S19  1  0.116544  0.729497  0.836880  1
  S  S20  1  0.469585  0.731050  0.673962  1
  S  S21  1  0.969585  0.768950  0.326038  1
  S  S22  1  0.530415  0.268950  0.326038  1
  S  S23  1  0.030415  0.231050  0.673962  1
  S  S24  1  0.695392  0.368324  0.745004  1
  S  S25  1  0.195392  0.131676  0.254996  1
  S  S26  1  0.304608  0.631676  0.254996  1
  S  S27  1  0.804608  0.868324  0.745004  1
