# generated using pymatgen
data_K3SiB4Pt9
_symmetry_space_group_name_H-M   'P 1'
_cell_length_a   6.60225100
_cell_length_b   6.60225205
_cell_length_c   15.23523900
_cell_angle_alpha   90.00000000
_cell_angle_beta   90.00000000
_cell_angle_gamma   123.11757336
_symmetry_Int_Tables_number   1
_chemical_formula_structural   K3SiB4Pt9
_chemical_formula_sum   'K6 Si2 B8 Pt18'
_cell_volume   556.21763976
_cell_formula_units_Z   2
loop_
 _symmetry_equiv_pos_site_id
 _symmetry_equiv_pos_as_xyz
  1  'x, y, z'
loop_
 _atom_site_type_symbol
 _atom_site_label
 _atom_site_symmetry_multiplicity
 _atom_site_fract_x
 _atom_site_fract_y
 _atom_site_fract_z
 _atom_site_occupancy
  K  K0  1  0.311860  0.688140  0.750000  1
  K  K1  1  0.688140  0.311860  0.250000  1
  K  K2  1  0.556859  0.443141  0.086199  1
  K  K3  1  0.443141  0.556859  0.913801  1
  K  K4  1  0.443141  0.556859  0.586199  1
  K  K5  1  0.556859  0.443141  0.413801  1
  Si  Si6  1  0.701546  0.298454  0.750000  1
  Si  Si7  1  0.298454  0.701546  0.250000  1
  B  B8  1  0.944093  0.055907  0.141178  1
  B  B9  1  0.055907  0.944093  0.858822  1
  B  B10  1  0.055907  0.944093  0.641178  1
  B  B11  1  0.944093  0.055907  0.358822  1
  B  B12  1  0.200868  0.799132  0.024871  1
  B  B13  1  0.799132  0.200868  0.975129  1
  B  B14  1  0.799132  0.200868  0.524871  1
  B  B15  1  0.200868  0.799132  0.475129  1
  Pt  Pt16  1  0.000000  0.000000  0.000000  1
  Pt  Pt17  1  0.000000  0.000000  0.500000  1
  Pt  Pt18  1  0.711939  0.846968  0.250000  1
  Pt  Pt19  1  0.846968  0.711939  0.750000  1
  Pt  Pt20  1  0.288061  0.153032  0.750000  1
  Pt  Pt21  1  0.153032  0.288061  0.250000  1
  Pt  Pt22  1  0.131215  0.868785  0.152810  1
  Pt  Pt23  1  0.868785  0.131215  0.847190  1
  Pt  Pt24  1  0.868785  0.131215  0.652810  1
  Pt  Pt25  1  0.131215  0.868785  0.347190  1
  Pt  Pt26  1  0.575735  0.949724  0.077694  1
  Pt  Pt27  1  0.949724  0.575735  0.922306  1
  Pt  Pt28  1  0.424265  0.050276  0.577694  1
  Pt  Pt29  1  0.050276  0.424265  0.422306  1
  Pt  Pt30  1  0.424265  0.050276  0.922306  1
  Pt  Pt31  1  0.050276  0.424265  0.077694  1
  Pt  Pt32  1  0.575735  0.949724  0.422306  1
  Pt  Pt33  1  0.949724  0.575735  0.577694  1
