# generated using pymatgen
data_HoEr3(SnPd2)2
_symmetry_space_group_name_H-M   'P 1'
_cell_length_a   7.76651780
_cell_length_b   7.76651687
_cell_length_c   3.60926700
_cell_angle_alpha   90.00000000
_cell_angle_beta   90.00000000
_cell_angle_gamma   90.15138954
_symmetry_Int_Tables_number   1
_chemical_formula_structural   HoEr3(SnPd2)2
_chemical_formula_sum   'Ho1 Er3 Sn2 Pd4'
_cell_volume   217.70586378
_cell_formula_units_Z   1
loop_
 _symmetry_equiv_pos_site_id
 _symmetry_equiv_pos_as_xyz
  1  'x, y, z'
loop_
 _atom_site_type_symbol
 _atom_site_label
 _atom_site_symmetry_multiplicity
 _atom_site_fract_x
 _atom_site_fract_y
 _atom_site_fract_z
 _atom_site_occupancy
  Ho  Ho0  1  0.829431  0.670569  0.500000  1
  Er  Er1  1  0.670787  0.169613  0.500000  1
  Er  Er2  1  0.330387  0.829213  0.500000  1
  Er  Er3  1  0.169890  0.330110  0.500000  1
  Sn  Sn4  1  0.000795  0.000197  0.000000  1
  Sn  Sn5  1  0.499803  0.499205  0.000000  1
  Pd  Pd6  1  0.128626  0.629106  0.000000  1
  Pd  Pd7  1  0.870894  0.371374  0.000000  1
  Pd  Pd8  1  0.627903  0.872097  0.000000  1
  Pd  Pd9  1  0.371484  0.128516  0.000000  1
