# generated using pymatgen
data_Tb16In4RuPt3
_symmetry_space_group_name_H-M   'P 1'
_cell_length_a   9.73050552
_cell_length_b   9.73050493
_cell_length_c   9.73050560
_cell_angle_alpha   60.06632247
_cell_angle_beta   60.06633364
_cell_angle_gamma   60.06632259
_symmetry_Int_Tables_number   1
_chemical_formula_structural   Tb16In4RuPt3
_chemical_formula_sum   'Tb16 In4 Ru1 Pt3'
_cell_volume   652.44440293
_cell_formula_units_Z   1
loop_
 _symmetry_equiv_pos_site_id
 _symmetry_equiv_pos_as_xyz
  1  'x, y, z'
loop_
 _atom_site_type_symbol
 _atom_site_label
 _atom_site_symmetry_multiplicity
 _atom_site_fract_x
 _atom_site_fract_y
 _atom_site_fract_z
 _atom_site_occupancy
  Tb  Tb0  1  0.350866  0.350866  0.350866  1
  Tb  Tb1  1  0.348320  0.348320  0.950833  1
  Tb  Tb2  1  0.348320  0.950833  0.348320  1
  Tb  Tb3  1  0.950833  0.348320  0.348320  1
  Tb  Tb4  1  0.815083  0.189498  0.189498  1
  Tb  Tb5  1  0.190966  0.808915  0.808915  1
  Tb  Tb6  1  0.189498  0.815083  0.189498  1
  Tb  Tb7  1  0.808915  0.190966  0.808915  1
  Tb  Tb8  1  0.189498  0.189498  0.815083  1
  Tb  Tb9  1  0.808915  0.808915  0.190966  1
  Tb  Tb10  1  0.936073  0.562831  0.562831  1
  Tb  Tb11  1  0.559101  0.938381  0.938381  1
  Tb  Tb12  1  0.562831  0.936073  0.562831  1
  Tb  Tb13  1  0.938381  0.559101  0.938381  1
  Tb  Tb14  1  0.562831  0.562831  0.936073  1
  Tb  Tb15  1  0.938381  0.938381  0.559101  1
  In  In16  1  0.583111  0.583111  0.583111  1
  In  In17  1  0.582433  0.582433  0.252414  1
  In  In18  1  0.582433  0.252414  0.582433  1
  In  In19  1  0.252414  0.582433  0.582433  1
  Ru  Ru20  1  0.141759  0.141759  0.141759  1
  Pt  Pt21  1  0.142974  0.142974  0.573088  1
  Pt  Pt22  1  0.142974  0.573088  0.142974  1
  Pt  Pt23  1  0.573088  0.142974  0.142974  1
