# generated using pymatgen
data_CaAc3(ZnSn)4
_symmetry_space_group_name_H-M   'P 1'
_cell_length_a   4.65993500
_cell_length_b   4.65993517
_cell_length_c   17.76201000
_cell_angle_alpha   90.00000000
_cell_angle_beta   90.00000000
_cell_angle_gamma   120.00000588
_symmetry_Int_Tables_number   1
_chemical_formula_structural   CaAc3(ZnSn)4
_chemical_formula_sum   'Ca1 Ac3 Zn4 Sn4'
_cell_volume   334.02767452
_cell_formula_units_Z   1
loop_
 _symmetry_equiv_pos_site_id
 _symmetry_equiv_pos_as_xyz
  1  'x, y, z'
loop_
 _atom_site_type_symbol
 _atom_site_label
 _atom_site_symmetry_multiplicity
 _atom_site_fract_x
 _atom_site_fract_y
 _atom_site_fract_z
 _atom_site_occupancy
  Ca  Ca0  1  0.000000  0.000000  0.750000  1
  Ac  Ac1  1  0.000000  0.000000  0.250000  1
  Ac  Ac2  1  0.000000  0.000000  0.987904  1
  Ac  Ac3  1  0.000000  0.000000  0.512096  1
  Zn  Zn4  1  0.333333  0.666667  0.145329  1
  Zn  Zn5  1  0.666667  0.333333  0.833433  1
  Zn  Zn6  1  0.666667  0.333333  0.666567  1
  Zn  Zn7  1  0.333333  0.666667  0.354671  1
  Sn  Sn8  1  0.333333  0.666667  0.627222  1
  Sn  Sn9  1  0.666667  0.333333  0.386683  1
  Sn  Sn10  1  0.666667  0.333333  0.113317  1
  Sn  Sn11  1  0.333333  0.666667  0.872778  1
