# generated using pymatgen
data_Th4Si9Ir13
_symmetry_space_group_name_H-M   'P 1'
_cell_length_a   3.95137700
_cell_length_b   11.00682600
_cell_length_c   19.00473100
_cell_angle_alpha   90.00000000
_cell_angle_beta   90.00000000
_cell_angle_gamma   90.00000000
_symmetry_Int_Tables_number   1
_chemical_formula_structural   Th4Si9Ir13
_chemical_formula_sum   'Th8 Si18 Ir26'
_cell_volume   826.55602410
_cell_formula_units_Z   2
loop_
 _symmetry_equiv_pos_site_id
 _symmetry_equiv_pos_as_xyz
  1  'x, y, z'
loop_
 _atom_site_type_symbol
 _atom_site_label
 _atom_site_symmetry_multiplicity
 _atom_site_fract_x
 _atom_site_fract_y
 _atom_site_fract_z
 _atom_site_occupancy
  Th  Th0  1  0.500000  0.689318  0.207623  1
  Th  Th1  1  0.000000  0.810682  0.792377  1
  Th  Th2  1  0.000000  0.189318  0.792377  1
  Th  Th3  1  0.500000  0.310682  0.207623  1
  Th  Th4  1  0.500000  0.000000  0.521184  1
  Th  Th5  1  0.000000  0.500000  0.478816  1
  Th  Th6  1  0.500000  0.500000  0.019320  1
  Th  Th7  1  0.000000  0.000000  0.980680  1
  Si  Si8  1  0.000000  0.000000  0.395492  1
  Si  Si9  1  0.500000  0.500000  0.604508  1
  Si  Si10  1  0.500000  0.317492  0.414757  1
  Si  Si11  1  0.000000  0.182508  0.585243  1
  Si  Si12  1  0.000000  0.817492  0.585243  1
  Si  Si13  1  0.500000  0.682508  0.414757  1
  Si  Si14  1  0.000000  0.689370  0.080172  1
  Si  Si15  1  0.500000  0.810630  0.919828  1
  Si  Si16  1  0.500000  0.189370  0.919828  1
  Si  Si17  1  0.000000  0.310630  0.080172  1
  Si  Si18  1  0.500000  0.000000  0.101895  1
  Si  Si19  1  0.000000  0.500000  0.898105  1
  Si  Si20  1  0.500000  0.376167  0.728709  1
  Si  Si21  1  0.000000  0.123833  0.271291  1
  Si  Si22  1  0.000000  0.876167  0.271291  1
  Si  Si23  1  0.500000  0.623833  0.728709  1
  Si  Si24  1  0.500000  0.000000  0.730370  1
  Si  Si25  1  0.000000  0.500000  0.269630  1
  Ir  Ir26  1  0.000000  0.686121  0.335865  1
  Ir  Ir27  1  0.500000  0.813879  0.664135  1
  Ir  Ir28  1  0.500000  0.186121  0.664135  1
  Ir  Ir29  1  0.000000  0.313879  0.335865  1
  Ir  Ir30  1  0.000000  0.500000  0.143067  1
  Ir  Ir31  1  0.500000  0.000000  0.856933  1
  Ir  Ir32  1  0.500000  0.500000  0.343097  1
  Ir  Ir33  1  0.000000  0.000000  0.656903  1
  Ir  Ir34  1  0.000000  0.500000  0.772464  1
  Ir  Ir35  1  0.500000  0.000000  0.227536  1
  Ir  Ir36  1  0.500000  0.689374  0.539659  1
  Ir  Ir37  1  0.000000  0.810626  0.460341  1
  Ir  Ir38  1  0.000000  0.189374  0.460341  1
  Ir  Ir39  1  0.500000  0.310626  0.539659  1
  Ir  Ir40  1  0.000000  0.701107  0.952416  1
  Ir  Ir41  1  0.500000  0.798893  0.047584  1
  Ir  Ir42  1  0.500000  0.201107  0.047584  1
  Ir  Ir43  1  0.000000  0.298893  0.952416  1
  Ir  Ir44  1  0.000000  0.876861  0.143937  1
  Ir  Ir45  1  0.500000  0.623139  0.856063  1
  Ir  Ir46  1  0.500000  0.376861  0.856063  1
  Ir  Ir47  1  0.000000  0.123139  0.143937  1
  Ir  Ir48  1  0.500000  0.872820  0.355557  1
  Ir  Ir49  1  0.000000  0.627180  0.644443  1
  Ir  Ir50  1  0.000000  0.372820  0.644443  1
  Ir  Ir51  1  0.500000  0.127180  0.355557  1
