# generated using pymatgen
data_Na20Hf2SiGeAs12
_symmetry_space_group_name_H-M   'P 1'
_cell_length_a   7.58382072
_cell_length_b   8.43512289
_cell_length_c   16.11019802
_cell_angle_alpha   57.66045294
_cell_angle_beta   90.10076713
_cell_angle_gamma   89.98746341
_symmetry_Int_Tables_number   1
_chemical_formula_structural   Na20Hf2SiGeAs12
_chemical_formula_sum   'Na20 Hf2 Si1 Ge1 As12'
_cell_volume   870.72473666
_cell_formula_units_Z   1
loop_
 _symmetry_equiv_pos_site_id
 _symmetry_equiv_pos_as_xyz
  1  'x, y, z'
loop_
 _atom_site_type_symbol
 _atom_site_label
 _atom_site_symmetry_multiplicity
 _atom_site_fract_x
 _atom_site_fract_y
 _atom_site_fract_z
 _atom_site_occupancy
  Na  Na0  1  0.487598  0.074928  0.245009  1
  Na  Na1  1  0.988477  0.926646  0.254388  1
  Na  Na2  1  0.510164  0.915008  0.760386  1
  Na  Na3  1  0.009884  0.085255  0.739577  1
  Na  Na4  1  0.026872  0.416529  0.416093  1
  Na  Na5  1  0.527242  0.582580  0.083924  1
  Na  Na6  1  0.962608  0.589333  0.584972  1
  Na  Na7  1  0.462503  0.410433  0.915211  1
  Na  Na8  1  0.523590  0.255393  0.410589  1
  Na  Na9  1  0.023544  0.744351  0.089326  1
  Na  Na10  1  0.485277  0.743160  0.588937  1
  Na  Na11  1  0.985394  0.257201  0.911227  1
  Na  Na12  1  0.659678  0.993162  0.082505  1
  Na  Na13  1  0.159986  0.008290  0.417007  1
  Na  Na14  1  0.340465  0.010006  0.918923  1
  Na  Na15  1  0.840786  0.989639  0.581514  1
  Na  Na16  1  0.851690  0.312286  0.258839  1
  Na  Na17  1  0.350604  0.687854  0.240562  1
  Na  Na18  1  0.149076  0.682385  0.740711  1
  Na  Na19  1  0.649059  0.317401  0.759616  1
  Hf  Hf20  1  0.864403  0.647290  0.920227  1
  Hf  Hf21  1  0.363493  0.351885  0.580268  1
  Si  Si22  1  0.135408  0.348741  0.083131  1
  Ge  Ge23  1  0.636418  0.652528  0.416131  1
  As  As24  1  0.759929  0.923885  0.419630  1
  As  As25  1  0.257026  0.084908  0.080523  1
  As  As26  1  0.238870  0.067086  0.578243  1
  As  As27  1  0.738855  0.932502  0.921990  1
  As  As28  1  0.733904  0.633017  0.274300  1
  As  As29  1  0.231055  0.366600  0.220883  1
  As  As30  1  0.262399  0.360224  0.731284  1
  As  As31  1  0.762163  0.639454  0.768908  1
  As  As32  1  0.808069  0.320229  0.078259  1
  As  As33  1  0.298147  0.678596  0.422361  1
  As  As34  1  0.207602  0.655043  0.933897  1
  As  As35  1  0.707765  0.336170  0.570647  1
