# generated using pymatgen
data_Th2GaNi9
_symmetry_space_group_name_H-M   'P 1'
_cell_length_a   4.91739269
_cell_length_b   4.91739421
_cell_length_c   8.07283400
_cell_angle_alpha   90.00000000
_cell_angle_beta   90.00000000
_cell_angle_gamma   118.95630261
_symmetry_Int_Tables_number   1
_chemical_formula_structural   Th2GaNi9
_chemical_formula_sum   'Th2 Ga1 Ni9'
_cell_volume   170.80423382
_cell_formula_units_Z   1
loop_
 _symmetry_equiv_pos_site_id
 _symmetry_equiv_pos_as_xyz
  1  'x, y, z'
loop_
 _atom_site_type_symbol
 _atom_site_label
 _atom_site_symmetry_multiplicity
 _atom_site_fract_x
 _atom_site_fract_y
 _atom_site_fract_z
 _atom_site_occupancy
  Th  Th0  1  0.000000  0.000000  0.762439  1
  Th  Th1  1  0.000000  0.000000  0.237561  1
  Ga  Ga2  1  0.500000  0.500000  0.500000  1
  Ni  Ni3  1  0.667408  0.332592  0.751365  1
  Ni  Ni4  1  0.667408  0.332592  0.248635  1
  Ni  Ni5  1  0.500000  0.500000  0.000000  1
  Ni  Ni6  1  0.332592  0.667408  0.751365  1
  Ni  Ni7  1  0.500000  0.000000  0.500000  1
  Ni  Ni8  1  0.000000  0.500000  0.000000  1
  Ni  Ni9  1  0.500000  0.000000  0.000000  1
  Ni  Ni10  1  0.332592  0.667408  0.248635  1
  Ni  Ni11  1  0.000000  0.500000  0.500000  1
