# generated using pymatgen
data_La4TbPrOsI10
_symmetry_space_group_name_H-M   'P 1'
_cell_length_a   8.13118091
_cell_length_b   10.12164136
_cell_length_c   10.08123197
_cell_angle_alpha   106.85281687
_cell_angle_beta   97.06052338
_cell_angle_gamma   105.81095678
_symmetry_Int_Tables_number   1
_chemical_formula_structural   La4TbPrOsI10
_chemical_formula_sum   'La4 Tb1 Pr1 Os1 I10'
_cell_volume   745.42649399
_cell_formula_units_Z   1
loop_
 _symmetry_equiv_pos_site_id
 _symmetry_equiv_pos_as_xyz
  1  'x, y, z'
loop_
 _atom_site_type_symbol
 _atom_site_label
 _atom_site_symmetry_multiplicity
 _atom_site_fract_x
 _atom_site_fract_y
 _atom_site_fract_z
 _atom_site_occupancy
  La  La0  1  0.860437  0.133600  0.677793  1
  La  La1  1  0.139547  0.862383  0.321485  1
  La  La2  1  0.384483  0.954438  0.725051  1
  La  La3  1  0.614349  0.044173  0.273755  1
  Tb  Tb4  1  0.531801  0.713368  0.415227  1
  Pr  Pr5  1  0.466496  0.294417  0.586121  1
  Os  Os6  1  0.499623  0.998673  0.499169  1
  I  I7  1  0.419288  0.629629  0.671060  1
  I  I8  1  0.584359  0.377157  0.322422  1
  I  I9  1  0.292830  0.260270  0.847977  1
  I  I10  1  0.701315  0.735671  0.158734  1
  I  I11  1  0.849591  0.457785  0.773499  1
  I  I12  1  0.162792  0.542704  0.230891  1
  I  I13  1  0.046064  0.181167  0.409806  1
  I  I14  1  0.243504  0.914259  0.039375  1
  I  I15  1  0.755211  0.084929  0.960665  1
  I  I16  1  0.948309  0.815377  0.586969  1
