# generated using pymatgen
data_Er4Os5RuW2
_symmetry_space_group_name_H-M   'P 1'
_cell_length_a   5.54448510
_cell_length_b   5.54448553
_cell_length_c   8.37534500
_cell_angle_alpha   90.00000000
_cell_angle_beta   90.00000000
_cell_angle_gamma   121.04918936
_symmetry_Int_Tables_number   1
_chemical_formula_structural   Er4Os5RuW2
_chemical_formula_sum   'Er4 Os5 Ru1 W2'
_cell_volume   220.58020118
_cell_formula_units_Z   1
loop_
 _symmetry_equiv_pos_site_id
 _symmetry_equiv_pos_as_xyz
  1  'x, y, z'
loop_
 _atom_site_type_symbol
 _atom_site_label
 _atom_site_symmetry_multiplicity
 _atom_site_fract_x
 _atom_site_fract_y
 _atom_site_fract_z
 _atom_site_occupancy
  Er  Er0  1  0.333207  0.666793  0.436394  1
  Er  Er1  1  0.667283  0.332717  0.562929  1
  Er  Er2  1  0.667283  0.332717  0.937071  1
  Er  Er3  1  0.333207  0.666793  0.063606  1
  Os  Os4  1  0.823750  0.652552  0.250000  1
  Os  Os5  1  0.347448  0.176250  0.250000  1
  Os  Os6  1  0.169637  0.830363  0.750000  1
  Os  Os7  1  0.175187  0.348810  0.750000  1
  Os  Os8  1  0.651190  0.824813  0.750000  1
  Ru  Ru9  1  0.829268  0.170732  0.250000  1
  W  W10  1  0.001268  0.998732  0.499919  1
  W  W11  1  0.001268  0.998732  0.000081  1
