# generated using pymatgen
data_Ga2Co12(Ni3B2)3
_symmetry_space_group_name_H-M   'P 1'
_cell_length_a   7.39249794
_cell_length_b   7.39249844
_cell_length_c   7.39249800
_cell_angle_alpha   60.00000195
_cell_angle_beta   59.99999975
_cell_angle_gamma   60.00000462
_symmetry_Int_Tables_number   1
_chemical_formula_structural   Ga2Co12(Ni3B2)3
_chemical_formula_sum   'Ga2 Co12 Ni9 B6'
_cell_volume   285.66609112
_cell_formula_units_Z   1
loop_
 _symmetry_equiv_pos_site_id
 _symmetry_equiv_pos_as_xyz
  1  'x, y, z'
loop_
 _atom_site_type_symbol
 _atom_site_label
 _atom_site_symmetry_multiplicity
 _atom_site_fract_x
 _atom_site_fract_y
 _atom_site_fract_z
 _atom_site_occupancy
  Ga  Ga0  1  0.750000  0.750000  0.750000  1
  Ga  Ga1  1  0.250000  0.250000  0.250000  1
  Co  Co2  1  0.000000  0.000000  0.336749  1
  Co  Co3  1  0.663251  0.000000  0.336749  1
  Co  Co4  1  0.000000  0.663251  0.336749  1
  Co  Co5  1  0.663251  0.336749  0.000000  1
  Co  Co6  1  0.000000  0.336749  0.000000  1
  Co  Co7  1  0.000000  0.336749  0.663251  1
  Co  Co8  1  0.336749  0.663251  0.000000  1
  Co  Co9  1  0.336749  0.000000  0.663251  1
  Co  Co10  1  0.336749  0.000000  0.000000  1
  Co  Co11  1  0.000000  0.000000  0.663251  1
  Co  Co12  1  0.000000  0.663251  0.000000  1
  Co  Co13  1  0.663251  0.000000  0.000000  1
  Ni  Ni14  1  0.000000  0.000000  0.000000  1
  Ni  Ni15  1  0.617809  0.617809  0.146572  1
  Ni  Ni16  1  0.617809  0.146572  0.617809  1
  Ni  Ni17  1  0.146572  0.617809  0.617809  1
  Ni  Ni18  1  0.617809  0.617809  0.617809  1
  Ni  Ni19  1  0.382191  0.382191  0.853428  1
  Ni  Ni20  1  0.382191  0.853428  0.382191  1
  Ni  Ni21  1  0.853428  0.382191  0.382191  1
  Ni  Ni22  1  0.382191  0.382191  0.382191  1
  B  B23  1  0.726255  0.726255  0.273745  1
  B  B24  1  0.273745  0.726255  0.273745  1
  B  B25  1  0.726255  0.273745  0.273745  1
  B  B26  1  0.273745  0.273745  0.726255  1
  B  B27  1  0.726255  0.273745  0.726255  1
  B  B28  1  0.273745  0.726255  0.726255  1
