# generated using pymatgen
data_K2LiTmAs2
_symmetry_space_group_name_H-M   'P 1'
_cell_length_a   10.29677357
_cell_length_b   10.29677412
_cell_length_c   6.71239200
_cell_angle_alpha   90.00000000
_cell_angle_beta   90.00000000
_cell_angle_gamma   98.57409579
_symmetry_Int_Tables_number   1
_chemical_formula_structural   K2LiTmAs2
_chemical_formula_sum   'K8 Li4 Tm4 As8'
_cell_volume   703.71791716
_cell_formula_units_Z   4
loop_
 _symmetry_equiv_pos_site_id
 _symmetry_equiv_pos_as_xyz
  1  'x, y, z'
loop_
 _atom_site_type_symbol
 _atom_site_label
 _atom_site_symmetry_multiplicity
 _atom_site_fract_x
 _atom_site_fract_y
 _atom_site_fract_z
 _atom_site_occupancy
  K  K0  1  0.568165  0.931835  0.750000  1
  K  K1  1  0.931835  0.568165  0.250000  1
  K  K2  1  0.431835  0.068165  0.250000  1
  K  K3  1  0.068165  0.431835  0.750000  1
  K  K4  1  0.677609  0.322391  0.783834  1
  K  K5  1  0.822391  0.177609  0.283834  1
  K  K6  1  0.322391  0.677609  0.216166  1
  K  K7  1  0.177609  0.822391  0.716166  1
  Li  Li8  1  0.617620  0.617620  0.000000  1
  Li  Li9  1  0.882380  0.882380  0.500000  1
  Li  Li10  1  0.382380  0.382380  0.000000  1
  Li  Li11  1  0.117620  0.117620  0.500000  1
  Tm  Tm12  1  0.868105  0.868105  0.000000  1
  Tm  Tm13  1  0.631895  0.631895  0.500000  1
  Tm  Tm14  1  0.131895  0.131895  0.000000  1
  Tm  Tm15  1  0.368105  0.368105  0.500000  1
  As  As16  1  0.347354  0.152646  0.750000  1
  As  As17  1  0.152646  0.347354  0.250000  1
  As  As18  1  0.652646  0.847354  0.250000  1
  As  As19  1  0.847354  0.652646  0.750000  1
  As  As20  1  0.905286  0.094714  0.764486  1
  As  As21  1  0.594714  0.405286  0.264486  1
  As  As22  1  0.094714  0.905286  0.235514  1
  As  As23  1  0.405286  0.594714  0.735514  1
