# generated using pymatgen
data_Nd5P12Pd3Ru16
_symmetry_space_group_name_H-M   'P 1'
_cell_length_a   12.70814900
_cell_length_b   12.70814900
_cell_length_c   4.01904400
_cell_angle_alpha   90.00000000
_cell_angle_beta   90.00000000
_cell_angle_gamma   120.00000782
_symmetry_Int_Tables_number   1
_chemical_formula_structural   Nd5P12Pd3Ru16
_chemical_formula_sum   'Nd5 P12 Pd3 Ru16'
_cell_volume   562.10565513
_cell_formula_units_Z   1
loop_
 _symmetry_equiv_pos_site_id
 _symmetry_equiv_pos_as_xyz
  1  'x, y, z'
loop_
 _atom_site_type_symbol
 _atom_site_label
 _atom_site_symmetry_multiplicity
 _atom_site_fract_x
 _atom_site_fract_y
 _atom_site_fract_z
 _atom_site_occupancy
  Nd  Nd0  1  0.000000  0.181876  0.500000  1
  Nd  Nd1  1  0.818124  0.818124  0.500000  1
  Nd  Nd2  1  0.181876  0.000000  0.500000  1
  Nd  Nd3  1  0.666667  0.333333  0.000000  1
  Nd  Nd4  1  0.333333  0.666667  0.000000  1
  P  P5  1  0.000000  0.811795  0.000000  1
  P  P6  1  0.188205  0.188205  0.000000  1
  P  P7  1  0.811795  0.000000  0.000000  1
  P  P8  1  0.700570  0.178765  0.500000  1
  P  P9  1  0.821235  0.521805  0.500000  1
  P  P10  1  0.478195  0.299430  0.500000  1
  P  P11  1  0.178765  0.700570  0.500000  1
  P  P12  1  0.521805  0.821235  0.500000  1
  P  P13  1  0.299430  0.478195  0.500000  1
  P  P14  1  0.000000  0.368471  0.000000  1
  P  P15  1  0.631529  0.631529  0.000000  1
  P  P16  1  0.368471  0.000000  0.000000  1
  Pd  Pd17  1  0.000000  0.553608  0.000000  1
  Pd  Pd18  1  0.446392  0.446392  0.000000  1
  Pd  Pd19  1  0.553608  0.000000  0.000000  1
  Ru  Ru20  1  0.000000  0.710839  0.500000  1
  Ru  Ru21  1  0.289161  0.289161  0.500000  1
  Ru  Ru22  1  0.710839  0.000000  0.500000  1
  Ru  Ru23  1  0.805957  0.185538  0.000000  1
  Ru  Ru24  1  0.814462  0.620419  0.000000  1
  Ru  Ru25  1  0.379581  0.194043  0.000000  1
  Ru  Ru26  1  0.185538  0.805957  0.000000  1
  Ru  Ru27  1  0.620419  0.814462  0.000000  1
  Ru  Ru28  1  0.194043  0.379581  0.000000  1
  Ru  Ru29  1  0.877371  0.369361  0.500000  1
  Ru  Ru30  1  0.630639  0.508010  0.500000  1
  Ru  Ru31  1  0.491990  0.122629  0.500000  1
  Ru  Ru32  1  0.369361  0.877371  0.500000  1
  Ru  Ru33  1  0.508010  0.630639  0.500000  1
  Ru  Ru34  1  0.122629  0.491990  0.500000  1
  Ru  Ru35  1  0.000000  0.000000  0.000000  1
