# generated using pymatgen
data_ErLu11AlZnCo4
_symmetry_space_group_name_H-M   'P 1'
_cell_length_a   8.10978117
_cell_length_b   8.09600667
_cell_length_c   8.09608106
_cell_angle_alpha   111.51056981
_cell_angle_beta   110.61751431
_cell_angle_gamma   106.26756781
_symmetry_Int_Tables_number   1
_chemical_formula_structural   ErLu11AlZnCo4
_chemical_formula_sum   'Er1 Lu11 Al1 Zn1 Co4'
_cell_volume   408.56125876
_cell_formula_units_Z   1
loop_
 _symmetry_equiv_pos_site_id
 _symmetry_equiv_pos_as_xyz
  1  'x, y, z'
loop_
 _atom_site_type_symbol
 _atom_site_label
 _atom_site_symmetry_multiplicity
 _atom_site_fract_x
 _atom_site_fract_y
 _atom_site_fract_z
 _atom_site_occupancy
  Er  Er0  1  0.429578  0.228438  0.201212  1
  Lu  Lu1  1  0.566624  0.769534  0.797076  1
  Lu  Lu2  1  0.027719  0.230510  0.797229  1
  Lu  Lu3  1  0.972736  0.770816  0.201908  1
  Lu  Lu4  1  0.185496  0.286217  0.471885  1
  Lu  Lu5  1  0.814610  0.714665  0.528983  1
  Lu  Lu6  1  0.185531  0.713628  0.899280  1
  Lu  Lu7  1  0.814598  0.285585  0.099931  1
  Lu  Lu8  1  0.316680  0.619851  0.301591  1
  Lu  Lu9  1  0.683709  0.381698  0.699249  1
  Lu  Lu10  1  0.316669  0.015076  0.696838  1
  Lu  Lu11  1  0.683706  0.984499  0.302027  1
  Al  Al12  1  0.500059  0.500437  0.999633  1
  Zn  Zn13  1  0.994932  0.998177  0.996665  1
  Co  Co14  1  0.373698  0.999526  0.374174  1
  Co  Co15  1  0.631270  0.000833  0.630453  1
  Co  Co16  1  0.114792  0.615316  0.499448  1
  Co  Co17  1  0.887592  0.385194  0.502420  1
