# generated using pymatgen
data_Ho3Hf2Pt3O
_symmetry_space_group_name_H-M   'P 1'
_cell_length_a   8.40089300
_cell_length_b   8.40089433
_cell_length_c   5.66859500
_cell_angle_alpha   90.00000000
_cell_angle_beta   90.00000000
_cell_angle_gamma   119.99999870
_symmetry_Int_Tables_number   1
_chemical_formula_structural   Ho3Hf2Pt3O
_chemical_formula_sum   'Ho6 Hf4 Pt6 O2'
_cell_volume   346.46314395
_cell_formula_units_Z   2
loop_
 _symmetry_equiv_pos_site_id
 _symmetry_equiv_pos_as_xyz
  1  'x, y, z'
loop_
 _atom_site_type_symbol
 _atom_site_label
 _atom_site_symmetry_multiplicity
 _atom_site_fract_x
 _atom_site_fract_y
 _atom_site_fract_z
 _atom_site_occupancy
  Ho  Ho0  1  0.000000  0.761498  0.750000  1
  Ho  Ho1  1  0.000000  0.238502  0.250000  1
  Ho  Ho2  1  0.238502  0.238502  0.750000  1
  Ho  Ho3  1  0.238502  0.000000  0.250000  1
  Ho  Ho4  1  0.761498  0.761498  0.250000  1
  Ho  Ho5  1  0.761498  0.000000  0.750000  1
  Hf  Hf6  1  0.333333  0.666667  0.000000  1
  Hf  Hf7  1  0.333333  0.666667  0.500000  1
  Hf  Hf8  1  0.666667  0.333333  0.000000  1
  Hf  Hf9  1  0.666667  0.333333  0.500000  1
  Pt  Pt10  1  0.000000  0.589861  0.250000  1
  Pt  Pt11  1  0.000000  0.410139  0.750000  1
  Pt  Pt12  1  0.410139  0.410139  0.250000  1
  Pt  Pt13  1  0.589861  0.589861  0.750000  1
  Pt  Pt14  1  0.410139  0.000000  0.750000  1
  Pt  Pt15  1  0.589861  0.000000  0.250000  1
  O  O16  1  0.000000  0.000000  0.000000  1
  O  O17  1  0.000000  0.000000  0.500000  1
