# generated using pymatgen
data_Tb6Zr5Al11Os7
_symmetry_space_group_name_H-M   'P 1'
_cell_length_a   9.22920430
_cell_length_b   9.22920408
_cell_length_c   9.20295693
_cell_angle_alpha   59.90561621
_cell_angle_beta   59.90560849
_cell_angle_gamma   60.00000580
_symmetry_Int_Tables_number   1
_chemical_formula_structural   Tb6Zr5Al11Os7
_chemical_formula_sum   'Tb6 Zr5 Al11 Os7'
_cell_volume   553.50283546
_cell_formula_units_Z   1
loop_
 _symmetry_equiv_pos_site_id
 _symmetry_equiv_pos_as_xyz
  1  'x, y, z'
loop_
 _atom_site_type_symbol
 _atom_site_label
 _atom_site_symmetry_multiplicity
 _atom_site_fract_x
 _atom_site_fract_y
 _atom_site_fract_z
 _atom_site_occupancy
  Tb  Tb0  1  0.703155  0.703155  0.297602  1
  Tb  Tb1  1  0.296087  0.703155  0.297602  1
  Tb  Tb2  1  0.703155  0.296087  0.297602  1
  Tb  Tb3  1  0.296853  0.296853  0.712238  1
  Tb  Tb4  1  0.694055  0.296853  0.712238  1
  Tb  Tb5  1  0.296853  0.694055  0.712238  1
  Zr  Zr6  1  0.880931  0.880931  0.357205  1
  Zr  Zr7  1  0.876684  0.363389  0.883241  1
  Zr  Zr8  1  0.363389  0.876684  0.883241  1
  Zr  Zr9  1  0.876684  0.876684  0.883241  1
  Zr  Zr10  1  0.124758  0.124758  0.625726  1
  Al  Al11  1  0.119586  0.640337  0.120492  1
  Al  Al12  1  0.640337  0.119586  0.120492  1
  Al  Al13  1  0.119586  0.119586  0.120492  1
  Al  Al14  1  0.666738  0.666738  0.999787  1
  Al  Al15  1  0.668971  0.994698  0.667362  1
  Al  Al16  1  0.994698  0.668971  0.667362  1
  Al  Al17  1  0.668971  0.668971  0.667362  1
  Al  Al18  1  0.328023  0.328023  0.015930  1
  Al  Al19  1  0.335815  0.004745  0.323625  1
  Al  Al20  1  0.004745  0.335815  0.323625  1
  Al  Al21  1  0.335815  0.335815  0.323625  1
  Os  Os22  1  0.002566  0.002566  0.992303  1
  Os  Os23  1  0.000449  0.000449  0.499965  1
  Os  Os24  1  0.499136  0.000449  0.499965  1
  Os  Os25  1  0.000449  0.499136  0.499965  1
  Os  Os26  1  0.499330  0.499330  0.998491  1
  Os  Os27  1  0.002851  0.499330  0.998491  1
  Os  Os28  1  0.499330  0.002851  0.998491  1
