# generated using pymatgen
data_SrHo3(Pt2O7)2
_symmetry_space_group_name_H-M   'P 1'
_cell_length_a   7.32560893
_cell_length_b   7.32560804
_cell_length_c   7.32560848
_cell_angle_alpha   59.79557845
_cell_angle_beta   59.79557994
_cell_angle_gamma   59.79557480
_symmetry_Int_Tables_number   1
_chemical_formula_structural   SrHo3(Pt2O7)2
_chemical_formula_sum   'Sr1 Ho3 Pt4 O14'
_cell_volume   276.69161466
_cell_formula_units_Z   1
loop_
 _symmetry_equiv_pos_site_id
 _symmetry_equiv_pos_as_xyz
  1  'x, y, z'
loop_
 _atom_site_type_symbol
 _atom_site_label
 _atom_site_symmetry_multiplicity
 _atom_site_fract_x
 _atom_site_fract_y
 _atom_site_fract_z
 _atom_site_occupancy
  Sr  Sr0  1  0.625000  0.625000  0.625000  1
  Ho  Ho1  1  0.625000  0.625000  0.125000  1
  Ho  Ho2  1  0.625000  0.125000  0.625000  1
  Ho  Ho3  1  0.125000  0.625000  0.625000  1
  Pt  Pt4  1  0.125000  0.125000  0.125000  1
  Pt  Pt5  1  0.625000  0.125000  0.125000  1
  Pt  Pt6  1  0.125000  0.625000  0.125000  1
  Pt  Pt7  1  0.125000  0.125000  0.625000  1
  O  O8  1  0.055567  0.458714  0.458714  1
  O  O9  1  0.791286  0.791286  0.194433  1
  O  O10  1  0.787157  0.213681  0.213681  1
  O  O11  1  0.458714  0.055567  0.458714  1
  O  O12  1  0.757804  0.757804  0.757804  1
  O  O13  1  0.036319  0.036319  0.462843  1
  O  O14  1  0.036319  0.462843  0.036319  1
  O  O15  1  0.791286  0.194433  0.791286  1
  O  O16  1  0.213681  0.787157  0.213681  1
  O  O17  1  0.213681  0.213681  0.787157  1
  O  O18  1  0.492196  0.492196  0.492196  1
  O  O19  1  0.462843  0.036319  0.036319  1
  O  O20  1  0.458714  0.458714  0.055567  1
  O  O21  1  0.194433  0.791286  0.791286  1
