# generated using pymatgen
data_La2HgPdAu
_symmetry_space_group_name_H-M   'P 1'
_cell_length_a   8.10863300
_cell_length_b   8.11616100
_cell_length_c   3.96055700
_cell_angle_alpha   90.00000000
_cell_angle_beta   90.00000000
_cell_angle_gamma   90.00000000
_symmetry_Int_Tables_number   1
_chemical_formula_structural   La2HgPdAu
_chemical_formula_sum   'La4 Hg2 Pd2 Au2'
_cell_volume   260.64810155
_cell_formula_units_Z   2
loop_
 _symmetry_equiv_pos_site_id
 _symmetry_equiv_pos_as_xyz
  1  'x, y, z'
loop_
 _atom_site_type_symbol
 _atom_site_label
 _atom_site_symmetry_multiplicity
 _atom_site_fract_x
 _atom_site_fract_y
 _atom_site_fract_z
 _atom_site_occupancy
  La  La0  1  0.326391  0.816678  0.500000  1
  La  La1  1  0.826391  0.683322  0.500000  1
  La  La2  1  0.176046  0.335317  0.500000  1
  La  La3  1  0.676046  0.164683  0.500000  1
  Hg  Hg4  1  0.997768  0.995253  0.000000  1
  Hg  Hg5  1  0.497768  0.504747  0.000000  1
  Pd  Pd6  1  0.125680  0.627877  0.000000  1
  Pd  Pd7  1  0.625680  0.872123  0.000000  1
  Au  Au8  1  0.374115  0.122317  0.000000  1
  Au  Au9  1  0.874115  0.377683  0.000000  1
