# generated using pymatgen
data_Ho2Er2CdPd4Au
_symmetry_space_group_name_H-M   'P 1'
_cell_length_a   7.62403575
_cell_length_b   7.62684275
_cell_length_c   3.69797200
_cell_angle_alpha   90.00000000
_cell_angle_beta   90.00000000
_cell_angle_gamma   90.05076302
_symmetry_Int_Tables_number   1
_chemical_formula_structural   Ho2Er2CdPd4Au
_chemical_formula_sum   'Ho2 Er2 Cd1 Pd4 Au1'
_cell_volume   215.02708334
_cell_formula_units_Z   1
loop_
 _symmetry_equiv_pos_site_id
 _symmetry_equiv_pos_as_xyz
  1  'x, y, z'
loop_
 _atom_site_type_symbol
 _atom_site_label
 _atom_site_symmetry_multiplicity
 _atom_site_fract_x
 _atom_site_fract_y
 _atom_site_fract_z
 _atom_site_occupancy
  Ho  Ho0  1  0.151736  0.308870  0.500000  1
  Ho  Ho1  1  0.848264  0.691130  0.500000  1
  Er  Er2  1  0.691050  0.151533  0.500000  1
  Er  Er3  1  0.308950  0.848467  0.500000  1
  Cd  Cd4  1  0.500000  0.500000  0.000000  1
  Pd  Pd5  1  0.142544  0.616694  0.000000  1
  Pd  Pd6  1  0.857456  0.383306  0.000000  1
  Pd  Pd7  1  0.616240  0.857841  0.000000  1
  Pd  Pd8  1  0.383760  0.142159  0.000000  1
  Au  Au9  1  0.000000  0.000000  0.000000  1
