# generated using pymatgen
data_Lu3Zn3Hg2Rh
_symmetry_space_group_name_H-M   'P 1'
_cell_length_a   7.66167900
_cell_length_b   7.66167782
_cell_length_c   3.66537300
_cell_angle_alpha   90.00000000
_cell_angle_beta   90.00000000
_cell_angle_gamma   120.00000193
_symmetry_Int_Tables_number   1
_chemical_formula_structural   Lu3Zn3Hg2Rh
_chemical_formula_sum   'Lu3 Zn3 Hg2 Rh1'
_cell_volume   186.33594395
_cell_formula_units_Z   1
loop_
 _symmetry_equiv_pos_site_id
 _symmetry_equiv_pos_as_xyz
  1  'x, y, z'
loop_
 _atom_site_type_symbol
 _atom_site_label
 _atom_site_symmetry_multiplicity
 _atom_site_fract_x
 _atom_site_fract_y
 _atom_site_fract_z
 _atom_site_occupancy
  Lu  Lu0  1  0.580079  0.610248  0.000000  1
  Lu  Lu1  1  0.389752  0.969830  0.000000  1
  Lu  Lu2  1  0.030170  0.419921  0.000000  1
  Zn  Zn3  1  0.273850  0.282713  0.500000  1
  Zn  Zn4  1  0.717287  0.991137  0.500000  1
  Zn  Zn5  1  0.008863  0.726150  0.500000  1
  Hg  Hg6  1  0.000000  0.000000  0.000000  1
  Hg  Hg7  1  0.666667  0.333333  0.500000  1
  Rh  Rh8  1  0.333333  0.666667  0.500000  1
