# generated using pymatgen
data_Li3Nd3Ag2Ir
_symmetry_space_group_name_H-M   'P 1'
_cell_length_a   7.70025800
_cell_length_b   7.70025846
_cell_length_c   4.04025600
_cell_angle_alpha   90.00000000
_cell_angle_beta   90.00000000
_cell_angle_gamma   120.00000661
_symmetry_Int_Tables_number   1
_chemical_formula_structural   Li3Nd3Ag2Ir
_chemical_formula_sum   'Li3 Nd3 Ag2 Ir1'
_cell_volume   207.46749631
_cell_formula_units_Z   1
loop_
 _symmetry_equiv_pos_site_id
 _symmetry_equiv_pos_as_xyz
  1  'x, y, z'
loop_
 _atom_site_type_symbol
 _atom_site_label
 _atom_site_symmetry_multiplicity
 _atom_site_fract_x
 _atom_site_fract_y
 _atom_site_fract_z
 _atom_site_occupancy
  Li  Li0  1  0.242129  0.997234  0.500000  1
  Li  Li1  1  0.002766  0.244895  0.500000  1
  Li  Li2  1  0.755105  0.757871  0.500000  1
  Nd  Nd3  1  0.573670  0.973444  0.000000  1
  Nd  Nd4  1  0.026556  0.600225  0.000000  1
  Nd  Nd5  1  0.399775  0.426330  0.000000  1
  Ag  Ag6  1  0.666667  0.333333  0.500000  1
  Ag  Ag7  1  0.000000  0.000000  0.000000  1
  Ir  Ir8  1  0.333333  0.666667  0.500000  1
