# generated using pymatgen
data_Yb2Se3O8
_symmetry_space_group_name_H-M   'P 1'
_cell_length_a   5.51685368
_cell_length_b   8.26719067
_cell_length_c   8.74973108
_cell_angle_alpha   92.77449577
_cell_angle_beta   95.75422829
_cell_angle_gamma   97.06396852
_symmetry_Int_Tables_number   1
_chemical_formula_structural   Yb2Se3O8
_chemical_formula_sum   'Yb4 Se6 O16'
_cell_volume   393.29463108
_cell_formula_units_Z   2
loop_
 _symmetry_equiv_pos_site_id
 _symmetry_equiv_pos_as_xyz
  1  'x, y, z'
loop_
 _atom_site_type_symbol
 _atom_site_label
 _atom_site_symmetry_multiplicity
 _atom_site_fract_x
 _atom_site_fract_y
 _atom_site_fract_z
 _atom_site_occupancy
  Yb  Yb0  1  0.289446  0.156665  0.959395  1
  Yb  Yb1  1  0.710554  0.843335  0.040605  1
  Yb  Yb2  1  0.240421  0.956101  0.347196  1
  Yb  Yb3  1  0.759579  0.043899  0.652804  1
  Se  Se4  1  0.823853  0.188817  0.238195  1
  Se  Se5  1  0.176147  0.811183  0.761805  1
  Se  Se6  1  0.226652  0.556444  0.181346  1
  Se  Se7  1  0.773348  0.443556  0.818654  1
  Se  Se8  1  0.272160  0.319077  0.576972  1
  Se  Se9  1  0.727841  0.680923  0.423028  1
  O  O10  1  0.549252  0.822704  0.478362  1
  O  O11  1  0.450748  0.177296  0.521638  1
  O  O12  1  0.873442  0.768262  0.278425  1
  O  O13  1  0.126558  0.231738  0.721575  1
  O  O14  1  0.494665  0.478700  0.684841  1
  O  O15  1  0.505335  0.521300  0.315159  1
  O  O16  1  0.676340  0.252273  0.871179  1
  O  O17  1  0.323660  0.747727  0.128821  1
  O  O18  1  0.748105  0.578810  0.963011  1
  O  O19  1  0.251895  0.421190  0.036989  1
  O  O20  1  0.084406  0.873097  0.582413  1
  O  O21  1  0.915594  0.126903  0.417587  1
  O  O22  1  0.455503  0.928956  0.822739  1
  O  O23  1  0.544497  0.071044  0.177261  1
  O  O24  1  0.987570  0.922542  0.861047  1
  O  O25  1  0.012430  0.077458  0.138953  1
