# generated using pymatgen
data_Tm3Lu9Co8Se
_symmetry_space_group_name_H-M   'P 1'
_cell_length_a   11.17041600
_cell_length_b   11.17041684
_cell_length_c   3.96551200
_cell_angle_alpha   90.00000000
_cell_angle_beta   90.00000000
_cell_angle_gamma   119.99999750
_symmetry_Int_Tables_number   1
_chemical_formula_structural   Tm3Lu9Co8Se
_chemical_formula_sum   'Tm3 Lu9 Co8 Se1'
_cell_volume   428.51757442
_cell_formula_units_Z   1
loop_
 _symmetry_equiv_pos_site_id
 _symmetry_equiv_pos_as_xyz
  1  'x, y, z'
loop_
 _atom_site_type_symbol
 _atom_site_label
 _atom_site_symmetry_multiplicity
 _atom_site_fract_x
 _atom_site_fract_y
 _atom_site_fract_z
 _atom_site_occupancy
  Tm  Tm0  1  0.024628  0.764107  0.745321  1
  Tm  Tm1  1  0.739479  0.975372  0.745321  1
  Tm  Tm2  1  0.235893  0.260521  0.745321  1
  Lu  Lu3  1  0.517682  0.381131  0.250106  1
  Lu  Lu4  1  0.863451  0.482318  0.250106  1
  Lu  Lu5  1  0.618869  0.136549  0.250106  1
  Lu  Lu6  1  0.482795  0.618975  0.749931  1
  Lu  Lu7  1  0.136180  0.517205  0.749931  1
  Lu  Lu8  1  0.381025  0.863820  0.749931  1
  Lu  Lu9  1  0.975203  0.236460  0.254812  1
  Lu  Lu10  1  0.261257  0.024797  0.254812  1
  Lu  Lu11  1  0.763540  0.738743  0.254812  1
  Co  Co12  1  0.333333  0.666667  0.248781  1
  Co  Co13  1  0.666667  0.333333  0.751224  1
  Co  Co14  1  0.157527  0.719854  0.251911  1
  Co  Co15  1  0.562327  0.842473  0.251911  1
  Co  Co16  1  0.280146  0.437673  0.251911  1
  Co  Co17  1  0.842819  0.280054  0.748388  1
  Co  Co18  1  0.437235  0.157181  0.748388  1
  Co  Co19  1  0.719946  0.562765  0.748388  1
  Se  Se20  1  0.000000  0.000000  0.498589  1
