# generated using pymatgen
data_Y5Tm3(Sc3Ga4)4
_symmetry_space_group_name_H-M   'P 1'
_cell_length_a   7.26036416
_cell_length_b   7.56000518
_cell_length_c   14.45389062
_cell_angle_alpha   89.97578183
_cell_angle_beta   90.02325162
_cell_angle_gamma   90.00715454
_symmetry_Int_Tables_number   1
_chemical_formula_structural   Y5Tm3(Sc3Ga4)4
_chemical_formula_sum   'Y5 Tm3 Sc12 Ga16'
_cell_volume   793.35065330
_cell_formula_units_Z   1
loop_
 _symmetry_equiv_pos_site_id
 _symmetry_equiv_pos_as_xyz
  1  'x, y, z'
loop_
 _atom_site_type_symbol
 _atom_site_label
 _atom_site_symmetry_multiplicity
 _atom_site_fract_x
 _atom_site_fract_y
 _atom_site_fract_z
 _atom_site_occupancy
  Y  Y0  1  0.010499  0.179054  0.094686  1
  Y  Y1  1  0.989532  0.820942  0.905241  1
  Y  Y2  1  0.489504  0.679048  0.905369  1
  Y  Y3  1  0.989455  0.820971  0.594540  1
  Y  Y4  1  0.510498  0.320948  0.094680  1
  Tm  Tm5  1  0.010552  0.179685  0.405106  1
  Tm  Tm6  1  0.510542  0.320396  0.405254  1
  Tm  Tm7  1  0.489410  0.679382  0.594698  1
  Sc  Sc8  1  0.162746  0.503181  0.749840  1
  Sc  Sc9  1  0.837395  0.496478  0.250316  1
  Sc  Sc10  1  0.337487  0.003455  0.250307  1
  Sc  Sc11  1  0.662306  0.996743  0.749857  1
  Sc  Sc12  1  0.330378  0.173968  0.624430  1
  Sc  Sc13  1  0.669813  0.826261  0.375544  1
  Sc  Sc14  1  0.170082  0.673692  0.375430  1
  Sc  Sc15  1  0.669795  0.826206  0.124746  1
  Sc  Sc16  1  0.830046  0.326206  0.624413  1
  Sc  Sc17  1  0.330241  0.173827  0.875337  1
  Sc  Sc18  1  0.830196  0.326140  0.875369  1
  Sc  Sc19  1  0.169776  0.673864  0.124721  1
  Ga  Ga20  1  0.031257  0.116536  0.749967  1
  Ga  Ga21  1  0.968799  0.883778  0.250182  1
  Ga  Ga22  1  0.468822  0.616211  0.250185  1
  Ga  Ga23  1  0.531184  0.383748  0.749823  1
  Ga  Ga24  1  0.284159  0.870572  0.749710  1
  Ga  Ga25  1  0.716273  0.129496  0.250497  1
  Ga  Ga26  1  0.216259  0.370460  0.250521  1
  Ga  Ga27  1  0.783366  0.629176  0.749735  1
  Ga  Ga28  1  0.162563  0.465200  0.540224  1
  Ga  Ga29  1  0.837531  0.533818  0.459474  1
  Ga  Ga30  1  0.337871  0.965805  0.459577  1
  Ga  Ga31  1  0.838215  0.534836  0.040306  1
  Ga  Ga32  1  0.661630  0.034682  0.540191  1
  Ga  Ga33  1  0.161781  0.465206  0.959715  1
  Ga  Ga34  1  0.661794  0.034851  0.959694  1
  Ga  Ga35  1  0.338241  0.965178  0.040317  1
