# generated using pymatgen
data_Tb4Al4OsPd3
_symmetry_space_group_name_H-M   'P 1'
_cell_length_a   4.38415800
_cell_length_b   6.93565266
_cell_length_c   7.90318687
_cell_angle_alpha   89.90097688
_cell_angle_beta   90.00000000
_cell_angle_gamma   90.00000000
_symmetry_Int_Tables_number   1
_chemical_formula_structural   Tb4Al4OsPd3
_chemical_formula_sum   'Tb4 Al4 Os1 Pd3'
_cell_volume   240.31182134
_cell_formula_units_Z   1
loop_
 _symmetry_equiv_pos_site_id
 _symmetry_equiv_pos_as_xyz
  1  'x, y, z'
loop_
 _atom_site_type_symbol
 _atom_site_label
 _atom_site_symmetry_multiplicity
 _atom_site_fract_x
 _atom_site_fract_y
 _atom_site_fract_z
 _atom_site_occupancy
  Tb  Tb0  1  0.250000  0.535565  0.813612  1
  Tb  Tb1  1  0.750000  0.468941  0.181477  1
  Tb  Tb2  1  0.250000  0.019566  0.679695  1
  Tb  Tb3  1  0.750000  0.965210  0.321465  1
  Al  Al4  1  0.250000  0.647045  0.441120  1
  Al  Al5  1  0.750000  0.361590  0.563280  1
  Al  Al6  1  0.250000  0.143953  0.061557  1
  Al  Al7  1  0.750000  0.854188  0.933976  1
  Os  Os8  1  0.750000  0.731692  0.620133  1
  Pd  Pd9  1  0.250000  0.273222  0.380576  1
  Pd  Pd10  1  0.750000  0.225621  0.884180  1
  Pd  Pd11  1  0.250000  0.773406  0.118928  1
