# generated using pymatgen
data_ErTm11Co4SnRh
_symmetry_space_group_name_H-M   'P 1'
_cell_length_a   8.15841805
_cell_length_b   8.15526706
_cell_length_c   8.15526684
_cell_angle_alpha   110.93277928
_cell_angle_beta   110.88340250
_cell_angle_gamma   106.61934362
_symmetry_Int_Tables_number   1
_chemical_formula_structural   ErTm11Co4SnRh
_chemical_formula_sum   'Er1 Tm11 Co4 Sn1 Rh1'
_cell_volume   417.00527142
_cell_formula_units_Z   1
loop_
 _symmetry_equiv_pos_site_id
 _symmetry_equiv_pos_as_xyz
  1  'x, y, z'
loop_
 _atom_site_type_symbol
 _atom_site_label
 _atom_site_symmetry_multiplicity
 _atom_site_fract_x
 _atom_site_fract_y
 _atom_site_fract_z
 _atom_site_occupancy
  Er  Er0  1  0.410814  0.214587  0.196227  1
  Tm  Tm1  1  0.587641  0.784489  0.803152  1
  Tm  Tm2  1  0.018494  0.215348  0.803145  1
  Tm  Tm3  1  0.981218  0.784702  0.196516  1
  Tm  Tm4  1  0.186335  0.288963  0.475515  1
  Tm  Tm5  1  0.814247  0.711856  0.525760  1
  Tm  Tm6  1  0.186335  0.710820  0.897372  1
  Tm  Tm7  1  0.814247  0.288487  0.102391  1
  Tm  Tm8  1  0.313217  0.618474  0.304755  1
  Tm  Tm9  1  0.687152  0.382163  0.695575  1
  Tm  Tm10  1  0.313217  0.008462  0.694744  1
  Tm  Tm11  1  0.687152  0.991578  0.304987  1
  Co  Co12  1  0.376079  0.999911  0.376168  1
  Co  Co13  1  0.624732  0.000323  0.624409  1
  Co  Co14  1  0.112248  0.612440  0.499809  1
  Co  Co15  1  0.888683  0.387863  0.500820  1
  Sn  Sn16  1  0.500020  0.500291  0.999730  1
  Rh  Rh17  1  0.998168  0.999242  0.998927  1
