# generated using pymatgen
data_Lu4AlReRu6
_symmetry_space_group_name_H-M   'P 1'
_cell_length_a   5.27563597
_cell_length_b   5.37049195
_cell_length_c   8.81850200
_cell_angle_alpha   90.00000000
_cell_angle_beta   90.00000000
_cell_angle_gamma   122.23349348
_symmetry_Int_Tables_number   1
_chemical_formula_structural   Lu4AlReRu6
_chemical_formula_sum   'Lu4 Al1 Re1 Ru6'
_cell_volume   211.34561617
_cell_formula_units_Z   1
loop_
 _symmetry_equiv_pos_site_id
 _symmetry_equiv_pos_as_xyz
  1  'x, y, z'
loop_
 _atom_site_type_symbol
 _atom_site_label
 _atom_site_symmetry_multiplicity
 _atom_site_fract_x
 _atom_site_fract_y
 _atom_site_fract_z
 _atom_site_occupancy
  Lu  Lu0  1  0.665724  0.337121  0.561763  1
  Lu  Lu1  1  0.340979  0.669183  0.433725  1
  Lu  Lu2  1  0.340979  0.669183  0.066275  1
  Lu  Lu3  1  0.665724  0.337121  0.938237  1
  Al  Al4  1  0.162487  0.331586  0.750000  1
  Re  Re5  1  0.336085  0.171068  0.250000  1
  Ru  Ru6  1  0.010953  0.997472  0.500267  1
  Ru  Ru7  1  0.010953  0.997472  0.999733  1
  Ru  Ru8  1  0.171795  0.829742  0.750000  1
  Ru  Ru9  1  0.647850  0.828909  0.750000  1
  Ru  Ru10  1  0.826915  0.660369  0.250000  1
  Ru  Ru11  1  0.819557  0.170774  0.250000  1
