# generated using pymatgen
data_Y4Tm6HgBi5
_symmetry_space_group_name_H-M   'P 1'
_cell_length_a   8.17617100
_cell_length_b   9.40262900
_cell_length_c   12.08651100
_cell_angle_alpha   90.00000000
_cell_angle_beta   90.00000000
_cell_angle_gamma   90.00000000
_symmetry_Int_Tables_number   1
_chemical_formula_structural   Y4Tm6HgBi5
_chemical_formula_sum   'Y8 Tm12 Hg2 Bi10'
_cell_volume   929.18078027
_cell_formula_units_Z   2
loop_
 _symmetry_equiv_pos_site_id
 _symmetry_equiv_pos_as_xyz
  1  'x, y, z'
loop_
 _atom_site_type_symbol
 _atom_site_label
 _atom_site_symmetry_multiplicity
 _atom_site_fract_x
 _atom_site_fract_y
 _atom_site_fract_z
 _atom_site_occupancy
  Y  Y0  1  0.182290  0.750000  0.715690  1
  Y  Y1  1  0.682290  0.750000  0.784310  1
  Y  Y2  1  0.811936  0.250000  0.281706  1
  Y  Y3  1  0.311936  0.250000  0.218294  1
  Y  Y4  1  0.353211  0.750000  0.210215  1
  Y  Y5  1  0.853211  0.750000  0.289785  1
  Y  Y6  1  0.651632  0.250000  0.784910  1
  Y  Y7  1  0.151632  0.250000  0.715090  1
  Tm  Tm8  1  0.033043  0.750000  0.991131  1
  Tm  Tm9  1  0.533043  0.750000  0.508869  1
  Tm  Tm10  1  0.978422  0.250000  0.009784  1
  Tm  Tm11  1  0.478422  0.250000  0.490216  1
  Tm  Tm12  1  0.306765  0.446363  0.940392  1
  Tm  Tm13  1  0.806765  0.053637  0.559608  1
  Tm  Tm14  1  0.687315  0.930570  0.057288  1
  Tm  Tm15  1  0.187315  0.569430  0.442712  1
  Tm  Tm16  1  0.687315  0.569430  0.057288  1
  Tm  Tm17  1  0.187315  0.930570  0.442712  1
  Tm  Tm18  1  0.306765  0.053637  0.940392  1
  Tm  Tm19  1  0.806765  0.446363  0.559608  1
  Hg  Hg20  1  0.406587  0.750000  0.957872  1
  Hg  Hg21  1  0.906587  0.750000  0.542128  1
  Bi  Bi22  1  0.438260  0.002249  0.674535  1
  Bi  Bi23  1  0.938260  0.497751  0.825465  1
  Bi  Bi24  1  0.561915  0.503018  0.326381  1
  Bi  Bi25  1  0.061915  0.996982  0.173619  1
  Bi  Bi26  1  0.561915  0.996982  0.326381  1
  Bi  Bi27  1  0.061915  0.503018  0.173619  1
  Bi  Bi28  1  0.438260  0.497751  0.674535  1
  Bi  Bi29  1  0.938260  0.002249  0.825465  1
  Bi  Bi30  1  0.594370  0.250000  0.043156  1
  Bi  Bi31  1  0.094370  0.250000  0.456844  1
