# generated using pymatgen
data_Dy5TaRuO12
_symmetry_space_group_name_H-M   'P 1'
_cell_length_a   6.83427959
_cell_length_b   6.83427906
_cell_length_c   7.47177390
_cell_angle_alpha   74.01891120
_cell_angle_beta   74.01890877
_cell_angle_gamma   50.62933939
_symmetry_Int_Tables_number   1
_chemical_formula_structural   Dy5TaRuO12
_chemical_formula_sum   'Dy5 Ta1 Ru1 O12'
_cell_volume   256.96999672
_cell_formula_units_Z   1
loop_
 _symmetry_equiv_pos_site_id
 _symmetry_equiv_pos_as_xyz
  1  'x, y, z'
loop_
 _atom_site_type_symbol
 _atom_site_label
 _atom_site_symmetry_multiplicity
 _atom_site_fract_x
 _atom_site_fract_y
 _atom_site_fract_z
 _atom_site_occupancy
  Dy  Dy0  1  0.309459  0.296787  0.361050  1
  Dy  Dy1  1  0.703213  0.690541  0.638950  1
  Dy  Dy2  1  0.318056  0.304534  0.824899  1
  Dy  Dy3  1  0.695466  0.681944  0.175101  1
  Dy  Dy4  1  0.003564  0.996436  0.500000  1
  Ta  Ta5  1  0.212596  0.787404  0.000000  1
  Ru  Ru6  1  0.750231  0.249769  0.000000  1
  O  O7  1  0.907371  0.422327  0.915241  1
  O  O8  1  0.429610  0.901119  0.915890  1
  O  O9  1  0.098881  0.570390  0.084110  1
  O  O10  1  0.577673  0.092629  0.084759  1
  O  O11  1  0.103772  0.589079  0.574569  1
  O  O12  1  0.599920  0.091128  0.573940  1
  O  O13  1  0.908872  0.400080  0.426060  1
  O  O14  1  0.410921  0.896228  0.425431  1
  O  O15  1  0.993746  0.004494  0.801714  1
  O  O16  1  0.995506  0.006254  0.198286  1
  O  O17  1  0.490512  0.509370  0.815456  1
  O  O18  1  0.490630  0.509488  0.184544  1
