# generated using pymatgen
data_HoEr7Os2(WC4)2
_symmetry_space_group_name_H-M   'P 1'
_cell_length_a   5.05647900
_cell_length_b   6.55595059
_cell_length_c   9.82867429
_cell_angle_alpha   89.20062110
_cell_angle_beta   90.00000000
_cell_angle_gamma   90.00000000
_symmetry_Int_Tables_number   1
_chemical_formula_structural   HoEr7Os2(WC4)2
_chemical_formula_sum   'Ho1 Er7 Os2 W2 C8'
_cell_volume   325.78910247
_cell_formula_units_Z   1
loop_
 _symmetry_equiv_pos_site_id
 _symmetry_equiv_pos_as_xyz
  1  'x, y, z'
loop_
 _atom_site_type_symbol
 _atom_site_label
 _atom_site_symmetry_multiplicity
 _atom_site_fract_x
 _atom_site_fract_y
 _atom_site_fract_z
 _atom_site_occupancy
  Ho  Ho0  1  0.250000  0.030917  0.282582  1
  Er  Er1  1  0.250000  0.678558  0.557579  1
  Er  Er2  1  0.750000  0.321616  0.442564  1
  Er  Er3  1  0.750000  0.823274  0.058042  1
  Er  Er4  1  0.250000  0.176653  0.941840  1
  Er  Er5  1  0.250000  0.538183  0.218757  1
  Er  Er6  1  0.750000  0.461754  0.781108  1
  Er  Er7  1  0.750000  0.968926  0.717766  1
  Os  Os8  1  0.750000  0.779243  0.367632  1
  Os  Os9  1  0.250000  0.220656  0.632440  1
  W  W10  1  0.250000  0.716211  0.868522  1
  W  W11  1  0.750000  0.283804  0.131286  1
  C  C12  1  0.250000  0.450099  0.758144  1
  C  C13  1  0.750000  0.549800  0.241888  1
  C  C14  1  0.750000  0.046414  0.259854  1
  C  C15  1  0.250000  0.953581  0.739953  1
  C  C16  1  0.250000  0.825724  0.054902  1
  C  C17  1  0.750000  0.173939  0.944844  1
  C  C18  1  0.750000  0.675299  0.550924  1
  C  C19  1  0.250000  0.325349  0.449370  1
