# generated using pymatgen
data_Li12ScMn5(Sn3O8)6
_symmetry_space_group_name_H-M   'P 1'
_cell_length_a   10.79640297
_cell_length_b   10.80065006
_cell_length_c   10.10925504
_cell_angle_alpha   90.00791017
_cell_angle_beta   89.99022081
_cell_angle_gamma   120.05243442
_symmetry_Int_Tables_number   1
_chemical_formula_structural   Li12ScMn5(Sn3O8)6
_chemical_formula_sum   'Li12 Sc1 Mn5 Sn18 O48'
_cell_volume   1020.34972307
_cell_formula_units_Z   1
loop_
 _symmetry_equiv_pos_site_id
 _symmetry_equiv_pos_as_xyz
  1  'x, y, z'
loop_
 _atom_site_type_symbol
 _atom_site_label
 _atom_site_symmetry_multiplicity
 _atom_site_fract_x
 _atom_site_fract_y
 _atom_site_fract_z
 _atom_site_occupancy
  Li  Li0  1  0.981321  0.982486  0.720261  1
  Li  Li1  1  0.018149  0.018953  0.220419  1
  Li  Li2  1  0.664410  0.164071  0.991647  1
  Li  Li3  1  0.337439  0.835034  0.496234  1
  Li  Li4  1  0.313304  0.665471  0.222173  1
  Li  Li5  1  0.832301  0.836189  0.497690  1
  Li  Li6  1  0.831095  0.329739  0.496529  1
  Li  Li7  1  0.334779  0.694919  0.723651  1
  Li  Li8  1  0.167111  0.666192  0.990628  1
  Li  Li9  1  0.693856  0.333110  0.723123  1
  Li  Li10  1  0.665073  0.305686  0.223300  1
  Li  Li11  1  0.166371  0.167928  0.993314  1
  Sc  Sc12  1  0.000842  0.666032  0.310176  1
  Mn  Mn13  1  0.666516  0.000680  0.311670  1
  Mn  Mn14  1  0.667318  0.667210  0.813279  1
  Mn  Mn15  1  0.333100  0.332850  0.312957  1
  Mn  Mn16  1  0.998799  0.333668  0.811619  1
  Mn  Mn17  1  0.333369  0.999248  0.811683  1
  Sn  Sn18  1  0.319934  0.492674  0.999229  1
  Sn  Sn19  1  0.492340  0.320410  0.999169  1
  Sn  Sn20  1  0.329239  0.329351  0.721531  1
  Sn  Sn21  1  0.669455  0.670702  0.218831  1
  Sn  Sn22  1  0.508394  0.680071  0.499558  1
  Sn  Sn23  1  0.159731  0.987803  0.501837  1
  Sn  Sn24  1  0.504335  0.160120  0.501476  1
  Sn  Sn25  1  0.677366  0.505249  0.501338  1
  Sn  Sn26  1  0.334933  0.998293  0.219790  1
  Sn  Sn27  1  0.997655  0.331933  0.219690  1
  Sn  Sn28  1  0.984968  0.160291  0.499916  1
  Sn  Sn29  1  0.839835  0.014330  0.999676  1
  Sn  Sn30  1  0.163356  0.504792  0.503278  1
  Sn  Sn31  1  0.494608  0.838923  0.001526  1
  Sn  Sn32  1  0.837184  0.493646  0.000809  1
  Sn  Sn33  1  0.666556  0.002861  0.721623  1
  Sn  Sn34  1  0.003308  0.666782  0.722439  1
  Sn  Sn35  1  0.014569  0.842010  0.999382  1
  O  O36  1  0.853701  0.669287  0.878356  1
  O  O37  1  0.331644  0.001557  0.604252  1
  O  O38  1  0.174675  0.848695  0.363997  1
  O  O39  1  0.664540  0.663458  0.605784  1
  O  O40  1  0.484652  0.008264  0.363992  1
  O  O41  1  0.662415  0.811796  0.361743  1
  O  O42  1  0.665683  0.495595  0.112524  1
  O  O43  1  0.997816  0.165083  0.119673  1
  O  O44  1  0.664080  0.333113  0.403622  1
  O  O45  1  0.002191  0.002559  0.402503  1
  O  O46  1  0.666982  0.996263  0.105461  1
  O  O47  1  0.333709  0.664253  0.403452  1
  O  O48  1  0.339380  0.187963  0.861546  1
  O  O49  1  0.830896  0.504077  0.621261  1
  O  O50  1  0.669178  0.852778  0.875723  1
  O  O51  1  0.834016  0.002631  0.619521  1
  O  O52  1  0.816572  0.146670  0.864703  1
  O  O53  1  0.336246  0.504196  0.612322  1
  O  O54  1  0.666150  0.334660  0.902458  1
  O  O55  1  0.002565  0.333954  0.604163  1
  O  O56  1  0.990311  0.514060  0.866091  1
  O  O57  1  0.328769  0.144392  0.375009  1
  O  O58  1  0.853813  0.185505  0.364408  1
  O  O59  1  0.187909  0.340335  0.861258  1
  O  O60  1  0.014439  0.495003  0.362928  1
  O  O61  1  0.502743  0.333304  0.612306  1
  O  O62  1  0.998008  0.998659  0.901467  1
  O  O63  1  0.002773  0.834173  0.620283  1
  O  O64  1  0.816135  0.656147  0.360414  1
  O  O65  1  0.512495  0.989044  0.863543  1
  O  O66  1  0.661998  0.166684  0.621294  1
  O  O67  1  0.335173  0.666814  0.903148  1
  O  O68  1  0.503808  0.830786  0.620633  1
  O  O69  1  0.843921  0.842769  0.116490  1
  O  O70  1  0.522166  0.520157  0.372158  1
  O  O71  1  0.493446  0.665034  0.113442  1
  O  O72  1  0.164878  0.996209  0.121754  1
  O  O73  1  0.337009  0.831863  0.123271  1
  O  O74  1  0.146687  0.332566  0.375445  1
  O  O75  1  0.994976  0.667452  0.111241  1
  O  O76  1  0.833967  0.340997  0.124752  1
  O  O77  1  0.480187  0.480281  0.871909  1
  O  O78  1  0.337300  0.337659  0.106690  1
  O  O79  1  0.166939  0.661887  0.621922  1
  O  O80  1  0.146409  0.816135  0.867028  1
  O  O81  1  0.497091  0.170124  0.120814  1
  O  O82  1  0.169451  0.496786  0.121973  1
  O  O83  1  0.157188  0.158613  0.615819  1
