# generated using pymatgen
data_Ba4TbWO8
_symmetry_space_group_name_H-M   'P 1'
_cell_length_a   7.42236597
_cell_length_b   7.42236521
_cell_length_c   6.08640700
_cell_angle_alpha   90.00000000
_cell_angle_beta   90.00000000
_cell_angle_gamma   131.65793132
_symmetry_Int_Tables_number   1
_chemical_formula_structural   Ba4TbWO8
_chemical_formula_sum   'Ba4 Tb1 W1 O8'
_cell_volume   250.51847931
_cell_formula_units_Z   1
loop_
 _symmetry_equiv_pos_site_id
 _symmetry_equiv_pos_as_xyz
  1  'x, y, z'
loop_
 _atom_site_type_symbol
 _atom_site_label
 _atom_site_symmetry_multiplicity
 _atom_site_fract_x
 _atom_site_fract_y
 _atom_site_fract_z
 _atom_site_occupancy
  Ba  Ba0  1  0.355600  0.644400  0.000000  1
  Ba  Ba1  1  0.855750  0.144250  0.500000  1
  Ba  Ba2  1  0.144250  0.855750  0.500000  1
  Ba  Ba3  1  0.644400  0.355600  0.000000  1
  Tb  Tb4  1  0.000000  0.000000  0.000000  1
  W  W5  1  0.500000  0.500000  0.500000  1
  O  O6  1  0.259283  0.259283  0.733340  1
  O  O7  1  0.740717  0.740717  0.266660  1
  O  O8  1  0.740717  0.740717  0.733340  1
  O  O9  1  0.259283  0.259283  0.266660  1
  O  O10  1  0.167865  0.832135  0.000000  1
  O  O11  1  0.647331  0.352669  0.500000  1
  O  O12  1  0.352669  0.647331  0.500000  1
  O  O13  1  0.832135  0.167865  0.000000  1
