# generated using pymatgen
data_TmSc5Fe4(Co7P6)2
_symmetry_space_group_name_H-M   'P 1'
_cell_length_a   3.61399700
_cell_length_b   10.42164400
_cell_length_c   11.88079900
_cell_angle_alpha   90.00000000
_cell_angle_beta   90.00000000
_cell_angle_gamma   90.00000000
_symmetry_Int_Tables_number   1
_chemical_formula_structural   TmSc5Fe4(Co7P6)2
_chemical_formula_sum   'Tm1 Sc5 Fe4 Co14 P12'
_cell_volume   447.47592036
_cell_formula_units_Z   1
loop_
 _symmetry_equiv_pos_site_id
 _symmetry_equiv_pos_as_xyz
  1  'x, y, z'
loop_
 _atom_site_type_symbol
 _atom_site_label
 _atom_site_symmetry_multiplicity
 _atom_site_fract_x
 _atom_site_fract_y
 _atom_site_fract_z
 _atom_site_occupancy
  Tm  Tm0  1  0.500000  0.000000  0.475031  1
  Sc  Sc1  1  0.000000  0.500000  0.524233  1
  Sc  Sc2  1  0.500000  0.819850  0.202909  1
  Sc  Sc3  1  0.500000  0.180150  0.202909  1
  Sc  Sc4  1  0.000000  0.679122  0.796212  1
  Sc  Sc5  1  0.000000  0.320878  0.796212  1
  Fe  Fe6  1  0.500000  0.500000  0.158226  1
  Fe  Fe7  1  0.000000  0.000000  0.843413  1
  Fe  Fe8  1  0.000000  0.500000  0.987482  1
  Fe  Fe9  1  0.500000  0.000000  0.012133  1
  Co  Co10  1  0.500000  0.500000  0.700308  1
  Co  Co11  1  0.000000  0.000000  0.297482  1
  Co  Co12  1  0.500000  0.332300  0.993495  1
  Co  Co13  1  0.500000  0.667700  0.993495  1
  Co  Co14  1  0.000000  0.168433  0.006676  1
  Co  Co15  1  0.000000  0.831567  0.006676  1
  Co  Co16  1  0.500000  0.299019  0.430765  1
  Co  Co17  1  0.500000  0.700981  0.430765  1
  Co  Co18  1  0.000000  0.204612  0.569552  1
  Co  Co19  1  0.000000  0.795388  0.569552  1
  Co  Co20  1  0.500000  0.876295  0.709348  1
  Co  Co21  1  0.500000  0.123705  0.709348  1
  Co  Co22  1  0.000000  0.622356  0.291380  1
  Co  Co23  1  0.000000  0.377644  0.291380  1
  P  P24  1  0.500000  0.500000  0.880553  1
  P  P25  1  0.000000  0.000000  0.118157  1
  P  P26  1  0.500000  0.500000  0.347988  1
  P  P27  1  0.000000  0.000000  0.655544  1
  P  P28  1  0.500000  0.314363  0.618769  1
  P  P29  1  0.500000  0.685637  0.618769  1
  P  P30  1  0.000000  0.188051  0.380211  1
  P  P31  1  0.000000  0.811949  0.380211  1
  P  P32  1  0.500000  0.844813  0.891442  1
  P  P33  1  0.500000  0.155187  0.891442  1
  P  P34  1  0.000000  0.654275  0.108967  1
  P  P35  1  0.000000  0.345725  0.108967  1
