# generated using pymatgen
data_CsYbHfF7
_symmetry_space_group_name_H-M   'P 1'
_cell_length_a   6.66189016
_cell_length_b   6.66188974
_cell_length_c   8.58976500
_cell_angle_alpha   90.00000000
_cell_angle_beta   90.00000000
_cell_angle_gamma   117.88593081
_symmetry_Int_Tables_number   1
_chemical_formula_structural   CsYbHfF7
_chemical_formula_sum   'Cs2 Yb2 Hf2 F14'
_cell_volume   336.95332521
_cell_formula_units_Z   2
loop_
 _symmetry_equiv_pos_site_id
 _symmetry_equiv_pos_as_xyz
  1  'x, y, z'
loop_
 _atom_site_type_symbol
 _atom_site_label
 _atom_site_symmetry_multiplicity
 _atom_site_fract_x
 _atom_site_fract_y
 _atom_site_fract_z
 _atom_site_occupancy
  Cs  Cs0  1  0.000000  0.000000  0.000000  1
  Cs  Cs1  1  0.000000  0.000000  0.500000  1
  Yb  Yb2  1  0.309866  0.690134  0.750000  1
  Yb  Yb3  1  0.690134  0.309866  0.250000  1
  Hf  Hf4  1  0.692395  0.307605  0.750000  1
  Hf  Hf5  1  0.307605  0.692395  0.250000  1
  F  F6  1  0.351752  0.060288  0.750000  1
  F  F7  1  0.648248  0.939712  0.250000  1
  F  F8  1  0.939712  0.648248  0.750000  1
  F  F9  1  0.060288  0.351752  0.250000  1
  F  F10  1  0.511444  0.488556  0.750000  1
  F  F11  1  0.488556  0.511444  0.250000  1
  F  F12  1  0.699023  0.300977  0.985964  1
  F  F13  1  0.300977  0.699023  0.014036  1
  F  F14  1  0.300977  0.699023  0.485964  1
  F  F15  1  0.699023  0.300977  0.514036  1
  F  F16  1  0.666142  0.979740  0.750000  1
  F  F17  1  0.333858  0.020260  0.250000  1
  F  F18  1  0.020260  0.333858  0.750000  1
  F  F19  1  0.979740  0.666142  0.250000  1
