# generated using pymatgen
data_Ti3Si2Tc3As
_symmetry_space_group_name_H-M   'P 1'
_cell_length_a   6.79962300
_cell_length_b   6.79962290
_cell_length_c   3.29550600
_cell_angle_alpha   90.00000000
_cell_angle_beta   90.00000000
_cell_angle_gamma   119.99998591
_symmetry_Int_Tables_number   1
_chemical_formula_structural   Ti3Si2Tc3As
_chemical_formula_sum   'Ti3 Si2 Tc3 As1'
_cell_volume   131.95397025
_cell_formula_units_Z   1
loop_
 _symmetry_equiv_pos_site_id
 _symmetry_equiv_pos_as_xyz
  1  'x, y, z'
loop_
 _atom_site_type_symbol
 _atom_site_label
 _atom_site_symmetry_multiplicity
 _atom_site_fract_x
 _atom_site_fract_y
 _atom_site_fract_z
 _atom_site_occupancy
  Ti  Ti0  1  0.594906  0.992650  0.000000  1
  Ti  Ti1  1  0.007350  0.602256  0.000000  1
  Ti  Ti2  1  0.397744  0.405094  0.000000  1
  Si  Si3  1  0.333333  0.666667  0.500000  1
  Si  Si4  1  0.000000  0.000000  0.000000  1
  Tc  Tc5  1  0.255283  0.995484  0.500000  1
  Tc  Tc6  1  0.004516  0.259799  0.500000  1
  Tc  Tc7  1  0.740201  0.744717  0.500000  1
  As  As8  1  0.666667  0.333333  0.500000  1
