# generated using pymatgen
data_TbNd6(DyRh3)2
_symmetry_space_group_name_H-M   'P 1'
_cell_length_a   7.55848430
_cell_length_b   7.55848347
_cell_length_c   7.55848515
_cell_angle_alpha   71.05087462
_cell_angle_beta   71.05086416
_cell_angle_gamma   71.05086648
_symmetry_Int_Tables_number   1
_chemical_formula_structural   TbNd6(DyRh3)2
_chemical_formula_sum   'Tb1 Nd6 Dy2 Rh6'
_cell_volume   374.50104931
_cell_formula_units_Z   1
loop_
 _symmetry_equiv_pos_site_id
 _symmetry_equiv_pos_as_xyz
  1  'x, y, z'
loop_
 _atom_site_type_symbol
 _atom_site_label
 _atom_site_symmetry_multiplicity
 _atom_site_fract_x
 _atom_site_fract_y
 _atom_site_fract_z
 _atom_site_occupancy
  Tb  Tb0  1  0.200317  0.200317  0.200317  1
  Nd  Nd1  1  0.162021  0.392048  0.665574  1
  Nd  Nd2  1  0.665574  0.162021  0.392048  1
  Nd  Nd3  1  0.392048  0.665574  0.162021  1
  Nd  Nd4  1  0.837925  0.608037  0.334426  1
  Nd  Nd5  1  0.334426  0.837925  0.608037  1
  Nd  Nd6  1  0.608037  0.334426  0.837925  1
  Dy  Dy7  1  0.999963  0.999963  0.999963  1
  Dy  Dy8  1  0.799728  0.799728  0.799728  1
  Rh  Rh9  1  0.960801  0.157139  0.591941  1
  Rh  Rh10  1  0.591941  0.960801  0.157139  1
  Rh  Rh11  1  0.157139  0.591941  0.960801  1
  Rh  Rh12  1  0.039078  0.842783  0.408221  1
  Rh  Rh13  1  0.408221  0.039078  0.842783  1
  Rh  Rh14  1  0.842783  0.408221  0.039078  1
