# generated using pymatgen
data_HoNb8VSe16
_symmetry_space_group_name_H-M   'P 1'
_cell_length_a   6.99936200
_cell_length_b   6.99936310
_cell_length_c   13.62020300
_cell_angle_alpha   90.00000000
_cell_angle_beta   90.00000000
_cell_angle_gamma   120.00000423
_symmetry_Int_Tables_number   1
_chemical_formula_structural   HoNb8VSe16
_chemical_formula_sum   'Ho1 Nb8 V1 Se16'
_cell_volume   577.87136276
_cell_formula_units_Z   1
loop_
 _symmetry_equiv_pos_site_id
 _symmetry_equiv_pos_as_xyz
  1  'x, y, z'
loop_
 _atom_site_type_symbol
 _atom_site_label
 _atom_site_symmetry_multiplicity
 _atom_site_fract_x
 _atom_site_fract_y
 _atom_site_fract_z
 _atom_site_occupancy
  Ho  Ho0  1  0.000000  0.000000  0.000000  1
  Nb  Nb1  1  0.000000  0.000000  0.261704  1
  Nb  Nb2  1  0.000000  0.000000  0.738296  1
  Nb  Nb3  1  0.506649  0.013298  0.263241  1
  Nb  Nb4  1  0.493351  0.986702  0.736759  1
  Nb  Nb5  1  0.986702  0.493351  0.263241  1
  Nb  Nb6  1  0.013298  0.506649  0.736759  1
  Nb  Nb7  1  0.506649  0.493351  0.263241  1
  Nb  Nb8  1  0.493351  0.506649  0.736759  1
  V  V9  1  0.000000  0.000000  0.500000  1
  Se  Se10  1  0.333333  0.666667  0.610886  1
  Se  Se11  1  0.666667  0.333333  0.389114  1
  Se  Se12  1  0.666667  0.333333  0.135810  1
  Se  Se13  1  0.333333  0.666667  0.864190  1
  Se  Se14  1  0.170196  0.340391  0.139957  1
  Se  Se15  1  0.829804  0.659609  0.860043  1
  Se  Se16  1  0.659609  0.829804  0.139957  1
  Se  Se17  1  0.833201  0.666402  0.615467  1
  Se  Se18  1  0.340391  0.170196  0.860043  1
  Se  Se19  1  0.166799  0.333598  0.384533  1
  Se  Se20  1  0.170196  0.829804  0.139957  1
  Se  Se21  1  0.333598  0.166799  0.615467  1
  Se  Se22  1  0.829804  0.170196  0.860043  1
  Se  Se23  1  0.666402  0.833201  0.384533  1
  Se  Se24  1  0.833201  0.166799  0.615467  1
  Se  Se25  1  0.166799  0.833201  0.384533  1
