# generated using pymatgen
data_Ca2ZnIn7Rh2
_symmetry_space_group_name_H-M   'P 1'
_cell_length_a   4.02716400
_cell_length_b   7.77983249
_cell_length_c   8.80180635
_cell_angle_alpha   89.33635035
_cell_angle_beta   90.00000000
_cell_angle_gamma   90.00000000
_symmetry_Int_Tables_number   1
_chemical_formula_structural   Ca2ZnIn7Rh2
_chemical_formula_sum   'Ca2 Zn1 In7 Rh2'
_cell_volume   275.74791534
_cell_formula_units_Z   1
loop_
 _symmetry_equiv_pos_site_id
 _symmetry_equiv_pos_as_xyz
  1  'x, y, z'
loop_
 _atom_site_type_symbol
 _atom_site_label
 _atom_site_symmetry_multiplicity
 _atom_site_fract_x
 _atom_site_fract_y
 _atom_site_fract_z
 _atom_site_occupancy
  Ca  Ca0  1  0.000000  0.403241  0.246665  1
  Ca  Ca1  1  0.000000  0.596759  0.753335  1
  Zn  Zn2  1  0.000000  0.000000  0.000000  1
  In  In3  1  0.000000  0.000000  0.500000  1
  In  In4  1  0.500000  0.066188  0.232738  1
  In  In5  1  0.500000  0.933812  0.767262  1
  In  In6  1  0.500000  0.691126  0.055936  1
  In  In7  1  0.500000  0.308874  0.944064  1
  In  In8  1  0.500000  0.683987  0.437606  1
  In  In9  1  0.500000  0.316013  0.562394  1
  Rh  Rh10  1  0.000000  0.817054  0.245315  1
  Rh  Rh11  1  0.000000  0.182946  0.754685  1
