# generated using pymatgen
data_Tb4Er4B24MoRu3
_symmetry_space_group_name_H-M   'P 1'
_cell_length_a   3.65768500
_cell_length_b   9.15205523
_cell_length_c   11.55174201
_cell_angle_alpha   89.86749320
_cell_angle_beta   90.00000000
_cell_angle_gamma   90.00000000
_symmetry_Int_Tables_number   1
_chemical_formula_structural   Tb4Er4B24MoRu3
_chemical_formula_sum   'Tb4 Er4 B24 Mo1 Ru3'
_cell_volume   386.69740087
_cell_formula_units_Z   1
loop_
 _symmetry_equiv_pos_site_id
 _symmetry_equiv_pos_as_xyz
  1  'x, y, z'
loop_
 _atom_site_type_symbol
 _atom_site_label
 _atom_site_symmetry_multiplicity
 _atom_site_fract_x
 _atom_site_fract_y
 _atom_site_fract_z
 _atom_site_occupancy
  Tb  Tb0  1  0.000000  0.322218  0.413512  1
  Tb  Tb1  1  0.000000  0.677375  0.584761  1
  Tb  Tb2  1  0.000000  0.820739  0.087062  1
  Tb  Tb3  1  0.000000  0.177046  0.914842  1
  Er  Er4  1  0.000000  0.945175  0.372303  1
  Er  Er5  1  0.000000  0.058111  0.629389  1
  Er  Er6  1  0.000000  0.442800  0.127032  1
  Er  Er7  1  0.000000  0.557118  0.870261  1
  B  B8  1  0.500000  0.551536  0.435003  1
  B  B9  1  0.500000  0.445773  0.568476  1
  B  B10  1  0.500000  0.053849  0.067642  1
  B  B11  1  0.500000  0.945622  0.932640  1
  B  B12  1  0.500000  0.751269  0.420880  1
  B  B13  1  0.500000  0.251744  0.581900  1
  B  B14  1  0.500000  0.248497  0.080911  1
  B  B15  1  0.500000  0.750951  0.918297  1
  B  B16  1  0.500000  0.794188  0.264755  1
  B  B17  1  0.500000  0.209067  0.734602  1
  B  B18  1  0.500000  0.290499  0.232997  1
  B  B19  1  0.500000  0.709724  0.765666  1
  B  B20  1  0.500000  0.630979  0.183116  1
  B  B21  1  0.500000  0.368732  0.815035  1
  B  B22  1  0.500000  0.130931  0.313959  1
  B  B23  1  0.500000  0.870033  0.685579  1
  B  B24  1  0.500000  0.983504  0.212916  1
  B  B25  1  0.500000  0.016888  0.787971  1
  B  B26  1  0.500000  0.478757  0.286257  1
  B  B27  1  0.500000  0.516122  0.713017  1
  B  B28  1  0.500000  0.603798  0.027110  1
  B  B29  1  0.500000  0.395435  0.970246  1
  B  B30  1  0.500000  0.104985  0.471844  1
  B  B31  1  0.500000  0.898027  0.529805  1
  Mo  Mo32  1  0.000000  0.637758  0.320778  1
  Ru  Ru33  1  0.000000  0.360696  0.680857  1
  Ru  Ru34  1  0.000000  0.138029  0.178164  1
  Ru  Ru35  1  0.000000  0.862027  0.820419  1
