# generated using pymatgen
data_Ba2NaIn5Au6
_symmetry_space_group_name_H-M   'P 1'
_cell_length_a   4.67178700
_cell_length_b   8.25804500
_cell_length_c   9.33139400
_cell_angle_alpha   90.00000000
_cell_angle_beta   90.00000000
_cell_angle_gamma   90.00000000
_symmetry_Int_Tables_number   1
_chemical_formula_structural   Ba2NaIn5Au6
_chemical_formula_sum   'Ba2 Na1 In5 Au6'
_cell_volume   360.00356877
_cell_formula_units_Z   1
loop_
 _symmetry_equiv_pos_site_id
 _symmetry_equiv_pos_as_xyz
  1  'x, y, z'
loop_
 _atom_site_type_symbol
 _atom_site_label
 _atom_site_symmetry_multiplicity
 _atom_site_fract_x
 _atom_site_fract_y
 _atom_site_fract_z
 _atom_site_occupancy
  Ba  Ba0  1  0.500000  0.000000  0.723011  1
  Ba  Ba1  1  0.000000  0.500000  0.266920  1
  Na  Na2  1  0.000000  0.000000  0.355107  1
  In  In3  1  0.000000  0.307548  0.891111  1
  In  In4  1  0.500000  0.189763  0.116355  1
  In  In5  1  0.000000  0.692452  0.891111  1
  In  In6  1  0.500000  0.810237  0.116355  1
  In  In7  1  0.500000  0.500000  0.642389  1
  Au  Au8  1  0.000000  0.719083  0.591261  1
  Au  Au9  1  0.500000  0.753214  0.412547  1
  Au  Au10  1  0.500000  0.500000  0.961771  1
  Au  Au11  1  0.000000  0.000000  0.028254  1
  Au  Au12  1  0.500000  0.246786  0.412547  1
  Au  Au13  1  0.000000  0.280917  0.591261  1
