# generated using pymatgen
data_NdDy2Y3(Al3Os)8
_symmetry_space_group_name_H-M   'P 1'
_cell_length_a   8.83999400
_cell_length_b   8.83833096
_cell_length_c   9.62984700
_cell_angle_alpha   90.00000000
_cell_angle_beta   90.00000000
_cell_angle_gamma   120.00622455
_symmetry_Int_Tables_number   1
_chemical_formula_structural   NdDy2Y3(Al3Os)8
_chemical_formula_sum   'Nd1 Dy2 Y3 Al24 Os8'
_cell_volume   651.54588402
_cell_formula_units_Z   1
loop_
 _symmetry_equiv_pos_site_id
 _symmetry_equiv_pos_as_xyz
  1  'x, y, z'
loop_
 _atom_site_type_symbol
 _atom_site_label
 _atom_site_symmetry_multiplicity
 _atom_site_fract_x
 _atom_site_fract_y
 _atom_site_fract_z
 _atom_site_occupancy
  Nd  Nd0  1  0.191282  0.382563  0.250000  1
  Dy  Dy1  1  0.386200  0.193166  0.750000  1
  Dy  Dy2  1  0.806968  0.193166  0.750000  1
  Y  Y3  1  0.806884  0.613767  0.750000  1
  Y  Y4  1  0.613307  0.807103  0.250000  1
  Y  Y5  1  0.193795  0.807103  0.250000  1
  Al  Al6  1  0.333728  0.667458  0.015014  1
  Al  Al7  1  0.666560  0.333119  0.981401  1
  Al  Al8  1  0.666560  0.333119  0.518599  1
  Al  Al9  1  0.333728  0.667458  0.484986  1
  Al  Al10  1  0.163582  0.327165  0.577320  1
  Al  Al11  1  0.836513  0.673025  0.426213  1
  Al  Al12  1  0.673334  0.836636  0.574626  1
  Al  Al13  1  0.836513  0.673025  0.073787  1
  Al  Al14  1  0.328189  0.163338  0.427240  1
  Al  Al15  1  0.163582  0.327165  0.922680  1
  Al  Al16  1  0.163301  0.836636  0.574626  1
  Al  Al17  1  0.328189  0.163338  0.072760  1
  Al  Al18  1  0.835149  0.163338  0.427240  1
  Al  Al19  1  0.673334  0.836636  0.925374  1
  Al  Al20  1  0.835149  0.163338  0.072760  1
  Al  Al21  1  0.163301  0.836636  0.925374  1
  Al  Al22  1  0.561369  0.122739  0.250000  1
  Al  Al23  1  0.439006  0.878011  0.750000  1
  Al  Al24  1  0.875801  0.439359  0.250000  1
  Al  Al25  1  0.122189  0.561419  0.750000  1
  Al  Al26  1  0.563559  0.439359  0.250000  1
  Al  Al27  1  0.439230  0.561419  0.750000  1
  Al  Al28  1  0.997939  0.995877  0.250000  1
  Al  Al29  1  0.999831  0.999663  0.750000  1
  Os  Os30  1  0.500144  0.000288  0.999614  1
  Os  Os31  1  0.999206  0.500608  0.998866  1
  Os  Os32  1  0.500144  0.000288  0.500386  1
  Os  Os33  1  0.501403  0.500608  0.998866  1
  Os  Os34  1  0.999206  0.500608  0.501134  1
  Os  Os35  1  0.501403  0.500608  0.501134  1
  Os  Os36  1  0.000211  0.000422  0.999888  1
  Os  Os37  1  0.000211  0.000422  0.500112  1
