# generated using pymatgen
data_Tb4Y2B14OsW
_symmetry_space_group_name_H-M   'P 1'
_cell_length_a   8.15735323
_cell_length_b   8.15735266
_cell_length_c   9.42118600
_cell_angle_alpha   90.00000000
_cell_angle_beta   90.00000000
_cell_angle_gamma   155.12945075
_symmetry_Int_Tables_number   1
_chemical_formula_structural   Tb4Y2B14OsW
_chemical_formula_sum   'Tb4 Y2 B14 Os1 W1'
_cell_volume   263.65856608
_cell_formula_units_Z   1
loop_
 _symmetry_equiv_pos_site_id
 _symmetry_equiv_pos_as_xyz
  1  'x, y, z'
loop_
 _atom_site_type_symbol
 _atom_site_label
 _atom_site_symmetry_multiplicity
 _atom_site_fract_x
 _atom_site_fract_y
 _atom_site_fract_z
 _atom_site_occupancy
  Tb  Tb0  1  0.894085  0.105915  0.937282  1
  Tb  Tb1  1  0.107049  0.892951  0.058823  1
  Tb  Tb2  1  0.894085  0.105915  0.562718  1
  Tb  Tb3  1  0.107049  0.892951  0.441177  1
  Y  Y4  1  0.755079  0.244921  0.250000  1
  Y  Y5  1  0.243358  0.756642  0.750000  1
  B  B6  1  0.544273  0.455727  0.250000  1
  B  B7  1  0.459202  0.540798  0.750000  1
  B  B8  1  0.521509  0.478491  0.902961  1
  B  B9  1  0.480055  0.519945  0.091487  1
  B  B10  1  0.480055  0.519945  0.408513  1
  B  B11  1  0.521509  0.478491  0.597039  1
  B  B12  1  0.631649  0.368351  0.848525  1
  B  B13  1  0.365370  0.634630  0.147368  1
  B  B14  1  0.726554  0.273446  0.964899  1
  B  B15  1  0.271983  0.728017  0.032205  1
  B  B16  1  0.271983  0.728017  0.467795  1
  B  B17  1  0.726554  0.273446  0.535101  1
  B  B18  1  0.631649  0.368351  0.651475  1
  B  B19  1  0.365370  0.634630  0.352632  1
  Os  Os20  1  0.054468  0.945532  0.750000  1
  W  W21  1  0.947112  0.052888  0.250000  1
