# generated using pymatgen
data_ZrSc(CoB4)2
_symmetry_space_group_name_H-M   'P 1'
_cell_length_a   5.78428769
_cell_length_b   11.21731916
_cell_length_c   3.23753800
_cell_angle_alpha   90.00000000
_cell_angle_beta   90.00000000
_cell_angle_gamma   89.88982282
_symmetry_Int_Tables_number   1
_chemical_formula_structural   ZrSc(CoB4)2
_chemical_formula_sum   'Zr2 Sc2 Co4 B16'
_cell_volume   210.06467825
_cell_formula_units_Z   2
loop_
 _symmetry_equiv_pos_site_id
 _symmetry_equiv_pos_as_xyz
  1  'x, y, z'
loop_
 _atom_site_type_symbol
 _atom_site_label
 _atom_site_symmetry_multiplicity
 _atom_site_fract_x
 _atom_site_fract_y
 _atom_site_fract_z
 _atom_site_occupancy
  Zr  Zr0  1  0.626841  0.349729  0.000000  1
  Zr  Zr1  1  0.373159  0.650271  0.000000  1
  Sc  Sc2  1  0.131117  0.149939  0.000000  1
  Sc  Sc3  1  0.868883  0.850061  0.000000  1
  Co  Co4  1  0.637808  0.089483  0.000000  1
  Co  Co5  1  0.362192  0.910517  0.000000  1
  Co  Co6  1  0.135886  0.409637  0.000000  1
  Co  Co7  1  0.864114  0.590363  0.000000  1
  B  B8  1  0.789273  0.185649  0.500000  1
  B  B9  1  0.210727  0.814351  0.500000  1
  B  B10  1  0.288193  0.312393  0.500000  1
  B  B11  1  0.711807  0.687607  0.500000  1
  B  B12  1  0.865730  0.031314  0.500000  1
  B  B13  1  0.134270  0.968686  0.500000  1
  B  B14  1  0.365994  0.466438  0.500000  1
  B  B15  1  0.634006  0.533562  0.500000  1
  B  B16  1  0.887019  0.452158  0.500000  1
  B  B17  1  0.112981  0.547842  0.500000  1
  B  B18  1  0.385621  0.047120  0.500000  1
  B  B19  1  0.614379  0.952880  0.500000  1
  B  B20  1  0.978788  0.305425  0.500000  1
  B  B21  1  0.021212  0.694575  0.500000  1
  B  B22  1  0.477309  0.192165  0.500000  1
  B  B23  1  0.522691  0.807835  0.500000  1
