# generated using pymatgen
data_Ti8Ga15Co7
_symmetry_space_group_name_H-M   'P 1'
_cell_length_a   8.42313289
_cell_length_b   8.42313245
_cell_length_c   8.42313342
_cell_angle_alpha   120.32978994
_cell_angle_beta   119.87786873
_cell_angle_gamma   89.82070206
_symmetry_Int_Tables_number   1
_chemical_formula_structural   Ti8Ga15Co7
_chemical_formula_sum   'Ti8 Ga15 Co7'
_cell_volume   421.90345291
_cell_formula_units_Z   1
loop_
 _symmetry_equiv_pos_site_id
 _symmetry_equiv_pos_as_xyz
  1  'x, y, z'
loop_
 _atom_site_type_symbol
 _atom_site_label
 _atom_site_symmetry_multiplicity
 _atom_site_fract_x
 _atom_site_fract_y
 _atom_site_fract_z
 _atom_site_occupancy
  Ti  Ti0  1  0.792840  0.283014  0.066506  1
  Ti  Ti1  1  0.216508  0.283014  0.490175  1
  Ti  Ti2  1  0.207515  0.707515  0.500000  1
  Ti  Ti3  1  0.216508  0.726334  0.933494  1
  Ti  Ti4  1  0.792840  0.726334  0.509825  1
  Ti  Ti5  1  0.777197  0.277197  0.500000  1
  Ti  Ti6  1  0.378873  0.123255  0.744382  1
  Ti  Ti7  1  0.378873  0.634490  0.255618  1
  Ga  Ga8  1  0.992707  0.492707  0.500000  1
  Ga  Ga9  1  0.156425  0.348729  0.192304  1
  Ga  Ga10  1  0.156425  0.964120  0.807696  1
  Ga  Ga11  1  0.153739  0.350579  0.803160  1
  Ga  Ga12  1  0.547418  0.350579  0.196840  1
  Ga  Ga13  1  0.845904  0.652658  0.806755  1
  Ga  Ga14  1  0.845904  0.039149  0.193245  1
  Ga  Ga15  1  0.846040  0.652072  0.193968  1
  Ga  Ga16  1  0.458105  0.652072  0.806032  1
  Ga  Ga17  1  0.378019  0.123953  0.254066  1
  Ga  Ga18  1  0.869887  0.123953  0.745934  1
  Ga  Ga19  1  0.618769  0.870883  0.252114  1
  Ga  Ga20  1  0.618769  0.366655  0.747886  1
  Ga  Ga21  1  0.612589  0.876013  0.736576  1
  Ga  Ga22  1  0.139437  0.876013  0.263424  1
  Co  Co23  1  0.002842  0.001968  0.503520  1
  Co  Co24  1  0.498448  0.001968  0.999126  1
  Co  Co25  1  0.496433  0.496433  0.000000  1
  Co  Co26  1  0.498448  0.499322  0.496480  1
  Co  Co27  1  0.002842  0.499322  0.000874  1
  Co  Co28  1  0.999855  0.999855  0.000000  1
  Co  Co29  1  0.499841  0.999841  0.500000  1
