# generated using pymatgen
data_LiY18Sc(Cd3Ni)2
_symmetry_space_group_name_H-M   'P 1'
_cell_length_a   9.57957700
_cell_length_b   9.57957622
_cell_length_c   9.65109100
_cell_angle_alpha   90.00000000
_cell_angle_beta   90.00000000
_cell_angle_gamma   119.99999235
_symmetry_Int_Tables_number   1
_chemical_formula_structural   LiY18Sc(Cd3Ni)2
_chemical_formula_sum   'Li1 Y18 Sc1 Cd6 Ni2'
_cell_volume   767.00766746
_cell_formula_units_Z   1
loop_
 _symmetry_equiv_pos_site_id
 _symmetry_equiv_pos_as_xyz
  1  'x, y, z'
loop_
 _atom_site_type_symbol
 _atom_site_label
 _atom_site_symmetry_multiplicity
 _atom_site_fract_x
 _atom_site_fract_y
 _atom_site_fract_z
 _atom_site_occupancy
  Li  Li0  1  0.000000  0.000000  0.500000  1
  Y  Y1  1  0.543415  0.456585  0.253350  1
  Y  Y2  1  0.543415  0.086829  0.253350  1
  Y  Y3  1  0.913171  0.456585  0.253350  1
  Y  Y4  1  0.456585  0.543415  0.746650  1
  Y  Y5  1  0.456585  0.913171  0.746650  1
  Y  Y6  1  0.086829  0.543415  0.746650  1
  Y  Y7  1  0.207525  0.792475  0.435198  1
  Y  Y8  1  0.207525  0.415051  0.435198  1
  Y  Y9  1  0.584949  0.792475  0.435198  1
  Y  Y10  1  0.792475  0.207525  0.564802  1
  Y  Y11  1  0.792475  0.584949  0.564802  1
  Y  Y12  1  0.415051  0.207525  0.564802  1
  Y  Y13  1  0.790957  0.209043  0.940677  1
  Y  Y14  1  0.790957  0.581913  0.940677  1
  Y  Y15  1  0.418087  0.209043  0.940677  1
  Y  Y16  1  0.209043  0.790957  0.059323  1
  Y  Y17  1  0.209043  0.418087  0.059323  1
  Y  Y18  1  0.581913  0.790957  0.059323  1
  Sc  Sc19  1  0.000000  0.000000  0.000000  1
  Cd  Cd20  1  0.890592  0.109408  0.253433  1
  Cd  Cd21  1  0.890592  0.781184  0.253433  1
  Cd  Cd22  1  0.218816  0.109408  0.253433  1
  Cd  Cd23  1  0.109408  0.890592  0.746567  1
  Cd  Cd24  1  0.109408  0.218816  0.746567  1
  Cd  Cd25  1  0.781184  0.890592  0.746567  1
  Ni  Ni26  1  0.333333  0.666667  0.249639  1
  Ni  Ni27  1  0.666667  0.333333  0.750361  1
