# generated using pymatgen
data_Mg2TaAlRh4
_symmetry_space_group_name_H-M   'P 1'
_cell_length_a   6.21908100
_cell_length_b   6.21946200
_cell_length_c   6.16690100
_cell_angle_alpha   90.00000000
_cell_angle_beta   90.00005551
_cell_angle_gamma   90.00000000
_symmetry_Int_Tables_number   1
_chemical_formula_structural   Mg2TaAlRh4
_chemical_formula_sum   'Mg4 Ta2 Al2 Rh8'
_cell_volume   238.53164791
_cell_formula_units_Z   2
loop_
 _symmetry_equiv_pos_site_id
 _symmetry_equiv_pos_as_xyz
  1  'x, y, z'
loop_
 _atom_site_type_symbol
 _atom_site_label
 _atom_site_symmetry_multiplicity
 _atom_site_fract_x
 _atom_site_fract_y
 _atom_site_fract_z
 _atom_site_occupancy
  Mg  Mg0  1  0.749983  0.250000  0.000000  1
  Mg  Mg1  1  0.250018  0.750001  0.000000  1
  Mg  Mg2  1  0.249980  0.750001  0.499991  1
  Mg  Mg3  1  0.750021  0.250000  0.500008  1
  Ta  Ta4  1  0.250075  0.250000  0.000000  1
  Ta  Ta5  1  0.749926  0.750001  0.000000  1
  Al  Al6  1  0.249996  0.250000  0.499985  1
  Al  Al7  1  0.750005  0.750001  0.500015  1
  Rh  Rh8  1  0.999999  0.999996  0.253331  1
  Rh  Rh9  1  0.999999  0.499998  0.253331  1
  Rh  Rh10  1  0.500006  0.000000  0.253343  1
  Rh  Rh11  1  0.500006  0.500006  0.253343  1
  Rh  Rh12  1  0.499995  0.000000  0.746657  1
  Rh  Rh13  1  0.499995  0.499994  0.746657  1
  Rh  Rh14  1  0.000001  0.000004  0.746669  1
  Rh  Rh15  1  0.000001  0.500002  0.746669  1
