# generated using pymatgen
data_Ho2Er5Tm13Pb16
_symmetry_space_group_name_H-M   'P 1'
_cell_length_a   8.14080124
_cell_length_b   15.47914282
_cell_length_c   8.20216168
_cell_angle_alpha   90.01582502
_cell_angle_beta   89.87662251
_cell_angle_gamma   90.07175328
_symmetry_Int_Tables_number   1
_chemical_formula_structural   Ho2Er5Tm13Pb16
_chemical_formula_sum   'Ho2 Er5 Tm13 Pb16'
_cell_volume   1033.57267990
_cell_formula_units_Z   1
loop_
 _symmetry_equiv_pos_site_id
 _symmetry_equiv_pos_as_xyz
  1  'x, y, z'
loop_
 _atom_site_type_symbol
 _atom_site_label
 _atom_site_symmetry_multiplicity
 _atom_site_fract_x
 _atom_site_fract_y
 _atom_site_fract_z
 _atom_site_occupancy
  Ho  Ho0  1  0.463635  0.900478  0.676388  1
  Ho  Ho1  1  0.963283  0.599684  0.823547  1
  Er  Er2  1  0.963514  0.900210  0.823448  1
  Er  Er3  1  0.536692  0.099625  0.323678  1
  Er  Er4  1  0.036967  0.400260  0.176195  1
  Er  Er5  1  0.537048  0.400351  0.323868  1
  Er  Er6  1  0.036683  0.099555  0.176427  1
  Tm  Tm7  1  0.623043  0.621406  0.158427  1
  Tm  Tm8  1  0.123495  0.878576  0.341784  1
  Tm  Tm9  1  0.376680  0.121464  0.841794  1
  Tm  Tm10  1  0.877085  0.378667  0.658375  1
  Tm  Tm11  1  0.377163  0.378868  0.841534  1
  Tm  Tm12  1  0.876549  0.121360  0.658222  1
  Tm  Tm13  1  0.623300  0.878401  0.158191  1
  Tm  Tm14  1  0.123021  0.621366  0.341746  1
  Tm  Tm15  1  0.462179  0.599988  0.675754  1
  Tm  Tm16  1  0.791376  0.749773  0.495554  1
  Tm  Tm17  1  0.291619  0.749848  0.004620  1
  Tm  Tm18  1  0.208538  0.250100  0.504423  1
  Tm  Tm19  1  0.708459  0.250096  0.995499  1
  Pb  Pb20  1  0.718376  0.457314  0.966738  1
  Pb  Pb21  1  0.217997  0.042667  0.534077  1
  Pb  Pb22  1  0.281975  0.957267  0.033839  1
  Pb  Pb23  1  0.780735  0.542708  0.467018  1
  Pb  Pb24  1  0.282081  0.542790  0.033290  1
  Pb  Pb25  1  0.782225  0.957301  0.465842  1
  Pb  Pb26  1  0.718064  0.042540  0.966134  1
  Pb  Pb27  1  0.218563  0.457716  0.533980  1
  Pb  Pb28  1  0.428720  0.750009  0.372966  1
  Pb  Pb29  1  0.928856  0.750007  0.127406  1
  Pb  Pb30  1  0.571115  0.250106  0.627218  1
  Pb  Pb31  1  0.071053  0.250009  0.872494  1
  Pb  Pb32  1  0.651126  0.749511  0.845229  1
  Pb  Pb33  1  0.151986  0.750031  0.654160  1
  Pb  Pb34  1  0.348453  0.250054  0.154257  1
  Pb  Pb35  1  0.848343  0.249898  0.345878  1
