# generated using pymatgen
data_Rb3Ba3GaSb4
_symmetry_space_group_name_H-M   'P 1'
_cell_length_a   11.30300600
_cell_length_b   11.30300708
_cell_length_c   8.46540000
_cell_angle_alpha   90.00000000
_cell_angle_beta   90.00000000
_cell_angle_gamma   120.00000270
_symmetry_Int_Tables_number   1
_chemical_formula_structural   Rb3Ba3GaSb4
_chemical_formula_sum   'Rb6 Ba6 Ga2 Sb8'
_cell_volume   936.62568089
_cell_formula_units_Z   2
loop_
 _symmetry_equiv_pos_site_id
 _symmetry_equiv_pos_as_xyz
  1  'x, y, z'
loop_
 _atom_site_type_symbol
 _atom_site_label
 _atom_site_symmetry_multiplicity
 _atom_site_fract_x
 _atom_site_fract_y
 _atom_site_fract_z
 _atom_site_occupancy
  Rb  Rb0  1  0.861390  0.138610  0.546637  1
  Rb  Rb1  1  0.277218  0.138610  0.546637  1
  Rb  Rb2  1  0.861390  0.722782  0.546637  1
  Rb  Rb3  1  0.138610  0.861390  0.046637  1
  Rb  Rb4  1  0.722782  0.861390  0.046637  1
  Rb  Rb5  1  0.138610  0.277218  0.046637  1
  Ba  Ba6  1  0.479179  0.520821  0.733710  1
  Ba  Ba7  1  0.041642  0.520821  0.733710  1
  Ba  Ba8  1  0.479179  0.958358  0.733710  1
  Ba  Ba9  1  0.520821  0.479179  0.233710  1
  Ba  Ba10  1  0.958358  0.479179  0.233710  1
  Ba  Ba11  1  0.520821  0.041642  0.233710  1
  Ga  Ga12  1  0.666667  0.333333  0.854093  1
  Ga  Ga13  1  0.333333  0.666667  0.354093  1
  Sb  Sb14  1  0.799458  0.200542  0.957569  1
  Sb  Sb15  1  0.401085  0.200542  0.957569  1
  Sb  Sb16  1  0.799458  0.598915  0.957569  1
  Sb  Sb17  1  0.200542  0.799458  0.457569  1
  Sb  Sb18  1  0.598915  0.799458  0.457569  1
  Sb  Sb19  1  0.200542  0.401085  0.457569  1
  Sb  Sb20  1  0.666667  0.333333  0.517522  1
  Sb  Sb21  1  0.333333  0.666667  0.017522  1
