# generated using pymatgen
data_La3Mg3CuAgIr
_symmetry_space_group_name_H-M   'P 1'
_cell_length_a   7.88150100
_cell_length_b   7.88149894
_cell_length_c   4.11575900
_cell_angle_alpha   90.00000000
_cell_angle_beta   90.00000000
_cell_angle_gamma   120.00000443
_symmetry_Int_Tables_number   1
_chemical_formula_structural   La3Mg3CuAgIr
_chemical_formula_sum   'La3 Mg3 Cu1 Ag1 Ir1'
_cell_volume   221.41054732
_cell_formula_units_Z   1
loop_
 _symmetry_equiv_pos_site_id
 _symmetry_equiv_pos_as_xyz
  1  'x, y, z'
loop_
 _atom_site_type_symbol
 _atom_site_label
 _atom_site_symmetry_multiplicity
 _atom_site_fract_x
 _atom_site_fract_y
 _atom_site_fract_z
 _atom_site_occupancy
  La  La0  1  0.427842  0.399767  0.500000  1
  La  La1  1  0.971926  0.572158  0.500000  1
  La  La2  1  0.600233  0.028074  0.500000  1
  Mg  Mg3  1  0.763797  0.767703  0.000000  1
  Mg  Mg4  1  0.232297  0.996093  0.000000  1
  Mg  Mg5  1  0.003907  0.236203  0.000000  1
  Cu  Cu6  1  0.000000  0.000000  0.500000  1
  Ag  Ag7  1  0.333333  0.666667  0.000000  1
  Ir  Ir8  1  0.666667  0.333333  0.000000  1
