# generated using pymatgen
data_GdNb9Se16
_symmetry_space_group_name_H-M   'P 1'
_cell_length_a   7.01837400
_cell_length_b   7.01837435
_cell_length_c   14.09225100
_cell_angle_alpha   90.00000000
_cell_angle_beta   90.00000000
_cell_angle_gamma   120.00000779
_symmetry_Int_Tables_number   1
_chemical_formula_structural   GdNb9Se16
_chemical_formula_sum   'Gd1 Nb9 Se16'
_cell_volume   601.15159521
_cell_formula_units_Z   1
loop_
 _symmetry_equiv_pos_site_id
 _symmetry_equiv_pos_as_xyz
  1  'x, y, z'
loop_
 _atom_site_type_symbol
 _atom_site_label
 _atom_site_symmetry_multiplicity
 _atom_site_fract_x
 _atom_site_fract_y
 _atom_site_fract_z
 _atom_site_occupancy
  Gd  Gd0  1  0.000000  0.000000  0.000000  1
  Nb  Nb1  1  0.000000  0.000000  0.266482  1
  Nb  Nb2  1  0.000000  0.000000  0.733518  1
  Nb  Nb3  1  0.506059  0.012120  0.266663  1
  Nb  Nb4  1  0.493941  0.987880  0.733337  1
  Nb  Nb5  1  0.987880  0.493941  0.266663  1
  Nb  Nb6  1  0.012120  0.506059  0.733337  1
  Nb  Nb7  1  0.506059  0.493941  0.266663  1
  Nb  Nb8  1  0.493941  0.506059  0.733337  1
  Nb  Nb9  1  0.000000  0.000000  0.500000  1
  Se  Se10  1  0.333333  0.666667  0.611873  1
  Se  Se11  1  0.666667  0.333333  0.388127  1
  Se  Se12  1  0.666667  0.333333  0.144126  1
  Se  Se13  1  0.333333  0.666667  0.855874  1
  Se  Se14  1  0.168227  0.336454  0.147834  1
  Se  Se15  1  0.831773  0.663546  0.852166  1
  Se  Se16  1  0.663546  0.831773  0.147834  1
  Se  Se17  1  0.831749  0.663498  0.614758  1
  Se  Se18  1  0.336454  0.168227  0.852166  1
  Se  Se19  1  0.168251  0.336502  0.385242  1
  Se  Se20  1  0.168227  0.831773  0.147834  1
  Se  Se21  1  0.336502  0.168251  0.614758  1
  Se  Se22  1  0.831773  0.168227  0.852166  1
  Se  Se23  1  0.663498  0.831749  0.385242  1
  Se  Se24  1  0.831749  0.168251  0.614758  1
  Se  Se25  1  0.168251  0.831749  0.385242  1
