# generated using pymatgen
data_Dy5YCo2(P3Ir4)4
_symmetry_space_group_name_H-M   'P 1'
_cell_length_a   3.93229600
_cell_length_b   11.09715800
_cell_length_c   12.79486300
_cell_angle_alpha   90.00000000
_cell_angle_beta   90.00000000
_cell_angle_gamma   90.00000000
_symmetry_Int_Tables_number   1
_chemical_formula_structural   Dy5YCo2(P3Ir4)4
_chemical_formula_sum   'Dy5 Y1 Co2 P12 Ir16'
_cell_volume   558.33340333
_cell_formula_units_Z   1
loop_
 _symmetry_equiv_pos_site_id
 _symmetry_equiv_pos_as_xyz
  1  'x, y, z'
loop_
 _atom_site_type_symbol
 _atom_site_label
 _atom_site_symmetry_multiplicity
 _atom_site_fract_x
 _atom_site_fract_y
 _atom_site_fract_z
 _atom_site_occupancy
  Dy  Dy0  1  0.000000  0.500000  0.522642  1
  Dy  Dy1  1  0.500000  0.815665  0.200478  1
  Dy  Dy2  1  0.500000  0.184335  0.200478  1
  Dy  Dy3  1  0.000000  0.684315  0.799481  1
  Dy  Dy4  1  0.000000  0.315685  0.799481  1
  Y  Y5  1  0.500000  0.000000  0.477677  1
  Co  Co6  1  0.000000  0.500000  0.976882  1
  Co  Co7  1  0.500000  0.000000  0.022828  1
  P  P8  1  0.500000  0.500000  0.880172  1
  P  P9  1  0.000000  0.000000  0.119689  1
  P  P10  1  0.500000  0.500000  0.358126  1
  P  P11  1  0.000000  0.000000  0.642152  1
  P  P12  1  0.500000  0.315523  0.619187  1
  P  P13  1  0.500000  0.684477  0.619187  1
  P  P14  1  0.000000  0.184550  0.380622  1
  P  P15  1  0.000000  0.815450  0.380622  1
  P  P16  1  0.500000  0.852014  0.896788  1
  P  P17  1  0.500000  0.147986  0.896788  1
  P  P18  1  0.000000  0.647840  0.103258  1
  P  P19  1  0.000000  0.352160  0.103258  1
  Ir  Ir20  1  0.500000  0.500000  0.178034  1
  Ir  Ir21  1  0.000000  0.000000  0.822117  1
  Ir  Ir22  1  0.500000  0.500000  0.702235  1
  Ir  Ir23  1  0.000000  0.000000  0.297405  1
  Ir  Ir24  1  0.500000  0.339172  0.997806  1
  Ir  Ir25  1  0.500000  0.660828  0.997806  1
  Ir  Ir26  1  0.000000  0.160848  0.002227  1
  Ir  Ir27  1  0.000000  0.839152  0.002227  1
  Ir  Ir28  1  0.500000  0.293088  0.429344  1
  Ir  Ir29  1  0.500000  0.706912  0.429344  1
  Ir  Ir30  1  0.000000  0.207398  0.570749  1
  Ir  Ir31  1  0.000000  0.792602  0.570749  1
  Ir  Ir32  1  0.500000  0.870249  0.714835  1
  Ir  Ir33  1  0.500000  0.129751  0.714835  1
  Ir  Ir34  1  0.000000  0.629673  0.285245  1
  Ir  Ir35  1  0.000000  0.370327  0.285245  1
