# generated using pymatgen
data_Pr3Y5(AgIr)2
_symmetry_space_group_name_H-M   'P 1'
_cell_length_a   9.72033111
_cell_length_b   9.72033077
_cell_length_c   9.72033100
_cell_angle_alpha   60.00000262
_cell_angle_beta   60.00000379
_cell_angle_gamma   60.00000135
_symmetry_Int_Tables_number   1
_chemical_formula_structural   Pr3Y5(AgIr)2
_chemical_formula_sum   'Pr6 Y10 Ag4 Ir4'
_cell_volume   649.42377550
_cell_formula_units_Z   2
loop_
 _symmetry_equiv_pos_site_id
 _symmetry_equiv_pos_as_xyz
  1  'x, y, z'
loop_
 _atom_site_type_symbol
 _atom_site_label
 _atom_site_symmetry_multiplicity
 _atom_site_fract_x
 _atom_site_fract_y
 _atom_site_fract_z
 _atom_site_occupancy
  Pr  Pr0  1  0.939577  0.560423  0.560423  1
  Pr  Pr1  1  0.560423  0.939577  0.939577  1
  Pr  Pr2  1  0.560423  0.939577  0.560423  1
  Pr  Pr3  1  0.939577  0.560423  0.939577  1
  Pr  Pr4  1  0.560423  0.560423  0.939577  1
  Pr  Pr5  1  0.939577  0.939577  0.560423  1
  Y  Y6  1  0.350532  0.350532  0.350532  1
  Y  Y7  1  0.350532  0.350532  0.948405  1
  Y  Y8  1  0.350532  0.948405  0.350532  1
  Y  Y9  1  0.948405  0.350532  0.350532  1
  Y  Y10  1  0.813422  0.186578  0.186578  1
  Y  Y11  1  0.186578  0.813422  0.813422  1
  Y  Y12  1  0.186578  0.813422  0.186578  1
  Y  Y13  1  0.813422  0.186578  0.813422  1
  Y  Y14  1  0.186578  0.186578  0.813422  1
  Y  Y15  1  0.813422  0.813422  0.186578  1
  Ag  Ag16  1  0.579633  0.579633  0.579633  1
  Ag  Ag17  1  0.579633  0.579633  0.261102  1
  Ag  Ag18  1  0.579633  0.261102  0.579633  1
  Ag  Ag19  1  0.261102  0.579633  0.579633  1
  Ir  Ir20  1  0.142040  0.142040  0.142040  1
  Ir  Ir21  1  0.142040  0.142040  0.573880  1
  Ir  Ir22  1  0.142040  0.573880  0.142040  1
  Ir  Ir23  1  0.573880  0.142040  0.142040  1
