# generated using pymatgen
data_Mn3Nb12Al9N4
_symmetry_space_group_name_H-M   'P 1'
_cell_length_a   8.27533031
_cell_length_b   8.27532955
_cell_length_c   8.24722946
_cell_angle_alpha   59.88722628
_cell_angle_beta   59.88722853
_cell_angle_gamma   60.00000047
_symmetry_Int_Tables_number   1
_chemical_formula_structural   Mn3Nb12Al9N4
_chemical_formula_sum   'Mn3 Nb12 Al9 N4'
_cell_volume   398.67713633
_cell_formula_units_Z   1
loop_
 _symmetry_equiv_pos_site_id
 _symmetry_equiv_pos_as_xyz
  1  'x, y, z'
loop_
 _atom_site_type_symbol
 _atom_site_label
 _atom_site_symmetry_multiplicity
 _atom_site_fract_x
 _atom_site_fract_y
 _atom_site_fract_z
 _atom_site_occupancy
  Mn  Mn0  1  0.125000  0.625000  0.625000  1
  Mn  Mn1  1  0.625000  0.125000  0.625000  1
  Mn  Mn2  1  0.625000  0.625000  0.625000  1
  Nb  Nb3  1  0.805758  0.805758  0.192457  1
  Nb  Nb4  1  0.191987  0.191987  0.809012  1
  Nb  Nb5  1  0.807013  0.191987  0.809012  1
  Nb  Nb6  1  0.196027  0.805758  0.192457  1
  Nb  Nb7  1  0.191987  0.807013  0.809012  1
  Nb  Nb8  1  0.805758  0.196027  0.192457  1
  Nb  Nb9  1  0.444242  0.444242  0.057543  1
  Nb  Nb10  1  0.058013  0.058013  0.440988  1
  Nb  Nb11  1  0.442987  0.058013  0.440988  1
  Nb  Nb12  1  0.053973  0.444242  0.057543  1
  Nb  Nb13  1  0.058013  0.442987  0.440988  1
  Nb  Nb14  1  0.444242  0.053973  0.057543  1
  Al  Al15  1  0.625000  0.625000  0.125000  1
  Al  Al16  1  0.751509  0.410523  0.427448  1
  Al  Al17  1  0.410523  0.751509  0.427448  1
  Al  Al18  1  0.415608  0.415608  0.753177  1
  Al  Al19  1  0.410523  0.410523  0.427448  1
  Al  Al20  1  0.498491  0.839477  0.822552  1
  Al  Al21  1  0.839477  0.498491  0.822552  1
  Al  Al22  1  0.834392  0.834392  0.496823  1
  Al  Al23  1  0.839477  0.839477  0.822552  1
  N  N24  1  0.625000  0.125000  0.125000  1
  N  N25  1  0.125000  0.625000  0.125000  1
  N  N26  1  0.125000  0.125000  0.625000  1
  N  N27  1  0.125000  0.125000  0.125000  1
