# generated using pymatgen
data_Dy10Tl3Pb3Br2
_symmetry_space_group_name_H-M   'P 1'
_cell_length_a   9.23424100
_cell_length_b   9.23054409
_cell_length_c   6.74892700
_cell_angle_alpha   90.00000000
_cell_angle_beta   90.00000000
_cell_angle_gamma   120.09299797
_symmetry_Int_Tables_number   1
_chemical_formula_structural   Dy10Tl3Pb3Br2
_chemical_formula_sum   'Dy10 Tl3 Pb3 Br2'
_cell_volume   497.72118157
_cell_formula_units_Z   1
loop_
 _symmetry_equiv_pos_site_id
 _symmetry_equiv_pos_as_xyz
  1  'x, y, z'
loop_
 _atom_site_type_symbol
 _atom_site_label
 _atom_site_symmetry_multiplicity
 _atom_site_fract_x
 _atom_site_fract_y
 _atom_site_fract_z
 _atom_site_occupancy
  Dy  Dy0  1  0.265510  0.996037  0.250000  1
  Dy  Dy1  1  0.732203  0.999637  0.750000  1
  Dy  Dy2  1  0.996960  0.264868  0.250000  1
  Dy  Dy3  1  0.002938  0.737124  0.750000  1
  Dy  Dy4  1  0.736475  0.735206  0.250000  1
  Dy  Dy5  1  0.265589  0.262328  0.750000  1
  Dy  Dy6  1  0.332767  0.671141  0.001250  1
  Dy  Dy7  1  0.667483  0.331406  0.001080  1
  Dy  Dy8  1  0.667483  0.331406  0.498920  1
  Dy  Dy9  1  0.332767  0.671141  0.498750  1
  Tl  Tl10  1  0.608648  0.999700  0.250000  1
  Tl  Tl11  1  0.392454  0.000706  0.750000  1
  Tl  Tl12  1  0.998730  0.609104  0.250000  1
  Pb  Pb13  1  0.001275  0.390239  0.750000  1
  Pb  Pb14  1  0.388732  0.389336  0.250000  1
  Pb  Pb15  1  0.610154  0.609367  0.750000  1
  Br  Br16  1  0.999916  0.000628  0.999702  1
  Br  Br17  1  0.999916  0.000628  0.500298  1
