# generated using pymatgen
data_PaTlPt6
_symmetry_space_group_name_H-M   'P 1'
_cell_length_a   5.86154006
_cell_length_b   5.86154066
_cell_length_c   4.15885500
_cell_angle_alpha   90.00000000
_cell_angle_beta   90.00000000
_cell_angle_gamma   90.03485718
_symmetry_Int_Tables_number   1
_chemical_formula_structural   PaTlPt6
_chemical_formula_sum   'Pa1 Tl1 Pt6'
_cell_volume   142.88848049
_cell_formula_units_Z   1
loop_
 _symmetry_equiv_pos_site_id
 _symmetry_equiv_pos_as_xyz
  1  'x, y, z'
loop_
 _atom_site_type_symbol
 _atom_site_label
 _atom_site_symmetry_multiplicity
 _atom_site_fract_x
 _atom_site_fract_y
 _atom_site_fract_z
 _atom_site_occupancy
  Pa  Pa0  1  0.124878  0.875122  0.000000  1
  Tl  Tl1  1  0.625547  0.374453  0.000000  1
  Pt  Pt2  1  0.624631  0.874434  0.000000  1
  Pt  Pt3  1  0.125566  0.375369  0.000000  1
  Pt  Pt4  1  0.882489  0.633004  0.500000  1
  Pt  Pt5  1  0.366996  0.117511  0.500000  1
  Pt  Pt6  1  0.883116  0.116884  0.500000  1
  Pt  Pt7  1  0.366778  0.633222  0.500000  1
