# generated using pymatgen
data_Pr3Nd(In2Pd3)4
_symmetry_space_group_name_H-M   'P 1'
_cell_length_a   4.68634700
_cell_length_b   10.04756503
_cell_length_c   10.35358003
_cell_angle_alpha   90.00823440
_cell_angle_beta   90.00000000
_cell_angle_gamma   90.00000000
_symmetry_Int_Tables_number   1
_chemical_formula_structural   Pr3Nd(In2Pd3)4
_chemical_formula_sum   'Pr3 Nd1 In8 Pd12'
_cell_volume   487.51255929
_cell_formula_units_Z   1
loop_
 _symmetry_equiv_pos_site_id
 _symmetry_equiv_pos_as_xyz
  1  'x, y, z'
loop_
 _atom_site_type_symbol
 _atom_site_label
 _atom_site_symmetry_multiplicity
 _atom_site_fract_x
 _atom_site_fract_y
 _atom_site_fract_z
 _atom_site_occupancy
  Pr  Pr0  1  0.250000  0.442627  0.729980  1
  Pr  Pr1  1  0.250000  0.057413  0.229952  1
  Pr  Pr2  1  0.750000  0.557407  0.270045  1
  Nd  Nd3  1  0.750000  0.942595  0.770383  1
  In  In4  1  0.250000  0.884030  0.516346  1
  In  In5  1  0.250000  0.616011  0.016167  1
  In  In6  1  0.750000  0.115862  0.484004  1
  In  In7  1  0.750000  0.383989  0.983795  1
  In  In8  1  0.250000  0.158288  0.894629  1
  In  In9  1  0.250000  0.341510  0.394782  1
  In  In10  1  0.750000  0.841560  0.105104  1
  In  In11  1  0.750000  0.658684  0.605358  1
  Pd  Pd12  1  0.250000  0.144375  0.619006  1
  Pd  Pd13  1  0.250000  0.355413  0.118886  1
  Pd  Pd14  1  0.750000  0.855443  0.381125  1
  Pd  Pd15  1  0.750000  0.644792  0.881034  1
  Pd  Pd16  1  0.250000  0.739060  0.742141  1
  Pd  Pd17  1  0.250000  0.761399  0.242109  1
  Pd  Pd18  1  0.750000  0.261350  0.257855  1
  Pd  Pd19  1  0.750000  0.238229  0.757904  1
  Pd  Pd20  1  0.250000  0.894628  0.973770  1
  Pd  Pd21  1  0.250000  0.605470  0.474118  1
  Pd  Pd22  1  0.750000  0.105288  0.025603  1
  Pd  Pd23  1  0.750000  0.394577  0.525905  1
