# generated using pymatgen
data_Yb4Al6OsPd
_symmetry_space_group_name_H-M   'P 1'
_cell_length_a   5.54334100
_cell_length_b   5.54334151
_cell_length_c   8.85615200
_cell_angle_alpha   90.00000000
_cell_angle_beta   90.00000000
_cell_angle_gamma   119.99999102
_symmetry_Int_Tables_number   1
_chemical_formula_structural   Yb4Al6OsPd
_chemical_formula_sum   'Yb4 Al6 Os1 Pd1'
_cell_volume   235.67795587
_cell_formula_units_Z   1
loop_
 _symmetry_equiv_pos_site_id
 _symmetry_equiv_pos_as_xyz
  1  'x, y, z'
loop_
 _atom_site_type_symbol
 _atom_site_label
 _atom_site_symmetry_multiplicity
 _atom_site_fract_x
 _atom_site_fract_y
 _atom_site_fract_z
 _atom_site_occupancy
  Yb  Yb0  1  0.666666  0.333333  0.052607  1
  Yb  Yb1  1  0.666666  0.333333  0.442814  1
  Yb  Yb2  1  0.333334  0.666667  0.557186  1
  Yb  Yb3  1  0.333334  0.666667  0.947393  1
  Al  Al4  1  0.162702  0.325403  0.255127  1
  Al  Al5  1  0.162702  0.837298  0.255127  1
  Al  Al6  1  0.674596  0.837298  0.255127  1
  Al  Al7  1  0.325404  0.162702  0.744873  1
  Al  Al8  1  0.837298  0.162702  0.744873  1
  Al  Al9  1  0.837298  0.674596  0.744873  1
  Os  Os10  1  0.000000  0.000000  0.500000  1
  Pd  Pd11  1  0.000000  0.000000  0.000000  1
