# generated using pymatgen
data_Er4TcCl4
_symmetry_space_group_name_H-M   'P 1'
_cell_length_a   8.54845625
_cell_length_b   8.54845547
_cell_length_c   6.48758307
_cell_angle_alpha   89.80760325
_cell_angle_beta   89.80760598
_cell_angle_gamma   89.39603326
_symmetry_Int_Tables_number   1
_chemical_formula_structural   Er4TcCl4
_chemical_formula_sum   'Er8 Tc2 Cl8'
_cell_volume   474.05562442
_cell_formula_units_Z   2
loop_
 _symmetry_equiv_pos_site_id
 _symmetry_equiv_pos_as_xyz
  1  'x, y, z'
loop_
 _atom_site_type_symbol
 _atom_site_label
 _atom_site_symmetry_multiplicity
 _atom_site_fract_x
 _atom_site_fract_y
 _atom_site_fract_z
 _atom_site_occupancy
  Er  Er0  1  0.104805  0.743188  0.987100  1
  Er  Er1  1  0.256812  0.895195  0.512900  1
  Er  Er2  1  0.895195  0.256812  0.012900  1
  Er  Er3  1  0.743188  0.104805  0.487100  1
  Er  Er4  1  0.744733  0.897013  0.006934  1
  Er  Er5  1  0.102987  0.255267  0.493066  1
  Er  Er6  1  0.255267  0.102987  0.993066  1
  Er  Er7  1  0.897013  0.744733  0.506934  1
  Tc  Tc8  1  0.007795  0.992205  0.250000  1
  Tc  Tc9  1  0.992205  0.007795  0.750000  1
  Cl  Cl10  1  0.420905  0.821138  0.902481  1
  Cl  Cl11  1  0.178862  0.579095  0.597519  1
  Cl  Cl12  1  0.579095  0.178862  0.097519  1
  Cl  Cl13  1  0.821138  0.420905  0.402481  1
  Cl  Cl14  1  0.814521  0.582257  0.902858  1
  Cl  Cl15  1  0.417743  0.185479  0.597142  1
  Cl  Cl16  1  0.185479  0.417743  0.097142  1
  Cl  Cl17  1  0.582257  0.814521  0.402858  1
