# generated using pymatgen
data_MnCr2Ir4Ru
_symmetry_space_group_name_H-M   'P 1'
_cell_length_a   5.38546200
_cell_length_b   5.38324521
_cell_length_c   4.24854700
_cell_angle_alpha   90.00000000
_cell_angle_beta   90.00000000
_cell_angle_gamma   120.01362298
_symmetry_Int_Tables_number   1
_chemical_formula_structural   MnCr2Ir4Ru
_chemical_formula_sum   'Mn1 Cr2 Ir4 Ru1'
_cell_volume   106.65434515
_cell_formula_units_Z   1
loop_
 _symmetry_equiv_pos_site_id
 _symmetry_equiv_pos_as_xyz
  1  'x, y, z'
loop_
 _atom_site_type_symbol
 _atom_site_label
 _atom_site_symmetry_multiplicity
 _atom_site_fract_x
 _atom_site_fract_y
 _atom_site_fract_z
 _atom_site_occupancy
  Mn  Mn0  1  0.170312  0.340622  0.250000  1
  Cr  Cr1  1  0.327786  0.655574  0.750000  1
  Cr  Cr2  1  0.668826  0.337651  0.250000  1
  Ir  Ir3  1  0.659550  0.824423  0.250000  1
  Ir  Ir4  1  0.164874  0.824423  0.250000  1
  Ir  Ir5  1  0.336591  0.177611  0.750000  1
  Ir  Ir6  1  0.841020  0.177611  0.750000  1
  Ru  Ru7  1  0.831042  0.662084  0.750000  1
