# generated using pymatgen
data_Er2MnFe2Si5
_symmetry_space_group_name_H-M   'P 1'
_cell_length_a   5.32116870
_cell_length_b   8.01687695
_cell_length_c   8.01687773
_cell_angle_alpha   71.70099668
_cell_angle_beta   70.61750016
_cell_angle_gamma   70.61750384
_symmetry_Int_Tables_number   1
_chemical_formula_structural   Er2MnFe2Si5
_chemical_formula_sum   'Er4 Mn2 Fe4 Si10'
_cell_volume   296.23447908
_cell_formula_units_Z   2
loop_
 _symmetry_equiv_pos_site_id
 _symmetry_equiv_pos_as_xyz
  1  'x, y, z'
loop_
 _atom_site_type_symbol
 _atom_site_label
 _atom_site_symmetry_multiplicity
 _atom_site_fract_x
 _atom_site_fract_y
 _atom_site_fract_z
 _atom_site_occupancy
  Er  Er0  1  0.361615  0.868419  0.408351  1
  Er  Er1  1  0.638385  0.131581  0.591649  1
  Er  Er2  1  0.861615  0.408351  0.868419  1
  Er  Er3  1  0.138385  0.591649  0.131581  1
  Mn  Mn4  1  0.750000  0.000000  0.000000  1
  Mn  Mn5  1  0.250000  0.000000  0.000000  1
  Fe  Fe6  1  0.145270  0.266693  0.442765  1
  Fe  Fe7  1  0.854730  0.733307  0.557235  1
  Fe  Fe8  1  0.645270  0.442765  0.266693  1
  Fe  Fe9  1  0.354730  0.557235  0.733307  1
  Si  Si10  1  0.750000  0.500000  0.500000  1
  Si  Si11  1  0.250000  0.500000  0.500000  1
  Si  Si12  1  0.539169  0.210831  0.210831  1
  Si  Si13  1  0.960831  0.789169  0.789169  1
  Si  Si14  1  0.460831  0.789169  0.789169  1
  Si  Si15  1  0.039169  0.210831  0.210831  1
  Si  Si16  1  0.095837  0.080860  0.727465  1
  Si  Si17  1  0.904163  0.919140  0.272535  1
  Si  Si18  1  0.595837  0.727465  0.080860  1
  Si  Si19  1  0.404163  0.272535  0.919140  1
