# generated using pymatgen
data_Pr3Th(Al3Rh)6
_symmetry_space_group_name_H-M   'P 1'
_cell_length_a   7.64454822
_cell_length_b   7.64937201
_cell_length_c   9.61834800
_cell_angle_alpha   90.00000000
_cell_angle_beta   90.00000000
_cell_angle_gamma   119.27952478
_symmetry_Int_Tables_number   1
_chemical_formula_structural   Pr3Th(Al3Rh)6
_chemical_formula_sum   'Pr3 Th1 Al18 Rh6'
_cell_volume   490.58711201
_cell_formula_units_Z   1
loop_
 _symmetry_equiv_pos_site_id
 _symmetry_equiv_pos_as_xyz
  1  'x, y, z'
loop_
 _atom_site_type_symbol
 _atom_site_label
 _atom_site_symmetry_multiplicity
 _atom_site_fract_x
 _atom_site_fract_y
 _atom_site_fract_z
 _atom_site_occupancy
  Pr  Pr0  1  0.005185  0.329411  0.250000  1
  Pr  Pr1  1  0.670660  0.994741  0.750000  1
  Pr  Pr2  1  0.329599  0.005010  0.250000  1
  Th  Th3  1  0.995459  0.670926  0.750000  1
  Al  Al4  1  0.132016  0.131974  0.750000  1
  Al  Al5  1  0.869925  0.870382  0.250000  1
  Al  Al6  1  0.002934  0.333149  0.573492  1
  Al  Al7  1  0.996687  0.664578  0.423819  1
  Al  Al8  1  0.996687  0.664578  0.076181  1
  Al  Al9  1  0.337592  0.005248  0.926488  1
  Al  Al10  1  0.002934  0.333149  0.926508  1
  Al  Al11  1  0.664920  0.997449  0.073936  1
  Al  Al12  1  0.664920  0.997449  0.426064  1
  Al  Al13  1  0.337592  0.005248  0.573512  1
  Al  Al14  1  0.334085  0.334046  0.046187  1
  Al  Al15  1  0.664069  0.665660  0.954904  1
  Al  Al16  1  0.664069  0.665660  0.545096  1
  Al  Al17  1  0.334085  0.334046  0.453813  1
  Al  Al18  1  0.340422  0.546288  0.750000  1
  Al  Al19  1  0.659448  0.452238  0.250000  1
  Al  Al20  1  0.545351  0.339982  0.750000  1
  Al  Al21  1  0.452643  0.660069  0.250000  1
  Rh  Rh22  1  0.672534  0.330891  0.501567  1
  Rh  Rh23  1  0.327469  0.670867  0.501539  1
  Rh  Rh24  1  0.327469  0.670867  0.998461  1
  Rh  Rh25  1  0.672534  0.330891  0.998433  1
  Rh  Rh26  1  0.999357  0.997602  0.501928  1
  Rh  Rh27  1  0.999357  0.997602  0.998072  1
