# generated using pymatgen
data_Sc10Co7Si20Ir
_symmetry_space_group_name_H-M   'P 1'
_cell_length_a   12.08969143
_cell_length_b   12.04989836
_cell_length_c   3.95453500
_cell_angle_alpha   90.00000000
_cell_angle_beta   90.00000000
_cell_angle_gamma   89.97056566
_symmetry_Int_Tables_number   1
_chemical_formula_structural   Sc10Co7Si20Ir
_chemical_formula_sum   'Sc10 Co7 Si20 Ir1'
_cell_volume   576.09481522
_cell_formula_units_Z   1
loop_
 _symmetry_equiv_pos_site_id
 _symmetry_equiv_pos_as_xyz
  1  'x, y, z'
loop_
 _atom_site_type_symbol
 _atom_site_label
 _atom_site_symmetry_multiplicity
 _atom_site_fract_x
 _atom_site_fract_y
 _atom_site_fract_z
 _atom_site_occupancy
  Sc  Sc0  1  0.000775  0.000450  0.000000  1
  Sc  Sc1  1  0.499147  0.507595  0.000000  1
  Sc  Sc2  1  0.680457  0.173918  0.500000  1
  Sc  Sc3  1  0.170010  0.322880  0.500000  1
  Sc  Sc4  1  0.822678  0.675918  0.500000  1
  Sc  Sc5  1  0.325865  0.821551  0.500000  1
  Sc  Sc6  1  0.888940  0.389925  0.500000  1
  Sc  Sc7  1  0.384209  0.109986  0.500000  1
  Sc  Sc8  1  0.613728  0.887161  0.500000  1
  Sc  Sc9  1  0.110785  0.611509  0.500000  1
  Co  Co10  1  0.251010  0.477214  0.000000  1
  Co  Co11  1  0.746129  0.525934  0.000000  1
  Co  Co12  1  0.475372  0.746232  0.000000  1
  Co  Co13  1  0.977516  0.754811  0.000000  1
  Co  Co14  1  0.023230  0.245436  0.000000  1
  Co  Co15  1  0.756888  0.023188  0.000000  1
  Co  Co16  1  0.246189  0.976354  0.000000  1
  Si  Si17  1  0.572711  0.061466  0.000000  1
  Si  Si18  1  0.066567  0.432029  0.000000  1
  Si  Si19  1  0.930971  0.570041  0.000000  1
  Si  Si20  1  0.431040  0.930883  0.000000  1
  Si  Si21  1  0.194216  0.155625  0.000000  1
  Si  Si22  1  0.157498  0.802216  0.000000  1
  Si  Si23  1  0.844817  0.196526  0.000000  1
  Si  Si24  1  0.804135  0.842685  0.000000  1
  Si  Si25  1  0.301285  0.656283  0.000000  1
  Si  Si26  1  0.705675  0.344583  0.000000  1
  Si  Si27  1  0.657360  0.699200  0.000000  1
  Si  Si28  1  0.331496  0.301614  0.000000  1
  Si  Si29  1  0.998018  0.164659  0.500000  1
  Si  Si30  1  0.163753  0.992060  0.500000  1
  Si  Si31  1  0.837846  0.997162  0.500000  1
  Si  Si32  1  0.996665  0.836579  0.500000  1
  Si  Si33  1  0.505810  0.668421  0.500000  1
  Si  Si34  1  0.507842  0.353103  0.500000  1
  Si  Si35  1  0.664171  0.500497  0.500000  1
  Si  Si36  1  0.333999  0.490837  0.500000  1
  Ir  Ir37  1  0.521197  0.253471  0.000000  1
