# generated using pymatgen
data_TbTi3(Sn2Mo)3
_symmetry_space_group_name_H-M   'P 1'
_cell_length_a   5.64724833
_cell_length_b   5.63080871
_cell_length_c   9.46391600
_cell_angle_alpha   90.00000000
_cell_angle_beta   90.00000000
_cell_angle_gamma   119.35680491
_symmetry_Int_Tables_number   1
_chemical_formula_structural   TbTi3(Sn2Mo)3
_chemical_formula_sum   'Tb1 Ti3 Sn6 Mo3'
_cell_volume   262.29355104
_cell_formula_units_Z   1
loop_
 _symmetry_equiv_pos_site_id
 _symmetry_equiv_pos_as_xyz
  1  'x, y, z'
loop_
 _atom_site_type_symbol
 _atom_site_label
 _atom_site_symmetry_multiplicity
 _atom_site_fract_x
 _atom_site_fract_y
 _atom_site_fract_z
 _atom_site_occupancy
  Tb  Tb0  1  0.000000  0.000000  0.003579  1
  Ti  Ti1  1  0.000000  0.500000  0.751161  1
  Ti  Ti2  1  0.500000  0.000000  0.752527  1
  Ti  Ti3  1  0.000000  0.500000  0.247246  1
  Sn  Sn4  1  0.670734  0.336881  0.497959  1
  Sn  Sn5  1  0.329266  0.663119  0.497959  1
  Sn  Sn6  1  0.666933  0.334950  0.999589  1
  Sn  Sn7  1  0.333067  0.665050  0.999589  1
  Sn  Sn8  1  0.000000  0.000000  0.667682  1
  Sn  Sn9  1  0.000000  0.000000  0.335498  1
  Mo  Mo10  1  0.500000  0.500000  0.750992  1
  Mo  Mo11  1  0.500000  0.500000  0.247465  1
  Mo  Mo12  1  0.500000  0.000000  0.248752  1
