# generated using pymatgen
data_K2Pu(SeO4)2
_symmetry_space_group_name_H-M   'P 1'
_cell_length_a   5.63131525
_cell_length_b   7.61248669
_cell_length_c   7.60997489
_cell_angle_alpha   60.30311384
_cell_angle_beta   68.50608081
_cell_angle_gamma   66.88346678
_symmetry_Int_Tables_number   1
_chemical_formula_structural   K2Pu(SeO4)2
_chemical_formula_sum   'K2 Pu1 Se2 O8'
_cell_volume   254.52178687
_cell_formula_units_Z   1
loop_
 _symmetry_equiv_pos_site_id
 _symmetry_equiv_pos_as_xyz
  1  'x, y, z'
loop_
 _atom_site_type_symbol
 _atom_site_label
 _atom_site_symmetry_multiplicity
 _atom_site_fract_x
 _atom_site_fract_y
 _atom_site_fract_z
 _atom_site_occupancy
  K  K0  1  0.237322  0.700638  0.228070  1
  K  K1  1  0.762718  0.299374  0.771854  1
  Pu  Pu2  1  0.499969  0.999997  0.500073  1
  Se  Se3  1  0.949492  0.305935  0.258113  1
  Se  Se4  1  0.050552  0.694075  0.741798  1
  O  O5  1  0.782196  0.559187  0.173491  1
  O  O6  1  0.678966  0.040117  0.235016  1
  O  O7  1  0.166158  0.298597  0.381240  1
  O  O8  1  0.718149  0.191682  0.491093  1
  O  O9  1  0.281907  0.808320  0.508860  1
  O  O10  1  0.833876  0.701414  0.618689  1
  O  O11  1  0.320840  0.959834  0.765281  1
  O  O12  1  0.217854  0.440833  0.826420  1
