# generated using pymatgen
data_CsPdO
_symmetry_space_group_name_H-M   'P 1'
_cell_length_a   6.19170261
_cell_length_b   6.19170343
_cell_length_c   5.30095800
_cell_angle_alpha   90.00000000
_cell_angle_beta   90.00000000
_cell_angle_gamma   121.01937867
_symmetry_Int_Tables_number   1
_chemical_formula_structural   CsPdO
_chemical_formula_sum   'Cs2 Pd2 O2'
_cell_volume   174.16139742
_cell_formula_units_Z   2
loop_
 _symmetry_equiv_pos_site_id
 _symmetry_equiv_pos_as_xyz
  1  'x, y, z'
loop_
 _atom_site_type_symbol
 _atom_site_label
 _atom_site_symmetry_multiplicity
 _atom_site_fract_x
 _atom_site_fract_y
 _atom_site_fract_z
 _atom_site_occupancy
  Cs  Cs0  1  0.816751  0.183249  0.750000  1
  Cs  Cs1  1  0.183249  0.816751  0.250000  1
  Pd  Pd2  1  0.500000  0.500000  0.000000  1
  Pd  Pd3  1  0.500000  0.500000  0.500000  1
  O  O4  1  0.362197  0.637803  0.750000  1
  O  O5  1  0.637803  0.362197  0.250000  1
