# generated using pymatgen
data_Li2TcNiSn8
_symmetry_space_group_name_H-M   'P 1'
_cell_length_a   7.43843095
_cell_length_b   7.43843087
_cell_length_c   7.43843041
_cell_angle_alpha   126.95202606
_cell_angle_beta   126.95201464
_cell_angle_gamma   78.32897648
_symmetry_Int_Tables_number   1
_chemical_formula_structural   Li2TcNiSn8
_chemical_formula_sum   'Li2 Tc1 Ni1 Sn8'
_cell_volume   254.55279629
_cell_formula_units_Z   1
loop_
 _symmetry_equiv_pos_site_id
 _symmetry_equiv_pos_as_xyz
  1  'x, y, z'
loop_
 _atom_site_type_symbol
 _atom_site_label
 _atom_site_symmetry_multiplicity
 _atom_site_fract_x
 _atom_site_fract_y
 _atom_site_fract_z
 _atom_site_occupancy
  Li  Li0  1  0.497742  0.497742  0.000000  1
  Li  Li1  1  0.002258  0.002258  0.000000  1
  Tc  Tc2  1  0.750000  0.750000  0.000000  1
  Ni  Ni3  1  0.250000  0.250000  0.000000  1
  Sn  Sn4  1  0.701807  0.530491  0.500921  1
  Sn  Sn5  1  0.530491  0.029569  0.828682  1
  Sn  Sn6  1  0.200886  0.701807  0.171318  1
  Sn  Sn7  1  0.798193  0.299114  0.828682  1
  Sn  Sn8  1  0.470431  0.969509  0.171318  1
  Sn  Sn9  1  0.299114  0.470431  0.500921  1
  Sn  Sn10  1  0.969509  0.798193  0.499079  1
  Sn  Sn11  1  0.029569  0.200886  0.499079  1
