# generated using pymatgen
data_Ho5Er11Cd4TcNi3
_symmetry_space_group_name_H-M   'P 1'
_cell_length_a   9.52671039
_cell_length_b   9.52324778
_cell_length_c   9.52324786
_cell_angle_alpha   59.54632999
_cell_angle_beta   59.54343878
_cell_angle_gamma   59.54344343
_symmetry_Int_Tables_number   1
_chemical_formula_structural   Ho5Er11Cd4TcNi3
_chemical_formula_sum   'Ho5 Er11 Cd4 Tc1 Ni3'
_cell_volume   604.61087844
_cell_formula_units_Z   1
loop_
 _symmetry_equiv_pos_site_id
 _symmetry_equiv_pos_as_xyz
  1  'x, y, z'
loop_
 _atom_site_type_symbol
 _atom_site_label
 _atom_site_symmetry_multiplicity
 _atom_site_fract_x
 _atom_site_fract_y
 _atom_site_fract_z
 _atom_site_occupancy
  Ho  Ho0  1  0.554967  0.939921  0.939921  1
  Ho  Ho1  1  0.565604  0.935828  0.565158  1
  Ho  Ho2  1  0.939813  0.555315  0.939497  1
  Ho  Ho3  1  0.565604  0.565158  0.935828  1
  Ho  Ho4  1  0.939813  0.939497  0.555315  1
  Er  Er5  1  0.346703  0.346758  0.346758  1
  Er  Er6  1  0.351987  0.352454  0.953862  1
  Er  Er7  1  0.351987  0.953862  0.352454  1
  Er  Er8  1  0.953558  0.352322  0.352322  1
  Er  Er9  1  0.810991  0.187146  0.187146  1
  Er  Er10  1  0.186513  0.811472  0.811472  1
  Er  Er11  1  0.187075  0.810908  0.187399  1
  Er  Er12  1  0.811747  0.186507  0.811251  1
  Er  Er13  1  0.187075  0.187399  0.810908  1
  Er  Er14  1  0.811747  0.811251  0.186507  1
  Er  Er15  1  0.936578  0.564853  0.564853  1
  Cd  Cd16  1  0.580506  0.580011  0.580011  1
  Cd  Cd17  1  0.579989  0.580134  0.255341  1
  Cd  Cd18  1  0.579989  0.255341  0.580134  1
  Cd  Cd19  1  0.255017  0.580101  0.580101  1
  Tc  Tc20  1  0.144350  0.144263  0.144263  1
  Ni  Ni21  1  0.142167  0.142324  0.575121  1
  Ni  Ni22  1  0.142167  0.575121  0.142324  1
  Ni  Ni23  1  0.574049  0.142051  0.142051  1
