# generated using pymatgen
data_Zr2Mn4Cr8P7
_symmetry_space_group_name_H-M   'P 1'
_cell_length_a   9.21390096
_cell_length_b   9.16043420
_cell_length_c   3.61364800
_cell_angle_alpha   90.00000000
_cell_angle_beta   90.00000000
_cell_angle_gamma   119.94609206
_symmetry_Int_Tables_number   1
_chemical_formula_structural   Zr2Mn4Cr8P7
_chemical_formula_sum   'Zr2 Mn4 Cr8 P7'
_cell_volume   264.28452563
_cell_formula_units_Z   1
loop_
 _symmetry_equiv_pos_site_id
 _symmetry_equiv_pos_as_xyz
  1  'x, y, z'
loop_
 _atom_site_type_symbol
 _atom_site_label
 _atom_site_symmetry_multiplicity
 _atom_site_fract_x
 _atom_site_fract_y
 _atom_site_fract_z
 _atom_site_occupancy
  Zr  Zr0  1  0.997699  0.001541  0.000000  1
  Zr  Zr1  1  0.668188  0.330570  0.500000  1
  Mn  Mn2  1  0.713917  0.092112  0.000000  1
  Mn  Mn3  1  0.614540  0.785500  0.000000  1
  Mn  Mn4  1  0.171834  0.386425  0.000000  1
  Mn  Mn5  1  0.213448  0.828097  0.000000  1
  Cr  Cr6  1  0.370137  0.272815  0.000000  1
  Cr  Cr7  1  0.904108  0.627997  0.000000  1
  Cr  Cr8  1  0.772613  0.701982  0.500000  1
  Cr  Cr9  1  0.936369  0.231478  0.500000  1
  Cr  Cr10  1  0.301196  0.073953  0.500000  1
  Cr  Cr11  1  0.430273  0.548051  0.500000  1
  Cr  Cr12  1  0.119158  0.571435  0.500000  1
  Cr  Cr13  1  0.453757  0.881874  0.500000  1
  P  P14  1  0.611986  0.534412  0.000000  1
  P  P15  1  0.920529  0.382594  0.000000  1
  P  P16  1  0.464024  0.073975  0.000000  1
  P  P17  1  0.743952  0.943875  0.500000  1
  P  P18  1  0.196069  0.257319  0.500000  1
  P  P19  1  0.061942  0.806475  0.500000  1
  P  P20  1  0.334263  0.667518  0.000000  1
