# generated using pymatgen
data_Y5Er11Cd4Ir3Ru
_symmetry_space_group_name_H-M   'P 1'
_cell_length_a   9.62351117
_cell_length_b   9.61691562
_cell_length_c   9.61691586
_cell_angle_alpha   59.65865739
_cell_angle_beta   59.63687763
_cell_angle_gamma   59.63688063
_symmetry_Int_Tables_number   1
_chemical_formula_structural   Y5Er11Cd4Ir3Ru
_chemical_formula_sum   'Y5 Er11 Cd4 Ir3 Ru1'
_cell_volume   624.25797465
_cell_formula_units_Z   1
loop_
 _symmetry_equiv_pos_site_id
 _symmetry_equiv_pos_as_xyz
  1  'x, y, z'
loop_
 _atom_site_type_symbol
 _atom_site_label
 _atom_site_symmetry_multiplicity
 _atom_site_fract_x
 _atom_site_fract_y
 _atom_site_fract_z
 _atom_site_occupancy
  Y  Y0  1  0.558636  0.938919  0.938919  1
  Y  Y1  1  0.561142  0.939221  0.560285  1
  Y  Y2  1  0.938677  0.558793  0.938071  1
  Y  Y3  1  0.561142  0.560285  0.939221  1
  Y  Y4  1  0.938677  0.938071  0.558793  1
  Er  Er5  1  0.348997  0.349098  0.349098  1
  Er  Er6  1  0.348040  0.348277  0.958158  1
  Er  Er7  1  0.348040  0.958158  0.348277  1
  Er  Er8  1  0.957937  0.348268  0.348268  1
  Er  Er9  1  0.812098  0.188557  0.188557  1
  Er  Er10  1  0.187244  0.810193  0.810193  1
  Er  Er11  1  0.188240  0.811987  0.188947  1
  Er  Er12  1  0.810134  0.187755  0.809938  1
  Er  Er13  1  0.188240  0.188947  0.811987  1
  Er  Er14  1  0.810134  0.809938  0.187755  1
  Er  Er15  1  0.940336  0.559847  0.559847  1
  Cd  Cd16  1  0.579912  0.579410  0.579410  1
  Cd  Cd17  1  0.580680  0.580656  0.256875  1
  Cd  Cd18  1  0.580680  0.256875  0.580656  1
  Cd  Cd19  1  0.256268  0.580726  0.580726  1
  Ir  Ir20  1  0.143078  0.144322  0.577095  1
  Ir  Ir21  1  0.143078  0.577095  0.144322  1
  Ir  Ir22  1  0.577248  0.143472  0.143472  1
  Ru  Ru23  1  0.141353  0.141136  0.141136  1
