# generated using pymatgen
data_LaLu3Sb10
_symmetry_space_group_name_H-M   'P 1'
_cell_length_a   4.28495100
_cell_length_b   13.24989415
_cell_length_c   14.57169711
_cell_angle_alpha   78.27253893
_cell_angle_beta   90.00000000
_cell_angle_gamma   90.00000000
_symmetry_Int_Tables_number   1
_chemical_formula_structural   LaLu3Sb10
_chemical_formula_sum   'La2 Lu6 Sb20'
_cell_volume   810.04056456
_cell_formula_units_Z   2
loop_
 _symmetry_equiv_pos_site_id
 _symmetry_equiv_pos_as_xyz
  1  'x, y, z'
loop_
 _atom_site_type_symbol
 _atom_site_label
 _atom_site_symmetry_multiplicity
 _atom_site_fract_x
 _atom_site_fract_y
 _atom_site_fract_z
 _atom_site_occupancy
  La  La0  1  0.250000  0.953051  0.360651  1
  La  La1  1  0.750000  0.046949  0.639349  1
  Lu  Lu2  1  0.250000  0.401331  0.772785  1
  Lu  Lu3  1  0.750000  0.598669  0.227215  1
  Lu  Lu4  1  0.250000  0.660942  0.857361  1
  Lu  Lu5  1  0.750000  0.339058  0.142639  1
  Lu  Lu6  1  0.250000  0.664028  0.578108  1
  Lu  Lu7  1  0.750000  0.335972  0.421892  1
  Sb  Sb8  1  0.250000  0.149064  0.784422  1
  Sb  Sb9  1  0.750000  0.850936  0.215578  1
  Sb  Sb10  1  0.250000  0.156456  0.475299  1
  Sb  Sb11  1  0.750000  0.843544  0.524701  1
  Sb  Sb12  1  0.250000  0.158321  0.169605  1
  Sb  Sb13  1  0.750000  0.841679  0.830395  1
  Sb  Sb14  1  0.250000  0.421872  0.976298  1
  Sb  Sb15  1  0.750000  0.578128  0.023702  1
  Sb  Sb16  1  0.750000  0.033142  0.898642  1
  Sb  Sb17  1  0.250000  0.966858  0.101358  1
  Sb  Sb18  1  0.750000  0.148995  0.319061  1
  Sb  Sb19  1  0.250000  0.851005  0.680939  1
  Sb  Sb20  1  0.750000  0.284357  0.936697  1
  Sb  Sb21  1  0.250000  0.715643  0.063303  1
  Sb  Sb22  1  0.750000  0.296429  0.650742  1
  Sb  Sb23  1  0.250000  0.703571  0.349258  1
  Sb  Sb24  1  0.750000  0.577130  0.736388  1
  Sb  Sb25  1  0.250000  0.422870  0.263612  1
  Sb  Sb26  1  0.750000  0.573107  0.443954  1
  Sb  Sb27  1  0.250000  0.426893  0.556046  1
