# generated using pymatgen
data_Cs4Dy11LuS20
_symmetry_space_group_name_H-M   'P 1'
_cell_length_a   4.02129500
_cell_length_b   12.09601312
_cell_length_c   21.45286400
_cell_angle_alpha   90.11677042
_cell_angle_beta   90.00000000
_cell_angle_gamma   90.00000000
_symmetry_Int_Tables_number   1
_chemical_formula_structural   Cs4Dy11LuS20
_chemical_formula_sum   'Cs4 Dy11 Lu1 S20'
_cell_volume   1043.50025794
_cell_formula_units_Z   1
loop_
 _symmetry_equiv_pos_site_id
 _symmetry_equiv_pos_as_xyz
  1  'x, y, z'
loop_
 _atom_site_type_symbol
 _atom_site_label
 _atom_site_symmetry_multiplicity
 _atom_site_fract_x
 _atom_site_fract_y
 _atom_site_fract_z
 _atom_site_occupancy
  Cs  Cs0  1  0.250000  0.853376  0.095301  1
  Cs  Cs1  1  0.750000  0.146855  0.904992  1
  Cs  Cs2  1  0.750000  0.352575  0.406430  1
  Cs  Cs3  1  0.250000  0.647598  0.594770  1
  Dy  Dy4  1  0.750000  0.797721  0.825282  1
  Dy  Dy5  1  0.250000  0.201968  0.174787  1
  Dy  Dy6  1  0.250000  0.297037  0.672777  1
  Dy  Dy7  1  0.750000  0.702579  0.326158  1
  Dy  Dy8  1  0.250000  0.959801  0.697127  1
  Dy  Dy9  1  0.750000  0.041797  0.303856  1
  Dy  Dy10  1  0.750000  0.458500  0.801867  1
  Dy  Dy11  1  0.250000  0.540834  0.197623  1
  Dy  Dy12  1  0.750000  0.389644  0.052219  1
  Dy  Dy13  1  0.250000  0.610001  0.947487  1
  Dy  Dy14  1  0.250000  0.891536  0.448307  1
  Lu  Lu15  1  0.750000  0.108249  0.552816  1
  S  S16  1  0.250000  0.956218  0.568836  1
  S  S17  1  0.750000  0.048783  0.432934  1
  S  S18  1  0.750000  0.452990  0.930782  1
  S  S19  1  0.250000  0.546669  0.068733  1
  S  S20  1  0.750000  0.762036  0.951493  1
  S  S21  1  0.250000  0.237568  0.048367  1
  S  S22  1  0.250000  0.254971  0.547259  1
  S  S23  1  0.750000  0.739482  0.452314  1
  S  S24  1  0.250000  0.946108  0.824047  1
  S  S25  1  0.750000  0.053836  0.176713  1
  S  S26  1  0.750000  0.445360  0.674552  1
  S  S27  1  0.250000  0.554440  0.324643  1
  S  S28  1  0.750000  0.126860  0.680292  1
  S  S29  1  0.250000  0.873988  0.318413  1
  S  S30  1  0.250000  0.626801  0.817253  1
  S  S31  1  0.750000  0.372953  0.182296  1
  S  S32  1  0.750000  0.687512  0.199258  1
  S  S33  1  0.250000  0.311904  0.799914  1
  S  S34  1  0.250000  0.188354  0.301696  1
  S  S35  1  0.750000  0.813096  0.698404  1
