# generated using pymatgen
data_Hf5Ti4AlAu20
_symmetry_space_group_name_H-M   'P 1'
_cell_length_a   3.66076300
_cell_length_b   8.73387404
_cell_length_c   16.97275944
_cell_angle_alpha   89.99234634
_cell_angle_beta   90.00000000
_cell_angle_gamma   90.00000000
_symmetry_Int_Tables_number   1
_chemical_formula_structural   Hf5Ti4AlAu20
_chemical_formula_sum   'Hf5 Ti4 Al1 Au20'
_cell_volume   542.66397211
_cell_formula_units_Z   1
loop_
 _symmetry_equiv_pos_site_id
 _symmetry_equiv_pos_as_xyz
  1  'x, y, z'
loop_
 _atom_site_type_symbol
 _atom_site_label
 _atom_site_symmetry_multiplicity
 _atom_site_fract_x
 _atom_site_fract_y
 _atom_site_fract_z
 _atom_site_occupancy
  Hf  Hf0  1  0.000000  0.000029  0.999990  1
  Hf  Hf1  1  0.500000  0.499886  0.501088  1
  Hf  Hf2  1  0.500000  0.499962  0.294885  1
  Hf  Hf3  1  0.500000  0.499973  0.706842  1
  Hf  Hf4  1  0.000000  0.999938  0.399311  1
  Ti  Ti5  1  0.000000  0.000053  0.196483  1
  Ti  Ti6  1  0.000000  0.999892  0.797177  1
  Ti  Ti7  1  0.000000  0.000068  0.606964  1
  Ti  Ti8  1  0.500000  0.499939  0.095366  1
  Al  Al9  1  0.500000  0.500496  0.904748  1
  Au  Au10  1  0.000000  0.338398  0.997213  1
  Au  Au11  1  0.000000  0.661791  0.997562  1
  Au  Au12  1  0.500000  0.836410  0.502698  1
  Au  Au13  1  0.500000  0.163523  0.502640  1
  Au  Au14  1  0.000000  0.333897  0.196556  1
  Au  Au15  1  0.000000  0.663908  0.804414  1
  Au  Au16  1  0.500000  0.835520  0.296790  1
  Au  Au17  1  0.500000  0.165255  0.703150  1
  Au  Au18  1  0.000000  0.333193  0.399306  1
  Au  Au19  1  0.000000  0.666668  0.601836  1
  Au  Au20  1  0.500000  0.832470  0.097985  1
  Au  Au21  1  0.500000  0.161347  0.898431  1
  Au  Au22  1  0.000000  0.332928  0.601939  1
  Au  Au23  1  0.000000  0.666719  0.399313  1
  Au  Au24  1  0.500000  0.838091  0.898615  1
  Au  Au25  1  0.500000  0.167790  0.097770  1
  Au  Au26  1  0.000000  0.336637  0.804728  1
  Au  Au27  1  0.000000  0.665945  0.196570  1
  Au  Au28  1  0.500000  0.834834  0.702823  1
  Au  Au29  1  0.500000  0.164438  0.296804  1
