# generated using pymatgen
data_Lu8Mn(FeB8)3
_symmetry_space_group_name_H-M   'P 1'
_cell_length_a   3.47728100
_cell_length_b   8.96751051
_cell_length_c   11.32664804
_cell_angle_alpha   89.92145348
_cell_angle_beta   90.00000000
_cell_angle_gamma   90.00000000
_symmetry_Int_Tables_number   1
_chemical_formula_structural   Lu8Mn(FeB8)3
_chemical_formula_sum   'Lu8 Mn1 Fe3 B24'
_cell_volume   353.19348141
_cell_formula_units_Z   1
loop_
 _symmetry_equiv_pos_site_id
 _symmetry_equiv_pos_as_xyz
  1  'x, y, z'
loop_
 _atom_site_type_symbol
 _atom_site_label
 _atom_site_symmetry_multiplicity
 _atom_site_fract_x
 _atom_site_fract_y
 _atom_site_fract_z
 _atom_site_occupancy
  Lu  Lu0  1  0.000000  0.324592  0.413420  1
  Lu  Lu1  1  0.000000  0.676267  0.583208  1
  Lu  Lu2  1  0.000000  0.821085  0.087827  1
  Lu  Lu3  1  0.000000  0.177265  0.915246  1
  Lu  Lu4  1  0.000000  0.941892  0.370210  1
  Lu  Lu5  1  0.000000  0.057988  0.630005  1
  Lu  Lu6  1  0.000000  0.443345  0.130165  1
  Lu  Lu7  1  0.000000  0.557786  0.869734  1
  Mn  Mn8  1  0.000000  0.637801  0.320588  1
  Fe  Fe9  1  0.000000  0.361660  0.679950  1
  Fe  Fe10  1  0.000000  0.137993  0.179318  1
  Fe  Fe11  1  0.000000  0.862320  0.820542  1
  B  B12  1  0.500000  0.553148  0.432743  1
  B  B13  1  0.500000  0.446258  0.567292  1
  B  B14  1  0.500000  0.053898  0.067471  1
  B  B15  1  0.500000  0.946363  0.932940  1
  B  B16  1  0.500000  0.746690  0.418394  1
  B  B17  1  0.500000  0.253193  0.581024  1
  B  B18  1  0.500000  0.247201  0.081519  1
  B  B19  1  0.500000  0.753078  0.918966  1
  B  B20  1  0.500000  0.790351  0.265572  1
  B  B21  1  0.500000  0.210154  0.734292  1
  B  B22  1  0.500000  0.290053  0.234340  1
  B  B23  1  0.500000  0.710374  0.765442  1
  B  B24  1  0.500000  0.630850  0.186131  1
  B  B25  1  0.500000  0.368959  0.814524  1
  B  B26  1  0.500000  0.130881  0.314034  1
  B  B27  1  0.500000  0.869116  0.685286  1
  B  B28  1  0.500000  0.983449  0.211538  1
  B  B29  1  0.500000  0.016223  0.788418  1
  B  B30  1  0.500000  0.483075  0.288541  1
  B  B31  1  0.500000  0.516138  0.711463  1
  B  B32  1  0.500000  0.605543  0.028818  1
  B  B33  1  0.500000  0.394746  0.970904  1
  B  B34  1  0.500000  0.105207  0.470878  1
  B  B35  1  0.500000  0.895056  0.529255  1
