# generated using pymatgen
data_TbDy2Cu5(Ni4B)2
_symmetry_space_group_name_H-M   'P 1'
_cell_length_a   5.03132700
_cell_length_b   5.02622759
_cell_length_c   10.87096100
_cell_angle_alpha   90.00000000
_cell_angle_beta   90.00000000
_cell_angle_gamma   120.03356046
_symmetry_Int_Tables_number   1
_chemical_formula_structural   TbDy2Cu5(Ni4B)2
_chemical_formula_sum   'Tb1 Dy2 Cu5 Ni8 B2'
_cell_volume   237.99963749
_cell_formula_units_Z   1
loop_
 _symmetry_equiv_pos_site_id
 _symmetry_equiv_pos_as_xyz
  1  'x, y, z'
loop_
 _atom_site_type_symbol
 _atom_site_label
 _atom_site_symmetry_multiplicity
 _atom_site_fract_x
 _atom_site_fract_y
 _atom_site_fract_z
 _atom_site_occupancy
  Tb  Tb0  1  0.000000  0.000000  0.671817  1
  Dy  Dy1  1  0.000000  0.000000  0.000000  1
  Dy  Dy2  1  0.000000  0.000000  0.328183  1
  Cu  Cu3  1  0.500000  0.000000  0.500000  1
  Cu  Cu4  1  0.331591  0.663182  0.316300  1
  Cu  Cu5  1  0.668409  0.336818  0.316300  1
  Cu  Cu6  1  0.668409  0.336818  0.683700  1
  Cu  Cu7  1  0.331591  0.663182  0.683700  1
  Ni  Ni8  1  0.500000  0.500000  0.500000  1
  Ni  Ni9  1  0.000000  0.500000  0.500000  1
  Ni  Ni10  1  0.500000  0.000000  0.129782  1
  Ni  Ni11  1  0.500000  0.500000  0.129834  1
  Ni  Ni12  1  0.000000  0.500000  0.129834  1
  Ni  Ni13  1  0.500000  0.000000  0.870218  1
  Ni  Ni14  1  0.500000  0.500000  0.870166  1
  Ni  Ni15  1  0.000000  0.500000  0.870166  1
  B  B16  1  0.333419  0.666840  0.000000  1
  B  B17  1  0.666581  0.333160  0.000000  1
