# generated using pymatgen
data_Eu2Dy3Er(RuO7)2
_symmetry_space_group_name_H-M   'P 1'
_cell_length_a   6.43308803
_cell_length_b   6.42852935
_cell_length_c   7.46589500
_cell_angle_alpha   90.00000000
_cell_angle_beta   90.00000000
_cell_angle_gamma   109.44449770
_symmetry_Int_Tables_number   1
_chemical_formula_structural   Eu2Dy3Er(RuO7)2
_chemical_formula_sum   'Eu2 Dy3 Er1 Ru2 O14'
_cell_volume   291.14430778
_cell_formula_units_Z   1
loop_
 _symmetry_equiv_pos_site_id
 _symmetry_equiv_pos_as_xyz
  1  'x, y, z'
loop_
 _atom_site_type_symbol
 _atom_site_label
 _atom_site_symmetry_multiplicity
 _atom_site_fract_x
 _atom_site_fract_y
 _atom_site_fract_z
 _atom_site_occupancy
  Eu  Eu0  1  0.999994  0.999667  0.500433  1
  Eu  Eu1  1  0.999994  0.999667  0.999567  1
  Dy  Dy2  1  0.518160  0.069162  0.250000  1
  Dy  Dy3  1  0.931217  0.482385  0.750000  1
  Dy  Dy4  1  0.069243  0.517605  0.250000  1
  Er  Er5  1  0.482679  0.933141  0.750000  1
  Ru  Ru6  1  0.499738  0.500030  0.500499  1
  Ru  Ru7  1  0.499738  0.500030  0.999501  1
  O  O8  1  0.590170  0.591781  0.750000  1
  O  O9  1  0.409902  0.409426  0.250000  1
  O  O10  1  0.838932  0.113508  0.750000  1
  O  O11  1  0.158996  0.885680  0.250000  1
  O  O12  1  0.117942  0.840758  0.750000  1
  O  O13  1  0.885311  0.158687  0.250000  1
  O  O14  1  0.445112  0.183841  0.960162  1
  O  O15  1  0.554405  0.816302  0.463205  1
  O  O16  1  0.183424  0.443403  0.961284  1
  O  O17  1  0.816051  0.555691  0.461515  1
  O  O18  1  0.445112  0.183841  0.539838  1
  O  O19  1  0.554405  0.816302  0.036795  1
  O  O20  1  0.816051  0.555691  0.038485  1
  O  O21  1  0.183424  0.443403  0.538716  1
