# generated using pymatgen
data_Hf4Nb2Fe16Si7
_symmetry_space_group_name_H-M   'P 1'
_cell_length_a   8.00966940
_cell_length_b   8.03184377
_cell_length_c   8.03184353
_cell_angle_alpha   59.81742298
_cell_angle_beta   60.09128408
_cell_angle_gamma   60.09128666
_symmetry_Int_Tables_number   1
_chemical_formula_structural   Hf4Nb2Fe16Si7
_chemical_formula_sum   'Hf4 Nb2 Fe16 Si7'
_cell_volume   365.36207176
_cell_formula_units_Z   1
loop_
 _symmetry_equiv_pos_site_id
 _symmetry_equiv_pos_as_xyz
  1  'x, y, z'
loop_
 _atom_site_type_symbol
 _atom_site_label
 _atom_site_symmetry_multiplicity
 _atom_site_fract_x
 _atom_site_fract_y
 _atom_site_fract_z
 _atom_site_occupancy
  Hf  Hf0  1  0.795199  0.204801  0.795199  1
  Hf  Hf1  1  0.795199  0.795199  0.204801  1
  Hf  Hf2  1  0.204801  0.795199  0.204801  1
  Hf  Hf3  1  0.204801  0.204801  0.795199  1
  Nb  Nb4  1  0.207568  0.792432  0.792432  1
  Nb  Nb5  1  0.792432  0.207568  0.207568  1
  Fe  Fe6  1  0.862318  0.377501  0.377501  1
  Fe  Fe7  1  0.622499  0.617322  0.137682  1
  Fe  Fe8  1  0.377501  0.382678  0.862318  1
  Fe  Fe9  1  0.824831  0.524931  0.825408  1
  Fe  Fe10  1  0.825408  0.824831  0.824831  1
  Fe  Fe11  1  0.824831  0.825408  0.524931  1
  Fe  Fe12  1  0.382678  0.377501  0.377501  1
  Fe  Fe13  1  0.137682  0.622499  0.622499  1
  Fe  Fe14  1  0.617322  0.622499  0.622499  1
  Fe  Fe15  1  0.174592  0.175169  0.175169  1
  Fe  Fe16  1  0.175169  0.475069  0.174592  1
  Fe  Fe17  1  0.524931  0.824831  0.824831  1
  Fe  Fe18  1  0.622499  0.137682  0.617322  1
  Fe  Fe19  1  0.175169  0.174592  0.475069  1
  Fe  Fe20  1  0.377501  0.862318  0.382678  1
  Fe  Fe21  1  0.475069  0.175169  0.175169  1
  Si  Si22  1  0.500000  0.000000  0.000000  1
  Si  Si23  1  0.000000  0.500000  0.000000  1
  Si  Si24  1  0.500000  0.500000  0.000000  1
  Si  Si25  1  0.500000  0.500000  0.500000  1
  Si  Si26  1  0.000000  0.500000  0.500000  1
  Si  Si27  1  0.000000  0.000000  0.500000  1
  Si  Si28  1  0.500000  0.000000  0.500000  1
