# generated using pymatgen
data_ErZn2Cu2Pd
_symmetry_space_group_name_H-M   'P 1'
_cell_length_a   5.05774555
_cell_length_b   5.05463461
_cell_length_c   5.05463513
_cell_angle_alpha   60.47991612
_cell_angle_beta   59.97963310
_cell_angle_gamma   59.97963833
_symmetry_Int_Tables_number   1
_chemical_formula_structural   ErZn2Cu2Pd
_chemical_formula_sum   'Er1 Zn2 Cu2 Pd1'
_cell_volume   91.67212115
_cell_formula_units_Z   1
loop_
 _symmetry_equiv_pos_site_id
 _symmetry_equiv_pos_as_xyz
  1  'x, y, z'
loop_
 _atom_site_type_symbol
 _atom_site_label
 _atom_site_symmetry_multiplicity
 _atom_site_fract_x
 _atom_site_fract_y
 _atom_site_fract_z
 _atom_site_occupancy
  Er  Er0  1  0.002880  0.997120  0.997120  1
  Zn  Zn1  1  0.622194  0.623427  0.132185  1
  Zn  Zn2  1  0.622194  0.132185  0.623427  1
  Cu  Cu3  1  0.126082  0.625439  0.625439  1
  Cu  Cu4  1  0.623041  0.625439  0.625439  1
  Pd  Pd5  1  0.253609  0.246391  0.246391  1
