# generated using pymatgen
data_YbThF36
_symmetry_space_group_name_H-M   'P 1'
_cell_length_a   5.72574171
_cell_length_b   11.06674694
_cell_length_c   10.83192922
_cell_angle_alpha   91.11379343
_cell_angle_beta   94.06287980
_cell_angle_gamma   76.65620877
_symmetry_Int_Tables_number   1
_chemical_formula_structural   YbThF36
_chemical_formula_sum   'Yb1 Th1 F36'
_cell_volume   666.15703856
_cell_formula_units_Z   1
loop_
 _symmetry_equiv_pos_site_id
 _symmetry_equiv_pos_as_xyz
  1  'x, y, z'
loop_
 _atom_site_type_symbol
 _atom_site_label
 _atom_site_symmetry_multiplicity
 _atom_site_fract_x
 _atom_site_fract_y
 _atom_site_fract_z
 _atom_site_occupancy
  Yb  Yb0  1  0.225858  0.142079  0.163863  1
  Th  Th1  1  0.660092  0.864324  0.896972  1
  F  F2  1  0.285893  0.396675  0.880921  1
  F  F3  1  0.685830  0.607230  0.132099  1
  F  F4  1  0.321513  0.287400  0.602283  1
  F  F5  1  0.652443  0.768631  0.447685  1
  F  F6  1  0.845794  0.226058  0.815464  1
  F  F7  1  0.204240  0.745756  0.179693  1
  F  F8  1  0.694629  0.826766  0.090354  1
  F  F9  1  0.380935  0.048735  0.995156  1
  F  F10  1  0.684902  0.647409  0.880399  1
  F  F11  1  0.261324  0.362608  0.088421  1
  F  F12  1  0.436527  0.483371  0.880009  1
  F  F13  1  0.694736  0.476677  0.140027  1
  F  F14  1  0.709274  0.732099  0.722544  1
  F  F15  1  0.256006  0.361429  0.222860  1
  F  F16  1  0.751430  0.974026  0.551887  1
  F  F17  1  0.217594  0.001544  0.437311  1
  F  F18  1  0.273704  0.175692  0.647902  1
  F  F19  1  0.678195  0.799736  0.322269  1
  F  F20  1  0.802466  0.091690  0.583084  1
  F  F21  1  0.176793  0.973022  0.308076  1
  F  F22  1  0.772789  0.029482  0.860903  1
  F  F23  1  0.164658  0.966043  0.084752  1
  F  F24  1  0.889938  0.345236  0.787944  1
  F  F25  1  0.172687  0.647832  0.255827  1
  F  F26  1  0.086188  0.773676  0.906755  1
  F  F27  1  0.846894  0.233342  0.101154  1
  F  F28  1  0.349252  0.955981  0.729670  1
  F  F29  1  0.535170  0.101164  0.302132  1
  F  F30  1  0.143388  0.742488  0.566673  1
  F  F31  1  0.033784  0.228519  0.381335  1
  F  F32  1  0.214749  0.638217  0.647221  1
  F  F33  1  0.870482  0.346652  0.359944  1
  F  F34  1  0.215236  0.865870  0.813202  1
  F  F35  1  0.687365  0.164623  0.198239  1
  F  F36  1  0.578759  0.441274  0.557721  1
  F  F37  1  0.538483  0.526643  0.457256  1
