# generated using pymatgen
data_Ho19Er(SnPb)8
_symmetry_space_group_name_H-M   'P 1'
_cell_length_a   8.10932301
_cell_length_b   8.17892001
_cell_length_c   15.51558100
_cell_angle_alpha   90.00000000
_cell_angle_beta   90.00000000
_cell_angle_gamma   90.00656390
_symmetry_Int_Tables_number   1
_chemical_formula_structural   Ho19Er(SnPb)8
_chemical_formula_sum   'Ho19 Er1 Sn8 Pb8'
_cell_volume   1029.07872741
_cell_formula_units_Z   1
loop_
 _symmetry_equiv_pos_site_id
 _symmetry_equiv_pos_as_xyz
  1  'x, y, z'
loop_
 _atom_site_type_symbol
 _atom_site_label
 _atom_site_symmetry_multiplicity
 _atom_site_fract_x
 _atom_site_fract_y
 _atom_site_fract_z
 _atom_site_occupancy
  Ho  Ho0  1  0.378143  0.839815  0.876990  1
  Ho  Ho1  1  0.878145  0.660182  0.623024  1
  Ho  Ho2  1  0.621786  0.160139  0.376982  1
  Ho  Ho3  1  0.121899  0.339778  0.123016  1
  Ho  Ho4  1  0.621786  0.160139  0.123018  1
  Ho  Ho5  1  0.121899  0.339778  0.376984  1
  Ho  Ho6  1  0.378143  0.839815  0.623010  1
  Ho  Ho7  1  0.878145  0.660182  0.876976  1
  Ho  Ho8  1  0.535131  0.323455  0.897365  1
  Ho  Ho9  1  0.035120  0.176545  0.602624  1
  Ho  Ho10  1  0.464847  0.676581  0.397373  1
  Ho  Ho11  1  0.964911  0.823484  0.102632  1
  Ho  Ho12  1  0.464847  0.676581  0.102627  1
  Ho  Ho13  1  0.964911  0.823484  0.397368  1
  Ho  Ho14  1  0.535131  0.323455  0.602635  1
  Ho  Ho15  1  0.035120  0.176545  0.897376  1
  Ho  Ho16  1  0.209275  0.503805  0.750000  1
  Ho  Ho17  1  0.709268  0.996212  0.750000  1
  Ho  Ho18  1  0.790740  0.496224  0.250000  1
  Er  Er19  1  0.290665  0.003805  0.250000  1
  Sn  Sn20  1  0.574525  0.623046  0.750000  1
  Sn  Sn21  1  0.074528  0.876962  0.750000  1
  Sn  Sn22  1  0.425441  0.376828  0.250000  1
  Sn  Sn23  1  0.925664  0.122983  0.250000  1
  Sn  Sn24  1  0.343469  0.149253  0.750000  1
  Sn  Sn25  1  0.843477  0.350710  0.750000  1
  Sn  Sn26  1  0.656435  0.850750  0.250000  1
  Sn  Sn27  1  0.156549  0.649487  0.250000  1
  Pb  Pb28  1  0.281786  0.033383  0.041804  1
  Pb  Pb29  1  0.781783  0.466616  0.458264  1
  Pb  Pb30  1  0.718221  0.966609  0.541741  1
  Pb  Pb31  1  0.218211  0.533381  0.958257  1
  Pb  Pb32  1  0.718221  0.966609  0.958259  1
  Pb  Pb33  1  0.218211  0.533381  0.541743  1
  Pb  Pb34  1  0.281786  0.033383  0.458196  1
  Pb  Pb35  1  0.781783  0.466616  0.041736  1
