# generated using pymatgen
data_Sn8IrPt
_symmetry_space_group_name_H-M   'P 1'
_cell_length_a   12.64905539
_cell_length_b   12.64905572
_cell_length_c   12.64905515
_cell_angle_alpha   150.62018275
_cell_angle_beta   150.62018593
_cell_angle_gamma   42.03179527
_symmetry_Int_Tables_number   1
_chemical_formula_structural   Sn8IrPt
_chemical_formula_sum   'Sn16 Ir2 Pt2'
_cell_volume   485.95454116
_cell_formula_units_Z   2
loop_
 _symmetry_equiv_pos_site_id
 _symmetry_equiv_pos_as_xyz
  1  'x, y, z'
loop_
 _atom_site_type_symbol
 _atom_site_label
 _atom_site_symmetry_multiplicity
 _atom_site_fract_x
 _atom_site_fract_y
 _atom_site_fract_z
 _atom_site_occupancy
  Sn  Sn0  1  0.987146  0.481584  0.842437  1
  Sn  Sn1  1  0.355291  0.860853  0.842437  1
  Sn  Sn2  1  0.018416  0.512854  0.157563  1
  Sn  Sn3  1  0.262854  0.605291  0.994438  1
  Sn  Sn4  1  0.104732  0.110419  0.342263  1
  Sn  Sn5  1  0.860419  0.018156  0.505687  1
  Sn  Sn6  1  0.512469  0.354732  0.494313  1
  Sn  Sn7  1  0.145268  0.987531  0.505687  1
  Sn  Sn8  1  0.481844  0.639581  0.494313  1
  Sn  Sn9  1  0.737531  0.731844  0.342263  1
  Sn  Sn10  1  0.389581  0.395268  0.657737  1
  Sn  Sn11  1  0.768156  0.762469  0.657737  1
  Sn  Sn12  1  0.639147  0.144709  0.157563  1
  Sn  Sn13  1  0.894709  0.237146  0.005562  1
  Sn  Sn14  1  0.231584  0.889147  0.994438  1
  Sn  Sn15  1  0.610853  0.268416  0.005562  1
  Ir  Ir16  1  0.250000  0.250000  0.000000  1
  Ir  Ir17  1  0.000000  0.500000  0.500000  1
  Pt  Pt18  1  0.500000  0.000000  0.500000  1
  Pt  Pt19  1  0.750000  0.750000  0.000000  1
