# generated using pymatgen
data_SrLa6IrI12
_symmetry_space_group_name_H-M   'P 1'
_cell_length_a   10.20485375
_cell_length_b   10.20485287
_cell_length_c   10.20485374
_cell_angle_alpha   106.55613691
_cell_angle_beta   106.55614245
_cell_angle_gamma   106.55613403
_symmetry_Int_Tables_number   1
_chemical_formula_structural   SrLa6IrI12
_chemical_formula_sum   'Sr1 La6 Ir1 I12'
_cell_volume   895.54650584
_cell_formula_units_Z   1
loop_
 _symmetry_equiv_pos_site_id
 _symmetry_equiv_pos_as_xyz
  1  'x, y, z'
loop_
 _atom_site_type_symbol
 _atom_site_label
 _atom_site_symmetry_multiplicity
 _atom_site_fract_x
 _atom_site_fract_y
 _atom_site_fract_z
 _atom_site_occupancy
  Sr  Sr0  1  0.500000  0.500000  0.500000  1
  La  La1  1  0.098303  0.303099  0.022183  1
  La  La2  1  0.303098  0.022182  0.098303  1
  La  La3  1  0.022182  0.098303  0.303099  1
  La  La4  1  0.977817  0.901697  0.696901  1
  La  La5  1  0.696902  0.977817  0.901696  1
  La  La6  1  0.901697  0.696901  0.977817  1
  Ir  Ir7  1  0.000000  0.000000  0.000000  1
  I  I8  1  0.225536  0.678734  0.073672  1
  I  I9  1  0.456544  0.375699  0.148758  1
  I  I10  1  0.678734  0.073673  0.225536  1
  I  I11  1  0.926328  0.774465  0.321267  1
  I  I12  1  0.148758  0.456544  0.375699  1
  I  I13  1  0.375699  0.148758  0.456545  1
  I  I14  1  0.624301  0.851242  0.543455  1
  I  I15  1  0.851241  0.543456  0.624301  1
  I  I16  1  0.073673  0.225536  0.678734  1
  I  I17  1  0.321267  0.926328  0.774464  1
  I  I18  1  0.543455  0.624300  0.851242  1
  I  I19  1  0.774464  0.321267  0.926328  1
