# generated using pymatgen
data_PrNd3HgPd4Pb
_symmetry_space_group_name_H-M   'P 1'
_cell_length_a   3.85724400
_cell_length_b   7.96220541
_cell_length_c   7.95562741
_cell_angle_alpha   89.96322780
_cell_angle_beta   90.00000000
_cell_angle_gamma   90.00000000
_symmetry_Int_Tables_number   1
_chemical_formula_structural   PrNd3HgPd4Pb
_chemical_formula_sum   'Pr1 Nd3 Hg1 Pd4 Pb1'
_cell_volume   244.33452354
_cell_formula_units_Z   1
loop_
 _symmetry_equiv_pos_site_id
 _symmetry_equiv_pos_as_xyz
  1  'x, y, z'
loop_
 _atom_site_type_symbol
 _atom_site_label
 _atom_site_symmetry_multiplicity
 _atom_site_fract_x
 _atom_site_fract_y
 _atom_site_fract_z
 _atom_site_occupancy
  Pr  Pr0  1  0.500000  0.170683  0.679826  1
  Nd  Nd1  1  0.500000  0.829299  0.320115  1
  Nd  Nd2  1  0.500000  0.320395  0.170711  1
  Nd  Nd3  1  0.500000  0.679757  0.829457  1
  Hg  Hg4  1  0.000000  0.999817  0.000251  1
  Pd  Pd5  1  0.000000  0.623831  0.123779  1
  Pd  Pd6  1  0.000000  0.376612  0.876689  1
  Pd  Pd7  1  0.000000  0.875663  0.623748  1
  Pd  Pd8  1  0.000000  0.123646  0.375609  1
  Pb  Pb9  1  0.000000  0.500296  0.499814  1
