# generated using pymatgen
data_Ac6ZnSn9
_symmetry_space_group_name_H-M   'P 1'
_cell_length_a   6.88717360
_cell_length_b   6.88717256
_cell_length_c   10.88586519
_cell_angle_alpha   89.98678702
_cell_angle_beta   89.98678992
_cell_angle_gamma   102.45799826
_symmetry_Int_Tables_number   1
_chemical_formula_structural   Ac6ZnSn9
_chemical_formula_sum   'Ac6 Zn1 Sn9'
_cell_volume   504.19308804
_cell_formula_units_Z   1
loop_
 _symmetry_equiv_pos_site_id
 _symmetry_equiv_pos_as_xyz
  1  'x, y, z'
loop_
 _atom_site_type_symbol
 _atom_site_label
 _atom_site_symmetry_multiplicity
 _atom_site_fract_x
 _atom_site_fract_y
 _atom_site_fract_z
 _atom_site_occupancy
  Ac  Ac0  1  0.800550  0.206679  0.999792  1
  Ac  Ac1  1  0.206679  0.800550  0.999792  1
  Ac  Ac2  1  0.203503  0.795408  0.499098  1
  Ac  Ac3  1  0.795408  0.203503  0.499098  1
  Ac  Ac4  1  0.631773  0.631773  0.249231  1
  Ac  Ac5  1  0.366146  0.366146  0.756728  1
  Zn  Zn6  1  0.305816  0.305816  0.050817  1
  Sn  Sn7  1  0.082825  0.485598  0.245270  1
  Sn  Sn8  1  0.922929  0.512576  0.750654  1
  Sn  Sn9  1  0.485598  0.082824  0.245270  1
  Sn  Sn10  1  0.512576  0.922929  0.750654  1
  Sn  Sn11  1  0.033623  0.033623  0.248509  1
  Sn  Sn12  1  0.969594  0.969594  0.750419  1
  Sn  Sn13  1  0.685237  0.685237  0.951802  1
  Sn  Sn14  1  0.686131  0.686131  0.551808  1
  Sn  Sn15  1  0.311612  0.311612  0.451055  1
