# generated using pymatgen
data_Tb2Tm10Os3Rh
_symmetry_space_group_name_H-M   'P 1'
_cell_length_a   7.31280242
_cell_length_b   8.95956200
_cell_length_c   6.28955216
_cell_angle_alpha   90.00000000
_cell_angle_beta   89.88130926
_cell_angle_gamma   90.00000000
_symmetry_Int_Tables_number   1
_chemical_formula_structural   Tb2Tm10Os3Rh
_chemical_formula_sum   'Tb2 Tm10 Os3 Rh1'
_cell_volume   412.08747084
_cell_formula_units_Z   1
loop_
 _symmetry_equiv_pos_site_id
 _symmetry_equiv_pos_as_xyz
  1  'x, y, z'
loop_
 _atom_site_type_symbol
 _atom_site_label
 _atom_site_symmetry_multiplicity
 _atom_site_fract_x
 _atom_site_fract_y
 _atom_site_fract_z
 _atom_site_occupancy
  Tb  Tb0  1  0.038935  0.250000  0.628304  1
  Tb  Tb1  1  0.538721  0.250000  0.870372  1
  Tm  Tm2  1  0.961820  0.750000  0.372707  1
  Tm  Tm3  1  0.462319  0.750000  0.130105  1
  Tm  Tm4  1  0.172061  0.059751  0.165608  1
  Tm  Tm5  1  0.824265  0.935902  0.830762  1
  Tm  Tm6  1  0.323128  0.932435  0.672331  1
  Tm  Tm7  1  0.824265  0.564098  0.830762  1
  Tm  Tm8  1  0.678359  0.060536  0.331876  1
  Tm  Tm9  1  0.172061  0.440249  0.165608  1
  Tm  Tm10  1  0.678359  0.439464  0.331876  1
  Tm  Tm11  1  0.323128  0.567565  0.672331  1
  Os  Os12  1  0.616282  0.750000  0.537165  1
  Os  Os13  1  0.117049  0.750000  0.964603  1
  Os  Os14  1  0.883827  0.250000  0.041925  1
  Rh  Rh15  1  0.385420  0.250000  0.453666  1
