# generated using pymatgen
data_Tb2Dy3V3(Co4P3)4
_symmetry_space_group_name_H-M   'P 1'
_cell_length_a   12.05008300
_cell_length_b   12.05008225
_cell_length_c   3.67025700
_cell_angle_alpha   90.00000000
_cell_angle_beta   90.00000000
_cell_angle_gamma   119.99999381
_symmetry_Int_Tables_number   1
_chemical_formula_structural   Tb2Dy3V3(Co4P3)4
_chemical_formula_sum   'Tb2 Dy3 V3 Co16 P12'
_cell_volume   461.53770280
_cell_formula_units_Z   1
loop_
 _symmetry_equiv_pos_site_id
 _symmetry_equiv_pos_as_xyz
  1  'x, y, z'
loop_
 _atom_site_type_symbol
 _atom_site_label
 _atom_site_symmetry_multiplicity
 _atom_site_fract_x
 _atom_site_fract_y
 _atom_site_fract_z
 _atom_site_occupancy
  Tb  Tb0  1  0.666667  0.333333  0.000000  1
  Tb  Tb1  1  0.333333  0.666667  0.000000  1
  Dy  Dy2  1  0.186366  0.186366  0.500000  1
  Dy  Dy3  1  0.813634  0.000000  0.500000  1
  Dy  Dy4  1  0.000000  0.813634  0.500000  1
  V  V5  1  0.557022  0.557022  0.000000  1
  V  V6  1  0.442978  0.000000  0.000000  1
  V  V7  1  0.000000  0.442978  0.000000  1
  Co  Co8  1  0.823176  0.199927  0.000000  1
  Co  Co9  1  0.800073  0.623249  0.000000  1
  Co  Co10  1  0.376751  0.176824  0.000000  1
  Co  Co11  1  0.199927  0.823176  0.000000  1
  Co  Co12  1  0.623249  0.800073  0.000000  1
  Co  Co13  1  0.176824  0.376751  0.000000  1
  Co  Co14  1  0.644413  0.125715  0.500000  1
  Co  Co15  1  0.874285  0.518697  0.500000  1
  Co  Co16  1  0.481303  0.355587  0.500000  1
  Co  Co17  1  0.125715  0.644413  0.500000  1
  Co  Co18  1  0.518697  0.874285  0.500000  1
  Co  Co19  1  0.355587  0.481303  0.500000  1
  Co  Co20  1  0.717935  0.717935  0.500000  1
  Co  Co21  1  0.282065  0.000000  0.500000  1
  Co  Co22  1  0.000000  0.282065  0.500000  1
  Co  Co23  1  0.000000  0.000000  0.000000  1
  P  P24  1  0.363629  0.363629  0.000000  1
  P  P25  1  0.636371  0.000000  0.000000  1
  P  P26  1  0.000000  0.636371  0.000000  1
  P  P27  1  0.835973  0.315905  0.500000  1
  P  P28  1  0.684095  0.520068  0.500000  1
  P  P29  1  0.479932  0.164027  0.500000  1
  P  P30  1  0.315905  0.835973  0.500000  1
  P  P31  1  0.520068  0.684095  0.500000  1
  P  P32  1  0.164027  0.479932  0.500000  1
  P  P33  1  0.820326  0.820326  0.000000  1
  P  P34  1  0.179674  0.000000  0.000000  1
  P  P35  1  0.000000  0.179674  0.000000  1
