# generated using pymatgen
data_TbLu5(Sc2Pb3)2
_symmetry_space_group_name_H-M   'P 1'
_cell_length_a   8.78542600
_cell_length_b   8.80812119
_cell_length_c   6.31581900
_cell_angle_alpha   90.00000000
_cell_angle_beta   90.00000000
_cell_angle_gamma   119.91480261
_symmetry_Int_Tables_number   1
_chemical_formula_structural   TbLu5(Sc2Pb3)2
_chemical_formula_sum   'Tb1 Lu5 Sc4 Pb6'
_cell_volume   423.62210874
_cell_formula_units_Z   1
loop_
 _symmetry_equiv_pos_site_id
 _symmetry_equiv_pos_as_xyz
  1  'x, y, z'
loop_
 _atom_site_type_symbol
 _atom_site_label
 _atom_site_symmetry_multiplicity
 _atom_site_fract_x
 _atom_site_fract_y
 _atom_site_fract_z
 _atom_site_occupancy
  Tb  Tb0  1  0.235978  0.000000  0.250000  1
  Lu  Lu1  1  0.236050  0.236674  0.750000  1
  Lu  Lu2  1  0.999376  0.763326  0.750000  1
  Lu  Lu3  1  0.999793  0.236331  0.250000  1
  Lu  Lu4  1  0.763462  0.763669  0.250000  1
  Lu  Lu5  1  0.764708  0.000000  0.750000  1
  Sc  Sc6  1  0.333550  0.666873  0.999957  1
  Sc  Sc7  1  0.666678  0.333127  0.500043  1
  Sc  Sc8  1  0.666678  0.333127  0.999957  1
  Sc  Sc9  1  0.333550  0.666873  0.500043  1
  Pb  Pb10  1  0.602917  0.000000  0.250000  1
  Pb  Pb11  1  0.601951  0.601972  0.750000  1
  Pb  Pb12  1  0.999979  0.398028  0.750000  1
  Pb  Pb13  1  0.998548  0.599908  0.250000  1
  Pb  Pb14  1  0.398640  0.400092  0.250000  1
  Pb  Pb15  1  0.398143  0.000000  0.750000  1
