# generated using pymatgen
data_TaMoF10
_symmetry_space_group_name_H-M   'P 1'
_cell_length_a   5.81357813
_cell_length_b   7.64781145
_cell_length_c   10.08741349
_cell_angle_alpha   88.19853509
_cell_angle_beta   105.94131238
_cell_angle_gamma   98.93061999
_symmetry_Int_Tables_number   1
_chemical_formula_structural   TaMoF10
_chemical_formula_sum   'Ta2 Mo2 F20'
_cell_volume   425.99270065
_cell_formula_units_Z   2
loop_
 _symmetry_equiv_pos_site_id
 _symmetry_equiv_pos_as_xyz
  1  'x, y, z'
loop_
 _atom_site_type_symbol
 _atom_site_label
 _atom_site_symmetry_multiplicity
 _atom_site_fract_x
 _atom_site_fract_y
 _atom_site_fract_z
 _atom_site_occupancy
  Ta  Ta0  1  0.342912  0.390517  0.224068  1
  Ta  Ta1  1  0.657088  0.609483  0.775932  1
  Mo  Mo2  1  0.965055  0.766224  0.315356  1
  Mo  Mo3  1  0.034945  0.233776  0.684644  1
  F  F4  1  0.036713  0.255931  0.172082  1
  F  F5  1  0.963287  0.744069  0.827918  1
  F  F6  1  0.494675  0.228105  0.160245  1
  F  F7  1  0.505325  0.771895  0.839755  1
  F  F8  1  0.114532  0.235898  0.876327  1
  F  F9  1  0.885468  0.764102  0.123673  1
  F  F10  1  0.966330  0.300174  0.500993  1
  F  F11  1  0.033670  0.699826  0.499007  1
  F  F12  1  0.769129  0.052715  0.661976  1
  F  F13  1  0.230871  0.947285  0.338024  1
  F  F14  1  0.241904  0.074609  0.669611  1
  F  F15  1  0.758096  0.925391  0.330389  1
  F  F16  1  0.326508  0.440230  0.712158  1
  F  F17  1  0.673492  0.559770  0.287842  1
  F  F18  1  0.810563  0.416535  0.701142  1
  F  F19  1  0.189437  0.583465  0.298858  1
  F  F20  1  0.696256  0.458269  0.929637  1
  F  F21  1  0.303744  0.541731  0.070363  1
  F  F22  1  0.573885  0.672182  0.588394  1
  F  F23  1  0.426115  0.327818  0.411606  1
