# generated using pymatgen
data_Pu4CrB16Ru3
_symmetry_space_group_name_H-M   'P 1'
_cell_length_a   5.97814684
_cell_length_b   11.58095363
_cell_length_c   3.51406300
_cell_angle_alpha   90.00000000
_cell_angle_beta   90.00000000
_cell_angle_gamma   90.06073556
_symmetry_Int_Tables_number   1
_chemical_formula_structural   Pu4CrB16Ru3
_chemical_formula_sum   'Pu4 Cr1 B16 Ru3'
_cell_volume   243.28772658
_cell_formula_units_Z   1
loop_
 _symmetry_equiv_pos_site_id
 _symmetry_equiv_pos_as_xyz
  1  'x, y, z'
loop_
 _atom_site_type_symbol
 _atom_site_label
 _atom_site_symmetry_multiplicity
 _atom_site_fract_x
 _atom_site_fract_y
 _atom_site_fract_z
 _atom_site_occupancy
  Pu  Pu0  1  0.627127  0.348287  0.000000  1
  Pu  Pu1  1  0.372816  0.650160  0.000000  1
  Pu  Pu2  1  0.125186  0.149464  0.000000  1
  Pu  Pu3  1  0.873161  0.850618  0.000000  1
  Cr  Cr4  1  0.634895  0.089828  0.000000  1
  B  B5  1  0.784288  0.185333  0.500000  1
  B  B6  1  0.214768  0.814675  0.500000  1
  B  B7  1  0.286103  0.312457  0.500000  1
  B  B8  1  0.713608  0.686835  0.500000  1
  B  B9  1  0.862895  0.032622  0.500000  1
  B  B10  1  0.135345  0.969124  0.500000  1
  B  B11  1  0.364822  0.467779  0.500000  1
  B  B12  1  0.634978  0.530990  0.500000  1
  B  B13  1  0.886120  0.452453  0.500000  1
  B  B14  1  0.113744  0.546666  0.500000  1
  B  B15  1  0.387413  0.047304  0.500000  1
  B  B16  1  0.614464  0.954776  0.500000  1
  B  B17  1  0.972974  0.307151  0.500000  1
  B  B18  1  0.027114  0.692315  0.500000  1
  B  B19  1  0.475481  0.190678  0.500000  1
  B  B20  1  0.526443  0.809247  0.500000  1
  Ru  Ru21  1  0.366848  0.911256  0.000000  1
  Ru  Ru22  1  0.136837  0.408420  0.000000  1
  Ru  Ru23  1  0.862570  0.591564  0.000000  1
