# generated using pymatgen
data_Tb5Dy(Tm2Pb3)2
_symmetry_space_group_name_H-M   'P 1'
_cell_length_a   6.60587900
_cell_length_b   9.04559467
_cell_length_c   9.04902303
_cell_angle_alpha   120.00691849
_cell_angle_beta   89.99992731
_cell_angle_gamma   90.00009173
_symmetry_Int_Tables_number   1
_chemical_formula_structural   Tb5Dy(Tm2Pb3)2
_chemical_formula_sum   'Tb5 Dy1 Tm4 Pb6'
_cell_volume   468.24137024
_cell_formula_units_Z   1
loop_
 _symmetry_equiv_pos_site_id
 _symmetry_equiv_pos_as_xyz
  1  'x, y, z'
loop_
 _atom_site_type_symbol
 _atom_site_label
 _atom_site_symmetry_multiplicity
 _atom_site_fract_x
 _atom_site_fract_y
 _atom_site_fract_z
 _atom_site_occupancy
  Tb  Tb0  1  0.750003  0.238429  0.999918  1
  Tb  Tb1  1  0.749997  0.761510  0.761469  1
  Tb  Tb2  1  0.749997  0.999960  0.238626  1
  Tb  Tb3  1  0.250003  0.761528  0.999962  1
  Tb  Tb4  1  0.249999  0.238537  0.238456  1
  Dy  Dy5  1  0.249998  0.000043  0.761440  1
  Tm  Tm6  1  0.499982  0.333316  0.666724  1
  Tm  Tm7  1  0.499982  0.666646  0.333326  1
  Tm  Tm8  1  0.000018  0.666684  0.333325  1
  Tm  Tm9  1  0.000018  0.333355  0.666726  1
  Pb  Pb10  1  0.749995  0.604719  0.999994  1
  Pb  Pb11  1  0.750004  0.395234  0.395193  1
  Pb  Pb12  1  0.750004  0.000027  0.604781  1
  Pb  Pb13  1  0.249995  0.395013  0.999830  1
  Pb  Pb14  1  0.250003  0.605025  0.604882  1
  Pb  Pb15  1  0.250006  0.999975  0.395349  1
