# generated using pymatgen
data_Th(FeRe2)4
_symmetry_space_group_name_H-M   'P 1'
_cell_length_a   6.80014570
_cell_length_b   6.80014485
_cell_length_c   6.80014587
_cell_angle_alpha   97.15633240
_cell_angle_beta   97.15632691
_cell_angle_gamma   138.66372848
_symmetry_Int_Tables_number   1
_chemical_formula_structural   Th(FeRe2)4
_chemical_formula_sum   'Th1 Fe4 Re8'
_cell_volume   194.32171842
_cell_formula_units_Z   1
loop_
 _symmetry_equiv_pos_site_id
 _symmetry_equiv_pos_as_xyz
  1  'x, y, z'
loop_
 _atom_site_type_symbol
 _atom_site_label
 _atom_site_symmetry_multiplicity
 _atom_site_fract_x
 _atom_site_fract_y
 _atom_site_fract_z
 _atom_site_occupancy
  Th  Th0  1  0.000000  0.000000  0.000000  1
  Fe  Fe1  1  0.500000  0.500000  0.500000  1
  Fe  Fe2  1  0.000000  0.500000  0.000000  1
  Fe  Fe3  1  0.500000  0.000000  0.000000  1
  Fe  Fe4  1  0.000000  0.000000  0.500000  1
  Re  Re5  1  0.280845  0.500000  0.780845  1
  Re  Re6  1  0.500000  0.280845  0.780845  1
  Re  Re7  1  0.500000  0.719155  0.219155  1
  Re  Re8  1  0.719155  0.500000  0.219155  1
  Re  Re9  1  0.357578  0.000000  0.357578  1
  Re  Re10  1  0.642422  0.000000  0.642422  1
  Re  Re11  1  0.000000  0.642422  0.642422  1
  Re  Re12  1  0.000000  0.357578  0.357578  1
