# generated using pymatgen
data_Ca3Yb2Bi2Pb
_symmetry_space_group_name_H-M   'P 1'
_cell_length_a   9.33192300
_cell_length_b   9.38242228
_cell_length_c   7.01044500
_cell_angle_alpha   90.00000000
_cell_angle_beta   90.00000000
_cell_angle_gamma   119.82210963
_symmetry_Int_Tables_number   1
_chemical_formula_structural   Ca3Yb2Bi2Pb
_chemical_formula_sum   'Ca6 Yb4 Bi4 Pb2'
_cell_volume   532.52259968
_cell_formula_units_Z   2
loop_
 _symmetry_equiv_pos_site_id
 _symmetry_equiv_pos_as_xyz
  1  'x, y, z'
loop_
 _atom_site_type_symbol
 _atom_site_label
 _atom_site_symmetry_multiplicity
 _atom_site_fract_x
 _atom_site_fract_y
 _atom_site_fract_z
 _atom_site_occupancy
  Ca  Ca0  1  0.004279  0.735169  0.750000  1
  Ca  Ca1  1  0.730889  0.735169  0.250000  1
  Ca  Ca2  1  0.269111  0.264831  0.750000  1
  Ca  Ca3  1  0.732851  0.000000  0.750000  1
  Ca  Ca4  1  0.267149  0.000000  0.250000  1
  Ca  Ca5  1  0.995721  0.264831  0.250000  1
  Yb  Yb6  1  0.334471  0.668944  0.500000  1
  Yb  Yb7  1  0.665529  0.331056  0.500000  1
  Yb  Yb8  1  0.334471  0.668944  0.000000  1
  Yb  Yb9  1  0.665529  0.331056  0.000000  1
  Bi  Bi10  1  0.379451  0.381575  0.250000  1
  Bi  Bi11  1  0.002123  0.381575  0.750000  1
  Bi  Bi12  1  0.620549  0.618425  0.750000  1
  Bi  Bi13  1  0.997877  0.618425  0.250000  1
  Pb  Pb14  1  0.612937  0.000000  0.250000  1
  Pb  Pb15  1  0.387063  0.000000  0.750000  1
