# generated using pymatgen
data_VNi3Bi4(TeO6)4
_symmetry_space_group_name_H-M   'P 1'
_cell_length_a   5.24028936
_cell_length_b   9.10339902
_cell_length_c   10.04368461
_cell_angle_alpha   89.99876247
_cell_angle_beta   90.11184841
_cell_angle_gamma   90.00188448
_symmetry_Int_Tables_number   1
_chemical_formula_structural   VNi3Bi4(TeO6)4
_chemical_formula_sum   'V1 Ni3 Bi4 Te4 O24'
_cell_volume   479.12748688
_cell_formula_units_Z   1
loop_
 _symmetry_equiv_pos_site_id
 _symmetry_equiv_pos_as_xyz
  1  'x, y, z'
loop_
 _atom_site_type_symbol
 _atom_site_label
 _atom_site_symmetry_multiplicity
 _atom_site_fract_x
 _atom_site_fract_y
 _atom_site_fract_z
 _atom_site_occupancy
  V  V0  1  0.500074  0.838386  0.749995  1
  Ni  Ni1  1  0.499846  0.165805  0.249989  1
  Ni  Ni2  1  0.000054  0.331613  0.749998  1
  Ni  Ni3  1  0.999938  0.667633  0.250017  1
  Bi  Bi4  1  0.008082  0.005814  0.483735  1
  Bi  Bi5  1  0.495194  0.494252  0.488383  1
  Bi  Bi6  1  0.991860  0.005809  0.016266  1
  Bi  Bi7  1  0.504777  0.494260  0.011615  1
  Te  Te8  1  0.500047  0.173355  0.749998  1
  Te  Te9  1  0.000054  0.662449  0.750003  1
  Te  Te10  1  0.999946  0.335192  0.249999  1
  Te  Te11  1  0.499963  0.831422  0.250003  1
  O  O12  1  0.614640  0.993769  0.643847  1
  O  O13  1  0.134381  0.509105  0.640405  1
  O  O14  1  0.674444  0.311385  0.636627  1
  O  O15  1  0.193959  0.812744  0.645962  1
  O  O16  1  0.193455  0.174037  0.643794  1
  O  O17  1  0.687830  0.696252  0.642506  1
  O  O18  1  0.167885  0.185594  0.141451  1
  O  O19  1  0.672796  0.684115  0.140449  1
  O  O20  1  0.138982  0.493195  0.141201  1
  O  O21  1  0.635564  0.992553  0.140288  1
  O  O22  1  0.691467  0.321702  0.139689  1
  O  O23  1  0.191738  0.822585  0.141412  1
  O  O24  1  0.860942  0.493195  0.358791  1
  O  O25  1  0.364341  0.992541  0.359704  1
  O  O26  1  0.832000  0.185582  0.358542  1
  O  O27  1  0.327116  0.684101  0.359555  1
  O  O28  1  0.308428  0.321704  0.360318  1
  O  O29  1  0.808171  0.822591  0.358599  1
  O  O30  1  0.325661  0.311370  0.863378  1
  O  O31  1  0.806173  0.812743  0.854035  1
  O  O32  1  0.385493  0.993758  0.856147  1
  O  O33  1  0.865737  0.509107  0.859609  1
  O  O34  1  0.806657  0.174033  0.856196  1
  O  O35  1  0.312303  0.696248  0.857492  1
