# generated using pymatgen
data_Zn5B3Ir5Rh2
_symmetry_space_group_name_H-M   'P 1'
_cell_length_a   11.21521186
_cell_length_b   2.86709600
_cell_length_c   11.89178923
_cell_angle_alpha   90.00000000
_cell_angle_beta   90.11722740
_cell_angle_gamma   90.00000000
_symmetry_Int_Tables_number   1
_chemical_formula_structural   Zn5B3Ir5Rh2
_chemical_formula_sum   'Zn10 B6 Ir10 Rh4'
_cell_volume   382.38074151
_cell_formula_units_Z   2
loop_
 _symmetry_equiv_pos_site_id
 _symmetry_equiv_pos_as_xyz
  1  'x, y, z'
loop_
 _atom_site_type_symbol
 _atom_site_label
 _atom_site_symmetry_multiplicity
 _atom_site_fract_x
 _atom_site_fract_y
 _atom_site_fract_z
 _atom_site_occupancy
  Zn  Zn0  1  0.549147  0.500001  0.134512  1
  Zn  Zn1  1  0.950598  0.500001  0.134385  1
  Zn  Zn2  1  0.250120  0.500001  0.189998  1
  Zn  Zn3  1  0.631970  0.500001  0.346637  1
  Zn  Zn4  1  0.867869  0.500001  0.346765  1
  Zn  Zn5  1  0.131091  0.500001  0.653338  1
  Zn  Zn6  1  0.368068  0.500001  0.653428  1
  Zn  Zn7  1  0.751641  0.500001  0.810623  1
  Zn  Zn8  1  0.047289  0.500001  0.864647  1
  Zn  Zn9  1  0.451038  0.500001  0.864531  1
  B  B10  1  0.750349  0.500001  0.039694  1
  B  B11  1  0.117343  0.500001  0.407429  1
  B  B12  1  0.382607  0.500001  0.407286  1
  B  B13  1  0.617680  0.500001  0.593243  1
  B  B14  1  0.882838  0.500001  0.592544  1
  B  B15  1  0.249980  0.500001  0.961612  1
  Ir  Ir16  1  0.125206  0.000000  0.037817  1
  Ir  Ir17  1  0.374854  0.000000  0.037414  1
  Ir  Ir18  1  0.749710  0.000000  0.179772  1
  Ir  Ir19  1  0.079530  0.000000  0.277813  1
  Ir  Ir20  1  0.420692  0.000000  0.278104  1
  Ir  Ir21  1  0.249985  0.000000  0.475483  1
  Ir  Ir22  1  0.999718  0.000000  0.499863  1
  Ir  Ir23  1  0.500524  0.000000  0.499792  1
  Ir  Ir24  1  0.750551  0.000000  0.526671  1
  Ir  Ir25  1  0.579213  0.000000  0.722112  1
  Rh  Rh26  1  0.922070  0.000000  0.720689  1
  Rh  Rh27  1  0.248399  0.000000  0.819546  1
  Rh  Rh28  1  0.625979  0.000000  0.961976  1
  Rh  Rh29  1  0.873943  0.000000  0.962271  1
