# generated using pymatgen
data_Dy5Ho2IrI12
_symmetry_space_group_name_H-M   'P 1'
_cell_length_a   9.80564810
_cell_length_b   9.80504225
_cell_length_c   9.81090500
_cell_angle_alpha   106.90288698
_cell_angle_beta   106.88337531
_cell_angle_gamma   106.91332470
_symmetry_Int_Tables_number   1
_chemical_formula_structural   Dy5Ho2IrI12
_chemical_formula_sum   'Dy5 Ho2 Ir1 I12'
_cell_volume   787.69813173
_cell_formula_units_Z   1
loop_
 _symmetry_equiv_pos_site_id
 _symmetry_equiv_pos_as_xyz
  1  'x, y, z'
loop_
 _atom_site_type_symbol
 _atom_site_label
 _atom_site_symmetry_multiplicity
 _atom_site_fract_x
 _atom_site_fract_y
 _atom_site_fract_z
 _atom_site_occupancy
  Dy  Dy0  1  0.295249  0.094134  0.022457  1
  Dy  Dy1  1  0.022378  0.295290  0.094140  1
  Dy  Dy2  1  0.905883  0.977746  0.704698  1
  Dy  Dy3  1  0.704876  0.905904  0.977797  1
  Dy  Dy4  1  0.977716  0.704811  0.906056  1
  Ho  Ho5  1  0.093755  0.022188  0.294816  1
  Ho  Ho6  1  0.499940  0.499931  0.500024  1
  Ir  Ir7  1  0.000155  0.000054  0.000389  1
  I  I8  1  0.069516  0.675335  0.224002  1
  I  I9  1  0.224074  0.069443  0.674848  1
  I  I10  1  0.675255  0.224064  0.069535  1
  I  I11  1  0.930572  0.324837  0.776022  1
  I  I12  1  0.776113  0.930616  0.324674  1
  I  I13  1  0.324789  0.775985  0.930540  1
  I  I14  1  0.463419  0.162830  0.386946  1
  I  I15  1  0.387131  0.463535  0.163160  1
  I  I16  1  0.162839  0.386971  0.463441  1
  I  I17  1  0.536372  0.836972  0.613026  1
  I  I18  1  0.612922  0.536475  0.836927  1
  I  I19  1  0.837045  0.612875  0.536502  1
