# generated using pymatgen
data_Pr2Ga3Cu2Ge
_symmetry_space_group_name_H-M   'P 1'
_cell_length_a   9.01361833
_cell_length_b   9.01361826
_cell_length_c   4.22427800
_cell_angle_alpha   90.00000000
_cell_angle_beta   90.00000000
_cell_angle_gamma   152.26189405
_symmetry_Int_Tables_number   1
_chemical_formula_structural   Pr2Ga3Cu2Ge
_chemical_formula_sum   'Pr2 Ga3 Cu2 Ge1'
_cell_volume   159.73715019
_cell_formula_units_Z   1
loop_
 _symmetry_equiv_pos_site_id
 _symmetry_equiv_pos_as_xyz
  1  'x, y, z'
loop_
 _atom_site_type_symbol
 _atom_site_label
 _atom_site_symmetry_multiplicity
 _atom_site_fract_x
 _atom_site_fract_y
 _atom_site_fract_z
 _atom_site_occupancy
  Pr  Pr0  1  0.894233  0.105767  0.750000  1
  Pr  Pr1  1  0.105685  0.894315  0.250000  1
  Ga  Ga2  1  0.248675  0.751325  0.750000  1
  Ga  Ga3  1  0.751046  0.248954  0.250000  1
  Ga  Ga4  1  0.539434  0.460566  0.750000  1
  Cu  Cu5  1  0.675887  0.324113  0.750000  1
  Cu  Cu6  1  0.324258  0.675742  0.250000  1
  Ge  Ge7  1  0.460782  0.539218  0.250000  1
