# generated using pymatgen
data_CuTcO4
_symmetry_space_group_name_H-M   'P 1'
_cell_length_a   7.08179235
_cell_length_b   8.47969913
_cell_length_c   9.94882490
_cell_angle_alpha   99.78685631
_cell_angle_beta   105.63595418
_cell_angle_gamma   102.53161579
_symmetry_Int_Tables_number   1
_chemical_formula_structural   CuTcO4
_chemical_formula_sum   'Cu6 Tc6 O24'
_cell_volume   544.78715508
_cell_formula_units_Z   6
loop_
 _symmetry_equiv_pos_site_id
 _symmetry_equiv_pos_as_xyz
  1  'x, y, z'
loop_
 _atom_site_type_symbol
 _atom_site_label
 _atom_site_symmetry_multiplicity
 _atom_site_fract_x
 _atom_site_fract_y
 _atom_site_fract_z
 _atom_site_occupancy
  Cu  Cu0  1  0.971749  0.779149  0.030088  1
  Cu  Cu1  1  0.470039  0.383600  0.221670  1
  Cu  Cu2  1  0.758392  0.187224  0.413440  1
  Cu  Cu3  1  0.241608  0.812776  0.586560  1
  Cu  Cu4  1  0.529961  0.616400  0.778330  1
  Cu  Cu5  1  0.028251  0.220851  0.969912  1
  Tc  Tc6  1  0.519367  0.781069  0.125154  1
  Tc  Tc7  1  0.998871  0.478531  0.258619  1
  Tc  Tc8  1  0.205412  0.091733  0.346010  1
  Tc  Tc9  1  0.794588  0.908267  0.653990  1
  Tc  Tc10  1  0.001129  0.521469  0.741381  1
  Tc  Tc11  1  0.480633  0.218931  0.874846  1
  O  O12  1  0.265647  0.776874  0.040444  1
  O  O13  1  0.934366  0.616376  0.153055  1
  O  O14  1  0.359511  0.239118  0.009995  1
  O  O15  1  0.521445  0.612592  0.207864  1
  O  O16  1  0.643979  0.971137  0.253213  1
  O  O17  1  0.053677  0.993604  0.166278  1
  O  O18  1  0.769289  0.356784  0.272454  1
  O  O19  1  0.131795  0.354946  0.175338  1
  O  O20  1  0.438873  0.228128  0.349461  1
  O  O21  1  0.265953  0.937947  0.433576  1
  O  O22  1  0.934799  0.802698  0.568752  1
  O  O23  1  0.161009  0.593003  0.428995  1
  O  O24  1  0.838991  0.406997  0.571005  1
  O  O25  1  0.065201  0.197302  0.431248  1
  O  O26  1  0.734047  0.062053  0.566424  1
  O  O27  1  0.561127  0.771872  0.650539  1
  O  O28  1  0.868205  0.645054  0.824662  1
  O  O29  1  0.230711  0.643216  0.727546  1
  O  O30  1  0.946323  0.006396  0.833722  1
  O  O31  1  0.356021  0.028863  0.746787  1
  O  O32  1  0.478555  0.387408  0.792136  1
  O  O33  1  0.640489  0.760882  0.990005  1
  O  O34  1  0.065634  0.383624  0.846945  1
  O  O35  1  0.734353  0.223126  0.959556  1
