# generated using pymatgen
data_Y3Er3Tm14(Cd3Ni)2
_symmetry_space_group_name_H-M   'P 1'
_cell_length_a   9.51539100
_cell_length_b   9.51539046
_cell_length_c   9.60957300
_cell_angle_alpha   90.00000000
_cell_angle_beta   90.00000000
_cell_angle_gamma   119.99999840
_symmetry_Int_Tables_number   1
_chemical_formula_structural   Y3Er3Tm14(Cd3Ni)2
_chemical_formula_sum   'Y3 Er3 Tm14 Cd6 Ni2'
_cell_volume   753.50819831
_cell_formula_units_Z   1
loop_
 _symmetry_equiv_pos_site_id
 _symmetry_equiv_pos_as_xyz
  1  'x, y, z'
loop_
 _atom_site_type_symbol
 _atom_site_label
 _atom_site_symmetry_multiplicity
 _atom_site_fract_x
 _atom_site_fract_y
 _atom_site_fract_z
 _atom_site_occupancy
  Y  Y0  1  0.457426  0.542574  0.750000  1
  Y  Y1  1  0.457426  0.914852  0.750000  1
  Y  Y2  1  0.085148  0.542574  0.750000  1
  Er  Er3  1  0.543329  0.456671  0.250000  1
  Er  Er4  1  0.543329  0.086659  0.250000  1
  Er  Er5  1  0.913341  0.456671  0.250000  1
  Tm  Tm6  1  0.000000  0.000000  0.500156  1
  Tm  Tm7  1  0.000000  0.000000  0.999844  1
  Tm  Tm8  1  0.210713  0.789287  0.436467  1
  Tm  Tm9  1  0.210713  0.421428  0.436467  1
  Tm  Tm10  1  0.578572  0.789287  0.436467  1
  Tm  Tm11  1  0.788929  0.211071  0.561170  1
  Tm  Tm12  1  0.788929  0.577856  0.561170  1
  Tm  Tm13  1  0.422144  0.211071  0.561170  1
  Tm  Tm14  1  0.788929  0.211071  0.938830  1
  Tm  Tm15  1  0.788929  0.577856  0.938830  1
  Tm  Tm16  1  0.422144  0.211071  0.938830  1
  Tm  Tm17  1  0.210713  0.789287  0.063533  1
  Tm  Tm18  1  0.210713  0.421428  0.063533  1
  Tm  Tm19  1  0.578572  0.789287  0.063533  1
  Cd  Cd20  1  0.884462  0.115538  0.250000  1
  Cd  Cd21  1  0.884462  0.768924  0.250000  1
  Cd  Cd22  1  0.231076  0.115538  0.250000  1
  Cd  Cd23  1  0.114219  0.885781  0.750000  1
  Cd  Cd24  1  0.114219  0.228436  0.750000  1
  Cd  Cd25  1  0.771564  0.885781  0.750000  1
  Ni  Ni26  1  0.333333  0.666667  0.250000  1
  Ni  Ni27  1  0.666667  0.333333  0.750000  1
