# generated using pymatgen
data_Hf5GaPb3
_symmetry_space_group_name_H-M   'P 1'
_cell_length_a   8.81099300
_cell_length_b   8.81098575
_cell_length_c   5.87862400
_cell_angle_alpha   89.99992847
_cell_angle_beta   90.00006503
_cell_angle_gamma   119.99999342
_symmetry_Int_Tables_number   1
_chemical_formula_structural   Hf5GaPb3
_chemical_formula_sum   'Hf10 Ga2 Pb6'
_cell_volume   395.23527532
_cell_formula_units_Z   2
loop_
 _symmetry_equiv_pos_site_id
 _symmetry_equiv_pos_as_xyz
  1  'x, y, z'
loop_
 _atom_site_type_symbol
 _atom_site_label
 _atom_site_symmetry_multiplicity
 _atom_site_fract_x
 _atom_site_fract_y
 _atom_site_fract_z
 _atom_site_occupancy
  Hf  Hf0  1  0.666667  0.333333  0.000000  1
  Hf  Hf1  1  0.333333  0.666667  0.000000  1
  Hf  Hf2  1  0.736956  0.736956  0.749334  1
  Hf  Hf3  1  0.263044  0.000000  0.749334  1
  Hf  Hf4  1  0.000000  0.263044  0.749334  1
  Hf  Hf5  1  0.263044  0.263044  0.250666  1
  Hf  Hf6  1  0.736956  0.000000  0.250666  1
  Hf  Hf7  1  0.000000  0.736956  0.250666  1
  Hf  Hf8  1  0.333333  0.666667  0.499999  1
  Hf  Hf9  1  0.666667  0.333333  0.500001  1
  Ga  Ga10  1  0.000000  0.000000  0.000000  1
  Ga  Ga11  1  0.000000  0.000000  0.500000  1
  Pb  Pb12  1  0.388639  0.388639  0.750624  1
  Pb  Pb13  1  0.611361  0.000000  0.750624  1
  Pb  Pb14  1  0.000000  0.611361  0.750624  1
  Pb  Pb15  1  0.611361  0.611361  0.249376  1
  Pb  Pb16  1  0.388639  0.000000  0.249376  1
  Pb  Pb17  1  0.000000  0.388639  0.249376  1
