# generated using pymatgen
data_BaScMn7O16
_symmetry_space_group_name_H-M   'P 1'
_cell_length_a   5.95511933
_cell_length_b   7.19407122
_cell_length_c   7.30108615
_cell_angle_alpha   88.56561629
_cell_angle_beta   78.94682892
_cell_angle_gamma   77.75348636
_symmetry_Int_Tables_number   1
_chemical_formula_structural   BaScMn7O16
_chemical_formula_sum   'Ba1 Sc1 Mn7 O16'
_cell_volume   299.96184899
_cell_formula_units_Z   1
loop_
 _symmetry_equiv_pos_site_id
 _symmetry_equiv_pos_as_xyz
  1  'x, y, z'
loop_
 _atom_site_type_symbol
 _atom_site_label
 _atom_site_symmetry_multiplicity
 _atom_site_fract_x
 _atom_site_fract_y
 _atom_site_fract_z
 _atom_site_occupancy
  Ba  Ba0  1  0.004018  0.997725  0.002075  1
  Sc  Sc1  1  0.575332  0.516251  0.187661  1
  Mn  Mn2  1  0.080752  0.504442  0.178461  1
  Mn  Mn3  1  0.172077  0.817833  0.519993  1
  Mn  Mn4  1  0.672796  0.820897  0.525506  1
  Mn  Mn5  1  0.336140  0.183084  0.479719  1
  Mn  Mn6  1  0.838555  0.184046  0.485891  1
  Mn  Mn7  1  0.431380  0.484280  0.813597  1
  Mn  Mn8  1  0.928343  0.491394  0.816667  1
  O  O9  1  0.848569  0.646316  0.044377  1
  O  O10  1  0.308156  0.641074  0.047680  1
  O  O11  1  0.982636  0.708597  0.379121  1
  O  O12  1  0.480254  0.714222  0.397033  1
  O  O13  1  0.859583  0.957526  0.645388  1
  O  O14  1  0.351540  0.961638  0.646620  1
  O  O15  1  0.326500  0.362754  0.288975  1
  O  O16  1  0.856191  0.356478  0.286589  1
  O  O17  1  0.167621  0.631093  0.712330  1
  O  O18  1  0.678567  0.633733  0.709072  1
  O  O19  1  0.149274  0.040142  0.361787  1
  O  O20  1  0.654585  0.047950  0.360404  1
  O  O21  1  0.028822  0.291894  0.621541  1
  O  O22  1  0.526295  0.301208  0.605866  1
  O  O23  1  0.159310  0.348249  0.953169  1
  O  O24  1  0.689799  0.357173  0.930476  1
