# generated using pymatgen
data_Lu4TlRh
_symmetry_space_group_name_H-M   'P 1'
_cell_length_a   9.48145088
_cell_length_b   9.48145205
_cell_length_c   9.48145100
_cell_angle_alpha   60.00000017
_cell_angle_beta   59.99999608
_cell_angle_gamma   59.99999544
_symmetry_Int_Tables_number   1
_chemical_formula_structural   Lu4TlRh
_chemical_formula_sum   'Lu16 Tl4 Rh4'
_cell_volume   602.71143635
_cell_formula_units_Z   4
loop_
 _symmetry_equiv_pos_site_id
 _symmetry_equiv_pos_as_xyz
  1  'x, y, z'
loop_
 _atom_site_type_symbol
 _atom_site_label
 _atom_site_symmetry_multiplicity
 _atom_site_fract_x
 _atom_site_fract_y
 _atom_site_fract_z
 _atom_site_occupancy
  Lu  Lu0  1  0.599878  0.599878  0.599878  1
  Lu  Lu1  1  0.599878  0.599878  0.200367  1
  Lu  Lu2  1  0.599878  0.200367  0.599878  1
  Lu  Lu3  1  0.200367  0.599878  0.599878  1
  Lu  Lu4  1  0.062384  0.437616  0.437616  1
  Lu  Lu5  1  0.437616  0.062384  0.062384  1
  Lu  Lu6  1  0.437616  0.062384  0.437616  1
  Lu  Lu7  1  0.062384  0.437616  0.062384  1
  Lu  Lu8  1  0.437616  0.437616  0.062384  1
  Lu  Lu9  1  0.062384  0.062384  0.437616  1
  Lu  Lu10  1  0.189186  0.810814  0.810814  1
  Lu  Lu11  1  0.810814  0.189186  0.189186  1
  Lu  Lu12  1  0.810814  0.189186  0.810814  1
  Lu  Lu13  1  0.189186  0.810814  0.189186  1
  Lu  Lu14  1  0.810814  0.810814  0.189186  1
  Lu  Lu15  1  0.189186  0.189186  0.810814  1
  Tl  Tl16  1  0.836632  0.836632  0.836632  1
  Tl  Tl17  1  0.836632  0.836632  0.490104  1
  Tl  Tl18  1  0.836632  0.490104  0.836632  1
  Tl  Tl19  1  0.490104  0.836632  0.836632  1
  Rh  Rh20  1  0.393215  0.393215  0.393215  1
  Rh  Rh21  1  0.393215  0.393215  0.820356  1
  Rh  Rh22  1  0.393215  0.820356  0.393215  1
  Rh  Rh23  1  0.820356  0.393215  0.393215  1
