# generated using pymatgen
data_Th2Al8Fe9
_symmetry_space_group_name_H-M   'P 1'
_cell_length_a   6.60392437
_cell_length_b   6.60392381
_cell_length_c   6.60392415
_cell_angle_alpha   83.87964897
_cell_angle_beta   96.12034443
_cell_angle_gamma   96.12036179
_symmetry_Int_Tables_number   1
_chemical_formula_structural   Th2Al8Fe9
_chemical_formula_sum   'Th2 Al8 Fe9'
_cell_volume   283.41064429
_cell_formula_units_Z   1
loop_
 _symmetry_equiv_pos_site_id
 _symmetry_equiv_pos_as_xyz
  1  'x, y, z'
loop_
 _atom_site_type_symbol
 _atom_site_label
 _atom_site_symmetry_multiplicity
 _atom_site_fract_x
 _atom_site_fract_y
 _atom_site_fract_z
 _atom_site_occupancy
  Th  Th0  1  0.638559  0.361442  0.361441  1
  Th  Th1  1  0.361441  0.638559  0.638559  1
  Al  Al2  1  0.306701  0.306701  0.000000  1
  Al  Al3  1  0.693299  0.693299  0.000000  1
  Al  Al4  1  0.883728  0.116272  0.116272  1
  Al  Al5  1  0.306700  0.000000  0.306700  1
  Al  Al6  1  0.000000  0.693300  0.306701  1
  Al  Al7  1  0.693300  0.000000  0.693299  1
  Al  Al8  1  0.000000  0.306701  0.693300  1
  Al  Al9  1  0.116272  0.883728  0.883727  1
  Fe  Fe10  1  0.499999  0.000000  0.000000  1
  Fe  Fe11  1  0.000000  0.499999  0.000000  1
  Fe  Fe12  1  0.337203  0.662798  0.159576  1
  Fe  Fe13  1  0.159576  0.337201  0.337202  1
  Fe  Fe14  1  0.662798  0.840424  0.337202  1
  Fe  Fe15  1  0.000000  0.000000  0.499999  1
  Fe  Fe16  1  0.337202  0.159575  0.662798  1
  Fe  Fe17  1  0.840425  0.662797  0.662798  1
  Fe  Fe18  1  0.662799  0.337202  0.840425  1
