# generated using pymatgen
data_Ca2ZnGaNi4
_symmetry_space_group_name_H-M   'P 1'
_cell_length_a   5.23264500
_cell_length_b   5.23264432
_cell_length_c   15.89862100
_cell_angle_alpha   90.00000000
_cell_angle_beta   90.00000000
_cell_angle_gamma   119.99999799
_symmetry_Int_Tables_number   1
_chemical_formula_structural   Ca2ZnGaNi4
_chemical_formula_sum   'Ca6 Zn3 Ga3 Ni12'
_cell_volume   376.99239028
_cell_formula_units_Z   3
loop_
 _symmetry_equiv_pos_site_id
 _symmetry_equiv_pos_as_xyz
  1  'x, y, z'
loop_
 _atom_site_type_symbol
 _atom_site_label
 _atom_site_symmetry_multiplicity
 _atom_site_fract_x
 _atom_site_fract_y
 _atom_site_fract_z
 _atom_site_occupancy
  Ca  Ca0  1  0.333333  0.666667  0.542746  1
  Ca  Ca1  1  0.666667  0.333333  0.457416  1
  Ca  Ca2  1  0.666667  0.333333  0.042584  1
  Ca  Ca3  1  0.333333  0.666667  0.957254  1
  Ca  Ca4  1  0.333333  0.666667  0.750000  1
  Ca  Ca5  1  0.666667  0.333333  0.250000  1
  Zn  Zn6  1  0.000000  0.000000  0.250000  1
  Zn  Zn7  1  0.000000  0.000000  0.750000  1
  Zn  Zn8  1  0.333333  0.666667  0.250000  1
  Ga  Ga9  1  0.666667  0.333333  0.750000  1
  Ga  Ga10  1  0.000000  0.000000  0.999495  1
  Ga  Ga11  1  0.000000  0.000000  0.500505  1
  Ni  Ni12  1  0.169414  0.338826  0.125621  1
  Ni  Ni13  1  0.831178  0.662357  0.873262  1
  Ni  Ni14  1  0.661174  0.830586  0.125621  1
  Ni  Ni15  1  0.831178  0.662357  0.626738  1
  Ni  Ni16  1  0.337643  0.168822  0.873262  1
  Ni  Ni17  1  0.169414  0.338826  0.374379  1
  Ni  Ni18  1  0.169414  0.830586  0.125621  1
  Ni  Ni19  1  0.337643  0.168822  0.626738  1
  Ni  Ni20  1  0.831178  0.168822  0.873262  1
  Ni  Ni21  1  0.661174  0.830586  0.374379  1
  Ni  Ni22  1  0.831178  0.168822  0.626738  1
  Ni  Ni23  1  0.169414  0.830586  0.374379  1
