# generated using pymatgen
data_Sc8Nb11Si16Ru
_symmetry_space_group_name_H-M   'P 1'
_cell_length_a   6.65665062
_cell_length_b   6.91145778
_cell_length_c   13.10834900
_cell_angle_alpha   90.00000000
_cell_angle_beta   90.00000000
_cell_angle_gamma   90.14849824
_symmetry_Int_Tables_number   1
_chemical_formula_structural   Sc8Nb11Si16Ru
_chemical_formula_sum   'Sc8 Nb11 Si16 Ru1'
_cell_volume   603.07587979
_cell_formula_units_Z   1
loop_
 _symmetry_equiv_pos_site_id
 _symmetry_equiv_pos_as_xyz
  1  'x, y, z'
loop_
 _atom_site_type_symbol
 _atom_site_label
 _atom_site_symmetry_multiplicity
 _atom_site_fract_x
 _atom_site_fract_y
 _atom_site_fract_z
 _atom_site_occupancy
  Sc  Sc0  1  0.496411  0.675377  0.593506  1
  Sc  Sc1  1  0.000953  0.827192  0.906568  1
  Sc  Sc2  1  0.499952  0.326278  0.094941  1
  Sc  Sc3  1  0.999354  0.174009  0.404370  1
  Sc  Sc4  1  0.499952  0.326278  0.405059  1
  Sc  Sc5  1  0.999354  0.174009  0.095630  1
  Sc  Sc6  1  0.496411  0.675377  0.906494  1
  Sc  Sc7  1  0.000953  0.827192  0.593432  1
  Nb  Nb8  1  0.665632  0.169867  0.626599  1
  Nb  Nb9  1  0.164359  0.326516  0.873157  1
  Nb  Nb10  1  0.336676  0.825746  0.124505  1
  Nb  Nb11  1  0.837245  0.672724  0.376901  1
  Nb  Nb12  1  0.336676  0.825746  0.375495  1
  Nb  Nb13  1  0.837245  0.672724  0.123099  1
  Nb  Nb14  1  0.665632  0.169867  0.873401  1
  Nb  Nb15  1  0.164359  0.326516  0.626843  1
  Nb  Nb16  1  0.337475  0.002038  0.750000  1
  Nb  Nb17  1  0.163867  0.506350  0.250000  1
  Nb  Nb18  1  0.662984  0.994746  0.250000  1
  Si  Si19  1  0.669979  0.966721  0.460378  1
  Si  Si20  1  0.169536  0.533129  0.038180  1
  Si  Si21  1  0.331499  0.034067  0.960220  1
  Si  Si22  1  0.830457  0.465739  0.543495  1
  Si  Si23  1  0.331499  0.034067  0.539780  1
  Si  Si24  1  0.830457  0.465739  0.956505  1
  Si  Si25  1  0.669979  0.966721  0.039622  1
  Si  Si26  1  0.169536  0.533129  0.461820  1
  Si  Si27  1  0.470992  0.391365  0.750000  1
  Si  Si28  1  0.959662  0.109858  0.750000  1
  Si  Si29  1  0.541086  0.613987  0.250000  1
  Si  Si30  1  0.038821  0.887190  0.250000  1
  Si  Si31  1  0.706446  0.853261  0.750000  1
  Si  Si32  1  0.194049  0.635321  0.750000  1
  Si  Si33  1  0.294989  0.138159  0.250000  1
  Si  Si34  1  0.794791  0.362728  0.250000  1
  Ru  Ru35  1  0.830731  0.510269  0.750000  1
