# generated using pymatgen
data_Ho12Co3Si8Ni
_symmetry_space_group_name_H-M   'P 1'
_cell_length_a   4.09752800
_cell_length_b   11.07040259
_cell_length_c   11.29222818
_cell_angle_alpha   90.10629994
_cell_angle_beta   90.00000000
_cell_angle_gamma   90.00000000
_symmetry_Int_Tables_number   1
_chemical_formula_structural   Ho12Co3Si8Ni
_chemical_formula_sum   'Ho12 Co3 Si8 Ni1'
_cell_volume   512.22909436
_cell_formula_units_Z   1
loop_
 _symmetry_equiv_pos_site_id
 _symmetry_equiv_pos_as_xyz
  1  'x, y, z'
loop_
 _atom_site_type_symbol
 _atom_site_label
 _atom_site_symmetry_multiplicity
 _atom_site_fract_x
 _atom_site_fract_y
 _atom_site_fract_z
 _atom_site_occupancy
  Ho  Ho0  1  0.250000  0.059938  0.880793  1
  Ho  Ho1  1  0.250000  0.441386  0.382030  1
  Ho  Ho2  1  0.750000  0.941730  0.118686  1
  Ho  Ho3  1  0.750000  0.558780  0.619393  1
  Ho  Ho4  1  0.250000  0.124641  0.557088  1
  Ho  Ho5  1  0.250000  0.373415  0.057508  1
  Ho  Ho6  1  0.750000  0.874291  0.442226  1
  Ho  Ho7  1  0.750000  0.623007  0.944671  1
  Ho  Ho8  1  0.250000  0.802151  0.715175  1
  Ho  Ho9  1  0.250000  0.700904  0.218590  1
  Ho  Ho10  1  0.750000  0.200958  0.281739  1
  Ho  Ho11  1  0.750000  0.299813  0.782668  1
  Co  Co12  1  0.250000  0.363400  0.630882  1
  Co  Co13  1  0.250000  0.136301  0.129994  1
  Co  Co14  1  0.750000  0.634910  0.370033  1
  Si  Si15  1  0.250000  0.814878  0.975341  1
  Si  Si16  1  0.250000  0.684882  0.476013  1
  Si  Si17  1  0.750000  0.183593  0.023853  1
  Si  Si18  1  0.750000  0.315862  0.525185  1
  Si  Si19  1  0.250000  0.494839  0.802356  1
  Si  Si20  1  0.250000  0.005579  0.301889  1
  Si  Si21  1  0.750000  0.505785  0.197659  1
  Si  Si22  1  0.750000  0.995529  0.696230  1
  Ni  Ni23  1  0.750000  0.863427  0.869999  1
