# generated using pymatgen
data_Er4Hf3ZrPt4
_symmetry_space_group_name_H-M   'P 1'
_cell_length_a   4.65415800
_cell_length_b   7.05023152
_cell_length_c   8.20760804
_cell_angle_alpha   89.95129692
_cell_angle_beta   90.00000000
_cell_angle_gamma   90.00000000
_symmetry_Int_Tables_number   1
_chemical_formula_structural   Er4Hf3ZrPt4
_chemical_formula_sum   'Er4 Hf3 Zr1 Pt4'
_cell_volume   269.31525427
_cell_formula_units_Z   1
loop_
 _symmetry_equiv_pos_site_id
 _symmetry_equiv_pos_as_xyz
  1  'x, y, z'
loop_
 _atom_site_type_symbol
 _atom_site_label
 _atom_site_symmetry_multiplicity
 _atom_site_fract_x
 _atom_site_fract_y
 _atom_site_fract_z
 _atom_site_occupancy
  Er  Er0  1  0.750000  0.515458  0.825135  1
  Er  Er1  1  0.250000  0.483692  0.180151  1
  Er  Er2  1  0.750000  0.017273  0.676003  1
  Er  Er3  1  0.250000  0.981750  0.319789  1
  Hf  Hf4  1  0.750000  0.644271  0.423512  1
  Hf  Hf5  1  0.250000  0.353379  0.577731  1
  Hf  Hf6  1  0.750000  0.147053  0.077492  1
  Zr  Zr7  1  0.250000  0.853375  0.919756  1
  Pt  Pt8  1  0.750000  0.268040  0.403489  1
  Pt  Pt9  1  0.250000  0.730208  0.590070  1
  Pt  Pt10  1  0.750000  0.769922  0.101427  1
  Pt  Pt11  1  0.250000  0.235578  0.905443  1
