# generated using pymatgen
data_Ho5TmSc4(In2Rh)4
_symmetry_space_group_name_H-M   'P 1'
_cell_length_a   3.53420500
_cell_length_b   7.88024302
_cell_length_c   17.93774704
_cell_angle_alpha   90.00730779
_cell_angle_beta   90.00000000
_cell_angle_gamma   90.00000000
_symmetry_Int_Tables_number   1
_chemical_formula_structural   Ho5TmSc4(In2Rh)4
_chemical_formula_sum   'Ho5 Tm1 Sc4 In8 Rh4'
_cell_volume   499.57332319
_cell_formula_units_Z   1
loop_
 _symmetry_equiv_pos_site_id
 _symmetry_equiv_pos_as_xyz
  1  'x, y, z'
loop_
 _atom_site_type_symbol
 _atom_site_label
 _atom_site_symmetry_multiplicity
 _atom_site_fract_x
 _atom_site_fract_y
 _atom_site_fract_z
 _atom_site_occupancy
  Ho  Ho0  1  0.000000  0.999962  0.000101  1
  Ho  Ho1  1  0.000000  0.499925  0.499964  1
  Ho  Ho2  1  0.000000  0.748457  0.781649  1
  Ho  Ho3  1  0.000000  0.251646  0.218423  1
  Ho  Ho4  1  0.000000  0.248364  0.718370  1
  Tm  Tm5  1  0.000000  0.751815  0.281330  1
  Sc  Sc6  1  0.000000  0.878111  0.588535  1
  Sc  Sc7  1  0.000000  0.121606  0.411255  1
  Sc  Sc8  1  0.000000  0.378132  0.911468  1
  Sc  Sc9  1  0.000000  0.622160  0.088729  1
  In  In10  1  0.500000  0.808421  0.437619  1
  In  In11  1  0.500000  0.191190  0.561929  1
  In  In12  1  0.500000  0.309148  0.062091  1
  In  In13  1  0.500000  0.691091  0.938038  1
  In  In14  1  0.500000  0.925068  0.149796  1
  In  In15  1  0.500000  0.074508  0.850523  1
  In  In16  1  0.500000  0.426473  0.350417  1
  In  In17  1  0.500000  0.574247  0.649479  1
  Rh  Rh18  1  0.500000  0.963267  0.692576  1
  Rh  Rh19  1  0.500000  0.035025  0.307363  1
  Rh  Rh20  1  0.500000  0.463343  0.807469  1
  Rh  Rh21  1  0.500000  0.538042  0.192875  1
