# generated using pymatgen
data_SmGd7(SiO5)4
_symmetry_space_group_name_H-M   'P 1'
_cell_length_a   6.88176842
_cell_length_b   8.10357488
_cell_length_c   9.81717031
_cell_angle_alpha   90.30879746
_cell_angle_beta   110.53118057
_cell_angle_gamma   115.02158326
_symmetry_Int_Tables_number   1
_chemical_formula_structural   SmGd7(SiO5)4
_chemical_formula_sum   'Sm1 Gd7 Si4 O20'
_cell_volume   456.89425475
_cell_formula_units_Z   1
loop_
 _symmetry_equiv_pos_site_id
 _symmetry_equiv_pos_as_xyz
  1  'x, y, z'
loop_
 _atom_site_type_symbol
 _atom_site_label
 _atom_site_symmetry_multiplicity
 _atom_site_fract_x
 _atom_site_fract_y
 _atom_site_fract_z
 _atom_site_occupancy
  Sm  Sm0  1  0.325053  0.110876  0.035757  1
  Gd  Gd1  1  0.932883  0.450041  0.165541  1
  Gd  Gd2  1  0.814929  0.049840  0.334850  1
  Gd  Gd3  1  0.684536  0.392438  0.465941  1
  Gd  Gd4  1  0.316965  0.608591  0.534422  1
  Gd  Gd5  1  0.184186  0.949993  0.665529  1
  Gd  Gd6  1  0.071277  0.549295  0.834983  1
  Gd  Gd7  1  0.672429  0.891950  0.965517  1
  Si  Si8  1  0.463186  0.553989  0.192318  1
  Si  Si9  1  0.215889  0.946363  0.308548  1
  Si  Si10  1  0.781618  0.052916  0.691264  1
  Si  Si11  1  0.539118  0.446646  0.807607  1
  O  O12  1  0.197859  0.458735  0.062729  1
  O  O13  1  0.715954  0.138779  0.103412  1
  O  O14  1  0.050734  0.962740  0.145494  1
  O  O15  1  0.610315  0.765776  0.173953  1
  O  O16  1  0.590387  0.422610  0.182281  1
  O  O17  1  0.483512  0.081567  0.318553  1
  O  O18  1  0.175393  0.735243  0.325986  1
  O  O19  1  0.444624  0.535469  0.355146  1
  O  O20  1  0.974486  0.361982  0.397321  1
  O  O21  1  0.169994  0.037157  0.437413  1
  O  O22  1  0.827943  0.961674  0.562729  1
  O  O23  1  0.026700  0.637429  0.603174  1
  O  O24  1  0.555521  0.464984  0.644200  1
  O  O25  1  0.825379  0.264834  0.673883  1
  O  O26  1  0.512970  0.919119  0.679230  1
  O  O27  1  0.417283  0.581608  0.820127  1
  O  O28  1  0.385454  0.235311  0.824173  1
  O  O29  1  0.943397  0.035095  0.854788  1
  O  O30  1  0.285429  0.861434  0.896658  1
  O  O31  1  0.804604  0.535519  0.936475  1
