# generated using pymatgen
data_Dy5Y2Tm9(Ga3Co)2
_symmetry_space_group_name_H-M   'P 1'
_cell_length_a   9.91874917
_cell_length_b   9.91873599
_cell_length_c   6.92101200
_cell_angle_alpha   90.00135620
_cell_angle_beta   89.99859129
_cell_angle_gamma   119.97183286
_symmetry_Int_Tables_number   1
_chemical_formula_structural   Dy5Y2Tm9(Ga3Co)2
_chemical_formula_sum   'Dy5 Y2 Tm9 Ga6 Co2'
_cell_volume   589.84332390
_cell_formula_units_Z   1
loop_
 _symmetry_equiv_pos_site_id
 _symmetry_equiv_pos_as_xyz
  1  'x, y, z'
loop_
 _atom_site_type_symbol
 _atom_site_label
 _atom_site_symmetry_multiplicity
 _atom_site_fract_x
 _atom_site_fract_y
 _atom_site_fract_z
 _atom_site_occupancy
  Dy  Dy0  1  0.535820  0.464181  0.793419  1
  Dy  Dy1  1  0.463915  0.927420  0.293139  1
  Dy  Dy2  1  0.072580  0.536086  0.293139  1
  Dy  Dy3  1  0.927947  0.463980  0.793259  1
  Dy  Dy4  1  0.536020  0.072053  0.793258  1
  Y  Y5  1  0.999976  0.000026  0.269497  1
  Y  Y6  1  0.000079  0.999923  0.769529  1
  Tm  Tm7  1  0.173746  0.826256  0.988766  1
  Tm  Tm8  1  0.826304  0.173695  0.488732  1
  Tm  Tm9  1  0.174363  0.347970  0.989357  1
  Tm  Tm10  1  0.652031  0.825637  0.989357  1
  Tm  Tm11  1  0.347653  0.174412  0.488182  1
  Tm  Tm12  1  0.825588  0.652348  0.488182  1
  Tm  Tm13  1  0.333702  0.666296  0.674299  1
  Tm  Tm14  1  0.666349  0.333651  0.174659  1
  Tm  Tm15  1  0.463317  0.536681  0.293649  1
  Ga  Ga16  1  0.163480  0.836520  0.542570  1
  Ga  Ga17  1  0.836499  0.163502  0.042300  1
  Ga  Ga18  1  0.164053  0.327479  0.542028  1
  Ga  Ga19  1  0.672519  0.835946  0.542026  1
  Ga  Ga20  1  0.327054  0.163529  0.042728  1
  Ga  Ga21  1  0.836470  0.672946  0.042729  1
  Co  Co22  1  0.333892  0.666108  0.055965  1
  Co  Co23  1  0.666644  0.333356  0.555351  1
