# generated using pymatgen
data_Yb3HoGa18(CoPd2)2
_symmetry_space_group_name_H-M   'P 1'
_cell_length_a   7.57139566
_cell_length_b   7.56564316
_cell_length_c   9.44742000
_cell_angle_alpha   90.00000000
_cell_angle_beta   90.00000000
_cell_angle_gamma   119.61749170
_symmetry_Int_Tables_number   1
_chemical_formula_structural   Yb3HoGa18(CoPd2)2
_chemical_formula_sum   'Yb3 Ho1 Ga18 Co2 Pd4'
_cell_volume   470.46435726
_cell_formula_units_Z   1
loop_
 _symmetry_equiv_pos_site_id
 _symmetry_equiv_pos_as_xyz
  1  'x, y, z'
loop_
 _atom_site_type_symbol
 _atom_site_label
 _atom_site_symmetry_multiplicity
 _atom_site_fract_x
 _atom_site_fract_y
 _atom_site_fract_z
 _atom_site_occupancy
  Yb  Yb0  1  0.008935  0.682573  0.750000  1
  Yb  Yb1  1  0.667591  0.986613  0.750000  1
  Yb  Yb2  1  0.013152  0.333283  0.250000  1
  Ho  Ho3  1  0.316855  0.990308  0.250000  1
  Ga  Ga4  1  0.347883  0.014228  0.920183  1
  Ga  Ga5  1  0.985214  0.651107  0.079030  1
  Ga  Ga6  1  0.347883  0.014228  0.579817  1
  Ga  Ga7  1  0.985214  0.651107  0.420970  1
  Ga  Ga8  1  0.666138  0.018133  0.080122  1
  Ga  Ga9  1  0.981573  0.335159  0.920182  1
  Ga  Ga10  1  0.666138  0.018133  0.419878  1
  Ga  Ga11  1  0.981573  0.335159  0.579818  1
  Ga  Ga12  1  0.667122  0.657375  0.936068  1
  Ga  Ga13  1  0.341777  0.333627  0.064729  1
  Ga  Ga14  1  0.667122  0.657375  0.563932  1
  Ga  Ga15  1  0.341777  0.333627  0.435271  1
  Ga  Ga16  1  0.131506  0.135783  0.750000  1
  Ga  Ga17  1  0.864314  0.868616  0.250000  1
  Ga  Ga18  1  0.462884  0.664176  0.250000  1
  Ga  Ga19  1  0.336295  0.538016  0.750000  1
  Ga  Ga20  1  0.572369  0.339722  0.750000  1
  Ga  Ga21  1  0.661282  0.428243  0.250000  1
  Co  Co22  1  0.666736  0.331312  0.000818  1
  Co  Co23  1  0.666736  0.331312  0.499182  1
  Pd  Pd24  1  0.998674  0.001841  0.000545  1
  Pd  Pd25  1  0.998674  0.001841  0.499455  1
  Pd  Pd26  1  0.327295  0.673549  0.000692  1
  Pd  Pd27  1  0.327295  0.673549  0.499308  1
