# generated using pymatgen
data_CeNd3As4
_symmetry_space_group_name_H-M   'P 1'
_cell_length_a   8.47882003
_cell_length_b   4.23695300
_cell_length_c   6.00247300
_cell_angle_alpha   90.00000000
_cell_angle_beta   90.00468972
_cell_angle_gamma   90.00000000
_symmetry_Int_Tables_number   1
_chemical_formula_structural   CeNd3As4
_chemical_formula_sum   'Ce1 Nd3 As4'
_cell_volume   215.63501196
_cell_formula_units_Z   1
loop_
 _symmetry_equiv_pos_site_id
 _symmetry_equiv_pos_as_xyz
  1  'x, y, z'
loop_
 _atom_site_type_symbol
 _atom_site_label
 _atom_site_symmetry_multiplicity
 _atom_site_fract_x
 _atom_site_fract_y
 _atom_site_fract_z
 _atom_site_occupancy
  Ce  Ce0  1  0.624998  0.750001  0.750025  1
  Nd  Nd1  1  0.372848  0.249999  0.249996  1
  Nd  Nd2  1  0.877150  0.249999  0.249997  1
  Nd  Nd3  1  0.125004  0.750001  0.749984  1
  As  As4  1  0.124998  0.750001  0.249991  1
  As  As5  1  0.624998  0.750001  0.250022  1
  As  As6  1  0.381117  0.249999  0.749986  1
  As  As7  1  0.868891  0.249999  0.750003  1
