# generated using pymatgen
data_RbBa4Fe9NiP10
_symmetry_space_group_name_H-M   'P 1'
_cell_length_a   8.70971441
_cell_length_b   8.70606638
_cell_length_c   8.70749672
_cell_angle_alpha   121.48917872
_cell_angle_beta   121.50272595
_cell_angle_gamma   87.42178575
_symmetry_Int_Tables_number   1
_chemical_formula_structural   RbBa4Fe9NiP10
_chemical_formula_sum   'Rb1 Ba4 Fe9 Ni1 P10'
_cell_volume   455.84615952
_cell_formula_units_Z   1
loop_
 _symmetry_equiv_pos_site_id
 _symmetry_equiv_pos_as_xyz
  1  'x, y, z'
loop_
 _atom_site_type_symbol
 _atom_site_label
 _atom_site_symmetry_multiplicity
 _atom_site_fract_x
 _atom_site_fract_y
 _atom_site_fract_z
 _atom_site_occupancy
  Rb  Rb0  1  0.999969  0.999676  0.000025  1
  Ba  Ba1  1  0.392521  0.802444  0.195094  1
  Ba  Ba2  1  0.802552  0.607600  0.410121  1
  Ba  Ba3  1  0.197523  0.392630  0.590096  1
  Ba  Ba4  1  0.607604  0.197340  0.804830  1
  Fe  Fe5  1  0.351066  0.450513  0.300864  1
  Fe  Fe6  1  0.750158  0.249042  0.499118  1
  Fe  Fe7  1  0.150479  0.051564  0.701253  1
  Fe  Fe8  1  0.548516  0.849176  0.898695  1
  Fe  Fe9  1  0.652088  0.550102  0.702928  1
  Fe  Fe10  1  0.049999  0.352387  0.901550  1
  Fe  Fe11  1  0.450466  0.150714  0.100237  1
  Fe  Fe12  1  0.849982  0.947330  0.298067  1
  Fe  Fe13  1  0.247727  0.749579  0.497257  1
  Ni  Ni14  1  0.949543  0.649978  0.100047  1
  P  P15  1  0.937313  0.533379  0.791505  1
  P  P16  1  0.339012  0.339205  0.000639  1
  P  P17  1  0.737440  0.138376  0.199737  1
  P  P18  1  0.142940  0.945381  0.409135  1
  P  P19  1  0.537334  0.737807  0.599023  1
  P  P20  1  0.654085  0.662040  0.997131  1
  P  P21  1  0.065694  0.458660  0.203021  1
  P  P22  1  0.462958  0.262075  0.401100  1
  P  P23  1  0.861058  0.061504  0.598905  1
  P  P24  1  0.261973  0.861498  0.799623  1
