# generated using pymatgen
data_Sc5Cu(B2Rh5)2
_symmetry_space_group_name_H-M   'P 1'
_cell_length_a   9.40498900
_cell_length_b   9.40498900
_cell_length_c   3.09153300
_cell_angle_alpha   90.00000000
_cell_angle_beta   90.00000000
_cell_angle_gamma   90.00000000
_symmetry_Int_Tables_number   1
_chemical_formula_structural   Sc5Cu(B2Rh5)2
_chemical_formula_sum   'Sc5 Cu1 B4 Rh10'
_cell_volume   273.45789760
_cell_formula_units_Z   1
loop_
 _symmetry_equiv_pos_site_id
 _symmetry_equiv_pos_as_xyz
  1  'x, y, z'
loop_
 _atom_site_type_symbol
 _atom_site_label
 _atom_site_symmetry_multiplicity
 _atom_site_fract_x
 _atom_site_fract_y
 _atom_site_fract_z
 _atom_site_occupancy
  Sc  Sc0  1  0.827916  0.321928  0.000000  1
  Sc  Sc1  1  0.321928  0.172084  0.000000  1
  Sc  Sc2  1  0.678072  0.827916  0.000000  1
  Sc  Sc3  1  0.172084  0.678072  0.000000  1
  Sc  Sc4  1  0.500000  0.500000  0.000000  1
  Cu  Cu5  1  0.000000  0.000000  0.000000  1
  B  B6  1  0.631342  0.118269  0.000000  1
  B  B7  1  0.118269  0.368658  0.000000  1
  B  B8  1  0.881731  0.631342  0.000000  1
  B  B9  1  0.368658  0.881731  0.000000  1
  Rh  Rh10  1  0.067770  0.215006  0.500000  1
  Rh  Rh11  1  0.215006  0.932230  0.500000  1
  Rh  Rh12  1  0.784994  0.067770  0.500000  1
  Rh  Rh13  1  0.932230  0.784994  0.500000  1
  Rh  Rh14  1  0.425401  0.723225  0.500000  1
  Rh  Rh15  1  0.574599  0.276775  0.500000  1
  Rh  Rh16  1  0.723225  0.574599  0.500000  1
  Rh  Rh17  1  0.276775  0.425401  0.500000  1
  Rh  Rh18  1  0.500000  0.000000  0.500000  1
  Rh  Rh19  1  0.000000  0.500000  0.500000  1
