# generated using pymatgen
data_Nd3Mg3Cu2Ru
_symmetry_space_group_name_H-M   'P 1'
_cell_length_a   7.50370200
_cell_length_b   7.50370239
_cell_length_c   4.19759500
_cell_angle_alpha   90.00000000
_cell_angle_beta   90.00000000
_cell_angle_gamma   119.99999830
_symmetry_Int_Tables_number   1
_chemical_formula_structural   Nd3Mg3Cu2Ru
_chemical_formula_sum   'Nd3 Mg3 Cu2 Ru1'
_cell_volume   204.68327248
_cell_formula_units_Z   1
loop_
 _symmetry_equiv_pos_site_id
 _symmetry_equiv_pos_as_xyz
  1  'x, y, z'
loop_
 _atom_site_type_symbol
 _atom_site_label
 _atom_site_symmetry_multiplicity
 _atom_site_fract_x
 _atom_site_fract_y
 _atom_site_fract_z
 _atom_site_occupancy
  Nd  Nd0  1  0.578114  0.982560  0.000000  1
  Nd  Nd1  1  0.017440  0.595556  0.000000  1
  Nd  Nd2  1  0.404444  0.421886  0.000000  1
  Mg  Mg3  1  0.241965  0.000371  0.500000  1
  Mg  Mg4  1  0.999629  0.241593  0.500000  1
  Mg  Mg5  1  0.758407  0.758035  0.500000  1
  Cu  Cu6  1  0.666667  0.333333  0.500000  1
  Cu  Cu7  1  0.000000  0.000000  0.000000  1
  Ru  Ru8  1  0.333333  0.666667  0.500000  1
