# generated using pymatgen
data_Lu4PaFe2
_symmetry_space_group_name_H-M   'P 1'
_cell_length_a   6.07410986
_cell_length_b   6.91806965
_cell_length_c   8.29741800
_cell_angle_alpha   95.13198900
_cell_angle_beta   112.36663808
_cell_angle_gamma   93.32978541
_symmetry_Int_Tables_number   1
_chemical_formula_structural   Lu4PaFe2
_chemical_formula_sum   'Lu8 Pa2 Fe4'
_cell_volume   319.53292201
_cell_formula_units_Z   2
loop_
 _symmetry_equiv_pos_site_id
 _symmetry_equiv_pos_as_xyz
  1  'x, y, z'
loop_
 _atom_site_type_symbol
 _atom_site_label
 _atom_site_symmetry_multiplicity
 _atom_site_fract_x
 _atom_site_fract_y
 _atom_site_fract_z
 _atom_site_occupancy
  Lu  Lu0  1  0.709358  0.420479  0.191066  1
  Lu  Lu1  1  0.290642  0.579521  0.808934  1
  Lu  Lu2  1  0.285062  0.321340  0.430129  1
  Lu  Lu3  1  0.714938  0.678660  0.569871  1
  Lu  Lu4  1  0.849333  0.181902  0.568065  1
  Lu  Lu5  1  0.150667  0.818098  0.431935  1
  Lu  Lu6  1  0.075591  0.253649  0.008176  1
  Lu  Lu7  1  0.924409  0.746351  0.991824  1
  Pa  Pa8  1  0.504448  0.101470  0.813432  1
  Pa  Pa9  1  0.495552  0.898530  0.186568  1
  Fe  Fe10  1  0.343173  0.607685  0.221889  1
  Fe  Fe11  1  0.656827  0.392315  0.778111  1
  Fe  Fe12  1  0.165966  0.947184  0.799173  1
  Fe  Fe13  1  0.834034  0.052816  0.200827  1
