# generated using pymatgen
data_Ba4Ca4In3Sb
_symmetry_space_group_name_H-M   'P 1'
_cell_length_a   5.38246100
_cell_length_b   8.99715692
_cell_length_c   9.87886946
_cell_angle_alpha   89.36505885
_cell_angle_beta   90.00000000
_cell_angle_gamma   90.00000000
_symmetry_Int_Tables_number   1
_chemical_formula_structural   Ba4Ca4In3Sb
_chemical_formula_sum   'Ba4 Ca4 In3 Sb1'
_cell_volume   478.37311725
_cell_formula_units_Z   1
loop_
 _symmetry_equiv_pos_site_id
 _symmetry_equiv_pos_as_xyz
  1  'x, y, z'
loop_
 _atom_site_type_symbol
 _atom_site_label
 _atom_site_symmetry_multiplicity
 _atom_site_fract_x
 _atom_site_fract_y
 _atom_site_fract_z
 _atom_site_occupancy
  Ba  Ba0  1  0.250000  0.026853  0.175679  1
  Ba  Ba1  1  0.750000  0.977738  0.822016  1
  Ba  Ba2  1  0.250000  0.521438  0.322125  1
  Ba  Ba3  1  0.750000  0.471886  0.678568  1
  Ca  Ca4  1  0.750000  0.360245  0.067439  1
  Ca  Ca5  1  0.250000  0.642984  0.930226  1
  Ca  Ca6  1  0.750000  0.857713  0.433420  1
  Ca  Ca7  1  0.250000  0.140725  0.570279  1
  In  In8  1  0.750000  0.223195  0.387501  1
  In  In9  1  0.250000  0.275175  0.882779  1
  In  In10  1  0.750000  0.728302  0.117323  1
  Sb  Sb11  1  0.250000  0.773746  0.612645  1
