# generated using pymatgen
data_Tm12CdFe3Ag
_symmetry_space_group_name_H-M   'P 1'
_cell_length_a   8.18086735
_cell_length_b   8.18086744
_cell_length_c   8.18086739
_cell_angle_alpha   109.51874120
_cell_angle_beta   107.30653471
_cell_angle_gamma   111.61703503
_symmetry_Int_Tables_number   1
_chemical_formula_structural   Tm12CdFe3Ag
_chemical_formula_sum   'Tm12 Cd1 Fe3 Ag1'
_cell_volume   420.88313532
_cell_formula_units_Z   1
loop_
 _symmetry_equiv_pos_site_id
 _symmetry_equiv_pos_as_xyz
  1  'x, y, z'
loop_
 _atom_site_type_symbol
 _atom_site_label
 _atom_site_symmetry_multiplicity
 _atom_site_fract_x
 _atom_site_fract_y
 _atom_site_fract_z
 _atom_site_occupancy
  Tm  Tm0  1  0.191860  0.439283  0.247423  1
  Tm  Tm1  1  0.808140  0.560717  0.752577  1
  Tm  Tm2  1  0.191860  0.944437  0.752577  1
  Tm  Tm3  1  0.957352  0.188847  0.768504  1
  Tm  Tm4  1  0.808140  0.055563  0.247423  1
  Tm  Tm5  1  0.042648  0.811153  0.231496  1
  Tm  Tm6  1  0.420343  0.188847  0.231496  1
  Tm  Tm7  1  0.579657  0.811153  0.768504  1
  Tm  Tm8  1  0.309454  0.308864  0.618318  1
  Tm  Tm9  1  0.690546  0.691136  0.381682  1
  Tm  Tm10  1  0.690546  0.308864  0.999410  1
  Tm  Tm11  1  0.309454  0.691136  0.000590  1
  Cd  Cd12  1  0.500000  0.000000  0.500000  1
  Fe  Fe13  1  0.381863  0.381863  0.000000  1
  Fe  Fe14  1  0.618137  0.618137  0.000000  1
  Fe  Fe15  1  0.000000  0.000000  0.000000  1
  Ag  Ag16  1  0.000000  0.500000  0.500000  1
