# generated using pymatgen
data_Dy(YPt2)9
_symmetry_space_group_name_H-M   'P 1'
_cell_length_a   9.80954400
_cell_length_b   9.80954400
_cell_length_c   5.79275600
_cell_angle_alpha   90.00000000
_cell_angle_beta   90.00000000
_cell_angle_gamma   90.00239474
_symmetry_Int_Tables_number   1
_chemical_formula_structural   Dy(YPt2)9
_chemical_formula_sum   'Dy1 Y9 Pt18'
_cell_volume   557.42042049
_cell_formula_units_Z   1
loop_
 _symmetry_equiv_pos_site_id
 _symmetry_equiv_pos_as_xyz
  1  'x, y, z'
loop_
 _atom_site_type_symbol
 _atom_site_label
 _atom_site_symmetry_multiplicity
 _atom_site_fract_x
 _atom_site_fract_y
 _atom_site_fract_z
 _atom_site_occupancy
  Dy  Dy0  1  0.000000  0.000000  0.000000  1
  Y  Y1  1  0.452458  0.809021  0.000000  1
  Y  Y2  1  0.547542  0.190979  0.000000  1
  Y  Y3  1  0.190979  0.547542  0.000000  1
  Y  Y4  1  0.809021  0.452458  0.000000  1
  Y  Y5  1  0.500000  0.500000  0.500000  1
  Y  Y6  1  0.308996  0.047617  0.500000  1
  Y  Y7  1  0.691004  0.952383  0.500000  1
  Y  Y8  1  0.952383  0.691004  0.500000  1
  Y  Y9  1  0.047617  0.308996  0.500000  1
  Pt  Pt10  1  0.191613  0.808387  0.250940  1
  Pt  Pt11  1  0.808387  0.191613  0.749060  1
  Pt  Pt12  1  0.808387  0.191613  0.250940  1
  Pt  Pt13  1  0.191613  0.808387  0.749060  1
  Pt  Pt14  1  0.440102  0.781643  0.500000  1
  Pt  Pt15  1  0.559898  0.218357  0.500000  1
  Pt  Pt16  1  0.218357  0.559898  0.500000  1
  Pt  Pt17  1  0.781643  0.440102  0.500000  1
  Pt  Pt18  1  0.308290  0.308290  0.248920  1
  Pt  Pt19  1  0.691710  0.691710  0.751080  1
  Pt  Pt20  1  0.691710  0.691710  0.248920  1
  Pt  Pt21  1  0.308290  0.308290  0.751080  1
  Pt  Pt22  1  0.281198  0.059785  0.000000  1
  Pt  Pt23  1  0.718802  0.940215  0.000000  1
  Pt  Pt24  1  0.940215  0.718802  0.000000  1
  Pt  Pt25  1  0.059785  0.281198  0.000000  1
  Pt  Pt26  1  0.000000  0.000000  0.500000  1
  Pt  Pt27  1  0.500000  0.500000  0.000000  1
