# generated using pymatgen
data_TbLu2Th3Si4
_symmetry_space_group_name_H-M   'P 1'
_cell_length_a   7.54688911
_cell_length_b   7.54688911
_cell_length_c   4.26740500
_cell_angle_alpha   90.00000000
_cell_angle_beta   90.00000000
_cell_angle_gamma   90.32902138
_symmetry_Int_Tables_number   1
_chemical_formula_structural   TbLu2Th3Si4
_chemical_formula_sum   'Tb1 Lu2 Th3 Si4'
_cell_volume   243.04832828
_cell_formula_units_Z   1
loop_
 _symmetry_equiv_pos_site_id
 _symmetry_equiv_pos_as_xyz
  1  'x, y, z'
loop_
 _atom_site_type_symbol
 _atom_site_label
 _atom_site_symmetry_multiplicity
 _atom_site_fract_x
 _atom_site_fract_y
 _atom_site_fract_z
 _atom_site_occupancy
  Tb  Tb0  1  0.676254  0.176254  0.500000  1
  Lu  Lu1  1  0.501079  0.500440  0.000000  1
  Lu  Lu2  1  0.000440  0.001079  0.000000  1
  Th  Th3  1  0.323658  0.823658  0.500000  1
  Th  Th4  1  0.177713  0.321110  0.500000  1
  Th  Th5  1  0.821110  0.677713  0.500000  1
  Si  Si6  1  0.118731  0.618731  0.000000  1
  Si  Si7  1  0.879100  0.379100  0.000000  1
  Si  Si8  1  0.618801  0.883114  0.000000  1
  Si  Si9  1  0.383114  0.118801  0.000000  1
