# generated using pymatgen
data_Sc4Tc7Mo
_symmetry_space_group_name_H-M   'P 1'
_cell_length_a   5.28626800
_cell_length_b   5.26996709
_cell_length_c   8.57867900
_cell_angle_alpha   90.00000000
_cell_angle_beta   90.00000000
_cell_angle_gamma   120.10237411
_symmetry_Int_Tables_number   1
_chemical_formula_structural   Sc4Tc7Mo
_chemical_formula_sum   'Sc4 Tc7 Mo1'
_cell_volume   206.75650917
_cell_formula_units_Z   1
loop_
 _symmetry_equiv_pos_site_id
 _symmetry_equiv_pos_as_xyz
  1  'x, y, z'
loop_
 _atom_site_type_symbol
 _atom_site_label
 _atom_site_symmetry_multiplicity
 _atom_site_fract_x
 _atom_site_fract_y
 _atom_site_fract_z
 _atom_site_occupancy
  Sc  Sc0  1  0.333338  0.666678  0.436663  1
  Sc  Sc1  1  0.667265  0.334531  0.558604  1
  Sc  Sc2  1  0.667265  0.334531  0.941396  1
  Sc  Sc3  1  0.333338  0.666678  0.063337  1
  Tc  Tc4  1  0.174529  0.829995  0.750000  1
  Tc  Tc5  1  0.344989  0.171812  0.250000  1
  Tc  Tc6  1  0.828413  0.656827  0.250000  1
  Tc  Tc7  1  0.655466  0.829995  0.750000  1
  Tc  Tc8  1  0.999009  0.998017  0.001680  1
  Tc  Tc9  1  0.826821  0.171812  0.250000  1
  Tc  Tc10  1  0.999009  0.998017  0.498320  1
  Mo  Mo11  1  0.170555  0.341110  0.750000  1
