# generated using pymatgen
data_LaPrDy2(Mo2O7)2
_symmetry_space_group_name_H-M   'P 1'
_cell_length_a   7.46079749
_cell_length_b   7.50648842
_cell_length_c   7.46079756
_cell_angle_alpha   60.04757381
_cell_angle_beta   59.82513886
_cell_angle_gamma   60.04757259
_symmetry_Int_Tables_number   1
_chemical_formula_structural   LaPrDy2(Mo2O7)2
_chemical_formula_sum   'La1 Pr1 Dy2 Mo4 O14'
_cell_volume   295.27468009
_cell_formula_units_Z   1
loop_
 _symmetry_equiv_pos_site_id
 _symmetry_equiv_pos_as_xyz
  1  'x, y, z'
loop_
 _atom_site_type_symbol
 _atom_site_label
 _atom_site_symmetry_multiplicity
 _atom_site_fract_x
 _atom_site_fract_y
 _atom_site_fract_z
 _atom_site_occupancy
  La  La0  1  0.125000  0.625000  0.125000  1
  Pr  Pr1  1  0.125000  0.125000  0.125000  1
  Dy  Dy2  1  0.625000  0.125000  0.125000  1
  Dy  Dy3  1  0.125000  0.125000  0.625000  1
  Mo  Mo4  1  0.125000  0.625000  0.625000  1
  Mo  Mo5  1  0.625000  0.125000  0.625000  1
  Mo  Mo6  1  0.625000  0.625000  0.125000  1
  Mo  Mo7  1  0.625000  0.625000  0.625000  1
  O  O8  1  0.706396  0.713067  0.286318  1
  O  O9  1  0.291006  0.283564  0.701510  1
  O  O10  1  0.709031  0.297792  0.709031  1
  O  O11  1  0.291196  0.718797  0.291196  1
  O  O12  1  0.286318  0.713067  0.706396  1
  O  O13  1  0.701510  0.283564  0.291006  1
  O  O14  1  0.543604  0.536933  0.963682  1
  O  O15  1  0.958994  0.966436  0.548490  1
  O  O16  1  0.540969  0.952208  0.540969  1
  O  O17  1  0.958804  0.531203  0.958804  1
  O  O18  1  0.963682  0.536933  0.543604  1
  O  O19  1  0.548490  0.966436  0.958994  1
  O  O20  1  0.258461  0.243213  0.258461  1
  O  O21  1  0.991539  0.006787  0.991539  1
