# generated using pymatgen
data_Tm4NbSi8Tc5
_symmetry_space_group_name_H-M   'P 1'
_cell_length_a   6.82925302
_cell_length_b   6.66779544
_cell_length_c   6.82105009
_cell_angle_alpha   70.72344014
_cell_angle_beta   89.94180480
_cell_angle_gamma   89.93985422
_symmetry_Int_Tables_number   1
_chemical_formula_structural   Tm4NbSi8Tc5
_chemical_formula_sum   'Tm4 Nb1 Si8 Tc5'
_cell_volume   293.18986376
_cell_formula_units_Z   1
loop_
 _symmetry_equiv_pos_site_id
 _symmetry_equiv_pos_as_xyz
  1  'x, y, z'
loop_
 _atom_site_type_symbol
 _atom_site_label
 _atom_site_symmetry_multiplicity
 _atom_site_fract_x
 _atom_site_fract_y
 _atom_site_fract_z
 _atom_site_occupancy
  Tm  Tm0  1  0.329859  0.561323  0.805183  1
  Tm  Tm1  1  0.831626  0.941959  0.188314  1
  Tm  Tm2  1  0.668034  0.439179  0.191997  1
  Tm  Tm3  1  0.169869  0.060966  0.805679  1
  Nb  Nb4  1  0.660645  0.255360  0.756194  1
  Si  Si5  1  0.545874  0.867198  0.907120  1
  Si  Si6  1  0.047595  0.621465  0.102851  1
  Si  Si7  1  0.449954  0.122828  0.103062  1
  Si  Si8  1  0.960532  0.376817  0.906883  1
  Si  Si9  1  0.138723  0.866782  0.489332  1
  Si  Si10  1  0.636436  0.641647  0.506388  1
  Si  Si11  1  0.868311  0.126563  0.503847  1
  Si  Si12  1  0.357989  0.373715  0.486383  1
  Tc  Tc13  1  0.499109  0.001206  0.503275  1
  Tc  Tc14  1  0.998139  0.502118  0.499012  1
  Tc  Tc15  1  0.843037  0.753308  0.768705  1
  Tc  Tc16  1  0.340762  0.745900  0.233148  1
  Tc  Tc17  1  0.153509  0.241664  0.242627  1
