# generated using pymatgen
data_TmSc4Co19Si11P
_symmetry_space_group_name_H-M   'P 1'
_cell_length_a   11.99744002
_cell_length_b   12.03347898
_cell_length_c   3.64683200
_cell_angle_alpha   90.00000000
_cell_angle_beta   90.00000000
_cell_angle_gamma   120.11623932
_symmetry_Int_Tables_number   1
_chemical_formula_structural   TmSc4Co19Si11P
_chemical_formula_sum   'Tm1 Sc4 Co19 Si11 P1'
_cell_volume   455.42440144
_cell_formula_units_Z   1
loop_
 _symmetry_equiv_pos_site_id
 _symmetry_equiv_pos_as_xyz
  1  'x, y, z'
loop_
 _atom_site_type_symbol
 _atom_site_label
 _atom_site_symmetry_multiplicity
 _atom_site_fract_x
 _atom_site_fract_y
 _atom_site_fract_z
 _atom_site_occupancy
  Tm  Tm0  1  0.333008  0.666356  0.000000  1
  Sc  Sc1  1  0.667352  0.333512  0.000000  1
  Sc  Sc2  1  0.183119  0.184988  0.500000  1
  Sc  Sc3  1  0.815917  0.000060  0.500000  1
  Sc  Sc4  1  0.001167  0.815365  0.500000  1
  Co  Co5  1  0.822820  0.196409  0.000000  1
  Co  Co6  1  0.803051  0.622725  0.000000  1
  Co  Co7  1  0.376837  0.180080  0.000000  1
  Co  Co8  1  0.196429  0.822608  0.000000  1
  Co  Co9  1  0.626781  0.803883  0.000000  1
  Co  Co10  1  0.174174  0.370290  0.000000  1
  Co  Co11  1  0.556515  0.556786  0.000000  1
  Co  Co12  1  0.443708  0.000699  0.000000  1
  Co  Co13  1  0.999544  0.443258  0.000000  1
  Co  Co14  1  0.646263  0.124473  0.500000  1
  Co  Co15  1  0.875816  0.520571  0.500000  1
  Co  Co16  1  0.478277  0.354768  0.500000  1
  Co  Co17  1  0.123550  0.646009  0.500000  1
  Co  Co18  1  0.523230  0.876676  0.500000  1
  Co  Co19  1  0.352214  0.476443  0.500000  1
  Co  Co20  1  0.721282  0.718361  0.500000  1
  Co  Co21  1  0.281564  0.002480  0.500000  1
  Co  Co22  1  0.997487  0.275855  0.500000  1
  Co  Co23  1  0.999990  0.005822  0.000000  1
  Si  Si24  1  0.365395  0.365772  0.000000  1
  Si  Si25  1  0.634325  0.999998  0.000000  1
  Si  Si26  1  0.000122  0.634043  0.000000  1
  Si  Si27  1  0.836993  0.319244  0.500000  1
  Si  Si28  1  0.680892  0.517266  0.500000  1
  Si  Si29  1  0.483177  0.164270  0.500000  1
  Si  Si30  1  0.320050  0.841882  0.500000  1
  Si  Si31  1  0.521569  0.680016  0.500000  1
  Si  Si32  1  0.157408  0.477960  0.500000  1
  Si  Si33  1  0.822670  0.819926  0.000000  1
  Si  Si34  1  0.179376  0.001186  0.000000  1
  P  P35  1  0.997929  0.179957  0.000000  1
