# generated using pymatgen
data_Zr8In4CuPd4Pt3
_symmetry_space_group_name_H-M   'P 1'
_cell_length_a   7.54074089
_cell_length_b   7.53194499
_cell_length_c   6.89081145
_cell_angle_alpha   90.16606889
_cell_angle_beta   89.93198450
_cell_angle_gamma   89.58454603
_symmetry_Int_Tables_number   1
_chemical_formula_structural   Zr8In4CuPd4Pt3
_chemical_formula_sum   'Zr8 In4 Cu1 Pd4 Pt3'
_cell_volume   391.36137925
_cell_formula_units_Z   1
loop_
 _symmetry_equiv_pos_site_id
 _symmetry_equiv_pos_as_xyz
  1  'x, y, z'
loop_
 _atom_site_type_symbol
 _atom_site_label
 _atom_site_symmetry_multiplicity
 _atom_site_fract_x
 _atom_site_fract_y
 _atom_site_fract_z
 _atom_site_occupancy
  Zr  Zr0  1  0.654586  0.651933  0.501676  1
  Zr  Zr1  1  0.810314  0.187848  0.500654  1
  Zr  Zr2  1  0.686308  0.684646  0.000241  1
  Zr  Zr3  1  0.842248  0.152987  0.000686  1
  Zr  Zr4  1  0.186011  0.811948  0.502805  1
  Zr  Zr5  1  0.317853  0.315205  0.000797  1
  Zr  Zr6  1  0.150596  0.843524  0.994163  1
  Zr  Zr7  1  0.351471  0.348117  0.499014  1
  In  In8  1  0.001922  0.499841  0.251729  1
  In  In9  1  0.499317  0.005227  0.747956  1
  In  In10  1  0.498081  0.997850  0.251606  1
  In  In11  1  0.996386  0.495164  0.748080  1
  Cu  Cu12  1  0.628988  0.371671  0.793049  1
  Pd  Pd13  1  0.367270  0.633408  0.211837  1
  Pd  Pd14  1  0.128989  0.129729  0.279914  1
  Pd  Pd15  1  0.870362  0.871240  0.283928  1
  Pd  Pd16  1  0.131486  0.132213  0.716894  1
  Pt  Pt17  1  0.627600  0.373135  0.217528  1
  Pt  Pt18  1  0.378533  0.621613  0.776555  1
  Pt  Pt19  1  0.871679  0.872702  0.720888  1
