# generated using pymatgen
data_Th2Al3Cu2Si
_symmetry_space_group_name_H-M   'P 1'
_cell_length_a   9.12905749
_cell_length_b   9.12905716
_cell_length_c   4.17666700
_cell_angle_alpha   90.00000000
_cell_angle_beta   90.00000000
_cell_angle_gamma   153.56474067
_symmetry_Int_Tables_number   1
_chemical_formula_structural   Th2Al3Cu2Si
_chemical_formula_sum   'Th2 Al3 Cu2 Si1'
_cell_volume   154.96139550
_cell_formula_units_Z   1
loop_
 _symmetry_equiv_pos_site_id
 _symmetry_equiv_pos_as_xyz
  1  'x, y, z'
loop_
 _atom_site_type_symbol
 _atom_site_label
 _atom_site_symmetry_multiplicity
 _atom_site_fract_x
 _atom_site_fract_y
 _atom_site_fract_z
 _atom_site_occupancy
  Th  Th0  1  0.898052  0.101948  0.750000  1
  Th  Th1  1  0.101056  0.898944  0.250000  1
  Al  Al2  1  0.250478  0.749522  0.750000  1
  Al  Al3  1  0.750167  0.249833  0.250000  1
  Al  Al4  1  0.536803  0.463197  0.750000  1
  Cu  Cu5  1  0.672085  0.327915  0.750000  1
  Cu  Cu6  1  0.329396  0.670604  0.250000  1
  Si  Si7  1  0.461961  0.538039  0.250000  1
