# generated using pymatgen
data_Ho8Ti3Si16Tc9
_symmetry_space_group_name_H-M   'P 1'
_cell_length_a   6.78175731
_cell_length_b   6.78175731
_cell_length_c   12.91913048
_cell_angle_alpha   89.97416577
_cell_angle_beta   90.02583423
_cell_angle_gamma   89.60604884
_symmetry_Int_Tables_number   1
_chemical_formula_structural   Ho8Ti3Si16Tc9
_chemical_formula_sum   'Ho8 Ti3 Si16 Tc9'
_cell_volume   594.16548137
_cell_formula_units_Z   1
loop_
 _symmetry_equiv_pos_site_id
 _symmetry_equiv_pos_as_xyz
  1  'x, y, z'
loop_
 _atom_site_type_symbol
 _atom_site_label
 _atom_site_symmetry_multiplicity
 _atom_site_fract_x
 _atom_site_fract_y
 _atom_site_fract_z
 _atom_site_occupancy
  Ho  Ho0  1  0.337948  0.996284  0.469053  1
  Ho  Ho1  1  0.508143  0.833290  0.718090  1
  Ho  Ho2  1  0.488557  0.168627  0.216414  1
  Ho  Ho3  1  0.833290  0.508143  0.281910  1
  Ho  Ho4  1  0.168627  0.488557  0.783586  1
  Ho  Ho5  1  0.659644  0.005499  0.969577  1
  Ho  Ho6  1  0.996284  0.337948  0.530947  1
  Ho  Ho7  1  0.005499  0.659644  0.030423  1
  Ti  Ti8  1  0.156889  0.843861  0.248658  1
  Ti  Ti9  1  0.843861  0.156889  0.751342  1
  Ti  Ti10  1  0.659681  0.659681  0.500000  1
  Si  Si11  1  0.207588  0.120318  0.680608  1
  Si  Si12  1  0.387528  0.691430  0.932711  1
  Si  Si13  1  0.620956  0.298226  0.432354  1
  Si  Si14  1  0.691430  0.387528  0.067289  1
  Si  Si15  1  0.298226  0.620956  0.567646  1
  Si  Si16  1  0.791766  0.882128  0.181431  1
  Si  Si17  1  0.120318  0.207588  0.319392  1
  Si  Si18  1  0.882128  0.791766  0.818569  1
  Si  Si19  1  0.266028  0.986264  0.054240  1
  Si  Si20  1  0.520767  0.786017  0.309389  1
  Si  Si21  1  0.479083  0.216506  0.810442  1
  Si  Si22  1  0.786017  0.520767  0.690611  1
  Si  Si23  1  0.216506  0.479083  0.189558  1
  Si  Si24  1  0.726207  0.020470  0.556117  1
  Si  Si25  1  0.986264  0.266028  0.945760  1
  Si  Si26  1  0.020470  0.726207  0.443883  1
  Tc  Tc27  1  0.337056  0.337056  0.000000  1
  Tc  Tc28  1  0.181083  0.988602  0.863672  1
  Tc  Tc29  1  0.494305  0.692813  0.119584  1
  Tc  Tc30  1  0.503823  0.318282  0.619417  1
  Tc  Tc31  1  0.692813  0.494305  0.880416  1
  Tc  Tc32  1  0.318282  0.503823  0.380583  1
  Tc  Tc33  1  0.820466  0.003867  0.364023  1
  Tc  Tc34  1  0.988602  0.181083  0.136328  1
  Tc  Tc35  1  0.003867  0.820466  0.635977  1
