# generated using pymatgen
data_SmU3(Si5Pt3)2
_symmetry_space_group_name_H-M   'P 1'
_cell_length_a   8.18772455
_cell_length_b   8.18069592
_cell_length_c   8.18069627
_cell_angle_alpha   135.98749739
_cell_angle_beta   104.75850283
_cell_angle_gamma   91.47984625
_symmetry_Int_Tables_number   1
_chemical_formula_structural   SmU3(Si5Pt3)2
_chemical_formula_sum   'Sm1 U3 Si10 Pt6'
_cell_volume   349.89450385
_cell_formula_units_Z   1
loop_
 _symmetry_equiv_pos_site_id
 _symmetry_equiv_pos_as_xyz
  1  'x, y, z'
loop_
 _atom_site_type_symbol
 _atom_site_label
 _atom_site_symmetry_multiplicity
 _atom_site_fract_x
 _atom_site_fract_y
 _atom_site_fract_z
 _atom_site_occupancy
  Sm  Sm0  1  0.899295  0.128628  0.770667  1
  U  U1  1  0.637652  0.368287  0.269365  1
  U  U2  1  0.361597  0.630989  0.730608  1
  U  U3  1  0.100480  0.870594  0.229886  1
  Si  Si4  1  0.273808  0.525249  0.251992  1
  Si  Si5  1  0.727579  0.477947  0.749298  1
  Si  Si6  1  0.727579  0.978281  0.249632  1
  Si  Si7  1  0.273808  0.021816  0.748559  1
  Si  Si8  1  0.460852  0.111988  0.348864  1
  Si  Si9  1  0.535419  0.885200  0.650219  1
  Si  Si10  1  0.762557  0.612442  0.150115  1
  Si  Si11  1  0.238917  0.389926  0.848991  1
  Si  Si12  1  0.000147  0.251016  0.253304  1
  Si  Si13  1  0.000147  0.746843  0.749131  1
  Pt  Pt14  1  0.246426  0.137445  0.108981  1
  Pt  Pt15  1  0.752047  0.863211  0.888836  1
  Pt  Pt16  1  0.025794  0.637358  0.388437  1
  Pt  Pt17  1  0.972633  0.361388  0.611245  1
  Pt  Pt18  1  0.501630  0.250983  0.751222  1
  Pt  Pt19  1  0.501630  0.750408  0.250648  1
