# generated using pymatgen
data_YbPa7CuSe17
_symmetry_space_group_name_H-M   'P 1'
_cell_length_a   8.18459776
_cell_length_b   8.18067905
_cell_length_c   10.85226000
_cell_angle_alpha   80.25222387
_cell_angle_beta   79.61397530
_cell_angle_gamma   64.25735788
_symmetry_Int_Tables_number   1
_chemical_formula_structural   YbPa7CuSe17
_chemical_formula_sum   'Yb1 Pa7 Cu1 Se17'
_cell_volume   640.37594136
_cell_formula_units_Z   1
loop_
 _symmetry_equiv_pos_site_id
 _symmetry_equiv_pos_as_xyz
  1  'x, y, z'
loop_
 _atom_site_type_symbol
 _atom_site_label
 _atom_site_symmetry_multiplicity
 _atom_site_fract_x
 _atom_site_fract_y
 _atom_site_fract_z
 _atom_site_occupancy
  Yb  Yb0  1  0.814354  0.310491  0.295029  1
  Pa  Pa1  1  0.302199  0.820626  0.293970  1
  Pa  Pa2  1  0.178667  0.695426  0.702481  1
  Pa  Pa3  1  0.698815  0.179324  0.703692  1
  Pa  Pa4  1  0.802243  0.795847  0.454074  1
  Pa  Pa5  1  0.202733  0.197750  0.543539  1
  Pa  Pa6  1  0.312788  0.322433  0.017764  1
  Pa  Pa7  1  0.684442  0.680439  0.984942  1
  Cu  Cu8  1  0.995562  0.006712  0.003656  1
  Se  Se9  1  0.186933  0.559228  0.462210  1
  Se  Se10  1  0.568283  0.174409  0.469966  1
  Se  Se11  1  0.822196  0.433053  0.541732  1
  Se  Se12  1  0.437534  0.812598  0.535878  1
  Se  Se13  1  0.944454  0.329866  0.023034  1
  Se  Se14  1  0.328946  0.948028  0.027862  1
  Se  Se15  1  0.051008  0.679387  0.968918  1
  Se  Se16  1  0.671493  0.058838  0.968980  1
  Se  Se17  1  0.950820  0.936484  0.228530  1
  Se  Se18  1  0.059307  0.054760  0.775535  1
  Se  Se19  1  0.780629  0.783402  0.723053  1
  Se  Se20  1  0.226361  0.208685  0.278410  1
  Se  Se21  1  0.693750  0.713572  0.242213  1
  Se  Se22  1  0.299427  0.297670  0.755543  1
  Se  Se23  1  0.462946  0.491775  0.162194  1
  Se  Se24  1  0.518019  0.521798  0.829517  1
  Se  Se25  1  0.006091  0.987396  0.507279  1
