# generated using pymatgen
data_SrLaBiPbO7
_symmetry_space_group_name_H-M   'P 1'
_cell_length_a   7.88944253
_cell_length_b   7.88944380
_cell_length_c   7.82091900
_cell_angle_alpha   60.28690065
_cell_angle_beta   60.28689540
_cell_angle_gamma   60.19210261
_symmetry_Int_Tables_number   1
_chemical_formula_structural   SrLaBiPbO7
_chemical_formula_sum   'Sr2 La2 Bi2 Pb2 O14'
_cell_volume   346.20809958
_cell_formula_units_Z   2
loop_
 _symmetry_equiv_pos_site_id
 _symmetry_equiv_pos_as_xyz
  1  'x, y, z'
loop_
 _atom_site_type_symbol
 _atom_site_label
 _atom_site_symmetry_multiplicity
 _atom_site_fract_x
 _atom_site_fract_y
 _atom_site_fract_z
 _atom_site_occupancy
  Sr  Sr0  1  0.125000  0.125000  0.125000  1
  Sr  Sr1  1  0.125000  0.125000  0.625000  1
  La  La2  1  0.625000  0.125000  0.125000  1
  La  La3  1  0.125000  0.625000  0.125000  1
  Bi  Bi4  1  0.625000  0.125000  0.625000  1
  Bi  Bi5  1  0.125000  0.625000  0.625000  1
  Pb  Pb6  1  0.625000  0.625000  0.125000  1
  Pb  Pb7  1  0.625000  0.625000  0.625000  1
  O  O8  1  0.704975  0.288301  0.295660  1
  O  O9  1  0.711757  0.711757  0.288243  1
  O  O10  1  0.288301  0.704975  0.295660  1
  O  O11  1  0.986889  0.986889  0.013111  1
  O  O12  1  0.704975  0.288301  0.711064  1
  O  O13  1  0.961699  0.545025  0.538936  1
  O  O14  1  0.288301  0.704975  0.711064  1
  O  O15  1  0.545025  0.961699  0.538936  1
  O  O16  1  0.263111  0.263111  0.236889  1
  O  O17  1  0.961699  0.545025  0.954340  1
  O  O18  1  0.538243  0.538243  0.961757  1
  O  O19  1  0.954501  0.954501  0.545499  1
  O  O20  1  0.545025  0.961699  0.954340  1
  O  O21  1  0.295499  0.295499  0.704501  1
