# generated using pymatgen
data_Tb7DyCd2(SnAu4)2
_symmetry_space_group_name_H-M   'P 1'
_cell_length_a   8.03019738
_cell_length_b   8.03019738
_cell_length_c   7.39478605
_cell_angle_alpha   89.99056373
_cell_angle_beta   89.99056373
_cell_angle_gamma   89.96619379
_symmetry_Int_Tables_number   1
_chemical_formula_structural   Tb7DyCd2(SnAu4)2
_chemical_formula_sum   'Tb7 Dy1 Cd2 Sn2 Au8'
_cell_volume   476.84580468
_cell_formula_units_Z   1
loop_
 _symmetry_equiv_pos_site_id
 _symmetry_equiv_pos_as_xyz
  1  'x, y, z'
loop_
 _atom_site_type_symbol
 _atom_site_label
 _atom_site_symmetry_multiplicity
 _atom_site_fract_x
 _atom_site_fract_y
 _atom_site_fract_z
 _atom_site_occupancy
  Tb  Tb0  1  0.838524  0.161476  0.500000  1
  Tb  Tb1  1  0.161088  0.838912  0.500000  1
  Tb  Tb2  1  0.338840  0.338519  0.000006  1
  Tb  Tb3  1  0.661481  0.661160  0.999994  1
  Tb  Tb4  1  0.681332  0.680852  0.499990  1
  Tb  Tb5  1  0.319148  0.318668  0.500010  1
  Tb  Tb6  1  0.181066  0.818934  0.000000  1
  Dy  Dy7  1  0.819129  0.180871  0.000000  1
  Cd  Cd8  1  0.500072  0.000105  0.249688  1
  Cd  Cd9  1  0.999895  0.499928  0.750312  1
  Sn  Sn10  1  0.500117  0.000033  0.750130  1
  Sn  Sn11  1  0.999967  0.499883  0.249870  1
  Au  Au12  1  0.624518  0.367815  0.268573  1
  Au  Au13  1  0.376072  0.631686  0.269836  1
  Au  Au14  1  0.123603  0.132225  0.770161  1
  Au  Au15  1  0.875488  0.868614  0.770083  1
  Au  Au16  1  0.368314  0.623928  0.730164  1
  Au  Au17  1  0.632185  0.375482  0.731427  1
  Au  Au18  1  0.867775  0.876397  0.229839  1
  Au  Au19  1  0.131386  0.124512  0.229917  1
