# generated using pymatgen
data_Ta12Al9Cr3N4
_symmetry_space_group_name_H-M   'P 1'
_cell_length_a   8.25237018
_cell_length_b   8.25206796
_cell_length_c   8.21774237
_cell_angle_alpha   59.85946511
_cell_angle_beta   59.86062937
_cell_angle_gamma   59.99864763
_symmetry_Int_Tables_number   1
_chemical_formula_structural   Ta12Al9Cr3N4
_chemical_formula_sum   'Ta12 Al9 Cr3 N4'
_cell_volume   394.86864942
_cell_formula_units_Z   1
loop_
 _symmetry_equiv_pos_site_id
 _symmetry_equiv_pos_as_xyz
  1  'x, y, z'
loop_
 _atom_site_type_symbol
 _atom_site_label
 _atom_site_symmetry_multiplicity
 _atom_site_fract_x
 _atom_site_fract_y
 _atom_site_fract_z
 _atom_site_occupancy
  Ta  Ta0  1  0.804297  0.804340  0.196200  1
  Ta  Ta1  1  0.195095  0.195065  0.806048  1
  Ta  Ta2  1  0.803862  0.194982  0.806065  1
  Ta  Ta3  1  0.195140  0.804317  0.196296  1
  Ta  Ta4  1  0.194990  0.803891  0.806047  1
  Ta  Ta5  1  0.804273  0.195138  0.196344  1
  Ta  Ta6  1  0.445703  0.445660  0.053800  1
  Ta  Ta7  1  0.054905  0.054935  0.443952  1
  Ta  Ta8  1  0.446138  0.055018  0.443935  1
  Ta  Ta9  1  0.054860  0.445683  0.053704  1
  Ta  Ta10  1  0.055010  0.446109  0.443953  1
  Ta  Ta11  1  0.445727  0.054862  0.053656  1
  Al  Al12  1  0.625000  0.625000  0.125000  1
  Al  Al13  1  0.752943  0.411706  0.423650  1
  Al  Al14  1  0.411726  0.752918  0.423646  1
  Al  Al15  1  0.415974  0.415924  0.752155  1
  Al  Al16  1  0.411727  0.411693  0.423647  1
  Al  Al17  1  0.497057  0.838294  0.826350  1
  Al  Al18  1  0.838274  0.497082  0.826354  1
  Al  Al19  1  0.834026  0.834076  0.497845  1
  Al  Al20  1  0.838273  0.838307  0.826353  1
  Cr  Cr21  1  0.125000  0.625000  0.625000  1
  Cr  Cr22  1  0.625000  0.125000  0.625000  1
  Cr  Cr23  1  0.625000  0.625000  0.625000  1
  N  N24  1  0.625000  0.125000  0.125000  1
  N  N25  1  0.125000  0.625000  0.125000  1
  N  N26  1  0.125000  0.125000  0.625000  1
  N  N27  1  0.125000  0.125000  0.125000  1
