# generated using pymatgen
data_YbPr3Co6O19
_symmetry_space_group_name_H-M   'P 1'
_cell_length_a   7.49434337
_cell_length_b   7.49391459
_cell_length_c   7.49439300
_cell_angle_alpha   109.45062782
_cell_angle_beta   109.47155751
_cell_angle_gamma   109.46540724
_symmetry_Int_Tables_number   1
_chemical_formula_structural   YbPr3Co6O19
_chemical_formula_sum   'Yb1 Pr3 Co6 O19'
_cell_volume   324.11306256
_cell_formula_units_Z   1
loop_
 _symmetry_equiv_pos_site_id
 _symmetry_equiv_pos_as_xyz
  1  'x, y, z'
loop_
 _atom_site_type_symbol
 _atom_site_label
 _atom_site_symmetry_multiplicity
 _atom_site_fract_x
 _atom_site_fract_y
 _atom_site_fract_z
 _atom_site_occupancy
  Yb  Yb0  1  0.665019  0.665007  0.665021  1
  Pr  Pr1  1  0.325575  0.999037  0.999442  1
  Pr  Pr2  1  0.999447  0.325592  0.999034  1
  Pr  Pr3  1  0.999023  0.999446  0.325571  1
  Co  Co4  1  0.657592  0.501424  0.159180  1
  Co  Co5  1  0.500957  0.840801  0.345864  1
  Co  Co6  1  0.159183  0.657626  0.501432  1
  Co  Co7  1  0.840686  0.345726  0.500928  1
  Co  Co8  1  0.501421  0.159164  0.657591  1
  Co  Co9  1  0.345889  0.500934  0.840824  1
  O  O10  1  0.006186  0.006190  0.006187  1
  O  O11  1  0.356479  0.356942  0.998519  1
  O  O12  1  0.644450  0.642957  0.999481  1
  O  O13  1  0.296577  0.677046  0.040968  1
  O  O14  1  0.959036  0.636251  0.254109  1
  O  O15  1  0.677031  0.040966  0.296597  1
  O  O16  1  0.615591  0.362907  0.322117  1
  O  O17  1  0.998581  0.356554  0.357002  1
  O  O18  1  0.356971  0.998541  0.356512  1
  O  O19  1  0.322120  0.615635  0.362961  1
  O  O20  1  0.704945  0.744888  0.385794  1
  O  O21  1  0.362915  0.322149  0.615595  1
  O  O22  1  0.254062  0.958897  0.636153  1
  O  O23  1  0.999548  0.644492  0.642925  1
  O  O24  1  0.642923  0.999479  0.644452  1
  O  O25  1  0.040998  0.296599  0.677067  1
  O  O26  1  0.744867  0.385756  0.704933  1
  O  O27  1  0.385738  0.704944  0.744798  1
  O  O28  1  0.636187  0.254041  0.958936  1
