# generated using pymatgen
data_Ba2Pd3Pt
_symmetry_space_group_name_H-M   'P 1'
_cell_length_a   5.76650714
_cell_length_b   5.76650678
_cell_length_c   5.70454418
_cell_angle_alpha   59.64003926
_cell_angle_beta   59.64003816
_cell_angle_gamma   59.99999569
_symmetry_Int_Tables_number   1
_chemical_formula_structural   Ba2Pd3Pt
_chemical_formula_sum   'Ba2 Pd3 Pt1'
_cell_volume   133.39732159
_cell_formula_units_Z   1
loop_
 _symmetry_equiv_pos_site_id
 _symmetry_equiv_pos_as_xyz
  1  'x, y, z'
loop_
 _atom_site_type_symbol
 _atom_site_label
 _atom_site_symmetry_multiplicity
 _atom_site_fract_x
 _atom_site_fract_y
 _atom_site_fract_z
 _atom_site_occupancy
  Ba  Ba0  1  0.498803  0.498803  0.503591  1
  Ba  Ba1  1  0.751197  0.751197  0.746409  1
  Pd  Pd2  1  0.125000  0.125000  0.125000  1
  Pd  Pd3  1  0.625000  0.125000  0.125000  1
  Pd  Pd4  1  0.125000  0.625000  0.125000  1
  Pt  Pt5  1  0.125000  0.125000  0.625000  1
