# generated using pymatgen
data_Hf16Ni4Mo3Ir
_symmetry_space_group_name_H-M   'P 1'
_cell_length_a   8.68763288
_cell_length_b   8.68763258
_cell_length_c   8.68763333
_cell_angle_alpha   60.03305127
_cell_angle_beta   60.03304798
_cell_angle_gamma   60.03304968
_symmetry_Int_Tables_number   1
_chemical_formula_structural   Hf16Ni4Mo3Ir
_chemical_formula_sum   'Hf16 Ni4 Mo3 Ir1'
_cell_volume   463.99641590
_cell_formula_units_Z   1
loop_
 _symmetry_equiv_pos_site_id
 _symmetry_equiv_pos_as_xyz
  1  'x, y, z'
loop_
 _atom_site_type_symbol
 _atom_site_label
 _atom_site_symmetry_multiplicity
 _atom_site_fract_x
 _atom_site_fract_y
 _atom_site_fract_z
 _atom_site_occupancy
  Hf  Hf0  1  0.691045  0.103199  0.103199  1
  Hf  Hf1  1  0.103199  0.691045  0.103199  1
  Hf  Hf2  1  0.103199  0.103199  0.691045  1
  Hf  Hf3  1  0.103139  0.103139  0.103139  1
  Hf  Hf4  1  0.315554  0.315554  0.686271  1
  Hf  Hf5  1  0.685015  0.685015  0.315325  1
  Hf  Hf6  1  0.315554  0.686271  0.315554  1
  Hf  Hf7  1  0.685015  0.315325  0.685015  1
  Hf  Hf8  1  0.686271  0.315554  0.315554  1
  Hf  Hf9  1  0.315325  0.685015  0.685015  1
  Hf  Hf10  1  0.953451  0.953451  0.545926  1
  Hf  Hf11  1  0.547419  0.547419  0.952198  1
  Hf  Hf12  1  0.953451  0.545926  0.953451  1
  Hf  Hf13  1  0.547419  0.952198  0.547419  1
  Hf  Hf14  1  0.545926  0.953451  0.953451  1
  Hf  Hf15  1  0.952198  0.547419  0.547419  1
  Ni  Ni16  1  0.325270  0.890753  0.890753  1
  Ni  Ni17  1  0.890753  0.325270  0.890753  1
  Ni  Ni18  1  0.890753  0.890753  0.325270  1
  Ni  Ni19  1  0.891232  0.891232  0.891232  1
  Mo  Mo20  1  0.999029  0.333096  0.333096  1
  Mo  Mo21  1  0.333096  0.999029  0.333096  1
  Mo  Mo22  1  0.333096  0.333096  0.999029  1
  Ir  Ir23  1  0.333588  0.333588  0.333588  1
