# generated using pymatgen
data_Nd4ThSb3C
_symmetry_space_group_name_H-M   'P 1'
_cell_length_a   9.28016027
_cell_length_b   9.28016062
_cell_length_c   6.59122800
_cell_angle_alpha   90.00000000
_cell_angle_beta   90.00000000
_cell_angle_gamma   119.76052612
_symmetry_Int_Tables_number   1
_chemical_formula_structural   Nd4ThSb3C
_chemical_formula_sum   'Nd8 Th2 Sb6 C2'
_cell_volume   492.77751272
_cell_formula_units_Z   2
loop_
 _symmetry_equiv_pos_site_id
 _symmetry_equiv_pos_as_xyz
  1  'x, y, z'
loop_
 _atom_site_type_symbol
 _atom_site_label
 _atom_site_symmetry_multiplicity
 _atom_site_fract_x
 _atom_site_fract_y
 _atom_site_fract_z
 _atom_site_occupancy
  Nd  Nd0  1  0.668128  0.333783  0.501040  1
  Nd  Nd1  1  0.333783  0.668128  0.501040  1
  Nd  Nd2  1  0.333783  0.668128  0.998960  1
  Nd  Nd3  1  0.668128  0.333783  0.998960  1
  Nd  Nd4  1  0.778297  0.778297  0.250000  1
  Nd  Nd5  1  0.220277  0.000119  0.250000  1
  Nd  Nd6  1  0.000119  0.220277  0.250000  1
  Nd  Nd7  1  0.224977  0.224977  0.750000  1
  Th  Th8  1  0.787211  0.002052  0.750000  1
  Th  Th9  1  0.002052  0.787211  0.750000  1
  Sb  Sb10  1  0.399311  0.399311  0.250000  1
  Sb  Sb11  1  0.598546  0.000090  0.250000  1
  Sb  Sb12  1  0.000090  0.598546  0.250000  1
  Sb  Sb13  1  0.598363  0.598363  0.750000  1
  Sb  Sb14  1  0.401873  0.001361  0.750000  1
  Sb  Sb15  1  0.001361  0.401873  0.750000  1
  C  C16  1  0.991850  0.991850  0.509731  1
  C  C17  1  0.991850  0.991850  0.990269  1
