# generated using pymatgen
data_Yb11Y9Sn16
_symmetry_space_group_name_H-M   'P 1'
_cell_length_a   7.84772012
_cell_length_b   8.44678354
_cell_length_c   16.02123300
_cell_angle_alpha   90.00000000
_cell_angle_beta   90.00000000
_cell_angle_gamma   89.80885541
_symmetry_Int_Tables_number   1
_chemical_formula_structural   Yb11Y9Sn16
_chemical_formula_sum   'Yb11 Y9 Sn16'
_cell_volume   1062.00947267
_cell_formula_units_Z   1
loop_
 _symmetry_equiv_pos_site_id
 _symmetry_equiv_pos_as_xyz
  1  'x, y, z'
loop_
 _atom_site_type_symbol
 _atom_site_label
 _atom_site_symmetry_multiplicity
 _atom_site_fract_x
 _atom_site_fract_y
 _atom_site_fract_z
 _atom_site_occupancy
  Yb  Yb0  1  0.503703  0.688319  0.594402  1
  Yb  Yb1  1  0.003510  0.813476  0.907262  1
  Yb  Yb2  1  0.495295  0.310589  0.092511  1
  Yb  Yb3  1  0.996410  0.188519  0.407780  1
  Yb  Yb4  1  0.495295  0.310589  0.407489  1
  Yb  Yb5  1  0.996410  0.188519  0.092220  1
  Yb  Yb6  1  0.503703  0.688319  0.905598  1
  Yb  Yb7  1  0.003510  0.813476  0.592738  1
  Yb  Yb8  1  0.335972  0.989659  0.750000  1
  Yb  Yb9  1  0.163448  0.489022  0.250000  1
  Yb  Yb10  1  0.662086  0.009540  0.250000  1
  Y  Y11  1  0.671872  0.165278  0.622178  1
  Y  Y12  1  0.173663  0.332943  0.877085  1
  Y  Y13  1  0.327782  0.831912  0.122013  1
  Y  Y14  1  0.828339  0.666205  0.378149  1
  Y  Y15  1  0.327782  0.831912  0.377987  1
  Y  Y16  1  0.828339  0.666205  0.121851  1
  Y  Y17  1  0.671872  0.165278  0.877822  1
  Y  Y18  1  0.173663  0.332943  0.622915  1
  Y  Y19  1  0.837132  0.511051  0.750000  1
  Sn  Sn20  1  0.673035  0.964724  0.459550  1
  Sn  Sn21  1  0.173059  0.534967  0.039741  1
  Sn  Sn22  1  0.327954  0.035538  0.959511  1
  Sn  Sn23  1  0.827753  0.466480  0.543145  1
  Sn  Sn24  1  0.327954  0.035538  0.540489  1
  Sn  Sn25  1  0.827753  0.466480  0.956855  1
  Sn  Sn26  1  0.673035  0.964724  0.040450  1
  Sn  Sn27  1  0.173059  0.534967  0.460259  1
  Sn  Sn28  1  0.473477  0.380325  0.750000  1
  Sn  Sn29  1  0.969586  0.130163  0.750000  1
  Sn  Sn30  1  0.529323  0.621304  0.250000  1
  Sn  Sn31  1  0.028151  0.876147  0.250000  1
  Sn  Sn32  1  0.719714  0.865725  0.750000  1
  Sn  Sn33  1  0.210913  0.631674  0.750000  1
  Sn  Sn34  1  0.281431  0.127470  0.250000  1
  Sn  Sn35  1  0.784016  0.370022  0.250000  1
