# generated using pymatgen
data_TmMoN2
_symmetry_space_group_name_H-M   'P 1'
_cell_length_a   3.16813900
_cell_length_b   5.65169500
_cell_length_c   10.52410500
_cell_angle_alpha   90.00000000
_cell_angle_beta   90.00000000
_cell_angle_gamma   90.00000000
_symmetry_Int_Tables_number   1
_chemical_formula_structural   TmMoN2
_chemical_formula_sum   'Tm4 Mo4 N8'
_cell_volume   188.43783972
_cell_formula_units_Z   4
loop_
 _symmetry_equiv_pos_site_id
 _symmetry_equiv_pos_as_xyz
  1  'x, y, z'
loop_
 _atom_site_type_symbol
 _atom_site_label
 _atom_site_symmetry_multiplicity
 _atom_site_fract_x
 _atom_site_fract_y
 _atom_site_fract_z
 _atom_site_occupancy
  Tm  Tm0  1  0.250000  0.078948  0.853566  1
  Tm  Tm1  1  0.250000  0.578948  0.646434  1
  Tm  Tm2  1  0.750000  0.921052  0.146434  1
  Tm  Tm3  1  0.750000  0.421052  0.353566  1
  Mo  Mo4  1  0.250000  0.431998  0.093807  1
  Mo  Mo5  1  0.250000  0.931998  0.406193  1
  Mo  Mo6  1  0.750000  0.568002  0.906193  1
  Mo  Mo7  1  0.750000  0.068002  0.593807  1
  N  N8  1  0.250000  0.164345  0.248390  1
  N  N9  1  0.250000  0.664345  0.251610  1
  N  N10  1  0.750000  0.835655  0.751610  1
  N  N11  1  0.750000  0.335655  0.748390  1
  N  N12  1  0.250000  0.763834  0.994676  1
  N  N13  1  0.250000  0.263834  0.505324  1
  N  N14  1  0.750000  0.236166  0.005324  1
  N  N15  1  0.750000  0.736166  0.494676  1
