# generated using pymatgen
data_Zr10AgHgSb6
_symmetry_space_group_name_H-M   'P 1'
_cell_length_a   8.75399500
_cell_length_b   8.75399520
_cell_length_c   5.94008300
_cell_angle_alpha   90.00000000
_cell_angle_beta   90.00000000
_cell_angle_gamma   120.00000301
_symmetry_Int_Tables_number   1
_chemical_formula_structural   Zr10AgHgSb6
_chemical_formula_sum   'Zr10 Ag1 Hg1 Sb6'
_cell_volume   394.21734652
_cell_formula_units_Z   1
loop_
 _symmetry_equiv_pos_site_id
 _symmetry_equiv_pos_as_xyz
  1  'x, y, z'
loop_
 _atom_site_type_symbol
 _atom_site_label
 _atom_site_symmetry_multiplicity
 _atom_site_fract_x
 _atom_site_fract_y
 _atom_site_fract_z
 _atom_site_occupancy
  Zr  Zr0  1  0.666667  0.333333  0.000000  1
  Zr  Zr1  1  0.333333  0.666667  0.000000  1
  Zr  Zr2  1  0.333333  0.666667  0.500000  1
  Zr  Zr3  1  0.666667  0.333333  0.500000  1
  Zr  Zr4  1  0.718252  0.718252  0.748303  1
  Zr  Zr5  1  0.281748  0.000000  0.748303  1
  Zr  Zr6  1  0.000000  0.281748  0.748303  1
  Zr  Zr7  1  0.281748  0.281748  0.251697  1
  Zr  Zr8  1  0.718252  0.000000  0.251697  1
  Zr  Zr9  1  0.000000  0.718252  0.251697  1
  Ag  Ag10  1  0.000000  0.000000  0.500000  1
  Hg  Hg11  1  0.000000  0.000000  0.000000  1
  Sb  Sb12  1  0.380167  0.380167  0.750232  1
  Sb  Sb13  1  0.619833  0.000000  0.750232  1
  Sb  Sb14  1  0.000000  0.619833  0.750232  1
  Sb  Sb15  1  0.619833  0.619833  0.249768  1
  Sb  Sb16  1  0.380167  0.000000  0.249768  1
  Sb  Sb17  1  0.000000  0.380167  0.249768  1
