# generated using pymatgen
data_Sm3Sc(P3Rh4)2
_symmetry_space_group_name_H-M   'P 1'
_cell_length_a   3.97132000
_cell_length_b   11.31877300
_cell_length_c   12.99981100
_cell_angle_alpha   90.00000000
_cell_angle_beta   90.00000000
_cell_angle_gamma   90.00000000
_symmetry_Int_Tables_number   1
_chemical_formula_structural   Sm3Sc(P3Rh4)2
_chemical_formula_sum   'Sm6 Sc2 P12 Rh16'
_cell_volume   584.34760904
_cell_formula_units_Z   2
loop_
 _symmetry_equiv_pos_site_id
 _symmetry_equiv_pos_as_xyz
  1  'x, y, z'
loop_
 _atom_site_type_symbol
 _atom_site_label
 _atom_site_symmetry_multiplicity
 _atom_site_fract_x
 _atom_site_fract_y
 _atom_site_fract_z
 _atom_site_occupancy
  Sm  Sm0  1  0.000000  0.500000  0.520880  1
  Sm  Sm1  1  0.500000  0.000000  0.479120  1
  Sm  Sm2  1  0.500000  0.820115  0.203664  1
  Sm  Sm3  1  0.500000  0.179885  0.203664  1
  Sm  Sm4  1  0.000000  0.679885  0.796336  1
  Sm  Sm5  1  0.000000  0.320115  0.796336  1
  Sc  Sc6  1  0.500000  0.500000  0.157768  1
  Sc  Sc7  1  0.000000  0.000000  0.842232  1
  P  P8  1  0.500000  0.500000  0.882061  1
  P  P9  1  0.000000  0.000000  0.117939  1
  P  P10  1  0.500000  0.500000  0.356073  1
  P  P11  1  0.000000  0.000000  0.643927  1
  P  P12  1  0.500000  0.310817  0.616116  1
  P  P13  1  0.500000  0.689183  0.616116  1
  P  P14  1  0.000000  0.189183  0.383884  1
  P  P15  1  0.000000  0.810817  0.383884  1
  P  P16  1  0.500000  0.842493  0.890166  1
  P  P17  1  0.500000  0.157507  0.890166  1
  P  P18  1  0.000000  0.657507  0.109834  1
  P  P19  1  0.000000  0.342493  0.109834  1
  Rh  Rh20  1  0.500000  0.500000  0.701965  1
  Rh  Rh21  1  0.000000  0.000000  0.298035  1
  Rh  Rh22  1  0.000000  0.500000  0.986361  1
  Rh  Rh23  1  0.500000  0.000000  0.013639  1
  Rh  Rh24  1  0.500000  0.331811  0.992832  1
  Rh  Rh25  1  0.500000  0.668189  0.992832  1
  Rh  Rh26  1  0.000000  0.168189  0.007168  1
  Rh  Rh27  1  0.000000  0.831811  0.007168  1
  Rh  Rh28  1  0.500000  0.291237  0.431621  1
  Rh  Rh29  1  0.500000  0.708763  0.431621  1
  Rh  Rh30  1  0.000000  0.208763  0.568379  1
  Rh  Rh31  1  0.000000  0.791237  0.568379  1
  Rh  Rh32  1  0.500000  0.875183  0.707162  1
  Rh  Rh33  1  0.500000  0.124817  0.707162  1
  Rh  Rh34  1  0.000000  0.624817  0.292838  1
  Rh  Rh35  1  0.000000  0.375183  0.292838  1
