# generated using pymatgen
data_SmEr3Zr4F28
_symmetry_space_group_name_H-M   'P 1'
_cell_length_a   5.74669422
_cell_length_b   9.09882451
_cell_length_c   12.22573339
_cell_angle_alpha   62.40672935
_cell_angle_beta   90.01761719
_cell_angle_gamma   90.03141176
_symmetry_Int_Tables_number   1
_chemical_formula_structural   SmEr3Zr4F28
_chemical_formula_sum   'Sm1 Er3 Zr4 F28'
_cell_volume   566.55019690
_cell_formula_units_Z   1
loop_
 _symmetry_equiv_pos_site_id
 _symmetry_equiv_pos_as_xyz
  1  'x, y, z'
loop_
 _atom_site_type_symbol
 _atom_site_label
 _atom_site_symmetry_multiplicity
 _atom_site_fract_x
 _atom_site_fract_y
 _atom_site_fract_z
 _atom_site_occupancy
  Sm  Sm0  1  0.756647  0.817109  0.766342  1
  Er  Er1  1  0.743808  0.817819  0.266019  1
  Er  Er2  1  0.243754  0.183662  0.234068  1
  Er  Er3  1  0.257263  0.187222  0.733550  1
  Zr  Zr4  1  0.743825  0.277267  0.453080  1
  Zr  Zr5  1  0.244576  0.725399  0.048745  1
  Zr  Zr6  1  0.255029  0.725382  0.541450  1
  Zr  Zr7  1  0.755444  0.270901  0.956562  1
  F  F8  1  0.464025  0.709815  0.924175  1
  F  F9  1  0.968120  0.288828  0.577918  1
  F  F10  1  0.530578  0.286662  0.079412  1
  F  F11  1  0.030001  0.711123  0.418377  1
  F  F12  1  0.453757  0.280967  0.550227  1
  F  F13  1  0.954021  0.717159  0.954899  1
  F  F14  1  0.548015  0.719867  0.447202  1
  F  F15  1  0.045842  0.278081  0.052513  1
  F  F16  1  0.769197  0.521625  0.859420  1
  F  F17  1  0.267648  0.473313  0.640336  1
  F  F18  1  0.234667  0.472937  0.143990  1
  F  F19  1  0.732898  0.528482  0.356328  1
  F  F20  1  0.759200  0.020074  0.060070  1
  F  F21  1  0.259038  0.976765  0.439485  1
  F  F22  1  0.240467  0.975900  0.942153  1
  F  F23  1  0.739646  0.026162  0.555239  1
  F  F24  1  0.984356  0.732393  0.646100  1
  F  F25  1  0.484468  0.265271  0.850371  1
  F  F26  1  0.012579  0.265078  0.347939  1
  F  F27  1  0.514760  0.735533  0.153371  1
  F  F28  1  0.031003  0.747492  0.175221  1
  F  F29  1  0.529185  0.253860  0.326784  1
  F  F30  1  0.969050  0.250836  0.828552  1
  F  F31  1  0.462085  0.744353  0.670795  1
  F  F32  1  0.433473  0.975911  0.235842  1
  F  F33  1  0.934056  0.024994  0.264220  1
  F  F34  1  0.567767  0.033916  0.765317  1
  F  F35  1  0.079753  0.977840  0.733926  1
