# generated using pymatgen
data_Tb17Zr(SnIr6)2
_symmetry_space_group_name_H-M   'P 1'
_cell_length_a   10.84933600
_cell_length_b   10.84933600
_cell_length_c   6.25764900
_cell_angle_alpha   90.00000000
_cell_angle_beta   90.00000000
_cell_angle_gamma   90.00000000
_symmetry_Int_Tables_number   1
_chemical_formula_structural   Tb17Zr(SnIr6)2
_chemical_formula_sum   'Tb17 Zr1 Sn2 Ir12'
_cell_volume   736.57592195
_cell_formula_units_Z   1
loop_
 _symmetry_equiv_pos_site_id
 _symmetry_equiv_pos_as_xyz
  1  'x, y, z'
loop_
 _atom_site_type_symbol
 _atom_site_label
 _atom_site_symmetry_multiplicity
 _atom_site_fract_x
 _atom_site_fract_y
 _atom_site_fract_z
 _atom_site_occupancy
  Tb  Tb0  1  0.282722  0.085544  0.379234  1
  Tb  Tb1  1  0.290091  0.913306  0.878338  1
  Tb  Tb2  1  0.709909  0.086694  0.878338  1
  Tb  Tb3  1  0.717278  0.914456  0.379234  1
  Tb  Tb4  1  0.586171  0.784637  0.879809  1
  Tb  Tb5  1  0.587283  0.207039  0.377542  1
  Tb  Tb6  1  0.412717  0.792961  0.377542  1
  Tb  Tb7  1  0.413829  0.215363  0.879809  1
  Tb  Tb8  1  0.207039  0.412717  0.622458  1
  Tb  Tb9  1  0.215363  0.586171  0.120191  1
  Tb  Tb10  1  0.784637  0.413829  0.120191  1
  Tb  Tb11  1  0.792961  0.587283  0.622458  1
  Tb  Tb12  1  0.913306  0.709909  0.121662  1
  Tb  Tb13  1  0.914456  0.282722  0.620766  1
  Tb  Tb14  1  0.085544  0.717278  0.620766  1
  Tb  Tb15  1  0.086694  0.290091  0.121662  1
  Tb  Tb16  1  0.500000  0.500000  0.500000  1
  Zr  Zr17  1  0.000000  0.000000  0.000000  1
  Sn  Sn18  1  0.000000  0.000000  0.500000  1
  Sn  Sn19  1  0.500000  0.500000  0.000000  1
  Ir  Ir20  1  0.854927  0.151629  0.237673  1
  Ir  Ir21  1  0.848371  0.854927  0.762327  1
  Ir  Ir22  1  0.151629  0.145073  0.762327  1
  Ir  Ir23  1  0.145073  0.848371  0.237673  1
  Ir  Ir24  1  0.656832  0.346762  0.743743  1
  Ir  Ir25  1  0.653238  0.656832  0.256257  1
  Ir  Ir26  1  0.346762  0.343168  0.256257  1
  Ir  Ir27  1  0.343168  0.653238  0.743743  1
  Ir  Ir28  1  0.500000  0.000000  0.121804  1
  Ir  Ir29  1  0.500000  0.000000  0.621755  1
  Ir  Ir30  1  0.000000  0.500000  0.878196  1
  Ir  Ir31  1  0.000000  0.500000  0.378245  1
