# generated using pymatgen
data_Sm3Sn3Ir2Au
_symmetry_space_group_name_H-M   'P 1'
_cell_length_a   7.59740100
_cell_length_b   7.59740052
_cell_length_c   4.11502600
_cell_angle_alpha   90.00000000
_cell_angle_beta   90.00000000
_cell_angle_gamma   119.99999775
_symmetry_Int_Tables_number   1
_chemical_formula_structural   Sm3Sn3Ir2Au
_chemical_formula_sum   'Sm3 Sn3 Ir2 Au1'
_cell_volume   205.69952874
_cell_formula_units_Z   1
loop_
 _symmetry_equiv_pos_site_id
 _symmetry_equiv_pos_as_xyz
  1  'x, y, z'
loop_
 _atom_site_type_symbol
 _atom_site_label
 _atom_site_symmetry_multiplicity
 _atom_site_fract_x
 _atom_site_fract_y
 _atom_site_fract_z
 _atom_site_occupancy
  Sm  Sm0  1  0.598268  0.012667  0.000000  1
  Sm  Sm1  1  0.987333  0.585601  0.000000  1
  Sm  Sm2  1  0.414399  0.401732  0.000000  1
  Sn  Sn3  1  0.253601  0.006776  0.500000  1
  Sn  Sn4  1  0.993224  0.246825  0.500000  1
  Sn  Sn5  1  0.753175  0.746399  0.500000  1
  Ir  Ir6  1  0.666667  0.333333  0.500000  1
  Ir  Ir7  1  0.000000  0.000000  0.000000  1
  Au  Au8  1  0.333333  0.666667  0.500000  1
