# generated using pymatgen
data_Dy(Ho3Se4)2
_symmetry_space_group_name_H-M   'P 1'
_cell_length_a   8.04034988
_cell_length_b   8.04035045
_cell_length_c   8.04035000
_cell_angle_alpha   120.01407799
_cell_angle_beta   89.96079258
_cell_angle_gamma   120.03120716
_symmetry_Int_Tables_number   1
_chemical_formula_structural   Dy(Ho3Se4)2
_chemical_formula_sum   'Dy1 Ho6 Se8'
_cell_volume   367.41855081
_cell_formula_units_Z   1
loop_
 _symmetry_equiv_pos_site_id
 _symmetry_equiv_pos_as_xyz
  1  'x, y, z'
loop_
 _atom_site_type_symbol
 _atom_site_label
 _atom_site_symmetry_multiplicity
 _atom_site_fract_x
 _atom_site_fract_y
 _atom_site_fract_z
 _atom_site_occupancy
  Dy  Dy0  1  0.250000  0.000000  0.250000  1
  Ho  Ho1  1  0.250041  0.500038  0.250005  1
  Ho  Ho2  1  0.749966  0.999964  0.250006  1
  Ho  Ho3  1  0.250002  0.500001  0.750003  1
  Ho  Ho4  1  0.250042  0.000036  0.750001  1
  Ho  Ho5  1  0.749962  0.000000  0.749962  1
  Ho  Ho6  1  0.749966  0.499961  0.750001  1
  Se  Se7  1  0.999226  0.000000  0.999226  1
  Se  Se8  1  0.500797  0.000000  0.500797  1
  Se  Se9  1  0.994524  0.990667  0.496143  1
  Se  Se10  1  0.995362  0.500001  0.495364  1
  Se  Se11  1  0.505475  0.501618  0.496143  1
  Se  Se12  1  0.994526  0.498384  0.003858  1
  Se  Se13  1  0.504642  0.500001  0.004643  1
  Se  Se14  1  0.505473  0.009332  0.003858  1
