# generated using pymatgen
data_YbLuAl8SiIr3
_symmetry_space_group_name_H-M   'P 1'
_cell_length_a   7.51845807
_cell_length_b   7.53952065
_cell_length_c   9.36623400
_cell_angle_alpha   90.00000000
_cell_angle_beta   90.00000000
_cell_angle_gamma   119.79014083
_symmetry_Int_Tables_number   1
_chemical_formula_structural   YbLuAl8SiIr3
_chemical_formula_sum   'Yb2 Lu2 Al16 Si2 Ir6'
_cell_volume   460.76837975
_cell_formula_units_Z   2
loop_
 _symmetry_equiv_pos_site_id
 _symmetry_equiv_pos_as_xyz
  1  'x, y, z'
loop_
 _atom_site_type_symbol
 _atom_site_label
 _atom_site_symmetry_multiplicity
 _atom_site_fract_x
 _atom_site_fract_y
 _atom_site_fract_z
 _atom_site_occupancy
  Yb  Yb0  1  0.995403  0.673834  0.250000  1
  Yb  Yb1  1  0.004597  0.326166  0.750000  1
  Lu  Lu2  1  0.675708  0.997183  0.250000  1
  Lu  Lu3  1  0.324292  0.002817  0.750000  1
  Al  Al4  1  0.000940  0.336370  0.075427  1
  Al  Al5  1  0.999060  0.663630  0.924573  1
  Al  Al6  1  0.999060  0.663630  0.575427  1
  Al  Al7  1  0.335722  0.000320  0.423816  1
  Al  Al8  1  0.000940  0.336370  0.424573  1
  Al  Al9  1  0.664278  0.999680  0.576184  1
  Al  Al10  1  0.664278  0.999680  0.923816  1
  Al  Al11  1  0.335722  0.000320  0.076184  1
  Al  Al12  1  0.335355  0.335527  0.555767  1
  Al  Al13  1  0.664645  0.664473  0.444233  1
  Al  Al14  1  0.664645  0.664473  0.055767  1
  Al  Al15  1  0.335355  0.335527  0.944233  1
  Al  Al16  1  0.335934  0.548213  0.250000  1
  Al  Al17  1  0.664066  0.451787  0.750000  1
  Al  Al18  1  0.546999  0.333101  0.250000  1
  Al  Al19  1  0.453001  0.666899  0.750000  1
  Si  Si20  1  0.128489  0.130474  0.250000  1
  Si  Si21  1  0.871511  0.869526  0.750000  1
  Ir  Ir22  1  0.669365  0.326806  0.999970  1
  Ir  Ir23  1  0.330635  0.673194  0.000030  1
  Ir  Ir24  1  0.330635  0.673194  0.499970  1
  Ir  Ir25  1  0.669365  0.326806  0.500030  1
  Ir  Ir26  1  0.000000  0.000000  0.000000  1
  Ir  Ir27  1  0.000000  0.000000  0.500000  1
