# generated using pymatgen
data_CdGa3Re
_symmetry_space_group_name_H-M   'P 1'
_cell_length_a   5.01244029
_cell_length_b   5.60792775
_cell_length_c   5.01244176
_cell_angle_alpha   111.89666983
_cell_angle_beta   106.94061893
_cell_angle_gamma   111.89667136
_symmetry_Int_Tables_number   1
_chemical_formula_structural   CdGa3Re
_chemical_formula_sum   'Cd1 Ga3 Re1'
_cell_volume   105.04964211
_cell_formula_units_Z   1
loop_
 _symmetry_equiv_pos_site_id
 _symmetry_equiv_pos_as_xyz
  1  'x, y, z'
loop_
 _atom_site_type_symbol
 _atom_site_label
 _atom_site_symmetry_multiplicity
 _atom_site_fract_x
 _atom_site_fract_y
 _atom_site_fract_z
 _atom_site_occupancy
  Cd  Cd0  1  0.000000  0.500000  0.000000  1
  Ga  Ga1  1  0.000000  0.000000  0.500000  1
  Ga  Ga2  1  0.500000  0.000000  0.000000  1
  Ga  Ga3  1  0.500000  0.500000  0.500000  1
  Re  Re4  1  0.000000  0.000000  0.000000  1
