# generated using pymatgen
data_HoEr2P4Rh7
_symmetry_space_group_name_H-M   'P 1'
_cell_length_a   7.72788331
_cell_length_b   7.72788313
_cell_length_c   9.16104605
_cell_angle_alpha   56.77800651
_cell_angle_beta   56.77800736
_cell_angle_gamma   29.43976879
_symmetry_Int_Tables_number   1
_chemical_formula_structural   HoEr2P4Rh7
_chemical_formula_sum   'Ho1 Er2 P4 Rh7'
_cell_volume   221.59776844
_cell_formula_units_Z   1
loop_
 _symmetry_equiv_pos_site_id
 _symmetry_equiv_pos_as_xyz
  1  'x, y, z'
loop_
 _atom_site_type_symbol
 _atom_site_label
 _atom_site_symmetry_multiplicity
 _atom_site_fract_x
 _atom_site_fract_y
 _atom_site_fract_z
 _atom_site_occupancy
  Ho  Ho0  1  0.500000  0.500000  0.500000  1
  Er  Er1  1  0.828932  0.828932  0.168234  1
  Er  Er2  1  0.171068  0.171068  0.831766  1
  P  P3  1  0.391196  0.391196  0.324737  1
  P  P4  1  0.608804  0.608804  0.675263  1
  P  P5  1  0.832505  0.832505  0.773990  1
  P  P6  1  0.167495  0.167495  0.226010  1
  Rh  Rh7  1  0.668654  0.668654  0.078278  1
  Rh  Rh8  1  0.007041  0.007041  0.230235  1
  Rh  Rh9  1  0.992959  0.992959  0.769765  1
  Rh  Rh10  1  0.500000  0.500000  0.000000  1
  Rh  Rh11  1  0.198051  0.198051  0.453650  1
  Rh  Rh12  1  0.801949  0.801949  0.546350  1
  Rh  Rh13  1  0.331346  0.331346  0.921722  1
