# generated using pymatgen
data_Dy4Lu8Tc3Ru
_symmetry_space_group_name_H-M   'P 1'
_cell_length_a   6.21233900
_cell_length_b   7.36806001
_cell_length_c   8.93099300
_cell_angle_alpha   90.00000000
_cell_angle_beta   90.00000000
_cell_angle_gamma   90.00389263
_symmetry_Int_Tables_number   1
_chemical_formula_structural   Dy4Lu8Tc3Ru
_chemical_formula_sum   'Dy4 Lu8 Tc3 Ru1'
_cell_volume   408.79732858
_cell_formula_units_Z   1
loop_
 _symmetry_equiv_pos_site_id
 _symmetry_equiv_pos_as_xyz
  1  'x, y, z'
loop_
 _atom_site_type_symbol
 _atom_site_label
 _atom_site_symmetry_multiplicity
 _atom_site_fract_x
 _atom_site_fract_y
 _atom_site_fract_z
 _atom_site_occupancy
  Dy  Dy0  1  0.875558  0.540164  0.250000  1
  Dy  Dy1  1  0.624100  0.038860  0.250000  1
  Dy  Dy2  1  0.127945  0.458203  0.750000  1
  Dy  Dy3  1  0.376704  0.959182  0.750000  1
  Lu  Lu4  1  0.340018  0.675706  0.062948  1
  Lu  Lu5  1  0.157110  0.175342  0.437433  1
  Lu  Lu6  1  0.657950  0.325499  0.563086  1
  Lu  Lu7  1  0.841956  0.824512  0.937212  1
  Lu  Lu8  1  0.657950  0.325499  0.936914  1
  Lu  Lu9  1  0.841956  0.824512  0.562788  1
  Lu  Lu10  1  0.340018  0.675706  0.437052  1
  Lu  Lu11  1  0.157110  0.175342  0.062567  1
  Tc  Tc12  1  0.043686  0.882808  0.250000  1
  Tc  Tc13  1  0.457663  0.384446  0.250000  1
  Tc  Tc14  1  0.957152  0.116825  0.750000  1
  Ru  Ru15  1  0.543125  0.617393  0.750000  1
