# generated using pymatgen
data_K2RbAsSe4
_symmetry_space_group_name_H-M   'P 1'
_cell_length_a   9.76126700
_cell_length_b   10.22047800
_cell_length_c   11.05171300
_cell_angle_alpha   90.00000000
_cell_angle_beta   90.00000000
_cell_angle_gamma   90.00000000
_symmetry_Int_Tables_number   1
_chemical_formula_structural   K2RbAsSe4
_chemical_formula_sum   'K8 Rb4 As4 Se16'
_cell_volume   1102.57209874
_cell_formula_units_Z   4
loop_
 _symmetry_equiv_pos_site_id
 _symmetry_equiv_pos_as_xyz
  1  'x, y, z'
loop_
 _atom_site_type_symbol
 _atom_site_label
 _atom_site_symmetry_multiplicity
 _atom_site_fract_x
 _atom_site_fract_y
 _atom_site_fract_z
 _atom_site_occupancy
  K  K0  1  0.568016  0.197341  0.048794  1
  K  K1  1  0.068016  0.302659  0.451206  1
  K  K2  1  0.431984  0.802659  0.548794  1
  K  K3  1  0.931984  0.697341  0.951206  1
  K  K4  1  0.431984  0.802659  0.951206  1
  K  K5  1  0.931984  0.697341  0.548794  1
  K  K6  1  0.568016  0.197341  0.451206  1
  K  K7  1  0.068016  0.302659  0.048794  1
  Rb  Rb8  1  0.643816  0.416942  0.750000  1
  Rb  Rb9  1  0.143816  0.083058  0.750000  1
  Rb  Rb10  1  0.356184  0.583058  0.250000  1
  Rb  Rb11  1  0.856184  0.916942  0.250000  1
  As  As12  1  0.725083  0.976234  0.750000  1
  As  As13  1  0.225083  0.523766  0.750000  1
  As  As14  1  0.274917  0.023766  0.250000  1
  As  As15  1  0.774917  0.476234  0.250000  1
  Se  Se16  1  0.850470  0.027642  0.573474  1
  Se  Se17  1  0.350470  0.472358  0.926526  1
  Se  Se18  1  0.149530  0.972358  0.073474  1
  Se  Se19  1  0.649530  0.527642  0.426526  1
  Se  Se20  1  0.149530  0.972358  0.426526  1
  Se  Se21  1  0.649530  0.527642  0.073474  1
  Se  Se22  1  0.850470  0.027642  0.926526  1
  Se  Se23  1  0.350470  0.472358  0.573474  1
  Se  Se24  1  0.678684  0.750106  0.750000  1
  Se  Se25  1  0.178684  0.749894  0.750000  1
  Se  Se26  1  0.321316  0.249894  0.250000  1
  Se  Se27  1  0.821316  0.250106  0.250000  1
  Se  Se28  1  0.513091  0.089543  0.750000  1
  Se  Se29  1  0.013091  0.410457  0.750000  1
  Se  Se30  1  0.486909  0.910457  0.250000  1
  Se  Se31  1  0.986909  0.589543  0.250000  1
