# generated using pymatgen
data_Sr3EuHgPb11
_symmetry_space_group_name_H-M   'P 1'
_cell_length_a   10.06238000
_cell_length_b   7.04840004
_cell_length_c   7.01596200
_cell_angle_alpha   88.71085000
_cell_angle_beta   90.00000000
_cell_angle_gamma   90.00000000
_symmetry_Int_Tables_number   1
_chemical_formula_structural   Sr3EuHgPb11
_chemical_formula_sum   'Sr3 Eu1 Hg1 Pb11'
_cell_volume   497.47189257
_cell_formula_units_Z   1
loop_
 _symmetry_equiv_pos_site_id
 _symmetry_equiv_pos_as_xyz
  1  'x, y, z'
loop_
 _atom_site_type_symbol
 _atom_site_label
 _atom_site_symmetry_multiplicity
 _atom_site_fract_x
 _atom_site_fract_y
 _atom_site_fract_z
 _atom_site_occupancy
  Sr  Sr0  1  0.250000  0.498744  0.504193  1
  Sr  Sr1  1  0.750000  0.998258  0.001842  1
  Sr  Sr2  1  0.750000  0.505383  0.499283  1
  Eu  Eu3  1  0.250000  0.006595  0.000918  1
  Hg  Hg4  1  0.750000  0.494932  0.998624  1
  Pb  Pb5  1  0.002442  0.239904  0.746227  1
  Pb  Pb6  1  0.498411  0.251051  0.246259  1
  Pb  Pb7  1  0.495613  0.751764  0.244988  1
  Pb  Pb8  1  0.001591  0.749945  0.756974  1
  Pb  Pb9  1  0.004387  0.751764  0.244988  1
  Pb  Pb10  1  0.498409  0.749945  0.756974  1
  Pb  Pb11  1  0.497558  0.239904  0.746227  1
  Pb  Pb12  1  0.001589  0.251051  0.246259  1
  Pb  Pb13  1  0.250000  0.997886  0.501385  1
  Pb  Pb14  1  0.250000  0.507505  0.003610  1
  Pb  Pb15  1  0.750000  0.005369  0.501248  1
