# generated using pymatgen
data_Ca4SbAs3Pd8
_symmetry_space_group_name_H-M   'P 1'
_cell_length_a   5.75560806
_cell_length_b   7.14877400
_cell_length_c   7.63735800
_cell_angle_alpha   90.00000000
_cell_angle_beta   90.46685422
_cell_angle_gamma   90.00000000
_symmetry_Int_Tables_number   1
_chemical_formula_structural   Ca4SbAs3Pd8
_chemical_formula_sum   'Ca4 Sb1 As3 Pd8'
_cell_volume   314.23279721
_cell_formula_units_Z   1
loop_
 _symmetry_equiv_pos_site_id
 _symmetry_equiv_pos_as_xyz
  1  'x, y, z'
loop_
 _atom_site_type_symbol
 _atom_site_label
 _atom_site_symmetry_multiplicity
 _atom_site_fract_x
 _atom_site_fract_y
 _atom_site_fract_z
 _atom_site_occupancy
  Ca  Ca0  1  0.147017  0.750000  0.034369  1
  Ca  Ca1  1  0.633873  0.250000  0.478304  1
  Ca  Ca2  1  0.361901  0.750000  0.518376  1
  Ca  Ca3  1  0.858284  0.250000  0.972057  1
  Sb  Sb4  1  0.649407  0.750000  0.875460  1
  As  As5  1  0.355904  0.250000  0.127823  1
  As  As6  1  0.861677  0.750000  0.371747  1
  As  As7  1  0.140447  0.250000  0.622861  1
  Pd  Pd8  1  0.589624  0.547751  0.184471  1
  Pd  Pd9  1  0.589624  0.952248  0.184471  1
  Pd  Pd10  1  0.094388  0.051542  0.323607  1
  Pd  Pd11  1  0.094388  0.448459  0.323607  1
  Pd  Pd12  1  0.918799  0.550632  0.661891  1
  Pd  Pd13  1  0.918799  0.949367  0.661891  1
  Pd  Pd14  1  0.392938  0.054980  0.829529  1
  Pd  Pd15  1  0.392938  0.445021  0.829529  1
