# generated using pymatgen
data_Nd5Ge2BiO
_symmetry_space_group_name_H-M   'P 1'
_cell_length_a   9.16877214
_cell_length_b   9.16877201
_cell_length_c   9.16877300
_cell_angle_alpha   126.70551270
_cell_angle_beta   126.70551212
_cell_angle_gamma   78.73164698
_symmetry_Int_Tables_number   1
_chemical_formula_structural   Nd5Ge2BiO
_chemical_formula_sum   'Nd10 Ge4 Bi2 O2'
_cell_volume   479.46132287
_cell_formula_units_Z   2
loop_
 _symmetry_equiv_pos_site_id
 _symmetry_equiv_pos_as_xyz
  1  'x, y, z'
loop_
 _atom_site_type_symbol
 _atom_site_label
 _atom_site_symmetry_multiplicity
 _atom_site_fract_x
 _atom_site_fract_y
 _atom_site_fract_z
 _atom_site_occupancy
  Nd  Nd0  1  0.491515  0.295231  0.500000  1
  Nd  Nd1  1  0.795231  0.991515  0.500000  1
  Nd  Nd2  1  0.991515  0.491515  0.196284  1
  Nd  Nd3  1  0.295231  0.795231  0.803716  1
  Nd  Nd4  1  0.510751  0.707151  0.500000  1
  Nd  Nd5  1  0.207151  0.010751  0.500000  1
  Nd  Nd6  1  0.010751  0.510751  0.803600  1
  Nd  Nd7  1  0.707151  0.207151  0.196400  1
  Nd  Nd8  1  0.501953  0.501953  0.000000  1
  Nd  Nd9  1  0.001953  0.001953  0.000000  1
  Ge  Ge10  1  0.142884  0.359251  0.500000  1
  Ge  Ge11  1  0.859251  0.642884  0.500000  1
  Ge  Ge12  1  0.642884  0.142884  0.783631  1
  Ge  Ge13  1  0.359251  0.859251  0.216369  1
  Bi  Bi14  1  0.751633  0.751633  0.000000  1
  Bi  Bi15  1  0.251633  0.251633  0.000000  1
  O  O16  1  0.751050  0.251050  0.500000  1
  O  O17  1  0.251050  0.751050  0.500000  1
