# generated using pymatgen
data_NdHf(SnRh)2
_symmetry_space_group_name_H-M   'P 1'
_cell_length_a   7.50620300
_cell_length_b   7.50620370
_cell_length_c   7.71037900
_cell_angle_alpha   90.00000000
_cell_angle_beta   90.00000000
_cell_angle_gamma   120.00000134
_symmetry_Int_Tables_number   1
_chemical_formula_structural   NdHf(SnRh)2
_chemical_formula_sum   'Nd3 Hf3 Sn6 Rh6'
_cell_volume   376.22443888
_cell_formula_units_Z   3
loop_
 _symmetry_equiv_pos_site_id
 _symmetry_equiv_pos_as_xyz
  1  'x, y, z'
loop_
 _atom_site_type_symbol
 _atom_site_label
 _atom_site_symmetry_multiplicity
 _atom_site_fract_x
 _atom_site_fract_y
 _atom_site_fract_z
 _atom_site_occupancy
  Nd  Nd0  1  0.000044  0.408855  0.750000  1
  Nd  Nd1  1  0.591145  0.591189  0.750000  1
  Nd  Nd2  1  0.408811  0.999956  0.750000  1
  Hf  Hf3  1  0.999086  0.393956  0.250000  1
  Hf  Hf4  1  0.606044  0.605131  0.250000  1
  Hf  Hf5  1  0.394869  0.000914  0.250000  1
  Sn  Sn6  1  0.264139  0.264801  0.487202  1
  Sn  Sn7  1  0.000662  0.735861  0.487202  1
  Sn  Sn8  1  0.000662  0.735861  0.012798  1
  Sn  Sn9  1  0.735199  0.999338  0.487202  1
  Sn  Sn10  1  0.735199  0.999338  0.012798  1
  Sn  Sn11  1  0.264139  0.264801  0.012798  1
  Rh  Rh12  1  0.333333  0.666667  0.450387  1
  Rh  Rh13  1  0.666667  0.333333  0.452354  1
  Rh  Rh14  1  0.333333  0.666667  0.049613  1
  Rh  Rh15  1  0.000000  0.000000  0.750000  1
  Rh  Rh16  1  0.000000  0.000000  0.250000  1
  Rh  Rh17  1  0.666667  0.333333  0.047646  1
