# generated using pymatgen
data_Sr(NbS2)2
_symmetry_space_group_name_H-M   'P 1'
_cell_length_a   5.90591000
_cell_length_b   6.81337900
_cell_length_c   14.89024000
_cell_angle_alpha   90.00000000
_cell_angle_beta   90.00000000
_cell_angle_gamma   90.00000000
_symmetry_Int_Tables_number   1
_chemical_formula_structural   Sr(NbS2)2
_chemical_formula_sum   'Sr4 Nb8 S16'
_cell_volume   599.17139261
_cell_formula_units_Z   4
loop_
 _symmetry_equiv_pos_site_id
 _symmetry_equiv_pos_as_xyz
  1  'x, y, z'
loop_
 _atom_site_type_symbol
 _atom_site_label
 _atom_site_symmetry_multiplicity
 _atom_site_fract_x
 _atom_site_fract_y
 _atom_site_fract_z
 _atom_site_occupancy
  Sr  Sr0  1  0.310565  0.250000  0.003344  1
  Sr  Sr1  1  0.310565  0.750000  0.496656  1
  Sr  Sr2  1  0.689435  0.250000  0.503344  1
  Sr  Sr3  1  0.689435  0.750000  0.996656  1
  Nb  Nb4  1  0.155968  0.000000  0.250000  1
  Nb  Nb5  1  0.155968  0.500000  0.250000  1
  Nb  Nb6  1  0.340137  0.250000  0.749762  1
  Nb  Nb7  1  0.340137  0.750000  0.750238  1
  Nb  Nb8  1  0.659863  0.250000  0.249762  1
  Nb  Nb9  1  0.659863  0.750000  0.250238  1
  Nb  Nb10  1  0.844032  0.000000  0.750000  1
  Nb  Nb11  1  0.844032  0.500000  0.750000  1
  S  S12  1  0.015018  0.250000  0.644948  1
  S  S13  1  0.015018  0.750000  0.855052  1
  S  S14  1  0.004089  0.250000  0.854160  1
  S  S15  1  0.004089  0.750000  0.645840  1
  S  S16  1  0.492063  0.502143  0.144840  1
  S  S17  1  0.492063  0.997857  0.144840  1
  S  S18  1  0.492063  0.002143  0.355160  1
  S  S19  1  0.492063  0.497857  0.355160  1
  S  S20  1  0.507937  0.502143  0.644840  1
  S  S21  1  0.507937  0.002143  0.855160  1
  S  S22  1  0.507937  0.497857  0.855160  1
  S  S23  1  0.507937  0.997857  0.644840  1
  S  S24  1  0.995911  0.750000  0.145840  1
  S  S25  1  0.995911  0.250000  0.354160  1
  S  S26  1  0.984982  0.250000  0.144948  1
  S  S27  1  0.984982  0.750000  0.355052  1
