# generated using pymatgen
data_Y13Lu7(Ir2Rh)4
_symmetry_space_group_name_H-M   'P 1'
_cell_length_a   10.84465474
_cell_length_b   10.81228631
_cell_length_c   6.36209993
_cell_angle_alpha   89.94886480
_cell_angle_beta   89.96496800
_cell_angle_gamma   89.97630849
_symmetry_Int_Tables_number   1
_chemical_formula_structural   Y13Lu7(Ir2Rh)4
_chemical_formula_sum   'Y13 Lu7 Ir8 Rh4'
_cell_volume   745.99078419
_cell_formula_units_Z   1
loop_
 _symmetry_equiv_pos_site_id
 _symmetry_equiv_pos_as_xyz
  1  'x, y, z'
loop_
 _atom_site_type_symbol
 _atom_site_label
 _atom_site_symmetry_multiplicity
 _atom_site_fract_x
 _atom_site_fract_y
 _atom_site_fract_z
 _atom_site_occupancy
  Y  Y0  1  0.710442  0.912703  0.381281  1
  Y  Y1  1  0.586996  0.790254  0.883197  1
  Y  Y2  1  0.588027  0.210299  0.381905  1
  Y  Y3  1  0.410860  0.790311  0.382719  1
  Y  Y4  1  0.411128  0.210296  0.881694  1
  Y  Y5  1  0.209796  0.410717  0.618629  1
  Y  Y6  1  0.210629  0.588995  0.119692  1
  Y  Y7  1  0.790273  0.410541  0.118564  1
  Y  Y8  1  0.789849  0.589579  0.619705  1
  Y  Y9  1  0.911187  0.711190  0.118051  1
  Y  Y10  1  0.909116  0.287160  0.620016  1
  Y  Y11  1  0.090656  0.712804  0.618074  1
  Y  Y12  1  0.090964  0.287165  0.118897  1
  Lu  Lu13  1  0.291669  0.086582  0.384142  1
  Lu  Lu14  1  0.290882  0.913754  0.883116  1
  Lu  Lu15  1  0.707457  0.087028  0.884711  1
  Lu  Lu16  1  0.001269  0.000775  0.492685  1
  Lu  Lu17  1  0.999876  0.000220  0.992547  1
  Lu  Lu18  1  0.499930  0.499390  0.001605  1
  Lu  Lu19  1  0.499744  0.500007  0.501990  1
  Ir  Ir20  1  0.848452  0.150431  0.243260  1
  Ir  Ir21  1  0.847583  0.851941  0.749511  1
  Ir  Ir22  1  0.153586  0.147884  0.745119  1
  Ir  Ir23  1  0.153974  0.852650  0.245601  1
  Ir  Ir24  1  0.650454  0.345881  0.753103  1
  Ir  Ir25  1  0.650964  0.650629  0.251107  1
  Ir  Ir26  1  0.349547  0.346105  0.253926  1
  Ir  Ir27  1  0.349064  0.653236  0.753271  1
  Rh  Rh28  1  0.497450  0.001227  0.128637  1
  Rh  Rh29  1  0.497583  0.000975  0.631527  1
  Rh  Rh30  1  0.000317  0.499835  0.870630  1
  Rh  Rh31  1  0.000280  0.499435  0.371086  1
