# generated using pymatgen
data_Yb12Al7Ga(SiO4)12
_symmetry_space_group_name_H-M   'P 1'
_cell_length_a   10.27540047
_cell_length_b   10.29534088
_cell_length_c   10.29534141
_cell_angle_alpha   109.51043065
_cell_angle_beta   109.43198262
_cell_angle_gamma   109.43198199
_symmetry_Int_Tables_number   1
_chemical_formula_structural   Yb12Al7Ga(SiO4)12
_chemical_formula_sum   'Yb12 Al7 Ga1 Si12 O48'
_cell_volume   838.81932816
_cell_formula_units_Z   1
loop_
 _symmetry_equiv_pos_site_id
 _symmetry_equiv_pos_as_xyz
  1  'x, y, z'
loop_
 _atom_site_type_symbol
 _atom_site_label
 _atom_site_symmetry_multiplicity
 _atom_site_fract_x
 _atom_site_fract_y
 _atom_site_fract_z
 _atom_site_occupancy
  Yb  Yb0  1  0.375817  0.750639  0.124912  1
  Yb  Yb1  1  0.250905  0.375088  0.125729  1
  Yb  Yb2  1  0.375414  0.125312  0.249943  1
  Yb  Yb3  1  0.874824  0.625729  0.250640  1
  Yb  Yb4  1  0.750101  0.124632  0.374688  1
  Yb  Yb5  1  0.125471  0.250057  0.375369  1
  Yb  Yb6  1  0.874529  0.749944  0.624630  1
  Yb  Yb7  1  0.249899  0.875368  0.625313  1
  Yb  Yb8  1  0.125177  0.374272  0.749360  1
  Yb  Yb9  1  0.624587  0.874688  0.750057  1
  Yb  Yb10  1  0.749095  0.624913  0.874272  1
  Yb  Yb11  1  0.624182  0.249360  0.875088  1
  Al  Al12  1  0.000000  0.000000  0.000000  1
  Al  Al13  1  0.500000  0.000000  0.000000  1
  Al  Al14  1  0.499999  0.500000  0.000000  1
  Al  Al15  1  0.000000  0.000000  0.500000  1
  Al  Al16  1  0.499999  0.500000  0.500000  1
  Al  Al17  1  0.000000  0.500000  0.500000  1
  Al  Al18  1  0.499999  0.000000  0.500000  1
  Ga  Ga19  1  0.000000  0.499999  0.000000  1
  Si  Si20  1  0.873807  0.247966  0.125983  1
  Si  Si21  1  0.749983  0.874801  0.124993  1
  Si  Si22  1  0.624989  0.375006  0.249808  1
  Si  Si23  1  0.125842  0.878018  0.252035  1
  Si  Si24  1  0.252176  0.625982  0.378018  1
  Si  Si25  1  0.624819  0.749808  0.374801  1
  Si  Si26  1  0.747825  0.374017  0.621981  1
  Si  Si27  1  0.375180  0.250191  0.625198  1
  Si  Si28  1  0.874159  0.121983  0.747965  1
  Si  Si29  1  0.375011  0.624993  0.750192  1
  Si  Si30  1  0.250018  0.125198  0.875007  1
  Si  Si31  1  0.126193  0.752035  0.874017  1
  O  O32  1  0.198032  0.114258  0.009131  1
  O  O33  1  0.311851  0.896872  0.009839  1
  O  O34  1  0.697741  0.688676  0.083680  1
  O  O35  1  0.882230  0.394060  0.087916  1
  O  O36  1  0.614060  0.416320  0.104996  1
  O  O37  1  0.988171  0.693855  0.105940  1
  O  O38  1  0.008951  0.197957  0.114395  1
  O  O39  1  0.604856  0.916082  0.114467  1
  O  O40  1  0.205686  0.587915  0.193855  1
  O  O41  1  0.490936  0.604996  0.188677  1
  O  O42  1  0.115448  0.011681  0.199456  1
  O  O43  1  0.584303  0.189192  0.197998  1
  O  O44  1  0.310992  0.916436  0.302042  1
  O  O45  1  0.490390  0.385534  0.301616  1
  O  O46  1  0.915993  0.300544  0.312226  1
  O  O47  1  0.895111  0.008805  0.310808  1
  O  O48  1  0.583774  0.894873  0.385740  1
  O  O49  1  0.302014  0.490162  0.387034  1
  O  O50  1  0.811098  0.509131  0.394873  1
  O  O51  1  0.085022  0.887033  0.396873  1
  O  O52  1  0.811226  0.801615  0.416081  1
  O  O53  1  0.105445  0.614395  0.416437  1
  O  O54  1  0.386306  0.302003  0.491195  1
  O  O55  1  0.603767  0.187775  0.488319  1
  O  O56  1  0.396233  0.812226  0.511681  1
  O  O57  1  0.613695  0.697998  0.508807  1
  O  O58  1  0.894554  0.385604  0.583563  1
  O  O59  1  0.188774  0.198385  0.583919  1
  O  O60  1  0.914978  0.112967  0.603128  1
  O  O61  1  0.188902  0.490869  0.605126  1
  O  O62  1  0.416224  0.105126  0.614258  1
  O  O63  1  0.697988  0.509839  0.612968  1
  O  O64  1  0.104889  0.991194  0.689192  1
  O  O65  1  0.084006  0.699456  0.687774  1
  O  O66  1  0.689007  0.083563  0.697958  1
  O  O67  1  0.509611  0.614467  0.698385  1
  O  O68  1  0.415696  0.810807  0.802001  1
  O  O69  1  0.884552  0.988319  0.800545  1
  O  O70  1  0.509064  0.395005  0.811323  1
  O  O71  1  0.794314  0.412084  0.806144  1
  O  O72  1  0.395144  0.083917  0.885533  1
  O  O73  1  0.991049  0.802043  0.885606  1
  O  O74  1  0.385940  0.583679  0.895003  1
  O  O75  1  0.011829  0.306146  0.894060  1
  O  O76  1  0.302260  0.311324  0.916320  1
  O  O77  1  0.117770  0.605940  0.912084  1
  O  O78  1  0.688149  0.103127  0.990160  1
  O  O79  1  0.801968  0.885742  0.990870  1
