# generated using pymatgen
data_Zr2Ga2Si2Mo3
_symmetry_space_group_name_H-M   'P 1'
_cell_length_a   6.79378600
_cell_length_b   6.68378063
_cell_length_c   6.90631224
_cell_angle_alpha   70.54622667
_cell_angle_beta   90.00000000
_cell_angle_gamma   90.00000000
_symmetry_Int_Tables_number   1
_chemical_formula_structural   Zr2Ga2Si2Mo3
_chemical_formula_sum   'Zr4 Ga4 Si4 Mo6'
_cell_volume   295.69959668
_cell_formula_units_Z   2
loop_
 _symmetry_equiv_pos_site_id
 _symmetry_equiv_pos_as_xyz
  1  'x, y, z'
loop_
 _atom_site_type_symbol
 _atom_site_label
 _atom_site_symmetry_multiplicity
 _atom_site_fract_x
 _atom_site_fract_y
 _atom_site_fract_z
 _atom_site_occupancy
  Zr  Zr0  1  0.332658  0.560602  0.801683  1
  Zr  Zr1  1  0.832658  0.939398  0.198317  1
  Zr  Zr2  1  0.667342  0.439398  0.198317  1
  Zr  Zr3  1  0.167342  0.060602  0.801683  1
  Ga  Ga4  1  0.541100  0.853483  0.921911  1
  Ga  Ga5  1  0.041100  0.646517  0.078089  1
  Ga  Ga6  1  0.458900  0.146517  0.078089  1
  Ga  Ga7  1  0.958900  0.353483  0.921911  1
  Si  Si8  1  0.130808  0.869510  0.501792  1
  Si  Si9  1  0.630808  0.630490  0.498208  1
  Si  Si10  1  0.869192  0.130490  0.498208  1
  Si  Si11  1  0.369192  0.369510  0.501792  1
  Mo  Mo12  1  0.500000  0.000000  0.500000  1
  Mo  Mo13  1  0.000000  0.500000  0.500000  1
  Mo  Mo14  1  0.834011  0.751412  0.737680  1
  Mo  Mo15  1  0.334011  0.748588  0.262320  1
  Mo  Mo16  1  0.165989  0.248588  0.262320  1
  Mo  Mo17  1  0.665989  0.251412  0.737680  1
