# generated using pymatgen
data_HoTh3(CoB4)4
_symmetry_space_group_name_H-M   'P 1'
_cell_length_a   6.90232887
_cell_length_b   6.90232861
_cell_length_c   6.90232868
_cell_angle_alpha   112.47037470
_cell_angle_beta   112.47037038
_cell_angle_gamma   103.62631462
_symmetry_Int_Tables_number   1
_chemical_formula_structural   HoTh3(CoB4)4
_chemical_formula_sum   'Ho1 Th3 Co4 B16'
_cell_volume   251.19411385
_cell_formula_units_Z   1
loop_
 _symmetry_equiv_pos_site_id
 _symmetry_equiv_pos_as_xyz
  1  'x, y, z'
loop_
 _atom_site_type_symbol
 _atom_site_label
 _atom_site_symmetry_multiplicity
 _atom_site_fract_x
 _atom_site_fract_y
 _atom_site_fract_z
 _atom_site_occupancy
  Ho  Ho0  1  0.250000  0.750000  0.500000  1
  Th  Th1  1  0.213295  0.213295  0.000000  1
  Th  Th2  1  0.786705  0.786705  0.000000  1
  Th  Th3  1  0.750000  0.250000  0.500000  1
  Co  Co4  1  0.499850  0.269345  0.769495  1
  Co  Co5  1  0.499850  0.730355  0.230505  1
  Co  Co6  1  0.730655  0.500150  0.230505  1
  Co  Co7  1  0.269645  0.500150  0.769495  1
  B  B8  1  0.111365  0.276057  0.388224  1
  B  B9  1  0.887833  0.723141  0.611776  1
  B  B10  1  0.887833  0.276057  0.164693  1
  B  B11  1  0.111365  0.723141  0.835307  1
  B  B12  1  0.723943  0.888635  0.611776  1
  B  B13  1  0.276859  0.112167  0.388224  1
  B  B14  1  0.723943  0.112167  0.835307  1
  B  B15  1  0.276859  0.888635  0.164693  1
  B  B16  1  0.416755  0.420156  0.536384  1
  B  B17  1  0.883772  0.880371  0.463616  1
  B  B18  1  0.579844  0.116228  0.996599  1
  B  B19  1  0.119629  0.583245  0.003401  1
  B  B20  1  0.579844  0.583245  0.463616  1
  B  B21  1  0.119629  0.116228  0.536384  1
  B  B22  1  0.883772  0.420156  0.003401  1
  B  B23  1  0.416755  0.880371  0.996599  1
