# generated using pymatgen
data_HoTm3Th4(ReC2)4
_symmetry_space_group_name_H-M   'P 1'
_cell_length_a   5.24953300
_cell_length_b   6.65149313
_cell_length_c   9.81993619
_cell_angle_alpha   90.09202141
_cell_angle_beta   90.00000000
_cell_angle_gamma   90.00000000
_symmetry_Int_Tables_number   1
_chemical_formula_structural   HoTm3Th4(ReC2)4
_chemical_formula_sum   'Ho1 Tm3 Th4 Re4 C8'
_cell_volume   342.88455460
_cell_formula_units_Z   1
loop_
 _symmetry_equiv_pos_site_id
 _symmetry_equiv_pos_as_xyz
  1  'x, y, z'
loop_
 _atom_site_type_symbol
 _atom_site_label
 _atom_site_symmetry_multiplicity
 _atom_site_fract_x
 _atom_site_fract_y
 _atom_site_fract_z
 _atom_site_occupancy
  Ho  Ho0  1  0.750000  0.174878  0.948427  1
  Tm  Tm1  1  0.250000  0.826993  0.052619  1
  Tm  Tm2  1  0.750000  0.672882  0.552445  1
  Tm  Tm3  1  0.250000  0.327411  0.447366  1
  Th  Th4  1  0.250000  0.469969  0.785817  1
  Th  Th5  1  0.750000  0.029612  0.286871  1
  Th  Th6  1  0.250000  0.970058  0.713807  1
  Th  Th7  1  0.750000  0.529913  0.214178  1
  Re  Re8  1  0.250000  0.272215  0.136250  1
  Re  Re9  1  0.750000  0.227660  0.635078  1
  Re  Re10  1  0.250000  0.772233  0.364559  1
  Re  Re11  1  0.750000  0.727780  0.863959  1
  C  C12  1  0.250000  0.167170  0.947478  1
  C  C13  1  0.750000  0.831202  0.052926  1
  C  C14  1  0.250000  0.666825  0.552865  1
  C  C15  1  0.750000  0.333054  0.447016  1
  C  C16  1  0.250000  0.041080  0.262146  1
  C  C17  1  0.750000  0.459441  0.760964  1
  C  C18  1  0.250000  0.541350  0.238045  1
  C  C19  1  0.750000  0.958274  0.737183  1
