# generated using pymatgen
data_DyHo9(Si3O)2
_symmetry_space_group_name_H-M   'P 1'
_cell_length_a   8.36534906
_cell_length_b   8.36534920
_cell_length_c   6.19025600
_cell_angle_alpha   90.00000000
_cell_angle_beta   90.00000000
_cell_angle_gamma   120.01425128
_symmetry_Int_Tables_number   1
_chemical_formula_structural   DyHo9(Si3O)2
_chemical_formula_sum   'Dy1 Ho9 Si6 O2'
_cell_volume   375.09821634
_cell_formula_units_Z   1
loop_
 _symmetry_equiv_pos_site_id
 _symmetry_equiv_pos_as_xyz
  1  'x, y, z'
loop_
 _atom_site_type_symbol
 _atom_site_label
 _atom_site_symmetry_multiplicity
 _atom_site_fract_x
 _atom_site_fract_y
 _atom_site_fract_z
 _atom_site_occupancy
  Dy  Dy0  1  0.767524  0.767524  0.250000  1
  Ho  Ho1  1  0.768120  0.000185  0.750000  1
  Ho  Ho2  1  0.000046  0.232018  0.250000  1
  Ho  Ho3  1  0.000185  0.768120  0.750000  1
  Ho  Ho4  1  0.231908  0.231908  0.750000  1
  Ho  Ho5  1  0.232018  0.000046  0.250000  1
  Ho  Ho6  1  0.666604  0.333110  0.999935  1
  Ho  Ho7  1  0.333110  0.666604  0.500065  1
  Ho  Ho8  1  0.333110  0.666604  0.999935  1
  Ho  Ho9  1  0.666604  0.333110  0.500065  1
  Si  Si10  1  0.398318  0.999991  0.750000  1
  Si  Si11  1  0.397983  0.397983  0.250000  1
  Si  Si12  1  0.000413  0.601314  0.250000  1
  Si  Si13  1  0.999991  0.398318  0.750000  1
  Si  Si14  1  0.601588  0.601588  0.750000  1
  Si  Si15  1  0.601314  0.000413  0.250000  1
  O  O16  1  0.000582  0.000582  0.500718  1
  O  O17  1  0.000582  0.000582  0.999282  1
