# generated using pymatgen
data_Ti18Si16OsW
_symmetry_space_group_name_H-M   'P 1'
_cell_length_a   6.66974570
_cell_length_b   6.66974554
_cell_length_c   12.16725689
_cell_angle_alpha   89.80685992
_cell_angle_beta   90.19313998
_cell_angle_gamma   90.03440153
_symmetry_Int_Tables_number   1
_chemical_formula_structural   Ti18Si16OsW
_chemical_formula_sum   'Ti18 Si16 Os1 W1'
_cell_volume   541.26034261
_cell_formula_units_Z   1
loop_
 _symmetry_equiv_pos_site_id
 _symmetry_equiv_pos_as_xyz
  1  'x, y, z'
loop_
 _atom_site_type_symbol
 _atom_site_label
 _atom_site_symmetry_multiplicity
 _atom_site_fract_x
 _atom_site_fract_y
 _atom_site_fract_z
 _atom_site_occupancy
  Ti  Ti0  1  0.995525  0.147166  0.623634  1
  Ti  Ti1  1  0.352197  0.499658  0.869779  1
  Ti  Ti2  1  0.649757  0.504080  0.371208  1
  Ti  Ti3  1  0.499658  0.352197  0.130221  1
  Ti  Ti4  1  0.504080  0.649757  0.628792  1
  Ti  Ti5  1  0.005099  0.848870  0.120933  1
  Ti  Ti6  1  0.147166  0.995525  0.376366  1
  Ti  Ti7  1  0.848870  0.005099  0.879067  1
  Ti  Ti8  1  0.001610  0.345276  0.221053  1
  Ti  Ti9  1  0.155736  0.501432  0.469175  1
  Ti  Ti10  1  0.839840  0.500457  0.970214  1
  Ti  Ti11  1  0.501432  0.155736  0.530825  1
  Ti  Ti12  1  0.500457  0.839840  0.029786  1
  Ti  Ti13  1  0.998306  0.656592  0.720901  1
  Ti  Ti14  1  0.345276  0.001610  0.778947  1
  Ti  Ti15  1  0.656592  0.998306  0.279099  1
  Ti  Ti16  1  0.328299  0.671166  0.248162  1
  Ti  Ti17  1  0.671166  0.328299  0.751838  1
  Si  Si18  1  0.046567  0.300452  0.816237  1
  Si  Si19  1  0.199231  0.539874  0.062443  1
  Si  Si20  1  0.800878  0.454688  0.564982  1
  Si  Si21  1  0.539874  0.199231  0.937557  1
  Si  Si22  1  0.454688  0.800878  0.435018  1
  Si  Si23  1  0.955876  0.698214  0.313317  1
  Si  Si24  1  0.300452  0.046567  0.183763  1
  Si  Si25  1  0.698214  0.955876  0.686683  1
  Si  Si26  1  0.294751  0.356891  0.673404  1
  Si  Si27  1  0.141265  0.795038  0.921810  1
  Si  Si28  1  0.857841  0.205461  0.423384  1
  Si  Si29  1  0.795038  0.141265  0.078190  1
  Si  Si30  1  0.205461  0.857841  0.576616  1
  Si  Si31  1  0.705849  0.644199  0.173617  1
  Si  Si32  1  0.356891  0.294751  0.326596  1
  Si  Si33  1  0.644199  0.705849  0.826383  1
  Os  Os34  1  0.173715  0.173715  0.000000  1
  W  W35  1  0.828147  0.828147  0.500000  1
