# generated using pymatgen
data_CeTm7(AlRu)8
_symmetry_space_group_name_H-M   'P 1'
_cell_length_a   4.07061500
_cell_length_b   6.95306546
_cell_length_c   15.81728581
_cell_angle_alpha   90.43895710
_cell_angle_beta   90.00000000
_cell_angle_gamma   90.00000000
_symmetry_Int_Tables_number   1
_chemical_formula_structural   CeTm7(AlRu)8
_chemical_formula_sum   'Ce1 Tm7 Al8 Ru8'
_cell_volume   447.66749670
_cell_formula_units_Z   1
loop_
 _symmetry_equiv_pos_site_id
 _symmetry_equiv_pos_as_xyz
  1  'x, y, z'
loop_
 _atom_site_type_symbol
 _atom_site_label
 _atom_site_symmetry_multiplicity
 _atom_site_fract_x
 _atom_site_fract_y
 _atom_site_fract_z
 _atom_site_occupancy
  Ce  Ce0  1  0.250000  0.536993  0.719428  1
  Tm  Tm1  1  0.750000  0.962617  0.218600  1
  Tm  Tm2  1  0.250000  0.157728  0.560846  1
  Tm  Tm3  1  0.750000  0.841104  0.436293  1
  Tm  Tm4  1  0.750000  0.462328  0.281431  1
  Tm  Tm5  1  0.750000  0.342490  0.064543  1
  Tm  Tm6  1  0.250000  0.658495  0.938388  1
  Tm  Tm7  1  0.250000  0.039426  0.781728  1
  Al  Al8  1  0.750000  0.503952  0.562039  1
  Al  Al9  1  0.750000  0.362420  0.852481  1
  Al  Al10  1  0.750000  0.998544  0.935082  1
  Al  Al11  1  0.750000  0.874100  0.650173  1
  Al  Al12  1  0.250000  0.499434  0.433531  1
  Al  Al13  1  0.250000  0.996686  0.066468  1
  Al  Al14  1  0.250000  0.632635  0.151631  1
  Al  Al15  1  0.250000  0.132109  0.348289  1
  Ru  Ru16  1  0.750000  0.742311  0.808967  1
  Ru  Ru17  1  0.250000  0.234221  0.938018  1
  Ru  Ru18  1  0.750000  0.260985  0.436311  1
  Ru  Ru19  1  0.250000  0.753796  0.312532  1
  Ru  Ru20  1  0.750000  0.761338  0.063436  1
  Ru  Ru21  1  0.750000  0.257244  0.686049  1
  Ru  Ru22  1  0.250000  0.252105  0.187418  1
  Ru  Ru23  1  0.250000  0.736941  0.566319  1
