# generated using pymatgen
data_Hf7Co16CuP12
_symmetry_space_group_name_H-M   'P 1'
_cell_length_a   12.01402603
_cell_length_b   12.01402470
_cell_length_c   3.62674200
_cell_angle_alpha   90.00000000
_cell_angle_beta   90.00000000
_cell_angle_gamma   120.49927911
_symmetry_Int_Tables_number   1
_chemical_formula_structural   Hf7Co16CuP12
_chemical_formula_sum   'Hf7 Co16 Cu1 P12'
_cell_volume   451.04238810
_cell_formula_units_Z   1
loop_
 _symmetry_equiv_pos_site_id
 _symmetry_equiv_pos_as_xyz
  1  'x, y, z'
loop_
 _atom_site_type_symbol
 _atom_site_label
 _atom_site_symmetry_multiplicity
 _atom_site_fract_x
 _atom_site_fract_y
 _atom_site_fract_z
 _atom_site_occupancy
  Hf  Hf0  1  0.817180  0.817180  0.500000  1
  Hf  Hf1  1  0.998447  0.175600  0.500000  1
  Hf  Hf2  1  0.554410  0.997677  0.000000  1
  Hf  Hf3  1  0.331256  0.666471  0.000000  1
  Hf  Hf4  1  0.666471  0.331256  0.000000  1
  Hf  Hf5  1  0.997677  0.554410  0.000000  1
  Hf  Hf6  1  0.175600  0.998447  0.500000  1
  Co  Co7  1  0.629128  0.818959  0.000000  1
  Co  Co8  1  0.376164  0.200814  0.000000  1
  Co  Co9  1  0.000361  0.721779  0.500000  1
  Co  Co10  1  0.288081  0.288081  0.500000  1
  Co  Co11  1  0.872450  0.354881  0.500000  1
  Co  Co12  1  0.721779  0.000361  0.500000  1
  Co  Co13  1  0.818959  0.629128  0.000000  1
  Co  Co14  1  0.178101  0.807973  0.000000  1
  Co  Co15  1  0.354881  0.872450  0.500000  1
  Co  Co16  1  0.126167  0.478664  0.500000  1
  Co  Co17  1  0.642018  0.513072  0.500000  1
  Co  Co18  1  0.002623  0.002623  0.000000  1
  Co  Co19  1  0.513072  0.642018  0.500000  1
  Co  Co20  1  0.478664  0.126167  0.500000  1
  Co  Co21  1  0.200814  0.376164  0.000000  1
  Co  Co22  1  0.807973  0.178101  0.000000  1
  Cu  Cu23  1  0.450747  0.450747  0.000000  1
  P  P24  1  0.004984  0.346852  0.000000  1
  P  P25  1  0.824525  0.516784  0.500000  1
  P  P26  1  0.689247  0.172982  0.500000  1
  P  P27  1  0.179283  0.179283  0.000000  1
  P  P28  1  0.640690  0.640690  0.000000  1
  P  P29  1  0.825404  0.997951  0.000000  1
  P  P30  1  0.516784  0.824525  0.500000  1
  P  P31  1  0.172982  0.689247  0.500000  1
  P  P32  1  0.346852  0.004984  0.000000  1
  P  P33  1  0.484185  0.314089  0.500000  1
  P  P34  1  0.997951  0.825404  0.000000  1
  P  P35  1  0.314089  0.484185  0.500000  1
