# generated using pymatgen
data_Hf4TiCr2Si4Tc
_symmetry_space_group_name_H-M   'P 1'
_cell_length_a   3.49304900
_cell_length_b   6.79362559
_cell_length_c   8.02783888
_cell_angle_alpha   90.00265426
_cell_angle_beta   90.00000000
_cell_angle_gamma   90.00000000
_symmetry_Int_Tables_number   1
_chemical_formula_structural   Hf4TiCr2Si4Tc
_chemical_formula_sum   'Hf4 Ti1 Cr2 Si4 Tc1'
_cell_volume   190.50436608
_cell_formula_units_Z   1
loop_
 _symmetry_equiv_pos_site_id
 _symmetry_equiv_pos_as_xyz
  1  'x, y, z'
loop_
 _atom_site_type_symbol
 _atom_site_label
 _atom_site_symmetry_multiplicity
 _atom_site_fract_x
 _atom_site_fract_y
 _atom_site_fract_z
 _atom_site_occupancy
  Hf  Hf0  1  0.750000  0.455838  0.164483  1
  Hf  Hf1  1  0.750000  0.961217  0.325735  1
  Hf  Hf2  1  0.250000  0.544240  0.836495  1
  Hf  Hf3  1  0.250000  0.043755  0.668914  1
  Ti  Ti4  1  0.250000  0.628387  0.439274  1
  Cr  Cr5  1  0.750000  0.878599  0.940815  1
  Cr  Cr6  1  0.250000  0.124078  0.057826  1
  Si  Si7  1  0.750000  0.237667  0.871139  1
  Si  Si8  1  0.750000  0.744362  0.645491  1
  Si  Si9  1  0.250000  0.762398  0.129168  1
  Si  Si10  1  0.250000  0.255100  0.357742  1
  Tc  Tc11  1  0.750000  0.364359  0.562917  1
