# generated using pymatgen
data_Cs3Sm2Br9
_symmetry_space_group_name_H-M   'P 1'
_cell_length_a   10.58953818
_cell_length_b   10.58953770
_cell_length_c   10.58953830
_cell_angle_alpha   83.89719788
_cell_angle_beta   83.89719671
_cell_angle_gamma   83.89718921
_symmetry_Int_Tables_number   1
_chemical_formula_structural   Cs3Sm2Br9
_chemical_formula_sum   'Cs6 Sm4 Br18'
_cell_volume   1168.63787195
_cell_formula_units_Z   2
loop_
 _symmetry_equiv_pos_site_id
 _symmetry_equiv_pos_as_xyz
  1  'x, y, z'
loop_
 _atom_site_type_symbol
 _atom_site_label
 _atom_site_symmetry_multiplicity
 _atom_site_fract_x
 _atom_site_fract_y
 _atom_site_fract_z
 _atom_site_occupancy
  Cs  Cs0  1  0.750000  0.411867  0.088133  1
  Cs  Cs1  1  0.088133  0.750000  0.411867  1
  Cs  Cs2  1  0.250000  0.588133  0.911867  1
  Cs  Cs3  1  0.411867  0.088133  0.750000  1
  Cs  Cs4  1  0.911867  0.250000  0.588133  1
  Cs  Cs5  1  0.588133  0.911867  0.250000  1
  Sm  Sm6  1  0.349472  0.349472  0.349472  1
  Sm  Sm7  1  0.650528  0.650528  0.650528  1
  Sm  Sm8  1  0.849472  0.849472  0.849472  1
  Sm  Sm9  1  0.150528  0.150528  0.150528  1
  Br  Br10  1  0.417096  0.765380  0.580784  1
  Br  Br11  1  0.234620  0.419216  0.582904  1
  Br  Br12  1  0.405554  0.250000  0.094446  1
  Br  Br13  1  0.094446  0.405554  0.250000  1
  Br  Br14  1  0.919216  0.734620  0.082904  1
  Br  Br15  1  0.917096  0.080784  0.265380  1
  Br  Br16  1  0.594446  0.750000  0.905554  1
  Br  Br17  1  0.750000  0.905554  0.594446  1
  Br  Br18  1  0.580784  0.417096  0.765380  1
  Br  Br19  1  0.250000  0.094446  0.405554  1
  Br  Br20  1  0.765380  0.580784  0.417096  1
  Br  Br21  1  0.734620  0.082904  0.919216  1
  Br  Br22  1  0.080784  0.265380  0.917096  1
  Br  Br23  1  0.419216  0.582904  0.234620  1
  Br  Br24  1  0.582904  0.234620  0.419216  1
  Br  Br25  1  0.905554  0.594446  0.750000  1
  Br  Br26  1  0.265380  0.917096  0.080784  1
  Br  Br27  1  0.082904  0.919216  0.734620  1
