# generated using pymatgen
data_Hf6Mn5Si12Ru
_symmetry_space_group_name_H-M   'P 1'
_cell_length_a   9.81034108
_cell_length_b   9.81045166
_cell_length_c   9.81051935
_cell_angle_alpha   149.69225383
_cell_angle_beta   132.57401282
_cell_angle_gamma   57.32399734
_symmetry_Int_Tables_number   1
_chemical_formula_structural   Hf6Mn5Si12Ru
_chemical_formula_sum   'Hf6 Mn5 Si12 Ru1'
_cell_volume   348.39700118
_cell_formula_units_Z   1
loop_
 _symmetry_equiv_pos_site_id
 _symmetry_equiv_pos_as_xyz
  1  'x, y, z'
loop_
 _atom_site_type_symbol
 _atom_site_label
 _atom_site_symmetry_multiplicity
 _atom_site_fract_x
 _atom_site_fract_y
 _atom_site_fract_z
 _atom_site_occupancy
  Hf  Hf0  1  0.857938  0.595708  0.262239  1
  Hf  Hf1  1  0.139945  0.404012  0.735898  1
  Hf  Hf2  1  0.666503  0.404287  0.262229  1
  Hf  Hf3  1  0.331909  0.595987  0.735913  1
  Hf  Hf4  1  0.140453  0.141952  0.998504  1
  Hf  Hf5  1  0.856551  0.858055  0.998513  1
  Mn  Mn6  1  0.747408  0.000060  0.747368  1
  Mn  Mn7  1  0.999487  0.000550  0.500511  1
  Mn  Mn8  1  0.499934  0.500979  0.500513  1
  Mn  Mn9  1  0.499932  0.999483  0.999029  1
  Mn  Mn10  1  0.999530  0.498989  0.998894  1
  Si  Si11  1  0.491347  0.139810  0.351511  1
  Si  Si12  1  0.512887  0.863570  0.649385  1
  Si  Si13  1  0.211605  0.860056  0.351441  1
  Si  Si14  1  0.785928  0.136602  0.649451  1
  Si  Si15  1  0.701161  0.701181  0.999915  1
  Si  Si16  1  0.298527  0.298795  0.999750  1
  Si  Si17  1  0.507220  0.735066  0.242281  1
  Si  Si18  1  0.507214  0.264923  0.772134  1
  Si  Si19  1  0.995061  0.258561  0.253620  1
  Si  Si20  1  0.211012  0.711538  0.499414  1
  Si  Si21  1  0.995053  0.741420  0.736474  1
  Si  Si22  1  0.787995  0.288455  0.499611  1
  Ru  Ru23  1  0.255398  0.999962  0.255401  1
