# generated using pymatgen
data_Er3Tm5In3Co
_symmetry_space_group_name_H-M   'P 1'
_cell_length_a   10.24352400
_cell_length_b   10.24352399
_cell_length_c   6.92084400
_cell_angle_alpha   90.00000000
_cell_angle_beta   90.00000000
_cell_angle_gamma   120.00000002
_symmetry_Int_Tables_number   1
_chemical_formula_structural   Er3Tm5In3Co
_chemical_formula_sum   'Er6 Tm10 In6 Co2'
_cell_volume   628.90995611
_cell_formula_units_Z   2
loop_
 _symmetry_equiv_pos_site_id
 _symmetry_equiv_pos_as_xyz
  1  'x, y, z'
loop_
 _atom_site_type_symbol
 _atom_site_label
 _atom_site_symmetry_multiplicity
 _atom_site_fract_x
 _atom_site_fract_y
 _atom_site_fract_z
 _atom_site_occupancy
  Er  Er0  1  0.534007  0.068014  0.513130  1
  Er  Er1  1  0.931986  0.465993  0.513130  1
  Er  Er2  1  0.534007  0.465993  0.513130  1
  Er  Er3  1  0.465993  0.931986  0.013130  1
  Er  Er4  1  0.068014  0.534007  0.013130  1
  Er  Er5  1  0.465993  0.534007  0.013130  1
  Tm  Tm6  1  0.178446  0.356892  0.721415  1
  Tm  Tm7  1  0.643108  0.821554  0.721415  1
  Tm  Tm8  1  0.178446  0.821554  0.721415  1
  Tm  Tm9  1  0.821554  0.643108  0.221415  1
  Tm  Tm10  1  0.356892  0.178446  0.221415  1
  Tm  Tm11  1  0.821554  0.178446  0.221415  1
  Tm  Tm12  1  0.666667  0.333333  0.903323  1
  Tm  Tm13  1  0.333333  0.666667  0.403323  1
  Tm  Tm14  1  0.000000  0.000000  0.501161  1
  Tm  Tm15  1  0.000000  0.000000  0.001161  1
  In  In16  1  0.837177  0.674353  0.760541  1
  In  In17  1  0.325647  0.162823  0.760541  1
  In  In18  1  0.837177  0.162823  0.760541  1
  In  In19  1  0.162823  0.325647  0.260541  1
  In  In20  1  0.674353  0.837177  0.260541  1
  In  In21  1  0.162823  0.837177  0.260541  1
  Co  Co22  1  0.666667  0.333333  0.289259  1
  Co  Co23  1  0.333333  0.666667  0.789259  1
