# generated using pymatgen
data_Tb3Si2ClO8
_symmetry_space_group_name_H-M   'P 1'
_cell_length_a   6.85956600
_cell_length_b   17.70909100
_cell_length_c   6.18069600
_cell_angle_alpha   90.00000000
_cell_angle_beta   90.00000000
_cell_angle_gamma   90.00000000
_symmetry_Int_Tables_number   1
_chemical_formula_structural   Tb3Si2ClO8
_chemical_formula_sum   'Tb12 Si8 Cl4 O32'
_cell_volume   750.81042099
_cell_formula_units_Z   4
loop_
 _symmetry_equiv_pos_site_id
 _symmetry_equiv_pos_as_xyz
  1  'x, y, z'
loop_
 _atom_site_type_symbol
 _atom_site_label
 _atom_site_symmetry_multiplicity
 _atom_site_fract_x
 _atom_site_fract_y
 _atom_site_fract_z
 _atom_site_occupancy
  Tb  Tb0  1  0.705408  0.750000  0.113333  1
  Tb  Tb1  1  0.014954  0.091599  0.127145  1
  Tb  Tb2  1  0.014954  0.408402  0.127145  1
  Tb  Tb3  1  0.514954  0.091599  0.372855  1
  Tb  Tb4  1  0.514954  0.408402  0.372855  1
  Tb  Tb5  1  0.205409  0.750000  0.386667  1
  Tb  Tb6  1  0.794592  0.250000  0.613334  1
  Tb  Tb7  1  0.485047  0.591598  0.627145  1
  Tb  Tb8  1  0.485047  0.908401  0.627145  1
  Tb  Tb9  1  0.985046  0.591598  0.872856  1
  Tb  Tb10  1  0.985046  0.908401  0.872856  1
  Tb  Tb11  1  0.294592  0.250000  0.886667  1
  Si  Si12  1  0.476324  0.599618  0.122451  1
  Si  Si13  1  0.476324  0.900382  0.122451  1
  Si  Si14  1  0.976323  0.599618  0.377550  1
  Si  Si15  1  0.976323  0.900382  0.377550  1
  Si  Si16  1  0.023677  0.099618  0.622451  1
  Si  Si17  1  0.023677  0.400382  0.622451  1
  Si  Si18  1  0.523677  0.099618  0.877550  1
  Si  Si19  1  0.523677  0.400382  0.877550  1
  Cl  Cl20  1  0.043239  0.250000  0.240953  1
  Cl  Cl21  1  0.543239  0.250000  0.259047  1
  Cl  Cl22  1  0.456760  0.750000  0.740952  1
  Cl  Cl23  1  0.956761  0.750000  0.759048  1
  O  O24  1  0.332722  0.118764  0.031620  1
  O  O25  1  0.332722  0.381236  0.031620  1
  O  O26  1  0.697985  0.095242  0.053260  1
  O  O27  1  0.697985  0.404758  0.053260  1
  O  O28  1  0.988201  0.529592  0.210086  1
  O  O29  1  0.988201  0.970408  0.210086  1
  O  O30  1  0.966946  0.676028  0.220651  1
  O  O31  1  0.966946  0.823973  0.220651  1
  O  O32  1  0.466946  0.676028  0.279349  1
  O  O33  1  0.466946  0.823973  0.279349  1
  O  O34  1  0.488200  0.529592  0.289914  1
  O  O35  1  0.488200  0.970408  0.289914  1
  O  O36  1  0.197984  0.095242  0.446740  1
  O  O37  1  0.197984  0.404758  0.446740  1
  O  O38  1  0.832721  0.118764  0.468381  1
  O  O39  1  0.832721  0.381236  0.468381  1
  O  O40  1  0.167280  0.618764  0.531620  1
  O  O41  1  0.167280  0.881236  0.531620  1
  O  O42  1  0.802015  0.595242  0.553259  1
  O  O43  1  0.802015  0.904758  0.553259  1
  O  O44  1  0.511799  0.029592  0.710086  1
  O  O45  1  0.511799  0.470408  0.710086  1
  O  O46  1  0.533054  0.176027  0.720651  1
  O  O47  1  0.533054  0.323973  0.720651  1
  O  O48  1  0.033055  0.176027  0.779350  1
  O  O49  1  0.033055  0.323973  0.779350  1
  O  O50  1  0.011799  0.029592  0.789915  1
  O  O51  1  0.011799  0.470408  0.789915  1
  O  O52  1  0.302015  0.595242  0.946741  1
  O  O53  1  0.302015  0.904758  0.946741  1
  O  O54  1  0.667279  0.618764  0.968379  1
  O  O55  1  0.667279  0.881236  0.968379  1
