# generated using pymatgen
data_Sr4BeSi6Au
_symmetry_space_group_name_H-M   'P 1'
_cell_length_a   8.53745768
_cell_length_b   8.23835567
_cell_length_c   6.24770491
_cell_angle_alpha   70.70447006
_cell_angle_beta   65.61065886
_cell_angle_gamma   43.68488361
_symmetry_Int_Tables_number   1
_chemical_formula_structural   Sr4BeSi6Au
_chemical_formula_sum   'Sr4 Be1 Si6 Au1'
_cell_volume   276.07140112
_cell_formula_units_Z   1
loop_
 _symmetry_equiv_pos_site_id
 _symmetry_equiv_pos_as_xyz
  1  'x, y, z'
loop_
 _atom_site_type_symbol
 _atom_site_label
 _atom_site_symmetry_multiplicity
 _atom_site_fract_x
 _atom_site_fract_y
 _atom_site_fract_z
 _atom_site_occupancy
  Sr  Sr0  1  0.246124  0.754284  0.245716  1
  Sr  Sr1  1  0.249823  0.249823  0.250177  1
  Sr  Sr2  1  0.749823  0.749823  0.750176  1
  Sr  Sr3  1  0.754285  0.246122  0.753877  1
  Be  Be4  1  0.666040  0.666038  0.333961  1
  Si  Si5  1  0.831006  0.831005  0.168995  1
  Si  Si6  1  0.828899  0.340734  0.171102  1
  Si  Si7  1  0.671515  0.164813  0.328486  1
  Si  Si8  1  0.340736  0.828897  0.659265  1
  Si  Si9  1  0.164814  0.671514  0.835187  1
  Si  Si10  1  0.163320  0.163319  0.836681  1
  Au  Au11  1  0.333622  0.333621  0.666379  1
