# generated using pymatgen
data_Yb3Lu(TcB4)4
_symmetry_space_group_name_H-M   'P 1'
_cell_length_a   3.55825300
_cell_length_b   5.96269888
_cell_length_c   11.53034562
_cell_angle_alpha   89.90906879
_cell_angle_beta   90.00000000
_cell_angle_gamma   90.00000000
_symmetry_Int_Tables_number   1
_chemical_formula_structural   Yb3Lu(TcB4)4
_chemical_formula_sum   'Yb3 Lu1 Tc4 B16'
_cell_volume   244.63662725
_cell_formula_units_Z   1
loop_
 _symmetry_equiv_pos_site_id
 _symmetry_equiv_pos_as_xyz
  1  'x, y, z'
loop_
 _atom_site_type_symbol
 _atom_site_label
 _atom_site_symmetry_multiplicity
 _atom_site_fract_x
 _atom_site_fract_y
 _atom_site_fract_z
 _atom_site_occupancy
  Yb  Yb0  1  0.500000  0.371690  0.149481  1
  Yb  Yb1  1  0.500000  0.628952  0.849804  1
  Yb  Yb2  1  0.500000  0.128972  0.651298  1
  Lu  Lu3  1  0.500000  0.870950  0.349406  1
  Tc  Tc4  1  0.500000  0.369554  0.415006  1
  Tc  Tc5  1  0.500000  0.631881  0.582270  1
  Tc  Tc6  1  0.500000  0.130707  0.917253  1
  Tc  Tc7  1  0.500000  0.870195  0.084812  1
  B  B8  1  0.000000  0.113639  0.048309  1
  B  B9  1  0.000000  0.885485  0.953100  1
  B  B10  1  0.000000  0.386090  0.547183  1
  B  B11  1  0.000000  0.613986  0.451428  1
  B  B12  1  0.000000  0.134264  0.467923  1
  B  B13  1  0.000000  0.865645  0.531131  1
  B  B14  1  0.000000  0.365694  0.968045  1
  B  B15  1  0.000000  0.634019  0.032434  1
  B  B16  1  0.000000  0.022349  0.194075  1
  B  B17  1  0.000000  0.977456  0.807336  1
  B  B18  1  0.000000  0.477800  0.692364  1
  B  B19  1  0.000000  0.523647  0.306647  1
  B  B20  1  0.000000  0.212873  0.314933  1
  B  B21  1  0.000000  0.785061  0.684966  1
  B  B22  1  0.000000  0.285868  0.815065  1
  B  B23  1  0.000000  0.713224  0.185731  1
