# generated using pymatgen
data_Nb6CrGa4OsC2
_symmetry_space_group_name_H-M   'P 1'
_cell_length_a   8.31973410
_cell_length_b   8.31973463
_cell_length_c   8.29836300
_cell_angle_alpha   60.08493453
_cell_angle_beta   60.08493240
_cell_angle_gamma   60.12366403
_symmetry_Int_Tables_number   1
_chemical_formula_structural   Nb6CrGa4OsC2
_chemical_formula_sum   'Nb12 Cr2 Ga8 Os2 C4'
_cell_volume   407.05957895
_cell_formula_units_Z   2
loop_
 _symmetry_equiv_pos_site_id
 _symmetry_equiv_pos_as_xyz
  1  'x, y, z'
loop_
 _atom_site_type_symbol
 _atom_site_label
 _atom_site_symmetry_multiplicity
 _atom_site_fract_x
 _atom_site_fract_y
 _atom_site_fract_z
 _atom_site_occupancy
  Nb  Nb0  1  0.552944  0.945736  0.555376  1
  Nb  Nb1  1  0.304264  0.697056  0.694624  1
  Nb  Nb2  1  0.697056  0.304264  0.304057  1
  Nb  Nb3  1  0.304264  0.697056  0.304057  1
  Nb  Nb4  1  0.693747  0.693747  0.306253  1
  Nb  Nb5  1  0.302693  0.302693  0.697307  1
  Nb  Nb6  1  0.556253  0.556253  0.943747  1
  Nb  Nb7  1  0.945736  0.552944  0.555376  1
  Nb  Nb8  1  0.552944  0.945736  0.945943  1
  Nb  Nb9  1  0.947307  0.947307  0.552693  1
  Nb  Nb10  1  0.697056  0.304264  0.694624  1
  Nb  Nb11  1  0.945736  0.552944  0.945943  1
  Cr  Cr12  1  0.125000  0.125000  0.125000  1
  Cr  Cr13  1  0.125000  0.125000  0.625000  1
  Ga  Ga14  1  0.914042  0.914042  0.910495  1
  Ga  Ga15  1  0.990642  0.334140  0.337609  1
  Ga  Ga16  1  0.334140  0.990642  0.337609  1
  Ga  Ga17  1  0.335958  0.335958  0.988576  1
  Ga  Ga18  1  0.915860  0.259358  0.912391  1
  Ga  Ga19  1  0.914042  0.914042  0.261424  1
  Ga  Ga20  1  0.259358  0.915860  0.912391  1
  Ga  Ga21  1  0.335958  0.335958  0.339505  1
  Os  Os22  1  0.625000  0.125000  0.125000  1
  Os  Os23  1  0.125000  0.625000  0.125000  1
  C  C24  1  0.625000  0.625000  0.625000  1
  C  C25  1  0.125000  0.625000  0.625000  1
  C  C26  1  0.625000  0.125000  0.625000  1
  C  C27  1  0.625000  0.625000  0.125000  1
