# generated using pymatgen
data_Sc4BeCu2Os5
_symmetry_space_group_name_H-M   'P 1'
_cell_length_a   5.06109452
_cell_length_b   5.10939184
_cell_length_c   8.53872500
_cell_angle_alpha   90.00000000
_cell_angle_beta   90.00000000
_cell_angle_gamma   120.31617275
_symmetry_Int_Tables_number   1
_chemical_formula_structural   Sc4BeCu2Os5
_chemical_formula_sum   'Sc4 Be1 Cu2 Os5'
_cell_volume   190.60962818
_cell_formula_units_Z   1
loop_
 _symmetry_equiv_pos_site_id
 _symmetry_equiv_pos_as_xyz
  1  'x, y, z'
loop_
 _atom_site_type_symbol
 _atom_site_label
 _atom_site_symmetry_multiplicity
 _atom_site_fract_x
 _atom_site_fract_y
 _atom_site_fract_z
 _atom_site_occupancy
  Sc  Sc0  1  0.324014  0.662007  0.434198  1
  Sc  Sc1  1  0.654075  0.327037  0.562376  1
  Sc  Sc2  1  0.654075  0.327037  0.937624  1
  Sc  Sc3  1  0.324014  0.662007  0.065802  1
  Be  Be4  1  0.335598  0.167799  0.250000  1
  Cu  Cu5  1  0.196444  0.354532  0.750000  1
  Cu  Cu6  1  0.196444  0.841911  0.750000  1
  Os  Os7  1  0.825023  0.653178  0.250000  1
  Os  Os8  1  0.696854  0.848427  0.750000  1
  Os  Os9  1  0.984217  0.992109  0.999338  1
  Os  Os10  1  0.825023  0.171846  0.250000  1
  Os  Os11  1  0.984217  0.992109  0.500662  1
