# generated using pymatgen
data_P4Ru3Pt4Rh
_symmetry_space_group_name_H-M   'P 1'
_cell_length_a   3.83464900
_cell_length_b   8.17794334
_cell_length_c   5.72779943
_cell_angle_alpha   89.85739538
_cell_angle_beta   90.00000000
_cell_angle_gamma   90.00000000
_symmetry_Int_Tables_number   1
_chemical_formula_structural   P4Ru3Pt4Rh
_chemical_formula_sum   'P4 Ru3 Pt4 Rh1'
_cell_volume   179.62061188
_cell_formula_units_Z   1
loop_
 _symmetry_equiv_pos_site_id
 _symmetry_equiv_pos_as_xyz
  1  'x, y, z'
loop_
 _atom_site_type_symbol
 _atom_site_label
 _atom_site_symmetry_multiplicity
 _atom_site_fract_x
 _atom_site_fract_y
 _atom_site_fract_z
 _atom_site_occupancy
  P  P0  1  0.250000  0.652768  0.678637  1
  P  P1  1  0.750000  0.349995  0.315743  1
  P  P2  1  0.250000  0.147099  0.824941  1
  P  P3  1  0.750000  0.849707  0.177572  1
  Ru  Ru4  1  0.750000  0.620462  0.438394  1
  Ru  Ru5  1  0.250000  0.876826  0.939865  1
  Ru  Ru6  1  0.750000  0.123017  0.061583  1
  Pt  Pt7  1  0.750000  0.116641  0.563645  1
  Pt  Pt8  1  0.250000  0.885902  0.435914  1
  Pt  Pt9  1  0.750000  0.614366  0.936091  1
  Pt  Pt10  1  0.250000  0.385528  0.063935  1
  Rh  Rh11  1  0.250000  0.377689  0.563679  1
