# generated using pymatgen
data_Lu10In5Te
_symmetry_space_group_name_H-M   'P 1'
_cell_length_a   6.43447401
_cell_length_b   8.86010450
_cell_length_c   8.80285590
_cell_angle_alpha   120.21537291
_cell_angle_beta   90.00076890
_cell_angle_gamma   89.99847173
_symmetry_Int_Tables_number   1
_chemical_formula_structural   Lu10In5Te
_chemical_formula_sum   'Lu10 In5 Te1'
_cell_volume   433.67011846
_cell_formula_units_Z   1
loop_
 _symmetry_equiv_pos_site_id
 _symmetry_equiv_pos_as_xyz
  1  'x, y, z'
loop_
 _atom_site_type_symbol
 _atom_site_label
 _atom_site_symmetry_multiplicity
 _atom_site_fract_x
 _atom_site_fract_y
 _atom_site_fract_z
 _atom_site_occupancy
  Lu  Lu0  1  0.495528  0.329498  0.663282  1
  Lu  Lu1  1  0.495528  0.666216  0.336718  1
  Lu  Lu2  1  0.004456  0.666250  0.336751  1
  Lu  Lu3  1  0.004456  0.329499  0.663249  1
  Lu  Lu4  1  0.749984  0.230091  0.000000  1
  Lu  Lu5  1  0.750032  0.767178  0.758443  1
  Lu  Lu6  1  0.750032  0.008734  0.241557  1
  Lu  Lu7  1  0.250033  0.764931  0.000000  1
  Lu  Lu8  1  0.249988  0.235840  0.236983  1
  Lu  Lu9  1  0.249988  0.998857  0.763017  1
  In  In10  1  0.749990  0.401565  0.400765  1
  In  In11  1  0.749990  0.000800  0.599235  1
  In  In12  1  0.249990  0.395670  0.000000  1
  In  In13  1  0.250002  0.599777  0.603373  1
  In  In14  1  0.250002  0.996403  0.396627  1
  Te  Te15  1  0.750003  0.608695  0.000000  1
