# generated using pymatgen
data_Ho2ZnCoRu
_symmetry_space_group_name_H-M   'P 1'
_cell_length_a   4.15395220
_cell_length_b   5.36530664
_cell_length_c   5.36530586
_cell_angle_alpha   62.71680957
_cell_angle_beta   67.22505748
_cell_angle_gamma   67.22505838
_symmetry_Int_Tables_number   1
_chemical_formula_structural   Ho2ZnCoRu
_chemical_formula_sum   'Ho2 Zn1 Co1 Ru1'
_cell_volume   94.72737384
_cell_formula_units_Z   1
loop_
 _symmetry_equiv_pos_site_id
 _symmetry_equiv_pos_as_xyz
  1  'x, y, z'
loop_
 _atom_site_type_symbol
 _atom_site_label
 _atom_site_symmetry_multiplicity
 _atom_site_fract_x
 _atom_site_fract_y
 _atom_site_fract_z
 _atom_site_occupancy
  Ho  Ho0  1  0.208103  0.286612  0.297183  1
  Ho  Ho1  1  0.791897  0.702817  0.713388  1
  Zn  Zn2  1  0.000000  0.990911  0.009089  1
  Co  Co3  1  0.500000  0.726699  0.273301  1
  Ru  Ru4  1  0.500000  0.292961  0.707039  1
