# generated using pymatgen
data_Dy9Y3Co4SnPt
_symmetry_space_group_name_H-M   'P 1'
_cell_length_a   8.32672796
_cell_length_b   8.31775055
_cell_length_c   8.31775004
_cell_angle_alpha   106.91384641
_cell_angle_beta   110.45954391
_cell_angle_gamma   111.02382859
_symmetry_Int_Tables_number   1
_chemical_formula_structural   Dy9Y3Co4SnPt
_chemical_formula_sum   'Dy9 Y3 Co4 Sn1 Pt1'
_cell_volume   443.06183703
_cell_formula_units_Z   1
loop_
 _symmetry_equiv_pos_site_id
 _symmetry_equiv_pos_as_xyz
  1  'x, y, z'
loop_
 _atom_site_type_symbol
 _atom_site_label
 _atom_site_symmetry_multiplicity
 _atom_site_fract_x
 _atom_site_fract_y
 _atom_site_fract_z
 _atom_site_occupancy
  Dy  Dy0  1  0.523499  0.708639  0.814860  1
  Dy  Dy1  1  0.305729  0.620374  0.314990  1
  Dy  Dy2  1  0.305729  0.990740  0.685355  1
  Dy  Dy3  1  0.694306  0.379764  0.685287  1
  Dy  Dy4  1  0.694306  0.009019  0.314542  1
  Dy  Dy5  1  0.199309  0.214222  0.413348  1
  Dy  Dy6  1  0.800794  0.785892  0.586986  1
  Dy  Dy7  1  0.199309  0.785961  0.985086  1
  Dy  Dy8  1  0.800794  0.213808  0.014903  1
  Y  Y9  1  0.476915  0.291013  0.185902  1
  Y  Y10  1  0.104908  0.290907  0.814001  1
  Y  Y11  1  0.895157  0.709198  0.185959  1
  Co  Co12  1  0.499875  0.612315  0.111404  1
  Co  Co13  1  0.499875  0.388471  0.887560  1
  Co  Co14  1  0.378382  0.999951  0.378431  1
  Co  Co15  1  0.621635  0.000068  0.621567  1
  Sn  Sn16  1  0.999850  0.499941  0.499909  1
  Pt  Pt17  1  0.999628  0.999718  0.999910  1
