# generated using pymatgen
data_Y2Pd2O7
_symmetry_space_group_name_H-M   'P 1'
_cell_length_a   7.25850012
_cell_length_b   7.25850018
_cell_length_c   7.26211400
_cell_angle_alpha   120.01646180
_cell_angle_beta   120.01646208
_cell_angle_gamma   59.95207042
_symmetry_Int_Tables_number   1
_chemical_formula_structural   Y2Pd2O7
_chemical_formula_sum   'Y4 Pd4 O14'
_cell_volume   270.38105324
_cell_formula_units_Z   2
loop_
 _symmetry_equiv_pos_site_id
 _symmetry_equiv_pos_as_xyz
  1  'x, y, z'
loop_
 _atom_site_type_symbol
 _atom_site_label
 _atom_site_symmetry_multiplicity
 _atom_site_fract_x
 _atom_site_fract_y
 _atom_site_fract_z
 _atom_site_occupancy
  Y  Y0  1  0.500000  0.500000  0.000000  1
  Y  Y1  1  0.500000  0.000000  0.500000  1
  Y  Y2  1  0.000000  0.500000  0.500000  1
  Y  Y3  1  0.500000  0.500000  0.500000  1
  Pd  Pd4  1  0.000000  0.000000  0.000000  1
  Pd  Pd5  1  0.500000  0.000000  0.000000  1
  Pd  Pd6  1  0.000000  0.500000  0.000000  1
  Pd  Pd7  1  0.000000  0.000000  0.500001  1
  O  O8  1  0.339953  0.339953  0.089953  1
  O  O9  1  0.910915  0.339614  0.090255  1
  O  O10  1  0.339614  0.910915  0.090255  1
  O  O11  1  0.089350  0.089350  0.339350  1
  O  O12  1  0.660388  0.089085  0.339727  1
  O  O13  1  0.089085  0.660388  0.339727  1
  O  O14  1  0.624872  0.624872  0.374871  1
  O  O15  1  0.910916  0.339613  0.660274  1
  O  O16  1  0.339613  0.910916  0.660274  1
  O  O17  1  0.375130  0.375130  0.625130  1
  O  O18  1  0.910651  0.910651  0.660651  1
  O  O19  1  0.660387  0.089087  0.909746  1
  O  O20  1  0.089087  0.660387  0.909746  1
  O  O21  1  0.660048  0.660048  0.910049  1
