# generated using pymatgen
data_DyHoSn5Rh3
_symmetry_space_group_name_H-M   'P 1'
_cell_length_a   13.46007481
_cell_length_b   13.46007484
_cell_length_c   7.26585500
_cell_angle_alpha   90.00000000
_cell_angle_beta   90.00000000
_cell_angle_gamma   161.09611390
_symmetry_Int_Tables_number   1
_chemical_formula_structural   DyHoSn5Rh3
_chemical_formula_sum   'Dy2 Ho2 Sn10 Rh6'
_cell_volume   426.48327218
_cell_formula_units_Z   2
loop_
 _symmetry_equiv_pos_site_id
 _symmetry_equiv_pos_as_xyz
  1  'x, y, z'
loop_
 _atom_site_type_symbol
 _atom_site_label
 _atom_site_symmetry_multiplicity
 _atom_site_fract_x
 _atom_site_fract_y
 _atom_site_fract_z
 _atom_site_occupancy
  Dy  Dy0  1  0.172473  0.827527  0.744359  1
  Dy  Dy1  1  0.827527  0.172473  0.244359  1
  Ho  Ho2  1  0.476022  0.523978  0.762418  1
  Ho  Ho3  1  0.523978  0.476022  0.262418  1
  Sn  Sn4  1  0.880858  0.119142  0.770006  1
  Sn  Sn5  1  0.119142  0.880858  0.270006  1
  Sn  Sn6  1  0.704650  0.295350  0.450547  1
  Sn  Sn7  1  0.295350  0.704650  0.950547  1
  Sn  Sn8  1  0.596452  0.403548  0.886066  1
  Sn  Sn9  1  0.403548  0.596452  0.386066  1
  Sn  Sn10  1  0.952554  0.047446  0.101671  1
  Sn  Sn11  1  0.047446  0.952554  0.601671  1
  Sn  Sn12  1  0.290958  0.709042  0.522208  1
  Sn  Sn13  1  0.709042  0.290958  0.022208  1
  Rh  Rh14  1  0.050074  0.949926  0.982448  1
  Rh  Rh15  1  0.949926  0.050074  0.482448  1
  Rh  Rh16  1  0.777163  0.222837  0.735483  1
  Rh  Rh17  1  0.222837  0.777163  0.235483  1
  Rh  Rh18  1  0.393944  0.606056  0.016795  1
  Rh  Rh19  1  0.606056  0.393944  0.516795  1
