# generated using pymatgen
data_Lu3Co2CuSn3
_symmetry_space_group_name_H-M   'P 1'
_cell_length_a   7.37156400
_cell_length_b   7.37156377
_cell_length_c   3.71032600
_cell_angle_alpha   90.00000000
_cell_angle_beta   90.00000000
_cell_angle_gamma   119.99999984
_symmetry_Int_Tables_number   1
_chemical_formula_structural   Lu3Co2CuSn3
_chemical_formula_sum   'Lu3 Co2 Cu1 Sn3'
_cell_volume   174.60712815
_cell_formula_units_Z   1
loop_
 _symmetry_equiv_pos_site_id
 _symmetry_equiv_pos_as_xyz
  1  'x, y, z'
loop_
 _atom_site_type_symbol
 _atom_site_label
 _atom_site_symmetry_multiplicity
 _atom_site_fract_x
 _atom_site_fract_y
 _atom_site_fract_z
 _atom_site_occupancy
  Lu  Lu0  1  0.981104  0.390670  0.500000  1
  Lu  Lu1  1  0.609330  0.590434  0.500000  1
  Lu  Lu2  1  0.409566  0.018896  0.500000  1
  Co  Co3  1  0.666667  0.333333  0.000000  1
  Co  Co4  1  0.000000  0.000000  0.500000  1
  Cu  Cu5  1  0.333333  0.666667  0.000000  1
  Sn  Sn6  1  0.005033  0.741964  0.000000  1
  Sn  Sn7  1  0.258036  0.263068  0.000000  1
  Sn  Sn8  1  0.736932  0.994967  0.000000  1
