# generated using pymatgen
data_EuU7TiSe17
_symmetry_space_group_name_H-M   'P 1'
_cell_length_a   8.20077883
_cell_length_b   8.21655061
_cell_length_c   10.89228400
_cell_angle_alpha   80.92619071
_cell_angle_beta   80.80921685
_cell_angle_gamma   65.00529373
_symmetry_Int_Tables_number   1
_chemical_formula_structural   EuU7TiSe17
_chemical_formula_sum   'Eu1 U7 Ti1 Se17'
_cell_volume   653.32191387
_cell_formula_units_Z   1
loop_
 _symmetry_equiv_pos_site_id
 _symmetry_equiv_pos_as_xyz
  1  'x, y, z'
loop_
 _atom_site_type_symbol
 _atom_site_label
 _atom_site_symmetry_multiplicity
 _atom_site_fract_x
 _atom_site_fract_y
 _atom_site_fract_z
 _atom_site_occupancy
  Eu  Eu0  1  0.811466  0.309241  0.295434  1
  U  U1  1  0.299573  0.819688  0.297799  1
  U  U2  1  0.182696  0.697010  0.700283  1
  U  U3  1  0.700450  0.180548  0.703315  1
  U  U4  1  0.203187  0.199817  0.539824  1
  U  U5  1  0.800355  0.791300  0.460113  1
  U  U6  1  0.678436  0.684273  0.985655  1
  U  U7  1  0.314156  0.320796  0.015438  1
  Ti  Ti8  1  0.999676  0.002720  0.002003  1
  Se  Se9  1  0.824927  0.432638  0.547639  1
  Se  Se10  1  0.435917  0.814938  0.536161  1
  Se  Se11  1  0.184020  0.561870  0.463344  1
  Se  Se12  1  0.568580  0.168348  0.474608  1
  Se  Se13  1  0.941186  0.328658  0.016749  1
  Se  Se14  1  0.323107  0.946451  0.025266  1
  Se  Se15  1  0.055746  0.677888  0.969893  1
  Se  Se16  1  0.674774  0.063010  0.973067  1
  Se  Se17  1  0.230531  0.202768  0.276107  1
  Se  Se18  1  0.785766  0.788104  0.725972  1
  Se  Se19  1  0.065670  0.056569  0.771230  1
  Se  Se20  1  0.945997  0.926338  0.228811  1
  Se  Se21  1  0.303421  0.301357  0.752945  1
  Se  Se22  1  0.686628  0.717382  0.243463  1
  Se  Se23  1  0.519198  0.522175  0.830037  1
  Se  Se24  1  0.459810  0.496190  0.159181  1
  Se  Se25  1  0.004727  0.989924  0.505662  1
