# generated using pymatgen
data_Ti5Nb4V3(BOs)12
_symmetry_space_group_name_H-M   'P 1'
_cell_length_a   3.06244200
_cell_length_b   8.94088900
_cell_length_c   15.44902100
_cell_angle_alpha   89.99949671
_cell_angle_beta   90.00000000
_cell_angle_gamma   90.00000000
_symmetry_Int_Tables_number   1
_chemical_formula_structural   Ti5Nb4V3(BOs)12
_chemical_formula_sum   'Ti5 Nb4 V3 B12 Os12'
_cell_volume   423.00893344
_cell_formula_units_Z   1
loop_
 _symmetry_equiv_pos_site_id
 _symmetry_equiv_pos_as_xyz
  1  'x, y, z'
loop_
 _atom_site_type_symbol
 _atom_site_label
 _atom_site_symmetry_multiplicity
 _atom_site_fract_x
 _atom_site_fract_y
 _atom_site_fract_z
 _atom_site_occupancy
  Ti  Ti0  1  0.000000  0.798883  0.494007  1
  Ti  Ti1  1  0.000000  0.199974  0.504663  1
  Ti  Ti2  1  0.000000  0.299285  0.005380  1
  Ti  Ti3  1  0.000000  0.701329  0.994756  1
  Ti  Ti4  1  0.000000  0.514743  0.593329  1
  Nb  Nb5  1  0.000000  0.687097  0.203124  1
  Nb  Nb6  1  0.000000  0.314178  0.796237  1
  Nb  Nb7  1  0.000000  0.186437  0.296583  1
  Nb  Nb8  1  0.000000  0.814792  0.703582  1
  V  V9  1  0.000000  0.480543  0.409921  1
  V  V10  1  0.000000  0.019075  0.910869  1
  V  V11  1  0.000000  0.981290  0.089324  1
  B  B12  1  0.500000  0.601119  0.493479  1
  B  B13  1  0.500000  0.397230  0.502925  1
  B  B14  1  0.500000  0.101368  0.004960  1
  B  B15  1  0.500000  0.899224  0.995406  1
  B  B16  1  0.000000  0.611021  0.834725  1
  B  B17  1  0.000000  0.389937  0.165780  1
  B  B18  1  0.000000  0.109143  0.665859  1
  B  B19  1  0.000000  0.889650  0.333755  1
  B  B20  1  0.500000  0.711043  0.597218  1
  B  B21  1  0.500000  0.292707  0.402224  1
  B  B22  1  0.500000  0.207442  0.902710  1
  B  B23  1  0.500000  0.793282  0.097199  1
  Os  Os24  1  0.500000  0.713128  0.358159  1
  Os  Os25  1  0.500000  0.283444  0.640797  1
  Os  Os26  1  0.500000  0.213080  0.141142  1
  Os  Os27  1  0.500000  0.788277  0.859725  1
  Os  Os28  1  0.500000  0.518773  0.092838  1
  Os  Os29  1  0.500000  0.481549  0.907782  1
  Os  Os30  1  0.500000  0.018553  0.407123  1
  Os  Os31  1  0.500000  0.980065  0.592308  1
  Os  Os32  1  0.500000  0.566004  0.732051  1
  Os  Os33  1  0.500000  0.435773  0.269805  1
  Os  Os34  1  0.500000  0.063513  0.770411  1
  Os  Os35  1  0.500000  0.937049  0.229844  1
