# generated using pymatgen
data_Nd3Sc3Al6IrAu5
_symmetry_space_group_name_H-M   'P 1'
_cell_length_a   7.29622600
_cell_length_b   7.29622631
_cell_length_c   7.98975700
_cell_angle_alpha   90.00000000
_cell_angle_beta   90.00000000
_cell_angle_gamma   119.99998954
_symmetry_Int_Tables_number   1
_chemical_formula_structural   Nd3Sc3Al6IrAu5
_chemical_formula_sum   'Nd3 Sc3 Al6 Ir1 Au5'
_cell_volume   368.35012554
_cell_formula_units_Z   1
loop_
 _symmetry_equiv_pos_site_id
 _symmetry_equiv_pos_as_xyz
  1  'x, y, z'
loop_
 _atom_site_type_symbol
 _atom_site_label
 _atom_site_symmetry_multiplicity
 _atom_site_fract_x
 _atom_site_fract_y
 _atom_site_fract_z
 _atom_site_occupancy
  Nd  Nd0  1  0.579691  0.998608  0.750000  1
  Nd  Nd1  1  0.001392  0.581085  0.750000  1
  Nd  Nd2  1  0.418915  0.420309  0.750000  1
  Sc  Sc3  1  0.997307  0.606800  0.250000  1
  Sc  Sc4  1  0.609493  0.002693  0.250000  1
  Sc  Sc5  1  0.393200  0.390507  0.250000  1
  Al  Al6  1  0.755633  0.756614  0.021704  1
  Al  Al7  1  0.243386  0.999020  0.021704  1
  Al  Al8  1  0.000980  0.244367  0.021704  1
  Al  Al9  1  0.755633  0.756614  0.478296  1
  Al  Al10  1  0.243386  0.999020  0.478296  1
  Al  Al11  1  0.000980  0.244367  0.478296  1
  Ir  Ir12  1  0.000000  0.000000  0.250000  1
  Au  Au13  1  0.000000  0.000000  0.750000  1
  Au  Au14  1  0.666667  0.333333  0.030405  1
  Au  Au15  1  0.666667  0.333333  0.469595  1
  Au  Au16  1  0.333333  0.666667  0.464774  1
  Au  Au17  1  0.333333  0.666667  0.035226  1
