# generated using pymatgen
data_Y2Ho2OsRuC4
_symmetry_space_group_name_H-M   'P 1'
_cell_length_a   5.11939900
_cell_length_b   6.46403055
_cell_length_c   9.77250754
_cell_angle_alpha   89.73456435
_cell_angle_beta   90.00000000
_cell_angle_gamma   90.00000000
_symmetry_Int_Tables_number   1
_chemical_formula_structural   Y2Ho2OsRuC4
_chemical_formula_sum   'Y4 Ho4 Os2 Ru2 C8'
_cell_volume   323.38787579
_cell_formula_units_Z   2
loop_
 _symmetry_equiv_pos_site_id
 _symmetry_equiv_pos_as_xyz
  1  'x, y, z'
loop_
 _atom_site_type_symbol
 _atom_site_label
 _atom_site_symmetry_multiplicity
 _atom_site_fract_x
 _atom_site_fract_y
 _atom_site_fract_z
 _atom_site_occupancy
  Y  Y0  1  0.250000  0.527646  0.216061  1
  Y  Y1  1  0.750000  0.472354  0.783939  1
  Y  Y2  1  0.750000  0.973179  0.718240  1
  Y  Y3  1  0.250000  0.026821  0.281760  1
  Ho  Ho4  1  0.250000  0.681402  0.554006  1
  Ho  Ho5  1  0.750000  0.318598  0.445994  1
  Ho  Ho6  1  0.750000  0.822951  0.054576  1
  Ho  Ho7  1  0.250000  0.177049  0.945424  1
  Os  Os8  1  0.750000  0.776560  0.365615  1
  Os  Os9  1  0.250000  0.223440  0.634385  1
  Ru  Ru10  1  0.250000  0.722147  0.865963  1
  Ru  Ru11  1  0.750000  0.277853  0.134037  1
  C  C12  1  0.250000  0.457947  0.755871  1
  C  C13  1  0.750000  0.542053  0.244129  1
  C  C14  1  0.750000  0.040963  0.259822  1
  C  C15  1  0.250000  0.959037  0.740178  1
  C  C16  1  0.250000  0.828766  0.053390  1
  C  C17  1  0.750000  0.171234  0.946610  1
  C  C18  1  0.750000  0.673292  0.553299  1
  C  C19  1  0.250000  0.326708  0.446701  1
