# generated using pymatgen
data_LaNi2(AsRh)3
_symmetry_space_group_name_H-M   'P 1'
_cell_length_a   4.01801700
_cell_length_b   12.60509000
_cell_length_c   11.27265200
_cell_angle_alpha   90.00000000
_cell_angle_beta   90.00000000
_cell_angle_gamma   90.00000000
_symmetry_Int_Tables_number   1
_chemical_formula_structural   LaNi2(AsRh)3
_chemical_formula_sum   'La4 Ni8 As12 Rh12'
_cell_volume   570.93125785
_cell_formula_units_Z   4
loop_
 _symmetry_equiv_pos_site_id
 _symmetry_equiv_pos_as_xyz
  1  'x, y, z'
loop_
 _atom_site_type_symbol
 _atom_site_label
 _atom_site_symmetry_multiplicity
 _atom_site_fract_x
 _atom_site_fract_y
 _atom_site_fract_z
 _atom_site_occupancy
  La  La0  1  0.750000  0.702231  0.090597  1
  La  La1  1  0.250000  0.297769  0.909403  1
  La  La2  1  0.250000  0.797769  0.590597  1
  La  La3  1  0.750000  0.202231  0.409403  1
  Ni  Ni4  1  0.750000  0.932371  0.972999  1
  Ni  Ni5  1  0.250000  0.067629  0.027001  1
  Ni  Ni6  1  0.250000  0.567629  0.472999  1
  Ni  Ni7  1  0.750000  0.432371  0.527001  1
  Ni  Ni8  1  0.750000  0.985035  0.595796  1
  Ni  Ni9  1  0.250000  0.014965  0.404204  1
  Ni  Ni10  1  0.250000  0.514965  0.095796  1
  Ni  Ni11  1  0.750000  0.485034  0.904204  1
  As  As12  1  0.750000  0.607760  0.588372  1
  As  As13  1  0.250000  0.392240  0.411628  1
  As  As14  1  0.250000  0.892240  0.088372  1
  As  As15  1  0.750000  0.107760  0.911628  1
  As  As16  1  0.750000  0.896519  0.407555  1
  As  As17  1  0.250000  0.103481  0.592445  1
  As  As18  1  0.250000  0.603481  0.907555  1
  As  As19  1  0.750000  0.396519  0.092445  1
  As  As20  1  0.750000  0.876656  0.776541  1
  As  As21  1  0.250000  0.123344  0.223459  1
  As  As22  1  0.250000  0.623344  0.276541  1
  As  As23  1  0.750000  0.376656  0.723459  1
  Rh  Rh24  1  0.750000  0.696551  0.391503  1
  Rh  Rh25  1  0.250000  0.303449  0.608497  1
  Rh  Rh26  1  0.250000  0.803449  0.891503  1
  Rh  Rh27  1  0.750000  0.196551  0.108497  1
  Rh  Rh28  1  0.750000  0.981520  0.210837  1
  Rh  Rh29  1  0.250000  0.018480  0.789163  1
  Rh  Rh30  1  0.250000  0.518480  0.710837  1
  Rh  Rh31  1  0.750000  0.481520  0.289163  1
  Rh  Rh32  1  0.750000  0.676327  0.786773  1
  Rh  Rh33  1  0.250000  0.323673  0.213227  1
  Rh  Rh34  1  0.250000  0.823673  0.286773  1
  Rh  Rh35  1  0.750000  0.176327  0.713227  1
