# generated using pymatgen
data_Nd2Mn2FeCo9P7
_symmetry_space_group_name_H-M   'P 1'
_cell_length_a   9.12518565
_cell_length_b   9.11277209
_cell_length_c   3.64445600
_cell_angle_alpha   90.00000000
_cell_angle_beta   90.00000000
_cell_angle_gamma   119.97623634
_symmetry_Int_Tables_number   1
_chemical_formula_structural   Nd2Mn2FeCo9P7
_chemical_formula_sum   'Nd2 Mn2 Fe1 Co9 P7'
_cell_volume   262.51825335
_cell_formula_units_Z   1
loop_
 _symmetry_equiv_pos_site_id
 _symmetry_equiv_pos_as_xyz
  1  'x, y, z'
loop_
 _atom_site_type_symbol
 _atom_site_label
 _atom_site_symmetry_multiplicity
 _atom_site_fract_x
 _atom_site_fract_y
 _atom_site_fract_z
 _atom_site_occupancy
  Nd  Nd0  1  0.665016  0.333896  0.000000  1
  Nd  Nd1  1  0.332530  0.665557  0.500000  1
  Mn  Mn2  1  0.102032  0.883929  0.500000  1
  Mn  Mn3  1  0.783728  0.901233  0.500000  1
  Fe  Fe4  1  0.121011  0.216673  0.500000  1
  Co  Co5  1  0.057599  0.628248  0.000000  1
  Co  Co6  1  0.571269  0.941762  0.000000  1
  Co  Co7  1  0.369593  0.428013  0.000000  1
  Co  Co8  1  0.272583  0.117598  0.000000  1
  Co  Co9  1  0.846121  0.729434  0.000000  1
  Co  Co10  1  0.881231  0.155135  0.000000  1
  Co  Co11  1  0.433334  0.049128  0.500000  1
  Co  Co12  1  0.616062  0.566910  0.500000  1
  Co  Co13  1  0.951655  0.383294  0.500000  1
  P  P14  1  0.300561  0.892673  0.000000  1
  P  P15  1  0.592179  0.698750  0.000000  1
  P  P16  1  0.107596  0.404365  0.000000  1
  P  P17  1  0.395390  0.289946  0.500000  1
  P  P18  1  0.889967  0.598322  0.500000  1
  P  P19  1  0.708691  0.111258  0.500000  1
  P  P20  1  0.001851  0.003877  0.000000  1
