# generated using pymatgen
data_Y2FeIr3
_symmetry_space_group_name_H-M   'P 1'
_cell_length_a   5.19007150
_cell_length_b   5.19007118
_cell_length_c   5.19007146
_cell_angle_alpha   63.57227944
_cell_angle_beta   63.57227797
_cell_angle_gamma   63.57228457
_symmetry_Int_Tables_number   1
_chemical_formula_structural   Y2FeIr3
_chemical_formula_sum   'Y2 Fe1 Ir3'
_cell_volume   106.66109303
_cell_formula_units_Z   1
loop_
 _symmetry_equiv_pos_site_id
 _symmetry_equiv_pos_as_xyz
  1  'x, y, z'
loop_
 _atom_site_type_symbol
 _atom_site_label
 _atom_site_symmetry_multiplicity
 _atom_site_fract_x
 _atom_site_fract_y
 _atom_site_fract_z
 _atom_site_occupancy
  Y  Y0  1  0.626475  0.626475  0.626475  1
  Y  Y1  1  0.373525  0.373525  0.373525  1
  Fe  Fe2  1  0.000000  0.000000  0.000000  1
  Ir  Ir3  1  0.000000  0.500000  0.000000  1
  Ir  Ir4  1  0.500000  0.000000  0.000000  1
  Ir  Ir5  1  0.000000  0.000000  0.500000  1
