# generated using pymatgen
data_Dy20Ir7Os4Au
_symmetry_space_group_name_H-M   'P 1'
_cell_length_a   10.89700773
_cell_length_b   10.89700773
_cell_length_c   6.45000991
_cell_angle_alpha   90.04286704
_cell_angle_beta   90.04286704
_cell_angle_gamma   89.79184073
_symmetry_Int_Tables_number   1
_chemical_formula_structural   Dy20Ir7Os4Au
_chemical_formula_sum   'Dy20 Ir7 Os4 Au1'
_cell_volume   765.89950976
_cell_formula_units_Z   1
loop_
 _symmetry_equiv_pos_site_id
 _symmetry_equiv_pos_as_xyz
  1  'x, y, z'
loop_
 _atom_site_type_symbol
 _atom_site_label
 _atom_site_symmetry_multiplicity
 _atom_site_fract_x
 _atom_site_fract_y
 _atom_site_fract_z
 _atom_site_occupancy
  Dy  Dy0  1  0.292860  0.085695  0.377558  1
  Dy  Dy1  1  0.295159  0.913247  0.877648  1
  Dy  Dy2  1  0.701842  0.083702  0.865603  1
  Dy  Dy3  1  0.703355  0.907271  0.381052  1
  Dy  Dy4  1  0.586095  0.793500  0.878994  1
  Dy  Dy5  1  0.578438  0.207015  0.378878  1
  Dy  Dy6  1  0.412468  0.793351  0.378390  1
  Dy  Dy7  1  0.413097  0.206152  0.879411  1
  Dy  Dy8  1  0.206500  0.413905  0.621006  1
  Dy  Dy9  1  0.206649  0.587532  0.121610  1
  Dy  Dy10  1  0.792985  0.421562  0.121122  1
  Dy  Dy11  1  0.793848  0.586903  0.620589  1
  Dy  Dy12  1  0.914305  0.707140  0.122442  1
  Dy  Dy13  1  0.916298  0.298158  0.634397  1
  Dy  Dy14  1  0.086753  0.704841  0.622352  1
  Dy  Dy15  1  0.092729  0.296645  0.118948  1
  Dy  Dy16  1  0.003666  0.995695  0.503275  1
  Dy  Dy17  1  0.004305  0.996334  0.996725  1
  Dy  Dy18  1  0.499535  0.500359  0.999285  1
  Dy  Dy19  1  0.499641  0.500465  0.500715  1
  Ir  Ir20  1  0.849173  0.849505  0.750409  1
  Ir  Ir21  1  0.150495  0.150827  0.749591  1
  Ir  Ir22  1  0.152344  0.847656  0.250000  1
  Ir  Ir23  1  0.652851  0.347149  0.750000  1
  Ir  Ir24  1  0.651669  0.651646  0.250067  1
  Ir  Ir25  1  0.348354  0.348331  0.249933  1
  Ir  Ir26  1  0.348036  0.651964  0.750000  1
  Os  Os27  1  0.500651  0.999827  0.125784  1
  Os  Os28  1  0.499707  0.999455  0.623366  1
  Os  Os29  1  0.000545  0.500293  0.876634  1
  Os  Os30  1  0.000173  0.499349  0.374216  1
  Au  Au31  1  0.845473  0.154527  0.250000  1
