# generated using pymatgen
data_Nd(ThTe2)6
_symmetry_space_group_name_H-M   'P 1'
_cell_length_a   12.55916001
_cell_length_b   12.59945870
_cell_length_c   4.36211300
_cell_angle_alpha   90.00000000
_cell_angle_beta   90.00000000
_cell_angle_gamma   119.84920615
_symmetry_Int_Tables_number   1
_chemical_formula_structural   Nd(ThTe2)6
_chemical_formula_sum   'Nd1 Th6 Te12'
_cell_volume   598.68438470
_cell_formula_units_Z   1
loop_
 _symmetry_equiv_pos_site_id
 _symmetry_equiv_pos_as_xyz
  1  'x, y, z'
loop_
 _atom_site_type_symbol
 _atom_site_label
 _atom_site_symmetry_multiplicity
 _atom_site_fract_x
 _atom_site_fract_y
 _atom_site_fract_z
 _atom_site_occupancy
  Nd  Nd0  1  0.723554  0.159672  0.000000  1
  Th  Th1  1  0.842719  0.565353  0.000000  1
  Th  Th2  1  0.434793  0.275946  0.000000  1
  Th  Th3  1  0.549554  0.712198  0.500000  1
  Th  Th4  1  0.289102  0.838232  0.500000  1
  Th  Th5  1  0.161772  0.450093  0.500000  1
  Th  Th6  1  0.996852  0.000259  0.000000  1
  Te  Te7  1  0.744902  0.751361  0.000000  1
  Te  Te8  1  0.245297  0.991897  0.000000  1
  Te  Te9  1  0.008131  0.255718  0.000000  1
  Te  Te10  1  0.491260  0.865762  0.000000  1
  Te  Te11  1  0.134412  0.625810  0.000000  1
  Te  Te12  1  0.375253  0.508819  0.000000  1
  Te  Te13  1  0.864336  0.387694  0.500000  1
  Te  Te14  1  0.216531  0.213055  0.500000  1
  Te  Te15  1  0.997181  0.784032  0.500000  1
  Te  Te16  1  0.789539  0.000447  0.500000  1
  Te  Te17  1  0.520509  0.136163  0.500000  1
  Te  Te18  1  0.614305  0.477485  0.500000  1
