# generated using pymatgen
data_YCo2(NiAs)3
_symmetry_space_group_name_H-M   'P 1'
_cell_length_a   3.82464900
_cell_length_b   10.71317600
_cell_length_c   12.22406900
_cell_angle_alpha   90.00000000
_cell_angle_beta   90.00000000
_cell_angle_gamma   90.00000000
_symmetry_Int_Tables_number   1
_chemical_formula_structural   YCo2(NiAs)3
_chemical_formula_sum   'Y4 Co8 Ni12 As12'
_cell_volume   500.87068860
_cell_formula_units_Z   4
loop_
 _symmetry_equiv_pos_site_id
 _symmetry_equiv_pos_as_xyz
  1  'x, y, z'
loop_
 _atom_site_type_symbol
 _atom_site_label
 _atom_site_symmetry_multiplicity
 _atom_site_fract_x
 _atom_site_fract_y
 _atom_site_fract_z
 _atom_site_occupancy
  Y  Y0  1  0.250000  0.580706  0.702885  1
  Y  Y1  1  0.250000  0.919294  0.202885  1
  Y  Y2  1  0.750000  0.419294  0.297115  1
  Y  Y3  1  0.750000  0.080706  0.797115  1
  Co  Co4  1  0.250000  0.880835  0.695854  1
  Co  Co5  1  0.250000  0.619165  0.195854  1
  Co  Co6  1  0.750000  0.119165  0.304146  1
  Co  Co7  1  0.750000  0.380835  0.804146  1
  Co  Co8  1  0.250000  0.469489  0.932541  1
  Co  Co9  1  0.250000  0.030511  0.432541  1
  Co  Co10  1  0.750000  0.530511  0.067459  1
  Co  Co11  1  0.750000  0.969489  0.567459  1
  Ni  Ni12  1  0.250000  0.708390  0.990725  1
  Ni  Ni13  1  0.250000  0.791610  0.490725  1
  Ni  Ni14  1  0.750000  0.291610  0.009275  1
  Ni  Ni15  1  0.750000  0.208390  0.509275  1
  Ni  Ni16  1  0.250000  0.408963  0.487735  1
  Ni  Ni17  1  0.250000  0.091037  0.987735  1
  Ni  Ni18  1  0.750000  0.591037  0.512265  1
  Ni  Ni19  1  0.750000  0.908963  0.012265  1
  Ni  Ni20  1  0.250000  0.218017  0.178366  1
  Ni  Ni21  1  0.250000  0.281983  0.678366  1
  Ni  Ni22  1  0.750000  0.781983  0.821634  1
  Ni  Ni23  1  0.750000  0.718017  0.321634  1
  As  As24  1  0.250000  0.419599  0.115323  1
  As  As25  1  0.250000  0.080401  0.615323  1
  As  As26  1  0.750000  0.580401  0.884677  1
  As  As27  1  0.750000  0.919599  0.384677  1
  As  As28  1  0.250000  0.269950  0.870679  1
  As  As29  1  0.250000  0.230050  0.370679  1
  As  As30  1  0.750000  0.730050  0.129321  1
  As  As31  1  0.750000  0.769950  0.629321  1
  As  As32  1  0.250000  0.603031  0.389346  1
  As  As33  1  0.250000  0.896969  0.889346  1
  As  As34  1  0.750000  0.396969  0.610654  1
  As  As35  1  0.750000  0.103031  0.110654  1
