# generated using pymatgen
data_Nd3Ho4Sn23Ir6
_symmetry_space_group_name_H-M   'P 1'
_cell_length_a   9.92609326
_cell_length_b   9.93019085
_cell_length_c   10.16014500
_cell_angle_alpha   90.00000000
_cell_angle_beta   90.07827735
_cell_angle_gamma   120.01365858
_symmetry_Int_Tables_number   1
_chemical_formula_structural   Nd3Ho4Sn23Ir6
_chemical_formula_sum   'Nd3 Ho4 Sn23 Ir6'
_cell_volume   867.17381213
_cell_formula_units_Z   1
loop_
 _symmetry_equiv_pos_site_id
 _symmetry_equiv_pos_as_xyz
  1  'x, y, z'
loop_
 _atom_site_type_symbol
 _atom_site_label
 _atom_site_symmetry_multiplicity
 _atom_site_fract_x
 _atom_site_fract_y
 _atom_site_fract_z
 _atom_site_occupancy
  Nd  Nd0  1  0.998237  0.999118  0.001429  1
  Nd  Nd1  1  0.521101  0.477426  0.691130  1
  Nd  Nd2  1  0.521101  0.043676  0.691130  1
  Ho  Ho3  1  0.961754  0.480877  0.693865  1
  Ho  Ho4  1  0.039077  0.519539  0.305419  1
  Ho  Ho5  1  0.481610  0.962651  0.306188  1
  Ho  Ho6  1  0.481610  0.518959  0.306188  1
  Sn  Sn7  1  0.666452  0.333226  0.175638  1
  Sn  Sn8  1  0.673546  0.336772  0.883982  1
  Sn  Sn9  1  0.334397  0.667199  0.123263  1
  Sn  Sn10  1  0.351449  0.352171  0.999675  1
  Sn  Sn11  1  0.999305  0.646862  0.000854  1
  Sn  Sn12  1  0.646935  0.999786  0.001035  1
  Sn  Sn13  1  0.646935  0.647150  0.001035  1
  Sn  Sn14  1  0.333567  0.666785  0.827910  1
  Sn  Sn15  1  0.442125  0.221062  0.453164  1
  Sn  Sn16  1  0.218657  0.775549  0.541996  1
  Sn  Sn17  1  0.218657  0.443108  0.541996  1
  Sn  Sn18  1  0.556672  0.778336  0.541747  1
  Sn  Sn19  1  0.119510  0.880887  0.283915  1
  Sn  Sn20  1  0.781192  0.556789  0.455315  1
  Sn  Sn21  1  0.781192  0.224403  0.455315  1
  Sn  Sn22  1  0.351449  0.999278  0.999675  1
  Sn  Sn23  1  0.119510  0.238622  0.283915  1
  Sn  Sn24  1  0.761505  0.880752  0.284103  1
  Sn  Sn25  1  0.231130  0.115565  0.716634  1
  Sn  Sn26  1  0.882896  0.764224  0.715675  1
  Sn  Sn27  1  0.882896  0.118673  0.715675  1
  Sn  Sn28  1  0.999057  0.999528  0.498510  1
  Sn  Sn29  1  0.999305  0.352443  0.000854  1
  Ir  Ir30  1  0.166996  0.827298  0.801196  1
  Ir  Ir31  1  0.166996  0.339697  0.801196  1
  Ir  Ir32  1  0.663525  0.831762  0.802379  1
  Ir  Ir33  1  0.338519  0.169260  0.198111  1
  Ir  Ir34  1  0.830566  0.661112  0.199944  1
  Ir  Ir35  1  0.830566  0.169456  0.199944  1
