# generated using pymatgen
data_Y14Ho2MgCo4Ag3
_symmetry_space_group_name_H-M   'P 1'
_cell_length_a   9.46130189
_cell_length_b   9.48854045
_cell_length_c   9.47791400
_cell_angle_alpha   60.03703989
_cell_angle_beta   59.94190174
_cell_angle_gamma   59.98546951
_symmetry_Int_Tables_number   1
_chemical_formula_structural   Y14Ho2MgCo4Ag3
_chemical_formula_sum   'Y14 Ho2 Mg1 Co4 Ag3'
_cell_volume   601.49309387
_cell_formula_units_Z   1
loop_
 _symmetry_equiv_pos_site_id
 _symmetry_equiv_pos_as_xyz
  1  'x, y, z'
loop_
 _atom_site_type_symbol
 _atom_site_label
 _atom_site_symmetry_multiplicity
 _atom_site_fract_x
 _atom_site_fract_y
 _atom_site_fract_z
 _atom_site_occupancy
  Y  Y0  1  0.347484  0.962577  0.344969  1
  Y  Y1  1  0.950601  0.351064  0.349167  1
  Y  Y2  1  0.808560  0.188814  0.189847  1
  Y  Y3  1  0.185672  0.812569  0.814412  1
  Y  Y4  1  0.185672  0.812569  0.187347  1
  Y  Y5  1  0.808560  0.188814  0.812779  1
  Y  Y6  1  0.185888  0.186827  0.813643  1
  Y  Y7  1  0.809282  0.811496  0.189611  1
  Y  Y8  1  0.936027  0.562275  0.562491  1
  Y  Y9  1  0.562179  0.937864  0.937595  1
  Y  Y10  1  0.562179  0.937864  0.562362  1
  Y  Y11  1  0.936027  0.562275  0.939206  1
  Y  Y12  1  0.561252  0.561959  0.938394  1
  Y  Y13  1  0.935730  0.938395  0.562938  1
  Ho  Ho14  1  0.345881  0.344994  0.343662  1
  Ho  Ho15  1  0.345881  0.344994  0.965463  1
  Mg  Mg16  1  0.289861  0.569453  0.570343  1
  Co  Co17  1  0.140277  0.144087  0.140238  1
  Co  Co18  1  0.140277  0.144087  0.575398  1
  Co  Co19  1  0.142160  0.573805  0.142018  1
  Co  Co20  1  0.573886  0.144632  0.140741  1
  Ag  Ag21  1  0.582337  0.582614  0.582621  1
  Ag  Ag22  1  0.582337  0.582614  0.252428  1
  Ag  Ag23  1  0.581988  0.253358  0.582327  1
