# generated using pymatgen
data_InSeBr7
_symmetry_space_group_name_H-M   'P 1'
_cell_length_a   6.93623400
_cell_length_b   7.16627901
_cell_length_c   15.73477663
_cell_angle_alpha   75.14053987
_cell_angle_beta   90.00000000
_cell_angle_gamma   90.00000000
_symmetry_Int_Tables_number   1
_chemical_formula_structural   InSeBr7
_chemical_formula_sum   'In2 Se2 Br14'
_cell_volume   755.97224130
_cell_formula_units_Z   2
loop_
 _symmetry_equiv_pos_site_id
 _symmetry_equiv_pos_as_xyz
  1  'x, y, z'
loop_
 _atom_site_type_symbol
 _atom_site_label
 _atom_site_symmetry_multiplicity
 _atom_site_fract_x
 _atom_site_fract_y
 _atom_site_fract_z
 _atom_site_occupancy
  In  In0  1  0.003048  0.338825  0.501167  1
  In  In1  1  0.996952  0.338825  0.001167  1
  Se  Se2  1  0.597550  0.050870  0.661511  1
  Se  Se3  1  0.402450  0.050870  0.161511  1
  Br  Br4  1  0.595133  0.162996  0.263022  1
  Br  Br5  1  0.404867  0.162996  0.763022  1
  Br  Br6  1  0.140666  0.005922  0.007074  1
  Br  Br7  1  0.859334  0.005922  0.507074  1
  Br  Br8  1  0.139596  0.400724  0.142478  1
  Br  Br9  1  0.860404  0.400724  0.642478  1
  Br  Br10  1  0.130524  0.578325  0.865415  1
  Br  Br11  1  0.869476  0.578325  0.365415  1
  Br  Br12  1  0.632951  0.361608  0.999093  1
  Br  Br13  1  0.367049  0.361608  0.499093  1
  Br  Br14  1  0.392837  0.805412  0.634951  1
  Br  Br15  1  0.607163  0.805412  0.134951  1
  Br  Br16  1  0.815779  0.848068  0.762160  1
  Br  Br17  1  0.184221  0.848068  0.262160  1
