# generated using pymatgen
data_TmZnCo2NiB
_symmetry_space_group_name_H-M   'P 1'
_cell_length_a   5.05696969
_cell_length_b   5.05696880
_cell_length_c   6.79037600
_cell_angle_alpha   90.00000000
_cell_angle_beta   90.00000000
_cell_angle_gamma   119.08932883
_symmetry_Int_Tables_number   1
_chemical_formula_structural   TmZnCo2NiB
_chemical_formula_sum   'Tm2 Zn2 Co4 Ni2 B2'
_cell_volume   151.74615422
_cell_formula_units_Z   2
loop_
 _symmetry_equiv_pos_site_id
 _symmetry_equiv_pos_as_xyz
  1  'x, y, z'
loop_
 _atom_site_type_symbol
 _atom_site_label
 _atom_site_symmetry_multiplicity
 _atom_site_fract_x
 _atom_site_fract_y
 _atom_site_fract_z
 _atom_site_occupancy
  Tm  Tm0  1  0.000000  0.000000  0.000000  1
  Tm  Tm1  1  0.000000  0.000000  0.500000  1
  Zn  Zn2  1  0.669460  0.330540  0.000000  1
  Zn  Zn3  1  0.330540  0.669460  0.000000  1
  Co  Co4  1  0.500000  0.000000  0.703018  1
  Co  Co5  1  0.000000  0.500000  0.703018  1
  Co  Co6  1  0.500000  0.000000  0.296982  1
  Co  Co7  1  0.000000  0.500000  0.296982  1
  Ni  Ni8  1  0.500000  0.500000  0.703879  1
  Ni  Ni9  1  0.500000  0.500000  0.296121  1
  B  B10  1  0.673696  0.326304  0.500000  1
  B  B11  1  0.326304  0.673696  0.500000  1
