# generated using pymatgen
data_HfNbGeRh5
_symmetry_space_group_name_H-M   'P 1'
_cell_length_a   4.04271900
_cell_length_b   5.56619702
_cell_length_c   10.87005183
_cell_angle_alpha   89.83119120
_cell_angle_beta   90.00000000
_cell_angle_gamma   90.00000000
_symmetry_Int_Tables_number   1
_chemical_formula_structural   HfNbGeRh5
_chemical_formula_sum   'Hf2 Nb2 Ge2 Rh10'
_cell_volume   244.60304553
_cell_formula_units_Z   2
loop_
 _symmetry_equiv_pos_site_id
 _symmetry_equiv_pos_as_xyz
  1  'x, y, z'
loop_
 _atom_site_type_symbol
 _atom_site_label
 _atom_site_symmetry_multiplicity
 _atom_site_fract_x
 _atom_site_fract_y
 _atom_site_fract_z
 _atom_site_occupancy
  Hf  Hf0  1  0.500000  0.676882  0.859109  1
  Hf  Hf1  1  0.500000  0.323118  0.140891  1
  Nb  Nb2  1  0.500000  0.176137  0.643111  1
  Nb  Nb3  1  0.500000  0.823863  0.356889  1
  Ge  Ge4  1  0.000000  0.500000  0.500000  1
  Ge  Ge5  1  0.000000  0.000000  0.000000  1
  Rh  Rh6  1  0.500000  0.185227  0.889796  1
  Rh  Rh7  1  0.500000  0.814773  0.110204  1
  Rh  Rh8  1  0.500000  0.693308  0.603659  1
  Rh  Rh9  1  0.500000  0.306692  0.396341  1
  Rh  Rh10  1  0.000000  0.427239  0.740254  1
  Rh  Rh11  1  0.000000  0.572761  0.259746  1
  Rh  Rh12  1  0.000000  0.000000  0.500000  1
  Rh  Rh13  1  0.000000  0.500000  0.000000  1
  Rh  Rh14  1  0.000000  0.065734  0.248132  1
  Rh  Rh15  1  0.000000  0.934266  0.751868  1
