# generated using pymatgen
data_TbCeZnRu2
_symmetry_space_group_name_H-M   'P 1'
_cell_length_a   5.63266967
_cell_length_b   5.63267094
_cell_length_c   7.17553304
_cell_angle_alpha   85.89528099
_cell_angle_beta   94.10472211
_cell_angle_gamma   116.62961361
_symmetry_Int_Tables_number   1
_chemical_formula_structural   TbCeZnRu2
_chemical_formula_sum   'Tb2 Ce2 Zn2 Ru4'
_cell_volume   202.78734375
_cell_formula_units_Z   2
loop_
 _symmetry_equiv_pos_site_id
 _symmetry_equiv_pos_as_xyz
  1  'x, y, z'
loop_
 _atom_site_type_symbol
 _atom_site_label
 _atom_site_symmetry_multiplicity
 _atom_site_fract_x
 _atom_site_fract_y
 _atom_site_fract_z
 _atom_site_occupancy
  Tb  Tb0  1  0.347091  0.652909  0.091733  1
  Tb  Tb1  1  0.652909  0.347091  0.908267  1
  Ce  Ce2  1  0.173697  0.826303  0.588817  1
  Ce  Ce3  1  0.826303  0.173697  0.411183  1
  Zn  Zn4  1  0.000000  0.000000  0.000000  1
  Zn  Zn5  1  0.500000  0.500000  0.500000  1
  Ru  Ru6  1  0.868835  0.633254  0.265659  1
  Ru  Ru7  1  0.633254  0.868835  0.734341  1
  Ru  Ru8  1  0.131165  0.366746  0.734341  1
  Ru  Ru9  1  0.366746  0.131165  0.265659  1
