# generated using pymatgen
data_La2Al16Pt9
_symmetry_space_group_name_H-M   'P 1'
_cell_length_a   11.22238825
_cell_length_b   11.22238891
_cell_length_c   11.22238915
_cell_angle_alpha   158.53704013
_cell_angle_beta   115.08966358
_cell_angle_gamma   69.22553418
_symmetry_Int_Tables_number   1
_chemical_formula_structural   La2Al16Pt9
_chemical_formula_sum   'La2 Al16 Pt9'
_cell_volume   464.94152951
_cell_formula_units_Z   1
loop_
 _symmetry_equiv_pos_site_id
 _symmetry_equiv_pos_as_xyz
  1  'x, y, z'
loop_
 _atom_site_type_symbol
 _atom_site_label
 _atom_site_symmetry_multiplicity
 _atom_site_fract_x
 _atom_site_fract_y
 _atom_site_fract_z
 _atom_site_occupancy
  La  La0  1  0.228050  0.228050  0.000000  1
  La  La1  1  0.771950  0.771950  0.000000  1
  Al  Al2  1  0.274168  0.392644  0.881523  1
  Al  Al3  1  0.094222  0.921357  0.172865  1
  Al  Al4  1  0.510451  0.203839  0.306612  1
  Al  Al5  1  0.251508  0.078643  0.172865  1
  Al  Al6  1  0.914692  0.414692  0.500000  1
  Al  Al7  1  0.725832  0.607356  0.118477  1
  Al  Al8  1  0.897227  0.203839  0.693388  1
  Al  Al9  1  0.489549  0.796161  0.693388  1
  Al  Al10  1  0.385931  0.000000  0.385931  1
  Al  Al11  1  0.614069  0.000000  0.614069  1
  Al  Al12  1  0.488879  0.607356  0.881523  1
  Al  Al13  1  0.102773  0.796161  0.306612  1
  Al  Al14  1  0.905778  0.078643  0.827135  1
  Al  Al15  1  0.748492  0.921357  0.827135  1
  Al  Al16  1  0.511121  0.392644  0.118477  1
  Al  Al17  1  0.085308  0.585308  0.500000  1
  Pt  Pt18  1  0.747346  0.500000  0.247346  1
  Pt  Pt19  1  0.027138  0.340027  0.687111  1
  Pt  Pt20  1  0.623980  0.123980  0.500000  1
  Pt  Pt21  1  0.252654  0.500000  0.752654  1
  Pt  Pt22  1  0.376020  0.876020  0.500000  1
  Pt  Pt23  1  0.000000  0.000000  0.000000  1
  Pt  Pt24  1  0.652916  0.340027  0.312889  1
  Pt  Pt25  1  0.347084  0.659973  0.687111  1
  Pt  Pt26  1  0.972862  0.659973  0.312889  1
