# generated using pymatgen
data_Ta2Ti3Ga3B
_symmetry_space_group_name_H-M   'P 1'
_cell_length_a   7.77381400
_cell_length_b   7.74703600
_cell_length_c   5.28653400
_cell_angle_alpha   90.00000000
_cell_angle_beta   90.00000000
_cell_angle_gamma   120.11440772
_symmetry_Int_Tables_number   1
_chemical_formula_structural   Ta2Ti3Ga3B
_chemical_formula_sum   'Ta4 Ti6 Ga6 B2'
_cell_volume   275.40355995
_cell_formula_units_Z   2
loop_
 _symmetry_equiv_pos_site_id
 _symmetry_equiv_pos_as_xyz
  1  'x, y, z'
loop_
 _atom_site_type_symbol
 _atom_site_label
 _atom_site_symmetry_multiplicity
 _atom_site_fract_x
 _atom_site_fract_y
 _atom_site_fract_z
 _atom_site_occupancy
  Ta  Ta0  1  0.000477  0.237585  0.250000  1
  Ta  Ta1  1  0.999523  0.762415  0.750000  1
  Ta  Ta2  1  0.762892  0.762415  0.250000  1
  Ta  Ta3  1  0.237108  0.237585  0.750000  1
  Ti  Ti4  1  0.239936  0.000000  0.250000  1
  Ti  Ti5  1  0.760064  0.000000  0.750000  1
  Ti  Ti6  1  0.332587  0.665174  0.000000  1
  Ti  Ti7  1  0.667413  0.334826  0.000000  1
  Ti  Ti8  1  0.667413  0.334826  0.500000  1
  Ti  Ti9  1  0.332587  0.665174  0.500000  1
  Ga  Ga10  1  0.599024  0.000000  0.250000  1
  Ga  Ga11  1  0.400976  0.000000  0.750000  1
  Ga  Ga12  1  0.003271  0.603179  0.250000  1
  Ga  Ga13  1  0.996729  0.396821  0.750000  1
  Ga  Ga14  1  0.400092  0.396821  0.250000  1
  Ga  Ga15  1  0.599908  0.603179  0.750000  1
  B  B16  1  0.000000  0.000000  0.000000  1
  B  B17  1  0.000000  0.000000  0.500000  1
