# generated using pymatgen
data_HoAg3Ir3RuO14
_symmetry_space_group_name_H-M   'P 1'
_cell_length_a   7.26031038
_cell_length_b   7.19004496
_cell_length_c   7.19004500
_cell_angle_alpha   60.00000443
_cell_angle_beta   60.31963758
_cell_angle_gamma   60.31964669
_symmetry_Int_Tables_number   1
_chemical_formula_structural   HoAg3Ir3RuO14
_chemical_formula_sum   'Ho1 Ag3 Ir3 Ru1 O14'
_cell_volume   266.67656679
_cell_formula_units_Z   1
loop_
 _symmetry_equiv_pos_site_id
 _symmetry_equiv_pos_as_xyz
  1  'x, y, z'
loop_
 _atom_site_type_symbol
 _atom_site_label
 _atom_site_symmetry_multiplicity
 _atom_site_fract_x
 _atom_site_fract_y
 _atom_site_fract_z
 _atom_site_occupancy
  Ho  Ho0  1  0.125000  0.625000  0.625000  1
  Ag  Ag1  1  0.625000  0.625000  0.125000  1
  Ag  Ag2  1  0.625000  0.125000  0.625000  1
  Ag  Ag3  1  0.625000  0.625000  0.625000  1
  Ir  Ir4  1  0.125000  0.125000  0.625000  1
  Ir  Ir5  1  0.125000  0.625000  0.125000  1
  Ir  Ir6  1  0.125000  0.125000  0.125000  1
  Ru  Ru7  1  0.625000  0.125000  0.125000  1
  O  O8  1  0.439686  0.057536  0.445243  1
  O  O9  1  0.195348  0.793842  0.793842  1
  O  O10  1  0.810314  0.192464  0.192464  1
  O  O11  1  0.195348  0.793842  0.216967  1
  O  O12  1  0.810314  0.804757  0.192464  1
  O  O13  1  0.195348  0.216967  0.793842  1
  O  O14  1  0.439686  0.445243  0.057536  1
  O  O15  1  0.054652  0.456158  0.456158  1
  O  O16  1  0.439686  0.057536  0.057536  1
  O  O17  1  0.054652  0.033033  0.456158  1
  O  O18  1  0.810314  0.192464  0.804757  1
  O  O19  1  0.054652  0.456158  0.033033  1
  O  O20  1  0.512302  0.495899  0.495899  1
  O  O21  1  0.737698  0.754101  0.754101  1
