# generated using pymatgen
data_La3SiAuS7
_symmetry_space_group_name_H-M   'P 1'
_cell_length_a   10.44736400
_cell_length_b   10.44725857
_cell_length_c   5.88665000
_cell_angle_alpha   90.00000000
_cell_angle_beta   90.00000000
_cell_angle_gamma   120.00034352
_symmetry_Int_Tables_number   1
_chemical_formula_structural   La3SiAuS7
_chemical_formula_sum   'La6 Si2 Au2 S14'
_cell_volume   556.42471650
_cell_formula_units_Z   2
loop_
 _symmetry_equiv_pos_site_id
 _symmetry_equiv_pos_as_xyz
  1  'x, y, z'
loop_
 _atom_site_type_symbol
 _atom_site_label
 _atom_site_symmetry_multiplicity
 _atom_site_fract_x
 _atom_site_fract_y
 _atom_site_fract_z
 _atom_site_occupancy
  La  La0  1  0.123341  0.358665  0.250709  1
  La  La1  1  0.235320  0.876664  0.250722  1
  La  La2  1  0.641344  0.764661  0.250709  1
  La  La3  1  0.876659  0.641335  0.750709  1
  La  La4  1  0.764680  0.123336  0.750722  1
  La  La5  1  0.358657  0.235340  0.750709  1
  Si  Si6  1  0.666655  0.333325  0.163234  1
  Si  Si7  1  0.333346  0.666676  0.663234  1
  Au  Au8  1  0.999996  0.999998  0.275272  1
  Au  Au9  1  0.000004  0.000002  0.775272  1
  S  S10  1  0.526562  0.117321  0.021447  1
  S  S11  1  0.590753  0.473432  0.021452  1
  S  S12  1  0.882667  0.409245  0.021460  1
  S  S13  1  0.333351  0.666674  0.023672  1
  S  S14  1  0.824095  0.089616  0.263109  1
  S  S15  1  0.265522  0.175912  0.263107  1
  S  S16  1  0.910388  0.734476  0.263103  1
  S  S17  1  0.473438  0.882679  0.521447  1
  S  S18  1  0.409247  0.526568  0.521452  1
  S  S19  1  0.117333  0.590756  0.521460  1
  S  S20  1  0.666649  0.333326  0.523672  1
  S  S21  1  0.089613  0.265524  0.763103  1
  S  S22  1  0.734479  0.824088  0.763107  1
  S  S23  1  0.175905  0.910384  0.763109  1
