# generated using pymatgen
data_Pa6Al24CrFe7
_symmetry_space_group_name_H-M   'P 1'
_cell_length_a   8.75104792
_cell_length_b   8.75104901
_cell_length_c   9.19234666
_cell_angle_alpha   90.29820833
_cell_angle_beta   89.70179202
_cell_angle_gamma   120.15947820
_symmetry_Int_Tables_number   1
_chemical_formula_structural   Pa6Al24CrFe7
_chemical_formula_sum   'Pa6 Al24 Cr1 Fe7'
_cell_volume   608.65222418
_cell_formula_units_Z   1
loop_
 _symmetry_equiv_pos_site_id
 _symmetry_equiv_pos_as_xyz
  1  'x, y, z'
loop_
 _atom_site_type_symbol
 _atom_site_label
 _atom_site_symmetry_multiplicity
 _atom_site_fract_x
 _atom_site_fract_y
 _atom_site_fract_z
 _atom_site_occupancy
  Pa  Pa0  1  0.801537  0.198463  0.749998  1
  Pa  Pa1  1  0.198463  0.801537  0.250002  1
  Pa  Pa2  1  0.398412  0.203093  0.753585  1
  Pa  Pa3  1  0.601588  0.796907  0.246415  1
  Pa  Pa4  1  0.796907  0.601588  0.753585  1
  Pa  Pa5  1  0.203093  0.398412  0.246415  1
  Al  Al6  1  0.668108  0.331892  0.994316  1
  Al  Al7  1  0.331892  0.668108  0.005684  1
  Al  Al8  1  0.333101  0.666899  0.490305  1
  Al  Al9  1  0.666899  0.333101  0.509695  1
  Al  Al10  1  0.840513  0.159487  0.421179  1
  Al  Al11  1  0.159487  0.840513  0.578821  1
  Al  Al12  1  0.319719  0.159279  0.423200  1
  Al  Al13  1  0.159304  0.840696  0.921014  1
  Al  Al14  1  0.680281  0.840721  0.576800  1
  Al  Al15  1  0.840696  0.159304  0.078986  1
  Al  Al16  1  0.840721  0.680281  0.423200  1
  Al  Al17  1  0.680239  0.841146  0.919557  1
  Al  Al18  1  0.159279  0.319719  0.576800  1
  Al  Al19  1  0.319761  0.158854  0.080443  1
  Al  Al20  1  0.158854  0.319761  0.919557  1
  Al  Al21  1  0.841146  0.680239  0.080443  1
  Al  Al22  1  0.437573  0.562427  0.746960  1
  Al  Al23  1  0.562427  0.437573  0.253040  1
  Al  Al24  1  0.119287  0.560642  0.748799  1
  Al  Al25  1  0.880713  0.439358  0.251201  1
  Al  Al26  1  0.439358  0.880713  0.748799  1
  Al  Al27  1  0.560642  0.119287  0.251201  1
  Al  Al28  1  0.000027  0.999973  0.749810  1
  Al  Al29  1  0.999973  0.000027  0.250190  1
  Cr  Cr30  1  0.500000  0.500000  0.000000  1
  Fe  Fe31  1  0.000000  0.500000  0.000000  1
  Fe  Fe32  1  0.500000  0.500000  0.500000  1
  Fe  Fe33  1  0.500000  0.000000  0.000000  1
  Fe  Fe34  1  0.000000  0.500000  0.500000  1
  Fe  Fe35  1  0.500000  0.000000  0.500000  1
  Fe  Fe36  1  0.000000  0.000000  0.000000  1
  Fe  Fe37  1  0.000000  0.000000  0.500000  1
