# generated using pymatgen
data_Tb9YSi5Hg
_symmetry_space_group_name_H-M   'P 1'
_cell_length_a   7.55586626
_cell_length_b   7.60286455
_cell_length_c   8.86981200
_cell_angle_alpha   115.35098340
_cell_angle_beta   114.96866119
_cell_angle_gamma   90.21532980
_symmetry_Int_Tables_number   1
_chemical_formula_structural   Tb9YSi5Hg
_chemical_formula_sum   'Tb9 Y1 Si5 Hg1'
_cell_volume   406.71068110
_cell_formula_units_Z   1
loop_
 _symmetry_equiv_pos_site_id
 _symmetry_equiv_pos_as_xyz
  1  'x, y, z'
loop_
 _atom_site_type_symbol
 _atom_site_label
 _atom_site_symmetry_multiplicity
 _atom_site_fract_x
 _atom_site_fract_y
 _atom_site_fract_z
 _atom_site_occupancy
  Tb  Tb0  1  0.513342  0.513602  0.027004  1
  Tb  Tb1  1  0.989187  0.989023  0.977953  1
  Tb  Tb2  1  0.975991  0.822145  0.283248  1
  Tb  Tb3  1  0.306764  0.462121  0.283734  1
  Tb  Tb4  1  0.821628  0.307185  0.283398  1
  Tb  Tb5  1  0.460816  0.976430  0.282862  1
  Tb  Tb6  1  0.039221  0.192459  0.716522  1
  Tb  Tb7  1  0.677869  0.523418  0.716413  1
  Tb  Tb8  1  0.192676  0.677095  0.716654  1
  Y  Y9  1  0.524564  0.039368  0.717837  1
  Si  Si10  1  0.248687  0.248149  0.496444  1
  Si  Si11  1  0.621585  0.877957  0.999294  1
  Si  Si12  1  0.377882  0.121709  0.998952  1
  Si  Si13  1  0.877448  0.377299  0.998870  1
  Si  Si14  1  0.121470  0.621482  0.999549  1
  Hg  Hg15  1  0.750869  0.750558  0.501265  1
