# generated using pymatgen
data_Sm4Co17Si11PRu3
_symmetry_space_group_name_H-M   'P 1'
_cell_length_a   3.77335900
_cell_length_b   10.64028063
_cell_length_c   12.06765602
_cell_angle_alpha   90.08060161
_cell_angle_beta   90.00000000
_cell_angle_gamma   90.00000000
_symmetry_Int_Tables_number   1
_chemical_formula_structural   Sm4Co17Si11PRu3
_chemical_formula_sum   'Sm4 Co17 Si11 P1 Ru3'
_cell_volume   484.51106685
_cell_formula_units_Z   1
loop_
 _symmetry_equiv_pos_site_id
 _symmetry_equiv_pos_as_xyz
  1  'x, y, z'
loop_
 _atom_site_type_symbol
 _atom_site_label
 _atom_site_symmetry_multiplicity
 _atom_site_fract_x
 _atom_site_fract_y
 _atom_site_fract_z
 _atom_site_occupancy
  Sm  Sm0  1  0.250000  0.583745  0.702074  1
  Sm  Sm1  1  0.250000  0.916286  0.202384  1
  Sm  Sm2  1  0.750000  0.416276  0.297538  1
  Sm  Sm3  1  0.750000  0.083161  0.795281  1
  Co  Co4  1  0.750000  0.205258  0.507424  1
  Co  Co5  1  0.250000  0.403304  0.490408  1
  Co  Co6  1  0.250000  0.093792  0.994097  1
  Co  Co7  1  0.750000  0.592821  0.509852  1
  Co  Co8  1  0.750000  0.910786  0.012200  1
  Co  Co9  1  0.250000  0.212679  0.174883  1
  Co  Co10  1  0.250000  0.284841  0.673449  1
  Co  Co11  1  0.750000  0.786845  0.826582  1
  Co  Co12  1  0.750000  0.714739  0.325639  1
  Co  Co13  1  0.250000  0.887870  0.699415  1
  Co  Co14  1  0.250000  0.613260  0.199844  1
  Co  Co15  1  0.750000  0.114650  0.298489  1
  Co  Co16  1  0.750000  0.384549  0.799644  1
  Co  Co17  1  0.250000  0.468123  0.931664  1
  Co  Co18  1  0.250000  0.031860  0.430157  1
  Co  Co19  1  0.750000  0.529357  0.067561  1
  Co  Co20  1  0.750000  0.973377  0.567395  1
  Si  Si21  1  0.250000  0.415140  0.110428  1
  Si  Si22  1  0.250000  0.086380  0.607260  1
  Si  Si23  1  0.750000  0.584803  0.889628  1
  Si  Si24  1  0.750000  0.915902  0.390358  1
  Si  Si25  1  0.250000  0.273879  0.868137  1
  Si  Si26  1  0.250000  0.225446  0.369872  1
  Si  Si27  1  0.750000  0.724100  0.132217  1
  Si  Si28  1  0.750000  0.778260  0.632486  1
  Si  Si29  1  0.250000  0.601856  0.394084  1
  Si  Si30  1  0.250000  0.898753  0.894012  1
  Si  Si31  1  0.750000  0.394093  0.604027  1
  P  P32  1  0.750000  0.101474  0.108302  1
  Ru  Ru33  1  0.250000  0.704703  0.990507  1
  Ru  Ru34  1  0.250000  0.796152  0.490593  1
  Ru  Ru35  1  0.750000  0.291480  0.012114  1
