# generated using pymatgen
data_Th6Ni16P13Rh4
_symmetry_space_group_name_H-M   'P 1'
_cell_length_a   12.93197300
_cell_length_b   12.93197350
_cell_length_c   3.88505100
_cell_angle_alpha   90.00000000
_cell_angle_beta   90.00000000
_cell_angle_gamma   119.99999617
_symmetry_Int_Tables_number   1
_chemical_formula_structural   Th6Ni16P13Rh4
_chemical_formula_sum   'Th6 Ni16 P13 Rh4'
_cell_volume   562.67415544
_cell_formula_units_Z   1
loop_
 _symmetry_equiv_pos_site_id
 _symmetry_equiv_pos_as_xyz
  1  'x, y, z'
loop_
 _atom_site_type_symbol
 _atom_site_label
 _atom_site_symmetry_multiplicity
 _atom_site_fract_x
 _atom_site_fract_y
 _atom_site_fract_z
 _atom_site_occupancy
  Th  Th0  1  0.184802  0.469071  0.000000  1
  Th  Th1  1  0.530929  0.715730  0.000000  1
  Th  Th2  1  0.284270  0.815198  0.000000  1
  Th  Th3  1  0.717958  0.184787  0.500000  1
  Th  Th4  1  0.815213  0.533171  0.500000  1
  Th  Th5  1  0.466829  0.282042  0.500000  1
  Ni  Ni6  1  0.088086  0.195731  0.000000  1
  Ni  Ni7  1  0.804269  0.892356  0.000000  1
  Ni  Ni8  1  0.107644  0.911914  0.000000  1
  Ni  Ni9  1  0.666667  0.333333  0.000000  1
  Ni  Ni10  1  0.411947  0.433546  0.000000  1
  Ni  Ni11  1  0.566454  0.978402  0.000000  1
  Ni  Ni12  1  0.021598  0.588053  0.000000  1
  Ni  Ni13  1  0.242655  0.318226  0.500000  1
  Ni  Ni14  1  0.681774  0.924428  0.500000  1
  Ni  Ni15  1  0.075572  0.757345  0.500000  1
  Ni  Ni16  1  0.433398  0.026265  0.500000  1
  Ni  Ni17  1  0.973735  0.407133  0.500000  1
  Ni  Ni18  1  0.592867  0.566602  0.500000  1
  Ni  Ni19  1  0.918362  0.239326  0.000000  1
  Ni  Ni20  1  0.760674  0.679036  0.000000  1
  Ni  Ni21  1  0.320964  0.081638  0.000000  1
  P  P22  1  0.390204  0.513611  0.500000  1
  P  P23  1  0.486389  0.876592  0.500000  1
  P  P24  1  0.123408  0.609796  0.500000  1
  P  P25  1  0.043573  0.276505  0.500000  1
  P  P26  1  0.723495  0.767069  0.500000  1
  P  P27  1  0.232931  0.956427  0.500000  1
  P  P28  1  0.519780  0.133434  0.000000  1
  P  P29  1  0.866566  0.386346  0.000000  1
  P  P30  1  0.613654  0.480220  0.000000  1
  P  P31  1  0.766650  0.041248  0.000000  1
  P  P32  1  0.958752  0.725402  0.000000  1
  P  P33  1  0.274598  0.233350  0.000000  1
  P  P34  1  0.000000  0.000000  0.000000  1
  Rh  Rh35  1  0.333333  0.666667  0.500000  1
  Rh  Rh36  1  0.916658  0.072029  0.500000  1
  Rh  Rh37  1  0.927971  0.844630  0.500000  1
  Rh  Rh38  1  0.155370  0.083342  0.500000  1
