# generated using pymatgen
data_HoTm9CoRu3
_symmetry_space_group_name_H-M   'P 1'
_cell_length_a   6.21649435
_cell_length_b   7.17709215
_cell_length_c   8.31412800
_cell_angle_alpha   96.68960678
_cell_angle_beta   111.76317669
_cell_angle_gamma   90.27233453
_symmetry_Int_Tables_number   1
_chemical_formula_structural   HoTm9CoRu3
_chemical_formula_sum   'Ho1 Tm9 Co1 Ru3'
_cell_volume   341.69863890
_cell_formula_units_Z   1
loop_
 _symmetry_equiv_pos_site_id
 _symmetry_equiv_pos_as_xyz
  1  'x, y, z'
loop_
 _atom_site_type_symbol
 _atom_site_label
 _atom_site_symmetry_multiplicity
 _atom_site_fract_x
 _atom_site_fract_y
 _atom_site_fract_z
 _atom_site_occupancy
  Ho  Ho0  1  0.790103  0.088579  0.814466  1
  Tm  Tm1  1  0.978918  0.415745  0.188810  1
  Tm  Tm2  1  0.209035  0.916602  0.184995  1
  Tm  Tm3  1  0.014738  0.584189  0.814538  1
  Tm  Tm4  1  0.208863  0.186791  0.566076  1
  Tm  Tm5  1  0.644474  0.315664  0.435393  1
  Tm  Tm6  1  0.794670  0.814954  0.436021  1
  Tm  Tm7  1  0.358266  0.680665  0.566552  1
  Tm  Tm8  1  0.420891  0.252866  0.998490  1
  Tm  Tm9  1  0.579960  0.746029  0.997497  1
  Co  Co10  1  0.602970  0.422102  0.776841  1
  Ru  Ru11  1  0.822535  0.075272  0.218798  1
  Ru  Ru12  1  0.397439  0.575484  0.221117  1
  Ru  Ru13  1  0.177139  0.925058  0.780403  1
