# generated using pymatgen
data_Sc5AsP2
_symmetry_space_group_name_H-M   'P 1'
_cell_length_a   7.14023900
_cell_length_b   7.99344400
_cell_length_c   10.66419600
_cell_angle_alpha   90.00000000
_cell_angle_beta   90.00000000
_cell_angle_gamma   90.00000000
_symmetry_Int_Tables_number   1
_chemical_formula_structural   Sc5AsP2
_chemical_formula_sum   'Sc20 As4 P8'
_cell_volume   608.66005944
_cell_formula_units_Z   4
loop_
 _symmetry_equiv_pos_site_id
 _symmetry_equiv_pos_as_xyz
  1  'x, y, z'
loop_
 _atom_site_type_symbol
 _atom_site_label
 _atom_site_symmetry_multiplicity
 _atom_site_fract_x
 _atom_site_fract_y
 _atom_site_fract_z
 _atom_site_occupancy
  Sc  Sc0  1  0.809872  0.951604  0.069898  1
  Sc  Sc1  1  0.309872  0.048396  0.430102  1
  Sc  Sc2  1  0.190128  0.451604  0.930102  1
  Sc  Sc3  1  0.690128  0.548396  0.569898  1
  Sc  Sc4  1  0.188847  0.046359  0.927259  1
  Sc  Sc5  1  0.688847  0.953641  0.572741  1
  Sc  Sc6  1  0.811153  0.546359  0.072741  1
  Sc  Sc7  1  0.311153  0.453641  0.427259  1
  Sc  Sc8  1  0.160916  0.738867  0.216888  1
  Sc  Sc9  1  0.660916  0.261133  0.283112  1
  Sc  Sc10  1  0.839084  0.238867  0.783112  1
  Sc  Sc11  1  0.339084  0.761133  0.716888  1
  Sc  Sc12  1  0.466061  0.750212  0.001776  1
  Sc  Sc13  1  0.966061  0.249788  0.498224  1
  Sc  Sc14  1  0.533939  0.250212  0.998224  1
  Sc  Sc15  1  0.033939  0.749788  0.501776  1
  Sc  Sc16  1  0.643835  0.741535  0.295282  1
  Sc  Sc17  1  0.143835  0.258465  0.204718  1
  Sc  Sc18  1  0.356165  0.241535  0.704718  1
  Sc  Sc19  1  0.856165  0.758465  0.795282  1
  As  As20  1  0.066572  0.490262  0.674020  1
  As  As21  1  0.566572  0.509738  0.825980  1
  As  As22  1  0.933428  0.990262  0.325980  1
  As  As23  1  0.433428  0.009738  0.174020  1
  P  P24  1  0.425804  0.750991  0.485573  1
  P  P25  1  0.925804  0.249009  0.014427  1
  P  P26  1  0.574196  0.250991  0.514427  1
  P  P27  1  0.074196  0.749009  0.985573  1
  P  P28  1  0.935775  0.508764  0.329904  1
  P  P29  1  0.435775  0.491236  0.170096  1
  P  P30  1  0.064225  0.008764  0.670096  1
  P  P31  1  0.564225  0.991236  0.829904  1
