# generated using pymatgen
data_Ho12TcNi4Sn
_symmetry_space_group_name_H-M   'P 1'
_cell_length_a   8.28457525
_cell_length_b   8.28457468
_cell_length_c   8.28457478
_cell_angle_alpha   111.57349481
_cell_angle_beta   109.82303884
_cell_angle_gamma   107.04900378
_symmetry_Int_Tables_number   1
_chemical_formula_structural   Ho12TcNi4Sn
_chemical_formula_sum   'Ho12 Tc1 Ni4 Sn1'
_cell_volume   437.02194014
_cell_formula_units_Z   1
loop_
 _symmetry_equiv_pos_site_id
 _symmetry_equiv_pos_as_xyz
  1  'x, y, z'
loop_
 _atom_site_type_symbol
 _atom_site_label
 _atom_site_symmetry_multiplicity
 _atom_site_fract_x
 _atom_site_fract_y
 _atom_site_fract_z
 _atom_site_occupancy
  Ho  Ho0  1  0.410755  0.219600  0.191154  1
  Ho  Ho1  1  0.589245  0.780400  0.808846  1
  Ho  Ho2  1  0.028446  0.219600  0.808846  1
  Ho  Ho3  1  0.971554  0.780400  0.191154  1
  Ho  Ho4  1  0.180742  0.284080  0.464822  1
  Ho  Ho5  1  0.819258  0.715920  0.535178  1
  Ho  Ho6  1  0.180742  0.715920  0.896663  1
  Ho  Ho7  1  0.819258  0.284080  0.103337  1
  Ho  Ho8  1  0.319972  0.625687  0.305715  1
  Ho  Ho9  1  0.680028  0.374313  0.694285  1
  Ho  Ho10  1  0.319972  0.014257  0.694285  1
  Ho  Ho11  1  0.680028  0.985743  0.305715  1
  Tc  Tc12  1  0.000000  0.000000  0.000000  1
  Ni  Ni13  1  0.360480  0.000000  0.360480  1
  Ni  Ni14  1  0.639520  0.000000  0.639520  1
  Ni  Ni15  1  0.120296  0.620296  0.500000  1
  Ni  Ni16  1  0.879704  0.379704  0.500000  1
  Sn  Sn17  1  0.500000  0.500000  0.000000  1
