# generated using pymatgen
data_Dy9Ho7Cd4(CoOs)2
_symmetry_space_group_name_H-M   'P 1'
_cell_length_a   9.67469622
_cell_length_b   9.57489782
_cell_length_c   9.57743125
_cell_angle_alpha   59.28194194
_cell_angle_beta   59.53699596
_cell_angle_gamma   59.54157168
_symmetry_Int_Tables_number   1
_chemical_formula_structural   Dy9Ho7Cd4(CoOs)2
_chemical_formula_sum   'Dy9 Ho7 Cd4 Co2 Os2'
_cell_volume   619.53589851
_cell_formula_units_Z   1
loop_
 _symmetry_equiv_pos_site_id
 _symmetry_equiv_pos_as_xyz
  1  'x, y, z'
loop_
 _atom_site_type_symbol
 _atom_site_label
 _atom_site_symmetry_multiplicity
 _atom_site_fract_x
 _atom_site_fract_y
 _atom_site_fract_z
 _atom_site_occupancy
  Dy  Dy0  1  0.939656  0.939598  0.556402  1
  Dy  Dy1  1  0.811068  0.188717  0.188296  1
  Dy  Dy2  1  0.936206  0.563669  0.564113  1
  Dy  Dy3  1  0.939541  0.556238  0.939535  1
  Dy  Dy4  1  0.815606  0.807321  0.186063  1
  Dy  Dy5  1  0.339618  0.349430  0.349162  1
  Dy  Dy6  1  0.557047  0.942943  0.942980  1
  Dy  Dy7  1  0.565152  0.939109  0.556388  1
  Dy  Dy8  1  0.189251  0.810531  0.810404  1
  Ho  Ho9  1  0.189456  0.186511  0.807380  1
  Ho  Ho10  1  0.343674  0.352829  0.960762  1
  Ho  Ho11  1  0.343454  0.960972  0.352621  1
  Ho  Ho12  1  0.815401  0.186437  0.807356  1
  Ho  Ho13  1  0.565281  0.555965  0.939350  1
  Ho  Ho14  1  0.189877  0.807224  0.186434  1
  Ho  Ho15  1  0.962721  0.349372  0.349595  1
  Cd  Cd16  1  0.580784  0.579457  0.258145  1
  Cd  Cd17  1  0.258909  0.579642  0.579599  1
  Cd  Cd18  1  0.581116  0.579319  0.579743  1
  Cd  Cd19  1  0.580849  0.258268  0.579534  1
  Co  Co20  1  0.138696  0.580848  0.142962  1
  Co  Co21  1  0.138455  0.142909  0.581023  1
  Os  Os22  1  0.578727  0.141716  0.141204  1
  Os  Os23  1  0.139462  0.140979  0.140953  1
