# generated using pymatgen
data_Dy16Er4Sn15Pb
_symmetry_space_group_name_H-M   'P 1'
_cell_length_a   8.06857809
_cell_length_b   8.14803582
_cell_length_c   15.46538462
_cell_angle_alpha   89.98920379
_cell_angle_beta   90.07841452
_cell_angle_gamma   89.90822545
_symmetry_Int_Tables_number   1
_chemical_formula_structural   Dy16Er4Sn15Pb
_chemical_formula_sum   'Dy16 Er4 Sn15 Pb1'
_cell_volume   1016.73948546
_cell_formula_units_Z   1
loop_
 _symmetry_equiv_pos_site_id
 _symmetry_equiv_pos_as_xyz
  1  'x, y, z'
loop_
 _atom_site_type_symbol
 _atom_site_label
 _atom_site_symmetry_multiplicity
 _atom_site_fract_x
 _atom_site_fract_y
 _atom_site_fract_z
 _atom_site_occupancy
  Dy  Dy0  1  0.378666  0.837329  0.878616  1
  Dy  Dy1  1  0.877557  0.661990  0.621161  1
  Dy  Dy2  1  0.622162  0.161985  0.378742  1
  Dy  Dy3  1  0.124112  0.338058  0.121528  1
  Dy  Dy4  1  0.620971  0.159649  0.122026  1
  Dy  Dy5  1  0.122999  0.338060  0.378926  1
  Dy  Dy6  1  0.378078  0.837495  0.621129  1
  Dy  Dy7  1  0.878613  0.663319  0.877767  1
  Dy  Dy8  1  0.529330  0.321080  0.899498  1
  Dy  Dy9  1  0.030387  0.178028  0.598776  1
  Dy  Dy10  1  0.468825  0.677219  0.400971  1
  Dy  Dy11  1  0.969503  0.825458  0.099748  1
  Dy  Dy12  1  0.465123  0.679243  0.100202  1
  Dy  Dy13  1  0.969396  0.822432  0.401294  1
  Dy  Dy14  1  0.531132  0.322829  0.599272  1
  Dy  Dy15  1  0.032709  0.176202  0.899950  1
  Er  Er16  1  0.209075  0.504198  0.749822  1
  Er  Er17  1  0.709077  0.995918  0.749973  1
  Er  Er18  1  0.791406  0.495800  0.251569  1
  Er  Er19  1  0.290969  0.004126  0.250188  1
  Sn  Sn20  1  0.284728  0.033675  0.042013  1
  Sn  Sn21  1  0.784756  0.465736  0.458099  1
  Sn  Sn22  1  0.715111  0.966575  0.542272  1
  Sn  Sn23  1  0.215349  0.533331  0.957542  1
  Sn  Sn24  1  0.715961  0.966959  0.957738  1
  Sn  Sn25  1  0.215298  0.534036  0.542153  1
  Sn  Sn26  1  0.285093  0.033691  0.457797  1
  Sn  Sn27  1  0.575795  0.619612  0.749739  1
  Sn  Sn28  1  0.075807  0.880173  0.749628  1
  Sn  Sn29  1  0.424989  0.380472  0.250033  1
  Sn  Sn30  1  0.924640  0.120537  0.250087  1
  Sn  Sn31  1  0.340781  0.147558  0.749365  1
  Sn  Sn32  1  0.841222  0.351830  0.749942  1
  Sn  Sn33  1  0.659116  0.851168  0.250420  1
  Sn  Sn34  1  0.158019  0.648375  0.250378  1
  Pb  Pb35  1  0.783248  0.465851  0.041636  1
