# generated using pymatgen
data_LaThMo3P7Rh9
_symmetry_space_group_name_H-M   'P 1'
_cell_length_a   3.98116302
_cell_length_b   9.61552033
_cell_length_c   9.61596203
_cell_angle_alpha   119.99975400
_cell_angle_beta   90.00018345
_cell_angle_gamma   89.99997279
_symmetry_Int_Tables_number   1
_chemical_formula_structural   LaThMo3P7Rh9
_chemical_formula_sum   'La1 Th1 Mo3 P7 Rh9'
_cell_volume   318.79184267
_cell_formula_units_Z   1
loop_
 _symmetry_equiv_pos_site_id
 _symmetry_equiv_pos_as_xyz
  1  'x, y, z'
loop_
 _atom_site_type_symbol
 _atom_site_label
 _atom_site_symmetry_multiplicity
 _atom_site_fract_x
 _atom_site_fract_y
 _atom_site_fract_z
 _atom_site_occupancy
  La  La0  1  0.261884  0.666656  0.333343  1
  Th  Th1  1  0.761840  0.333301  0.666617  1
  Mo  Mo2  1  0.761939  0.091026  0.875383  1
  Mo  Mo3  1  0.761954  0.124619  0.215718  1
  Mo  Mo4  1  0.761944  0.784488  0.909017  1
  P  P5  1  0.262087  0.999970  0.000009  1
  P  P6  1  0.761916  0.887275  0.599654  1
  P  P7  1  0.761913  0.400306  0.287566  1
  P  P8  1  0.761909  0.712408  0.112734  1
  P  P9  1  0.261860  0.110338  0.407413  1
  P  P10  1  0.261856  0.592609  0.702938  1
  P  P11  1  0.261857  0.297088  0.889675  1
  Rh  Rh12  1  0.261931  0.882591  0.157059  1
  Rh  Rh13  1  0.261928  0.842991  0.725501  1
  Rh  Rh14  1  0.261929  0.274403  0.117445  1
  Rh  Rh15  1  0.761873  0.611046  0.563310  1
  Rh  Rh16  1  0.761883  0.436604  0.047694  1
  Rh  Rh17  1  0.761913  0.952282  0.388926  1
  Rh  Rh18  1  0.261869  0.365573  0.437060  1
  Rh  Rh19  1  0.261856  0.562995  0.928621  1
  Rh  Rh20  1  0.261860  0.071429  0.634313  1
