# generated using pymatgen
data_LaNd3CdPd
_symmetry_space_group_name_H-M   'P 1'
_cell_length_a   10.06177856
_cell_length_b   10.06177851
_cell_length_c   10.06177900
_cell_angle_alpha   60.00000167
_cell_angle_beta   60.00000184
_cell_angle_gamma   60.00000296
_symmetry_Int_Tables_number   1
_chemical_formula_structural   LaNd3CdPd
_chemical_formula_sum   'La4 Nd12 Cd4 Pd4'
_cell_volume   720.29318455
_cell_formula_units_Z   4
loop_
 _symmetry_equiv_pos_site_id
 _symmetry_equiv_pos_as_xyz
  1  'x, y, z'
loop_
 _atom_site_type_symbol
 _atom_site_label
 _atom_site_symmetry_multiplicity
 _atom_site_fract_x
 _atom_site_fract_y
 _atom_site_fract_z
 _atom_site_occupancy
  La  La0  1  0.351999  0.351999  0.351999  1
  La  La1  1  0.351999  0.351999  0.944004  1
  La  La2  1  0.351999  0.944004  0.351999  1
  La  La3  1  0.944004  0.351999  0.351999  1
  Nd  Nd4  1  0.808813  0.191187  0.191187  1
  Nd  Nd5  1  0.191187  0.808813  0.808813  1
  Nd  Nd6  1  0.191187  0.808813  0.191187  1
  Nd  Nd7  1  0.808813  0.191187  0.808813  1
  Nd  Nd8  1  0.191187  0.191187  0.808813  1
  Nd  Nd9  1  0.808813  0.808813  0.191187  1
  Nd  Nd10  1  0.934145  0.565855  0.565855  1
  Nd  Nd11  1  0.565855  0.934145  0.934145  1
  Nd  Nd12  1  0.565855  0.934145  0.565855  1
  Nd  Nd13  1  0.934145  0.565855  0.934145  1
  Nd  Nd14  1  0.565855  0.565855  0.934145  1
  Nd  Nd15  1  0.934145  0.934145  0.565855  1
  Cd  Cd16  1  0.580919  0.580919  0.580919  1
  Cd  Cd17  1  0.580919  0.580919  0.257244  1
  Cd  Cd18  1  0.580919  0.257244  0.580919  1
  Cd  Cd19  1  0.257244  0.580919  0.580919  1
  Pd  Pd20  1  0.143247  0.143247  0.143247  1
  Pd  Pd21  1  0.143247  0.143247  0.570258  1
  Pd  Pd22  1  0.143247  0.570258  0.143247  1
  Pd  Pd23  1  0.570258  0.143247  0.143247  1
