# generated using pymatgen
data_PuMg4RhN6
_symmetry_space_group_name_H-M   'P 1'
_cell_length_a   5.35191593
_cell_length_b   5.35191449
_cell_length_c   5.46670200
_cell_angle_alpha   99.30893006
_cell_angle_beta   99.30892753
_cell_angle_gamma   120.04314579
_symmetry_Int_Tables_number   1
_chemical_formula_structural   PuMg4RhN6
_chemical_formula_sum   'Pu1 Mg4 Rh1 N6'
_cell_volume   128.24659370
_cell_formula_units_Z   1
loop_
 _symmetry_equiv_pos_site_id
 _symmetry_equiv_pos_as_xyz
  1  'x, y, z'
loop_
 _atom_site_type_symbol
 _atom_site_label
 _atom_site_symmetry_multiplicity
 _atom_site_fract_x
 _atom_site_fract_y
 _atom_site_fract_z
 _atom_site_occupancy
  Pu  Pu0  1  0.666804  0.333196  0.000000  1
  Mg  Mg1  1  0.838297  0.161703  0.500000  1
  Mg  Mg2  1  0.166017  0.833983  0.500000  1
  Mg  Mg3  1  0.494256  0.505744  0.500000  1
  Mg  Mg4  1  0.000050  0.999950  0.000000  1
  Rh  Rh5  1  0.333659  0.666341  0.000000  1
  N  N6  1  0.425701  0.084439  0.237017  1
  N  N7  1  0.915561  0.574299  0.762983  1
  N  N8  1  0.579563  0.924029  0.759165  1
  N  N9  1  0.075971  0.420437  0.240835  1
  N  N10  1  0.740418  0.736298  0.241971  1
  N  N11  1  0.263702  0.259582  0.758029  1
