# generated using pymatgen
data_ZrU2Ni3Sb4
_symmetry_space_group_name_H-M   'P 1'
_cell_length_a   8.06114626
_cell_length_b   8.06114548
_cell_length_c   8.06114614
_cell_angle_alpha   109.81855574
_cell_angle_beta   108.77875715
_cell_angle_gamma   109.81855424
_symmetry_Int_Tables_number   1
_chemical_formula_structural   ZrU2Ni3Sb4
_chemical_formula_sum   'Zr2 U4 Ni6 Sb8'
_cell_volume   403.20042956
_cell_formula_units_Z   2
loop_
 _symmetry_equiv_pos_site_id
 _symmetry_equiv_pos_as_xyz
  1  'x, y, z'
loop_
 _atom_site_type_symbol
 _atom_site_label
 _atom_site_symmetry_multiplicity
 _atom_site_fract_x
 _atom_site_fract_y
 _atom_site_fract_z
 _atom_site_occupancy
  Zr  Zr0  1  0.875000  0.250000  0.125000  1
  Zr  Zr1  1  0.625000  0.750000  0.375000  1
  U  U2  1  0.250000  0.121893  0.871893  1
  U  U3  1  0.750000  0.378107  0.628107  1
  U  U4  1  0.128107  0.878107  0.250000  1
  U  U5  1  0.371893  0.621893  0.750000  1
  Ni  Ni6  1  0.375000  0.250000  0.625000  1
  Ni  Ni7  1  0.125000  0.750000  0.875000  1
  Ni  Ni8  1  0.250000  0.625477  0.375477  1
  Ni  Ni9  1  0.750000  0.874523  0.124523  1
  Ni  Ni10  1  0.624523  0.374523  0.250000  1
  Ni  Ni11  1  0.875477  0.125477  0.750000  1
  Sb  Sb12  1  0.668223  0.501151  0.006445  1
  Sb  Sb13  1  0.505293  0.998849  0.667071  1
  Sb  Sb14  1  0.994707  0.661778  0.493555  1
  Sb  Sb15  1  0.831777  0.838222  0.832929  1
  Sb  Sb16  1  0.506445  0.001151  0.168223  1
  Sb  Sb17  1  0.167071  0.498849  0.005293  1
  Sb  Sb18  1  0.993555  0.161778  0.494707  1
  Sb  Sb19  1  0.332929  0.338222  0.331777  1
