# generated using pymatgen
data_CaYOsC2
_symmetry_space_group_name_H-M   'P 1'
_cell_length_a   5.15208000
_cell_length_b   6.46834200
_cell_length_c   10.13166700
_cell_angle_alpha   90.00000000
_cell_angle_beta   90.00000000
_cell_angle_gamma   90.00000000
_symmetry_Int_Tables_number   1
_chemical_formula_structural   CaYOsC2
_chemical_formula_sum   'Ca4 Y4 Os4 C8'
_cell_volume   337.64201199
_cell_formula_units_Z   4
loop_
 _symmetry_equiv_pos_site_id
 _symmetry_equiv_pos_as_xyz
  1  'x, y, z'
loop_
 _atom_site_type_symbol
 _atom_site_label
 _atom_site_symmetry_multiplicity
 _atom_site_fract_x
 _atom_site_fract_y
 _atom_site_fract_z
 _atom_site_occupancy
  Ca  Ca0  1  0.250000  0.531025  0.220437  1
  Ca  Ca1  1  0.750000  0.468975  0.779563  1
  Ca  Ca2  1  0.750000  0.968975  0.720437  1
  Ca  Ca3  1  0.250000  0.031025  0.279563  1
  Y  Y4  1  0.250000  0.684492  0.558224  1
  Y  Y5  1  0.750000  0.315508  0.441776  1
  Y  Y6  1  0.750000  0.815508  0.058224  1
  Y  Y7  1  0.250000  0.184492  0.941776  1
  Os  Os8  1  0.250000  0.725455  0.859499  1
  Os  Os9  1  0.750000  0.274545  0.140501  1
  Os  Os10  1  0.750000  0.774545  0.359499  1
  Os  Os11  1  0.250000  0.225455  0.640501  1
  C  C12  1  0.250000  0.462024  0.758174  1
  C  C13  1  0.750000  0.537976  0.241826  1
  C  C14  1  0.750000  0.037976  0.258174  1
  C  C15  1  0.250000  0.962024  0.741826  1
  C  C16  1  0.250000  0.815486  0.036847  1
  C  C17  1  0.750000  0.184514  0.963153  1
  C  C18  1  0.750000  0.684514  0.536847  1
  C  C19  1  0.250000  0.315486  0.463153  1
