# generated using pymatgen
data_Y4Tm8Co4BiOs
_symmetry_space_group_name_H-M   'P 1'
_cell_length_a   8.27216521
_cell_length_b   8.27220956
_cell_length_c   8.27216357
_cell_angle_alpha   110.61305131
_cell_angle_beta   111.11280334
_cell_angle_gamma   106.72248882
_symmetry_Int_Tables_number   1
_chemical_formula_structural   Y4Tm8Co4BiOs
_chemical_formula_sum   'Y4 Tm8 Co4 Bi1 Os1'
_cell_volume   434.99537949
_cell_formula_units_Z   1
loop_
 _symmetry_equiv_pos_site_id
 _symmetry_equiv_pos_as_xyz
  1  'x, y, z'
loop_
 _atom_site_type_symbol
 _atom_site_label
 _atom_site_symmetry_multiplicity
 _atom_site_fract_x
 _atom_site_fract_y
 _atom_site_fract_z
 _atom_site_occupancy
  Y  Y0  1  0.280638  0.183288  0.463921  1
  Y  Y1  1  0.719362  0.816712  0.536079  1
  Y  Y2  1  0.280634  0.816712  0.097349  1
  Y  Y3  1  0.719366  0.183288  0.902651  1
  Tm  Tm4  1  0.623164  0.311961  0.311201  1
  Tm  Tm5  1  0.376836  0.688039  0.688799  1
  Tm  Tm6  1  0.000760  0.311961  0.688798  1
  Tm  Tm7  1  0.999240  0.688039  0.311202  1
  Tm  Tm8  1  0.214619  0.410481  0.195864  1
  Tm  Tm9  1  0.785381  0.589519  0.804136  1
  Tm  Tm10  1  0.214614  0.018746  0.804132  1
  Tm  Tm11  1  0.785386  0.981254  0.195868  1
  Co  Co12  1  0.999998  0.375146  0.375148  1
  Co  Co13  1  0.000002  0.624854  0.624852  1
  Co  Co14  1  0.388245  0.888261  0.500016  1
  Co  Co15  1  0.611755  0.111739  0.499984  1
  Bi  Bi16  1  0.500000  0.500000  0.000000  1
  Os  Os17  1  0.000000  0.000000  0.000000  1
