# generated using pymatgen
data_Yb10CuAg2Pd3
_symmetry_space_group_name_H-M   'P 1'
_cell_length_a   8.81643093
_cell_length_b   8.81643018
_cell_length_c   8.84312000
_cell_angle_alpha   127.89763982
_cell_angle_beta   127.89764427
_cell_angle_gamma   76.57193165
_symmetry_Int_Tables_number   1
_chemical_formula_structural   Yb10CuAg2Pd3
_chemical_formula_sum   'Yb10 Cu1 Ag2 Pd3'
_cell_volume   416.24179064
_cell_formula_units_Z   1
loop_
 _symmetry_equiv_pos_site_id
 _symmetry_equiv_pos_as_xyz
  1  'x, y, z'
loop_
 _atom_site_type_symbol
 _atom_site_label
 _atom_site_symmetry_multiplicity
 _atom_site_fract_x
 _atom_site_fract_y
 _atom_site_fract_z
 _atom_site_occupancy
  Yb  Yb0  1  0.500312  0.501189  0.001501  1
  Yb  Yb1  1  0.998811  0.999688  0.998499  1
  Yb  Yb2  1  0.530248  0.028289  0.834582  1
  Yb  Yb3  1  0.195667  0.693708  0.165418  1
  Yb  Yb4  1  0.029152  0.198171  0.500000  1
  Yb  Yb5  1  0.696135  0.530474  0.500000  1
  Yb  Yb6  1  0.471711  0.969752  0.165418  1
  Yb  Yb7  1  0.806292  0.304333  0.834582  1
  Yb  Yb8  1  0.969526  0.803865  0.500000  1
  Yb  Yb9  1  0.301829  0.470848  0.500000  1
  Cu  Cu10  1  0.374446  0.125554  0.500000  1
  Ag  Ag11  1  0.250541  0.249459  0.000000  1
  Ag  Ag12  1  0.750541  0.749459  0.000000  1
  Pd  Pd13  1  0.132505  0.632383  0.764888  1
  Pd  Pd14  1  0.867617  0.367495  0.235112  1
  Pd  Pd15  1  0.624669  0.875331  0.500000  1
