# generated using pymatgen
data_Sc8AlB24Ir2Rh
_symmetry_space_group_name_H-M   'P 1'
_cell_length_a   3.45654100
_cell_length_b   8.92228301
_cell_length_c   11.23112705
_cell_angle_alpha   89.99736637
_cell_angle_beta   90.00000000
_cell_angle_gamma   90.00000000
_symmetry_Int_Tables_number   1
_chemical_formula_structural   Sc8AlB24Ir2Rh
_chemical_formula_sum   'Sc8 Al1 B24 Ir2 Rh1'
_cell_volume   346.37062005
_cell_formula_units_Z   1
loop_
 _symmetry_equiv_pos_site_id
 _symmetry_equiv_pos_as_xyz
  1  'x, y, z'
loop_
 _atom_site_type_symbol
 _atom_site_label
 _atom_site_symmetry_multiplicity
 _atom_site_fract_x
 _atom_site_fract_y
 _atom_site_fract_z
 _atom_site_occupancy
  Sc  Sc0  1  0.000000  0.945604  0.373720  1
  Sc  Sc1  1  0.000000  0.055519  0.626864  1
  Sc  Sc2  1  0.000000  0.556435  0.873937  1
  Sc  Sc3  1  0.000000  0.181413  0.917954  1
  Sc  Sc4  1  0.000000  0.822462  0.088644  1
  Sc  Sc5  1  0.000000  0.681075  0.584023  1
  Sc  Sc6  1  0.000000  0.315515  0.409390  1
  Sc  Sc7  1  0.000000  0.444045  0.126534  1
  Al  Al8  1  0.000000  0.138820  0.179491  1
  B  B9  1  0.500000  0.368566  0.819758  1
  B  B10  1  0.500000  0.977733  0.212259  1
  B  B11  1  0.500000  0.551850  0.434789  1
  B  B12  1  0.500000  0.297367  0.237392  1
  B  B13  1  0.500000  0.204751  0.737193  1
  B  B14  1  0.500000  0.102200  0.472184  1
  B  B15  1  0.500000  0.796313  0.263252  1
  B  B16  1  0.500000  0.446797  0.563869  1
  B  B17  1  0.500000  0.247004  0.577350  1
  B  B18  1  0.500000  0.478158  0.287454  1
  B  B19  1  0.500000  0.704613  0.762126  1
  B  B20  1  0.500000  0.754133  0.421025  1
  B  B21  1  0.500000  0.520462  0.713177  1
  B  B22  1  0.500000  0.898152  0.527604  1
  B  B23  1  0.500000  0.052047  0.063554  1
  B  B24  1  0.500000  0.602394  0.028169  1
  B  B25  1  0.500000  0.748622  0.922905  1
  B  B26  1  0.500000  0.020402  0.787727  1
  B  B27  1  0.500000  0.397999  0.972321  1
  B  B28  1  0.500000  0.947413  0.936081  1
  B  B29  1  0.500000  0.630918  0.182305  1
  B  B30  1  0.500000  0.252809  0.077574  1
  B  B31  1  0.500000  0.868553  0.680284  1
  B  B32  1  0.500000  0.130850  0.318847  1
  Ir  Ir33  1  0.000000  0.360369  0.680070  1
  Ir  Ir34  1  0.000000  0.858095  0.818382  1
  Rh  Rh35  1  0.000000  0.640540  0.321792  1
