# generated using pymatgen
data_YbAlH5
_symmetry_space_group_name_H-M   'P 1'
_cell_length_a   4.25905600
_cell_length_b   4.89481600
_cell_length_c   12.05266400
_cell_angle_alpha   90.00000000
_cell_angle_beta   90.00000000
_cell_angle_gamma   90.00000000
_symmetry_Int_Tables_number   1
_chemical_formula_structural   YbAlH5
_chemical_formula_sum   'Yb4 Al4 H20'
_cell_volume   251.26544741
_cell_formula_units_Z   4
loop_
 _symmetry_equiv_pos_site_id
 _symmetry_equiv_pos_as_xyz
  1  'x, y, z'
loop_
 _atom_site_type_symbol
 _atom_site_label
 _atom_site_symmetry_multiplicity
 _atom_site_fract_x
 _atom_site_fract_y
 _atom_site_fract_z
 _atom_site_occupancy
  Yb  Yb0  1  0.704758  0.639270  0.838893  1
  Yb  Yb1  1  0.204758  0.860730  0.161107  1
  Yb  Yb2  1  0.795242  0.360730  0.338893  1
  Yb  Yb3  1  0.295242  0.139270  0.661107  1
  Al  Al4  1  0.311189  0.123004  0.914544  1
  Al  Al5  1  0.811189  0.376996  0.085456  1
  Al  Al6  1  0.188811  0.876996  0.414544  1
  Al  Al7  1  0.688811  0.623004  0.585456  1
  H  H8  1  0.481637  0.876803  0.991852  1
  H  H9  1  0.981637  0.623197  0.008148  1
  H  H10  1  0.018363  0.123197  0.491852  1
  H  H11  1  0.518363  0.376803  0.508148  1
  H  H12  1  0.165753  0.886068  0.823768  1
  H  H13  1  0.665753  0.613932  0.176232  1
  H  H14  1  0.334247  0.113932  0.323768  1
  H  H15  1  0.834247  0.386068  0.676232  1
  H  H16  1  0.679047  0.112285  0.166002  1
  H  H17  1  0.179047  0.387715  0.833998  1
  H  H18  1  0.820953  0.887715  0.666002  1
  H  H19  1  0.320953  0.612285  0.333998  1
  H  H20  1  0.632099  0.129921  0.825156  1
  H  H21  1  0.132099  0.370079  0.174844  1
  H  H22  1  0.867901  0.870079  0.325156  1
  H  H23  1  0.367901  0.629921  0.674844  1
  H  H24  1  0.997585  0.114418  0.007298  1
  H  H25  1  0.497585  0.385582  0.992702  1
  H  H26  1  0.502415  0.885582  0.507298  1
  H  H27  1  0.002415  0.614418  0.492702  1
