# generated using pymatgen
data_Ce2Si7(NiRu)6
_symmetry_space_group_name_H-M   'P 1'
_cell_length_a   9.46894000
_cell_length_b   9.46893949
_cell_length_c   3.77150700
_cell_angle_alpha   90.00000000
_cell_angle_beta   90.00000000
_cell_angle_gamma   119.99998967
_symmetry_Int_Tables_number   1
_chemical_formula_structural   Ce2Si7(NiRu)6
_chemical_formula_sum   'Ce2 Si7 Ni6 Ru6'
_cell_volume   292.85207191
_cell_formula_units_Z   1
loop_
 _symmetry_equiv_pos_site_id
 _symmetry_equiv_pos_as_xyz
  1  'x, y, z'
loop_
 _atom_site_type_symbol
 _atom_site_label
 _atom_site_symmetry_multiplicity
 _atom_site_fract_x
 _atom_site_fract_y
 _atom_site_fract_z
 _atom_site_occupancy
  Ce  Ce0  1  0.000000  0.000000  0.000000  1
  Ce  Ce1  1  0.333333  0.666667  0.500000  1
  Si  Si2  1  0.061940  0.443595  0.000000  1
  Si  Si3  1  0.556405  0.618344  0.000000  1
  Si  Si4  1  0.381656  0.938060  0.000000  1
  Si  Si5  1  0.770705  0.043291  0.500000  1
  Si  Si6  1  0.956709  0.727414  0.500000  1
  Si  Si7  1  0.272586  0.229295  0.500000  1
  Si  Si8  1  0.666667  0.333333  0.000000  1
  Ni  Ni9  1  0.102859  0.707180  0.000000  1
  Ni  Ni10  1  0.292820  0.395680  0.000000  1
  Ni  Ni11  1  0.604320  0.897141  0.000000  1
  Ni  Ni12  1  0.816850  0.205122  0.000000  1
  Ni  Ni13  1  0.794878  0.611727  0.000000  1
  Ni  Ni14  1  0.388273  0.183150  0.000000  1
  Ru  Ru15  1  0.049780  0.279447  0.500000  1
  Ru  Ru16  1  0.720553  0.770335  0.500000  1
  Ru  Ru17  1  0.229665  0.950220  0.500000  1
  Ru  Ru18  1  0.877253  0.445666  0.500000  1
  Ru  Ru19  1  0.554334  0.431588  0.500000  1
  Ru  Ru20  1  0.568412  0.122747  0.500000  1
