# generated using pymatgen
data_Pr8NdRh6
_symmetry_space_group_name_H-M   'P 1'
_cell_length_a   7.66643666
_cell_length_b   7.66643682
_cell_length_c   7.66643701
_cell_angle_alpha   71.56907821
_cell_angle_beta   71.56907403
_cell_angle_gamma   71.56907467
_symmetry_Int_Tables_number   1
_chemical_formula_structural   Pr8NdRh6
_chemical_formula_sum   'Pr8 Nd1 Rh6'
_cell_volume   393.67462184
_cell_formula_units_Z   1
loop_
 _symmetry_equiv_pos_site_id
 _symmetry_equiv_pos_as_xyz
  1  'x, y, z'
loop_
 _atom_site_type_symbol
 _atom_site_label
 _atom_site_symmetry_multiplicity
 _atom_site_fract_x
 _atom_site_fract_y
 _atom_site_fract_z
 _atom_site_occupancy
  Pr  Pr0  1  0.797794  0.797794  0.797794  1
  Pr  Pr1  1  0.202206  0.202206  0.202206  1
  Pr  Pr2  1  0.164051  0.390852  0.665820  1
  Pr  Pr3  1  0.665820  0.164051  0.390852  1
  Pr  Pr4  1  0.390852  0.665820  0.164051  1
  Pr  Pr5  1  0.835949  0.609148  0.334180  1
  Pr  Pr6  1  0.334180  0.835949  0.609148  1
  Pr  Pr7  1  0.609148  0.334180  0.835949  1
  Nd  Nd8  1  0.000000  0.000000  0.000000  1
  Rh  Rh9  1  0.957833  0.161429  0.591652  1
  Rh  Rh10  1  0.591652  0.957833  0.161429  1
  Rh  Rh11  1  0.161429  0.591652  0.957833  1
  Rh  Rh12  1  0.042167  0.838571  0.408348  1
  Rh  Rh13  1  0.408348  0.042167  0.838571  1
  Rh  Rh14  1  0.838571  0.408348  0.042167  1
