# generated using pymatgen
data_PrEu(Al4Co)2
_symmetry_space_group_name_H-M   'P 1'
_cell_length_a   4.06610700
_cell_length_b   7.01309400
_cell_length_c   7.69770100
_cell_angle_alpha   90.00000000
_cell_angle_beta   90.00000000
_cell_angle_gamma   90.00000000
_symmetry_Int_Tables_number   1
_chemical_formula_structural   PrEu(Al4Co)2
_chemical_formula_sum   'Pr1 Eu1 Al8 Co2'
_cell_volume   219.50756940
_cell_formula_units_Z   1
loop_
 _symmetry_equiv_pos_site_id
 _symmetry_equiv_pos_as_xyz
  1  'x, y, z'
loop_
 _atom_site_type_symbol
 _atom_site_label
 _atom_site_symmetry_multiplicity
 _atom_site_fract_x
 _atom_site_fract_y
 _atom_site_fract_z
 _atom_site_occupancy
  Pr  Pr0  1  0.000000  0.114586  0.750000  1
  Eu  Eu1  1  0.000000  0.883349  0.250000  1
  Al  Al2  1  0.000000  0.500685  0.000729  1
  Al  Al3  1  0.000000  0.500685  0.499271  1
  Al  Al4  1  0.500000  0.544069  0.250000  1
  Al  Al5  1  0.500000  0.795777  0.569243  1
  Al  Al6  1  0.500000  0.795777  0.930757  1
  Al  Al7  1  0.500000  0.203354  0.070232  1
  Al  Al8  1  0.500000  0.203354  0.429768  1
  Al  Al9  1  0.500000  0.458891  0.750000  1
  Co  Co10  1  0.000000  0.683313  0.750000  1
  Co  Co11  1  0.000000  0.316159  0.250000  1
