# generated using pymatgen
data_Lu4Mn2(ReOs)3
_symmetry_space_group_name_H-M   'P 1'
_cell_length_a   5.24365027
_cell_length_b   5.26967689
_cell_length_c   8.79874000
_cell_angle_alpha   90.00000000
_cell_angle_beta   90.00000000
_cell_angle_gamma   120.11571151
_symmetry_Int_Tables_number   1
_chemical_formula_structural   Lu4Mn2(ReOs)3
_chemical_formula_sum   'Lu4 Mn2 Re3 Os3'
_cell_volume   210.31064650
_cell_formula_units_Z   1
loop_
 _symmetry_equiv_pos_site_id
 _symmetry_equiv_pos_as_xyz
  1  'x, y, z'
loop_
 _atom_site_type_symbol
 _atom_site_label
 _atom_site_symmetry_multiplicity
 _atom_site_fract_x
 _atom_site_fract_y
 _atom_site_fract_z
 _atom_site_occupancy
  Lu  Lu0  1  0.337846  0.669736  0.436979  1
  Lu  Lu1  1  0.670506  0.335528  0.561056  1
  Lu  Lu2  1  0.670506  0.335528  0.938944  1
  Lu  Lu3  1  0.337846  0.669736  0.063021  1
  Mn  Mn4  1  0.824427  0.656999  0.250000  1
  Mn  Mn5  1  0.649999  0.824666  0.750000  1
  Re  Re6  1  0.163649  0.337399  0.750000  1
  Re  Re7  1  0.166989  0.823291  0.750000  1
  Re  Re8  1  0.334240  0.164609  0.250000  1
  Os  Os9  1  0.012923  0.006406  0.999743  1
  Os  Os10  1  0.818144  0.169698  0.250000  1
  Os  Os11  1  0.012923  0.006406  0.500257  1
