# generated using pymatgen
data_Nd3SmCr4F28
_symmetry_space_group_name_H-M   'P 1'
_cell_length_a   5.60185106
_cell_length_b   9.05615453
_cell_length_c   12.09584200
_cell_angle_alpha   61.85496668
_cell_angle_beta   90.00871426
_cell_angle_gamma   90.01218346
_symmetry_Int_Tables_number   1
_chemical_formula_structural   Nd3SmCr4F28
_chemical_formula_sum   'Nd3 Sm1 Cr4 F28'
_cell_volume   541.07826869
_cell_formula_units_Z   1
loop_
 _symmetry_equiv_pos_site_id
 _symmetry_equiv_pos_as_xyz
  1  'x, y, z'
loop_
 _atom_site_type_symbol
 _atom_site_label
 _atom_site_symmetry_multiplicity
 _atom_site_fract_x
 _atom_site_fract_y
 _atom_site_fract_z
 _atom_site_occupancy
  Nd  Nd0  1  0.760124  0.807855  0.265408  1
  Nd  Nd1  1  0.260743  0.191954  0.234682  1
  Nd  Nd2  1  0.239216  0.190058  0.734770  1
  Sm  Sm3  1  0.738963  0.807549  0.765581  1
  Cr  Cr4  1  0.243901  0.725412  0.543836  1
  Cr  Cr5  1  0.744041  0.275654  0.956457  1
  Cr  Cr6  1  0.756047  0.274060  0.457336  1
  Cr  Cr7  1  0.255949  0.725495  0.042304  1
  F  F8  1  0.968118  0.714578  0.459567  1
  F  F9  1  0.467558  0.285578  0.040953  1
  F  F10  1  0.032876  0.284929  0.541664  1
  F  F11  1  0.533981  0.715968  0.957355  1
  F  F12  1  0.061391  0.709304  0.923955  1
  F  F13  1  0.562287  0.291006  0.575383  1
  F  F14  1  0.937436  0.291830  0.075043  1
  F  F15  1  0.436592  0.708495  0.425007  1
  F  F16  1  0.735072  0.507077  0.862843  1
  F  F17  1  0.236404  0.494528  0.636822  1
  F  F18  1  0.264933  0.495180  0.136467  1
  F  F19  1  0.765223  0.504943  0.363789  1
  F  F20  1  0.738425  0.045815  0.046492  1
  F  F21  1  0.237777  0.955278  0.453217  1
  F  F22  1  0.261368  0.955340  0.952766  1
  F  F23  1  0.761312  0.044339  0.547738  1
  F  F24  1  0.048707  0.741866  0.664869  1
  F  F25  1  0.551544  0.259303  0.835471  1
  F  F26  1  0.948326  0.259715  0.335761  1
  F  F27  1  0.447075  0.740856  0.164145  1
  F  F28  1  0.014603  0.268671  0.868412  1
  F  F29  1  0.514859  0.732596  0.631899  1
  F  F30  1  0.985538  0.731287  0.131054  1
  F  F31  1  0.485710  0.269258  0.368276  1
  F  F32  1  0.096050  0.968257  0.227048  1
  F  F33  1  0.597165  0.031973  0.273119  1
  F  F34  1  0.902148  0.027812  0.772889  1
  F  F35  1  0.408538  0.966181  0.727622  1
