# generated using pymatgen
data_TbY9(SnSb2)2
_symmetry_space_group_name_H-M   'P 1'
_cell_length_a   8.91412400
_cell_length_b   8.91566684
_cell_length_c   6.47742500
_cell_angle_alpha   90.00561026
_cell_angle_beta   89.99886876
_cell_angle_gamma   120.05936460
_symmetry_Int_Tables_number   1
_chemical_formula_structural   TbY9(SnSb2)2
_chemical_formula_sum   'Tb1 Y9 Sn2 Sb4'
_cell_volume   445.55920529
_cell_formula_units_Z   1
loop_
 _symmetry_equiv_pos_site_id
 _symmetry_equiv_pos_as_xyz
  1  'x, y, z'
loop_
 _atom_site_type_symbol
 _atom_site_label
 _atom_site_symmetry_multiplicity
 _atom_site_fract_x
 _atom_site_fract_y
 _atom_site_fract_z
 _atom_site_occupancy
  Tb  Tb0  1  0.667112  0.333004  0.499268  1
  Y  Y1  1  0.333158  0.667069  0.499246  1
  Y  Y2  1  0.333203  0.666924  0.000791  1
  Y  Y3  1  0.667012  0.333327  0.000921  1
  Y  Y4  1  0.754407  0.754277  0.250021  1
  Y  Y5  1  0.242165  0.999412  0.249859  1
  Y  Y6  1  0.999106  0.242180  0.249886  1
  Y  Y7  1  0.242823  0.242691  0.749953  1
  Y  Y8  1  0.758490  0.001587  0.749905  1
  Y  Y9  1  0.001352  0.758423  0.750029  1
  Sn  Sn10  1  0.394344  0.000233  0.750323  1
  Sn  Sn11  1  0.000810  0.394616  0.750295  1
  Sb  Sb12  1  0.390796  0.391157  0.249922  1
  Sb  Sb13  1  0.607602  0.998935  0.249722  1
  Sb  Sb14  1  0.999726  0.608004  0.249656  1
  Sb  Sb15  1  0.607898  0.608163  0.750203  1
