# generated using pymatgen
data_Ce2Sm5Sc(Si4W3)4
_symmetry_space_group_name_H-M   'P 1'
_cell_length_a   6.82115638
_cell_length_b   6.95801364
_cell_length_c   13.03666348
_cell_angle_alpha   90.13553987
_cell_angle_beta   89.93852142
_cell_angle_gamma   90.06310082
_symmetry_Int_Tables_number   1
_chemical_formula_structural   Ce2Sm5Sc(Si4W3)4
_chemical_formula_sum   'Ce2 Sm5 Sc1 Si16 W12'
_cell_volume   618.73973878
_cell_formula_units_Z   1
loop_
 _symmetry_equiv_pos_site_id
 _symmetry_equiv_pos_as_xyz
  1  'x, y, z'
loop_
 _atom_site_type_symbol
 _atom_site_label
 _atom_site_symmetry_multiplicity
 _atom_site_fract_x
 _atom_site_fract_y
 _atom_site_fract_z
 _atom_site_occupancy
  Ce  Ce0  1  0.002458  0.168069  0.095176  1
  Ce  Ce1  1  0.496935  0.668277  0.903052  1
  Sm  Sm2  1  0.495199  0.664622  0.593438  1
  Sm  Sm3  1  0.996118  0.835116  0.907219  1
  Sm  Sm4  1  0.504293  0.335646  0.093090  1
  Sm  Sm5  1  0.003299  0.164969  0.408796  1
  Sm  Sm6  1  0.502329  0.333734  0.408228  1
  Sc  Sc7  1  0.993319  0.829940  0.595625  1
  Si  Si8  1  0.660966  0.955363  0.456056  1
  Si  Si9  1  0.159455  0.546142  0.046369  1
  Si  Si10  1  0.341910  0.046828  0.951823  1
  Si  Si11  1  0.843597  0.462095  0.548049  1
  Si  Si12  1  0.332989  0.038390  0.547899  1
  Si  Si13  1  0.840520  0.454080  0.952898  1
  Si  Si14  1  0.659586  0.954633  0.046176  1
  Si  Si15  1  0.156655  0.548765  0.456014  1
  Si  Si16  1  0.462680  0.364408  0.749412  1
  Si  Si17  1  0.964271  0.127554  0.746789  1
  Si  Si18  1  0.538569  0.634164  0.250515  1
  Si  Si19  1  0.038094  0.868374  0.250692  1
  Si  Si20  1  0.700744  0.868343  0.746668  1
  Si  Si21  1  0.189397  0.633148  0.746640  1
  Si  Si22  1  0.305185  0.129712  0.250645  1
  Si  Si23  1  0.805807  0.372121  0.251734  1
  W  W24  1  0.667279  0.161984  0.625006  1
  W  W25  1  0.165071  0.336411  0.872521  1
  W  W26  1  0.334256  0.837295  0.125519  1
  W  W27  1  0.835069  0.668048  0.376042  1
  W  W28  1  0.334692  0.835041  0.374642  1
  W  W29  1  0.835402  0.663316  0.126844  1
  W  W30  1  0.668509  0.160000  0.872241  1
  W  W31  1  0.165774  0.334838  0.625628  1
  W  W32  1  0.834113  0.497652  0.749908  1
  W  W33  1  0.334044  0.998680  0.748729  1
  W  W34  1  0.165659  0.504151  0.250061  1
  W  W35  1  0.665757  0.998089  0.249857  1
