# generated using pymatgen
data_TbPr4Y5(Sn5Rh2)4
_symmetry_space_group_name_H-M   'P 1'
_cell_length_a   14.16274900
_cell_length_b   14.16274900
_cell_length_c   4.57374000
_cell_angle_alpha   90.00000000
_cell_angle_beta   90.00000000
_cell_angle_gamma   90.00000000
_symmetry_Int_Tables_number   1
_chemical_formula_structural   TbPr4Y5(Sn5Rh2)4
_chemical_formula_sum   'Tb1 Pr4 Y5 Sn20 Rh8'
_cell_volume   917.41659085
_cell_formula_units_Z   1
loop_
 _symmetry_equiv_pos_site_id
 _symmetry_equiv_pos_as_xyz
  1  'x, y, z'
loop_
 _atom_site_type_symbol
 _atom_site_label
 _atom_site_symmetry_multiplicity
 _atom_site_fract_x
 _atom_site_fract_y
 _atom_site_fract_z
 _atom_site_occupancy
  Tb  Tb0  1  0.500000  0.500000  0.000000  1
  Pr  Pr1  1  0.888049  0.388061  0.500000  1
  Pr  Pr2  1  0.111951  0.611939  0.500000  1
  Pr  Pr3  1  0.388061  0.111951  0.500000  1
  Pr  Pr4  1  0.611939  0.888049  0.500000  1
  Y  Y5  1  0.000000  0.000000  0.000000  1
  Y  Y6  1  0.677313  0.177326  0.500000  1
  Y  Y7  1  0.322687  0.822674  0.500000  1
  Y  Y8  1  0.177326  0.322687  0.500000  1
  Y  Y9  1  0.822674  0.677313  0.500000  1
  Sn  Sn10  1  0.570353  0.070373  0.000000  1
  Sn  Sn11  1  0.429647  0.929627  0.000000  1
  Sn  Sn12  1  0.070373  0.429647  0.000000  1
  Sn  Sn13  1  0.929627  0.570353  0.000000  1
  Sn  Sn14  1  0.654223  0.698027  0.000000  1
  Sn  Sn15  1  0.345777  0.301973  0.000000  1
  Sn  Sn16  1  0.154254  0.801931  0.000000  1
  Sn  Sn17  1  0.845746  0.198069  0.000000  1
  Sn  Sn18  1  0.301973  0.654223  0.000000  1
  Sn  Sn19  1  0.698027  0.345777  0.000000  1
  Sn  Sn20  1  0.198069  0.154254  0.000000  1
  Sn  Sn21  1  0.801931  0.845746  0.000000  1
  Sn  Sn22  1  0.661605  0.505698  0.500000  1
  Sn  Sn23  1  0.338395  0.494302  0.500000  1
  Sn  Sn24  1  0.161617  0.994324  0.500000  1
  Sn  Sn25  1  0.838383  0.005676  0.500000  1
  Sn  Sn26  1  0.494302  0.661605  0.500000  1
  Sn  Sn27  1  0.505698  0.338395  0.500000  1
  Sn  Sn28  1  0.005676  0.161617  0.500000  1
  Sn  Sn29  1  0.994324  0.838383  0.500000  1
  Rh  Rh30  1  0.746057  0.529288  0.000000  1
  Rh  Rh31  1  0.253943  0.470712  0.000000  1
  Rh  Rh32  1  0.246014  0.970727  0.000000  1
  Rh  Rh33  1  0.753986  0.029273  0.000000  1
  Rh  Rh34  1  0.470712  0.746057  0.000000  1
  Rh  Rh35  1  0.529288  0.253943  0.000000  1
  Rh  Rh36  1  0.029273  0.246014  0.000000  1
  Rh  Rh37  1  0.970727  0.753986  0.000000  1
