# generated using pymatgen
data_Y6Lu4Si5Bi
_symmetry_space_group_name_H-M   'P 1'
_cell_length_a   8.48657400
_cell_length_b   8.51723053
_cell_length_c   6.28973300
_cell_angle_alpha   90.00000000
_cell_angle_beta   90.00000000
_cell_angle_gamma   119.88101334
_symmetry_Int_Tables_number   1
_chemical_formula_structural   Y6Lu4Si5Bi
_chemical_formula_sum   'Y6 Lu4 Si5 Bi1'
_cell_volume   394.19681650
_cell_formula_units_Z   1
loop_
 _symmetry_equiv_pos_site_id
 _symmetry_equiv_pos_as_xyz
  1  'x, y, z'
loop_
 _atom_site_type_symbol
 _atom_site_label
 _atom_site_symmetry_multiplicity
 _atom_site_fract_x
 _atom_site_fract_y
 _atom_site_fract_z
 _atom_site_occupancy
  Y  Y0  1  0.765271  0.000000  0.750000  1
  Y  Y1  1  0.752526  0.754040  0.250000  1
  Y  Y2  1  0.998485  0.245960  0.250000  1
  Y  Y3  1  0.984877  0.742904  0.750000  1
  Y  Y4  1  0.241974  0.257096  0.750000  1
  Y  Y5  1  0.242596  0.000000  0.250000  1
  Lu  Lu6  1  0.677219  0.346625  0.004554  1
  Lu  Lu7  1  0.330593  0.653375  0.495446  1
  Lu  Lu8  1  0.330593  0.653375  0.004554  1
  Lu  Lu9  1  0.677219  0.346625  0.495446  1
  Si  Si10  1  0.394698  0.392076  0.250000  1
  Si  Si11  1  0.002622  0.607924  0.250000  1
  Si  Si12  1  0.998144  0.395782  0.750000  1
  Si  Si13  1  0.602362  0.604218  0.750000  1
  Si  Si14  1  0.606017  0.000000  0.250000  1
  Bi  Bi15  1  0.394805  0.000000  0.750000  1
