# generated using pymatgen
data_Mg2InPt5
_symmetry_space_group_name_H-M   'P 1'
_cell_length_a   4.09436200
_cell_length_b   5.64962600
_cell_length_c   11.26098100
_cell_angle_alpha   90.00000000
_cell_angle_beta   90.00000000
_cell_angle_gamma   90.00000000
_symmetry_Int_Tables_number   1
_chemical_formula_structural   Mg2InPt5
_chemical_formula_sum   'Mg4 In2 Pt10'
_cell_volume   260.48466585
_cell_formula_units_Z   2
loop_
 _symmetry_equiv_pos_site_id
 _symmetry_equiv_pos_as_xyz
  1  'x, y, z'
loop_
 _atom_site_type_symbol
 _atom_site_label
 _atom_site_symmetry_multiplicity
 _atom_site_fract_x
 _atom_site_fract_y
 _atom_site_fract_z
 _atom_site_occupancy
  Mg  Mg0  1  0.500000  0.293882  0.864396  1
  Mg  Mg1  1  0.500000  0.793882  0.635604  1
  Mg  Mg2  1  0.500000  0.706118  0.135604  1
  Mg  Mg3  1  0.500000  0.206118  0.364396  1
  In  In4  1  0.000000  0.500000  0.500000  1
  In  In5  1  0.000000  0.000000  0.000000  1
  Pt  Pt6  1  0.500000  0.726791  0.379568  1
  Pt  Pt7  1  0.500000  0.273209  0.620432  1
  Pt  Pt8  1  0.000000  0.034893  0.752626  1
  Pt  Pt9  1  0.500000  0.773209  0.879568  1
  Pt  Pt10  1  0.000000  0.465107  0.252626  1
  Pt  Pt11  1  0.000000  0.965107  0.247374  1
  Pt  Pt12  1  0.000000  0.534893  0.747374  1
  Pt  Pt13  1  0.000000  0.500000  0.000000  1
  Pt  Pt14  1  0.000000  0.000000  0.500000  1
  Pt  Pt15  1  0.500000  0.226791  0.120432  1
