# generated using pymatgen
data_Sc2B(PtRh2)2
_symmetry_space_group_name_H-M   'P 1'
_cell_length_a   5.73170575
_cell_length_b   5.73170542
_cell_length_c   5.71771000
_cell_angle_alpha   60.08075133
_cell_angle_beta   60.08075319
_cell_angle_gamma   60.04770654
_symmetry_Int_Tables_number   1
_chemical_formula_structural   Sc2B(PtRh2)2
_chemical_formula_sum   'Sc2 B1 Pt2 Rh4'
_cell_volume   133.03337314
_cell_formula_units_Z   1
loop_
 _symmetry_equiv_pos_site_id
 _symmetry_equiv_pos_as_xyz
  1  'x, y, z'
loop_
 _atom_site_type_symbol
 _atom_site_label
 _atom_site_symmetry_multiplicity
 _atom_site_fract_x
 _atom_site_fract_y
 _atom_site_fract_z
 _atom_site_occupancy
  Sc  Sc0  1  0.250353  0.250353  0.250889  1
  Sc  Sc1  1  0.749647  0.749647  0.751595  1
  B  B2  1  0.499999  0.499999  0.492305  1
  Pt  Pt3  1  0.757928  0.242070  0.758985  1
  Pt  Pt4  1  0.242070  0.757928  0.758985  1
  Rh  Rh5  1  0.759552  0.240446  0.241915  1
  Rh  Rh6  1  0.240446  0.759552  0.241915  1
  Rh  Rh7  1  0.756492  0.756492  0.245210  1
  Rh  Rh8  1  0.243506  0.243506  0.758195  1
