# generated using pymatgen
data_Sm4Sn5SbRh7
_symmetry_space_group_name_H-M   'P 1'
_cell_length_a   7.68731043
_cell_length_b   7.68731162
_cell_length_c   7.68731004
_cell_angle_alpha   109.43938127
_cell_angle_beta   109.43938668
_cell_angle_gamma   109.53491118
_symmetry_Int_Tables_number   1
_chemical_formula_structural   Sm4Sn5SbRh7
_chemical_formula_sum   'Sm4 Sn5 Sb1 Rh7'
_cell_volume   349.70433611
_cell_formula_units_Z   1
loop_
 _symmetry_equiv_pos_site_id
 _symmetry_equiv_pos_as_xyz
  1  'x, y, z'
loop_
 _atom_site_type_symbol
 _atom_site_label
 _atom_site_symmetry_multiplicity
 _atom_site_fract_x
 _atom_site_fract_y
 _atom_site_fract_z
 _atom_site_occupancy
  Sm  Sm0  1  0.495927  0.998810  0.000000  1
  Sm  Sm1  1  0.998810  0.495927  0.000000  1
  Sm  Sm2  1  0.998810  0.998810  0.502883  1
  Sm  Sm3  1  0.495927  0.495927  0.497117  1
  Sn  Sn4  1  0.996933  0.315941  0.319008  1
  Sn  Sn5  1  0.677926  0.996933  0.680992  1
  Sn  Sn6  1  0.688915  0.688915  0.000000  1
  Sn  Sn7  1  0.996933  0.677926  0.680992  1
  Sn  Sn8  1  0.315941  0.996933  0.319008  1
  Sb  Sb9  1  0.323676  0.323676  0.000000  1
  Rh  Rh10  1  0.008085  0.008085  0.000000  1
  Rh  Rh11  1  0.501673  0.750518  0.248845  1
  Rh  Rh12  1  0.750518  0.501673  0.248845  1
  Rh  Rh13  1  0.247712  0.747712  0.500000  1
  Rh  Rh14  1  0.252829  0.501673  0.751155  1
  Rh  Rh15  1  0.501673  0.252829  0.751155  1
  Rh  Rh16  1  0.747712  0.247712  0.500000  1
