# generated using pymatgen
data_Zr2GaSi2Ru5
_symmetry_space_group_name_H-M   'P 1'
_cell_length_a   9.74539500
_cell_length_b   9.74539500
_cell_length_c   3.23611200
_cell_angle_alpha   90.00000000
_cell_angle_beta   90.00000000
_cell_angle_gamma   90.00000000
_symmetry_Int_Tables_number   1
_chemical_formula_structural   Zr2GaSi2Ru5
_chemical_formula_sum   'Zr4 Ga2 Si4 Ru10'
_cell_volume   307.34237086
_cell_formula_units_Z   2
loop_
 _symmetry_equiv_pos_site_id
 _symmetry_equiv_pos_as_xyz
  1  'x, y, z'
loop_
 _atom_site_type_symbol
 _atom_site_label
 _atom_site_symmetry_multiplicity
 _atom_site_fract_x
 _atom_site_fract_y
 _atom_site_fract_z
 _atom_site_occupancy
  Zr  Zr0  1  0.673089  0.173089  0.000000  1
  Zr  Zr1  1  0.326911  0.826911  0.000000  1
  Zr  Zr2  1  0.173089  0.326911  0.000000  1
  Zr  Zr3  1  0.826911  0.673089  0.000000  1
  Ga  Ga4  1  0.000000  0.000000  0.000000  1
  Ga  Ga5  1  0.500000  0.500000  0.000000  1
  Si  Si6  1  0.128553  0.628553  0.000000  1
  Si  Si7  1  0.871447  0.371447  0.000000  1
  Si  Si8  1  0.628553  0.871447  0.000000  1
  Si  Si9  1  0.371447  0.128553  0.000000  1
  Ru  Ru10  1  0.207812  0.065518  0.500000  1
  Ru  Ru11  1  0.792188  0.934482  0.500000  1
  Ru  Ru12  1  0.065518  0.792188  0.500000  1
  Ru  Ru13  1  0.707812  0.434482  0.500000  1
  Ru  Ru14  1  0.934482  0.207812  0.500000  1
  Ru  Ru15  1  0.292188  0.565518  0.500000  1
  Ru  Ru16  1  0.565518  0.707812  0.500000  1
  Ru  Ru17  1  0.434482  0.292188  0.500000  1
  Ru  Ru18  1  0.500000  0.000000  0.500000  1
  Ru  Ru19  1  0.000000  0.500000  0.500000  1
