# generated using pymatgen
data_Sc4ZnSi6(IrRh2)2
_symmetry_space_group_name_H-M   'P 1'
_cell_length_a   6.97441044
_cell_length_b   6.96939983
_cell_length_c   6.97441103
_cell_angle_alpha   109.63723271
_cell_angle_beta   109.49388304
_cell_angle_gamma   109.31196304
_symmetry_Int_Tables_number   1
_chemical_formula_structural   Sc4ZnSi6(IrRh2)2
_chemical_formula_sum   'Sc4 Zn1 Si6 Ir2 Rh4'
_cell_volume   260.87239502
_cell_formula_units_Z   1
loop_
 _symmetry_equiv_pos_site_id
 _symmetry_equiv_pos_as_xyz
  1  'x, y, z'
loop_
 _atom_site_type_symbol
 _atom_site_label
 _atom_site_symmetry_multiplicity
 _atom_site_fract_x
 _atom_site_fract_y
 _atom_site_fract_z
 _atom_site_occupancy
  Sc  Sc0  1  0.002039  0.996756  0.499683  1
  Sc  Sc1  1  0.003530  0.503088  0.006370  1
  Sc  Sc2  1  0.497071  0.996753  0.994714  1
  Sc  Sc3  1  0.496715  0.503085  0.499554  1
  Zn  Zn4  1  0.750404  0.250925  0.500521  1
  Si  Si5  1  0.679439  0.679277  0.999837  1
  Si  Si6  1  0.304242  0.992031  0.313145  1
  Si  Si7  1  0.008020  0.321012  0.312994  1
  Si  Si8  1  0.321170  0.321443  0.000272  1
  Si  Si9  1  0.678885  0.992029  0.687788  1
  Si  Si10  1  0.008530  0.695142  0.686610  1
  Ir  Ir11  1  0.506761  0.760966  0.254207  1
  Ir  Ir12  1  0.000086  0.999779  0.999697  1
  Rh  Rh13  1  0.748425  0.492641  0.254545  1
  Rh  Rh14  1  0.506766  0.252327  0.745560  1
  Rh  Rh15  1  0.238094  0.492640  0.744218  1
  Rh  Rh16  1  0.249822  0.750106  0.500284  1
