# generated using pymatgen
data_Dy4HoCo9(P6Ru5)2
_symmetry_space_group_name_H-M   'P 1'
_cell_length_a   12.34021238
_cell_length_b   12.30524214
_cell_length_c   3.77179200
_cell_angle_alpha   90.00000000
_cell_angle_beta   90.00000000
_cell_angle_gamma   119.79087498
_symmetry_Int_Tables_number   1
_chemical_formula_structural   Dy4HoCo9(P6Ru5)2
_chemical_formula_sum   'Dy4 Ho1 Co9 P12 Ru10'
_cell_volume   497.05276528
_cell_formula_units_Z   1
loop_
 _symmetry_equiv_pos_site_id
 _symmetry_equiv_pos_as_xyz
  1  'x, y, z'
loop_
 _atom_site_type_symbol
 _atom_site_label
 _atom_site_symmetry_multiplicity
 _atom_site_fract_x
 _atom_site_fract_y
 _atom_site_fract_z
 _atom_site_occupancy
  Dy  Dy0  1  0.663367  0.333328  0.000000  1
  Dy  Dy1  1  0.332965  0.666867  0.000000  1
  Dy  Dy2  1  0.818735  0.998422  0.500000  1
  Dy  Dy3  1  0.999614  0.818997  0.500000  1
  Ho  Ho4  1  0.183186  0.181884  0.500000  1
  Co  Co5  1  0.802406  0.630254  0.000000  1
  Co  Co6  1  0.368031  0.171031  0.000000  1
  Co  Co7  1  0.195714  0.828461  0.000000  1
  Co  Co8  1  0.629244  0.800397  0.000000  1
  Co  Co9  1  0.176520  0.370031  0.000000  1
  Co  Co10  1  0.718606  0.718412  0.500000  1
  Co  Co11  1  0.279350  0.999790  0.500000  1
  Co  Co12  1  0.007295  0.285045  0.500000  1
  Co  Co13  1  0.999544  0.999320  0.000000  1
  P  P14  1  0.362936  0.362737  0.000000  1
  P  P15  1  0.633295  0.996972  0.000000  1
  P  P16  1  0.000475  0.637757  0.000000  1
  P  P17  1  0.838195  0.315846  0.500000  1
  P  P18  1  0.684760  0.523790  0.500000  1
  P  P19  1  0.473296  0.159540  0.500000  1
  P  P20  1  0.315753  0.840634  0.500000  1
  P  P21  1  0.524095  0.683386  0.500000  1
  P  P22  1  0.162185  0.478320  0.500000  1
  P  P23  1  0.820244  0.820530  0.000000  1
  P  P24  1  0.178018  0.000248  0.000000  1
  P  P25  1  0.006115  0.181151  0.000000  1
  Ru  Ru26  1  0.555266  0.553745  0.000000  1
  Ru  Ru27  1  0.440273  0.995537  0.000000  1
  Ru  Ru28  1  0.008942  0.450698  0.000000  1
  Ru  Ru29  1  0.827285  0.198181  0.000000  1
  Ru  Ru30  1  0.640099  0.125229  0.500000  1
  Ru  Ru31  1  0.872659  0.519224  0.500000  1
  Ru  Ru32  1  0.480302  0.352171  0.500000  1
  Ru  Ru33  1  0.129971  0.650483  0.500000  1
  Ru  Ru34  1  0.518094  0.869753  0.500000  1
  Ru  Ru35  1  0.353165  0.481825  0.500000  1
