# generated using pymatgen
data_Rb3OsN3
_symmetry_space_group_name_H-M   'P 1'
_cell_length_a   8.51989925
_cell_length_b   8.50878984
_cell_length_c   6.07900600
_cell_angle_alpha   90.00000000
_cell_angle_beta   90.00000000
_cell_angle_gamma   119.94404281
_symmetry_Int_Tables_number   1
_chemical_formula_structural   Rb3OsN3
_chemical_formula_sum   'Rb6 Os2 N6'
_cell_volume   381.86518563
_cell_formula_units_Z   2
loop_
 _symmetry_equiv_pos_site_id
 _symmetry_equiv_pos_as_xyz
  1  'x, y, z'
loop_
 _atom_site_type_symbol
 _atom_site_label
 _atom_site_symmetry_multiplicity
 _atom_site_fract_x
 _atom_site_fract_y
 _atom_site_fract_z
 _atom_site_occupancy
  Rb  Rb0  1  0.376009  0.107890  0.250000  1
  Rb  Rb1  1  0.891524  0.266961  0.250000  1
  Rb  Rb2  1  0.731172  0.622544  0.250000  1
  Rb  Rb3  1  0.624408  0.892194  0.750000  1
  Rb  Rb4  1  0.108442  0.733428  0.750000  1
  Rb  Rb5  1  0.268711  0.377047  0.750000  1
  Os  Os6  1  0.667340  0.334338  0.750000  1
  Os  Os7  1  0.332610  0.665676  0.250000  1
  N  N8  1  0.443622  0.144697  0.750000  1
  N  N9  1  0.856886  0.299936  0.750000  1
  N  N10  1  0.701407  0.558352  0.750000  1
  N  N11  1  0.556594  0.854921  0.250000  1
  N  N12  1  0.143394  0.700663  0.250000  1
  N  N13  1  0.297879  0.441351  0.250000  1
