# generated using pymatgen
data_Y10Ga3TcTe4
_symmetry_space_group_name_H-M   'P 1'
_cell_length_a   8.79900252
_cell_length_b   8.79900228
_cell_length_c   7.99898700
_cell_angle_alpha   90.39540187
_cell_angle_beta   90.39539535
_cell_angle_gamma   125.81395823
_symmetry_Int_Tables_number   1
_chemical_formula_structural   Y10Ga3TcTe4
_chemical_formula_sum   'Y10 Ga3 Tc1 Te4'
_cell_volume   502.14680504
_cell_formula_units_Z   1
loop_
 _symmetry_equiv_pos_site_id
 _symmetry_equiv_pos_as_xyz
  1  'x, y, z'
loop_
 _atom_site_type_symbol
 _atom_site_label
 _atom_site_symmetry_multiplicity
 _atom_site_fract_x
 _atom_site_fract_y
 _atom_site_fract_z
 _atom_site_occupancy
  Y  Y0  1  0.995008  0.995008  0.004779  1
  Y  Y1  1  0.506017  0.506017  0.490242  1
  Y  Y2  1  0.811989  0.564507  0.183001  1
  Y  Y3  1  0.463384  0.214435  0.835434  1
  Y  Y4  1  0.952689  0.708638  0.653370  1
  Y  Y5  1  0.267821  0.028914  0.339162  1
  Y  Y6  1  0.214435  0.463384  0.835434  1
  Y  Y7  1  0.564507  0.811989  0.183001  1
  Y  Y8  1  0.028914  0.267821  0.339162  1
  Y  Y9  1  0.708638  0.952689  0.653370  1
  Ga  Ga10  1  0.127131  0.127131  0.632016  1
  Ga  Ga11  1  0.625613  0.625613  0.872260  1
  Ga  Ga12  1  0.371216  0.371216  0.122768  1
  Tc  Tc13  1  0.870521  0.870521  0.374741  1
  Te  Te14  1  0.219368  0.805843  0.992349  1
  Te  Te15  1  0.688798  0.278110  0.498283  1
  Te  Te16  1  0.805843  0.219368  0.992349  1
  Te  Te17  1  0.278110  0.688798  0.498283  1
