# generated using pymatgen
data_Zr8Si16Mo11W
_symmetry_space_group_name_H-M   'P 1'
_cell_length_a   6.62740100
_cell_length_b   6.78193661
_cell_length_c   12.68725600
_cell_angle_alpha   90.00000000
_cell_angle_beta   90.00000000
_cell_angle_gamma   90.06769033
_symmetry_Int_Tables_number   1
_chemical_formula_structural   Zr8Si16Mo11W
_chemical_formula_sum   'Zr8 Si16 Mo11 W1'
_cell_volume   570.24879388
_cell_formula_units_Z   1
loop_
 _symmetry_equiv_pos_site_id
 _symmetry_equiv_pos_as_xyz
  1  'x, y, z'
loop_
 _atom_site_type_symbol
 _atom_site_label
 _atom_site_symmetry_multiplicity
 _atom_site_fract_x
 _atom_site_fract_y
 _atom_site_fract_z
 _atom_site_occupancy
  Zr  Zr0  1  0.994222  0.171735  0.092821  1
  Zr  Zr1  1  0.006456  0.827212  0.906562  1
  Zr  Zr2  1  0.504246  0.671579  0.906208  1
  Zr  Zr3  1  0.006456  0.827212  0.593438  1
  Zr  Zr4  1  0.495062  0.327777  0.093250  1
  Zr  Zr5  1  0.994222  0.171735  0.407179  1
  Zr  Zr6  1  0.495062  0.327777  0.406750  1
  Zr  Zr7  1  0.504246  0.671579  0.593792  1
  Si  Si8  1  0.031535  0.122661  0.750000  1
  Si  Si9  1  0.967927  0.876156  0.250000  1
  Si  Si10  1  0.467870  0.624575  0.250000  1
  Si  Si11  1  0.533373  0.374914  0.750000  1
  Si  Si12  1  0.300964  0.863486  0.750000  1
  Si  Si13  1  0.699477  0.137144  0.250000  1
  Si  Si14  1  0.198964  0.362676  0.250000  1
  Si  Si15  1  0.799886  0.638250  0.750000  1
  Si  Si16  1  0.166156  0.458476  0.542711  1
  Si  Si17  1  0.833840  0.541729  0.456879  1
  Si  Si18  1  0.333993  0.958836  0.456765  1
  Si  Si19  1  0.833840  0.541729  0.043121  1
  Si  Si20  1  0.666015  0.041242  0.543819  1
  Si  Si21  1  0.166156  0.458476  0.957289  1
  Si  Si22  1  0.666015  0.041242  0.956181  1
  Si  Si23  1  0.333993  0.958836  0.043235  1
  Mo  Mo24  1  0.833289  0.489357  0.250000  1
  Mo  Mo25  1  0.333392  0.011625  0.250000  1
  Mo  Mo26  1  0.666542  0.988722  0.750000  1
  Mo  Mo27  1  0.329377  0.165328  0.624130  1
  Mo  Mo28  1  0.669547  0.835642  0.376353  1
  Mo  Mo29  1  0.169231  0.664416  0.376123  1
  Mo  Mo30  1  0.669547  0.835642  0.123647  1
  Mo  Mo31  1  0.832096  0.336267  0.624050  1
  Mo  Mo32  1  0.329377  0.165328  0.875870  1
  Mo  Mo33  1  0.832096  0.336267  0.875950  1
  Mo  Mo34  1  0.169231  0.664416  0.123877  1
  W  W35  1  0.166298  0.509955  0.750000  1
