# generated using pymatgen
data_ZrTa5(AlCo2)6
_symmetry_space_group_name_H-M   'P 1'
_cell_length_a   4.23455200
_cell_length_b   5.98870700
_cell_length_c   12.76128200
_cell_angle_alpha   89.99866131
_cell_angle_beta   89.99993229
_cell_angle_gamma   90.00015772
_symmetry_Int_Tables_number   1
_chemical_formula_structural   ZrTa5(AlCo2)6
_chemical_formula_sum   'Zr1 Ta5 Al6 Co12'
_cell_volume   323.61961859
_cell_formula_units_Z   1
loop_
 _symmetry_equiv_pos_site_id
 _symmetry_equiv_pos_as_xyz
  1  'x, y, z'
loop_
 _atom_site_type_symbol
 _atom_site_label
 _atom_site_symmetry_multiplicity
 _atom_site_fract_x
 _atom_site_fract_y
 _atom_site_fract_z
 _atom_site_occupancy
  Zr  Zr0  1  0.499850  0.499858  0.833339  1
  Ta  Ta1  1  0.000008  0.000028  0.000594  1
  Ta  Ta2  1  0.500148  0.500015  0.167168  1
  Ta  Ta3  1  0.000147  0.999940  0.333362  1
  Ta  Ta4  1  0.499997  0.500000  0.499494  1
  Ta  Ta5  1  0.999837  0.000096  0.666046  1
  Al  Al6  1  0.999993  0.499958  0.001926  1
  Al  Al7  1  0.500166  0.999942  0.168403  1
  Al  Al8  1  0.000159  0.500065  0.333369  1
  Al  Al9  1  0.500001  0.000001  0.498246  1
  Al  Al10  1  0.999846  0.499909  0.664710  1
  Al  Al11  1  0.499837  0.000107  0.833348  1
  Co  Co12  1  0.500011  0.245069  0.005264  1
  Co  Co13  1  0.500010  0.754944  0.005284  1
  Co  Co14  1  0.000174  0.249613  0.168085  1
  Co  Co15  1  0.000174  0.750379  0.168094  1
  Co  Co16  1  0.500183  0.250577  0.333350  1
  Co  Co17  1  0.500183  0.749398  0.333354  1
  Co  Co18  1  0.999995  0.249645  0.498594  1
  Co  Co19  1  0.999995  0.750348  0.498571  1
  Co  Co20  1  0.499825  0.245082  0.661378  1
  Co  Co21  1  0.499825  0.754948  0.661358  1
  Co  Co22  1  0.999819  0.237264  0.833325  1
  Co  Co23  1  0.999819  0.762809  0.833336  1
