# generated using pymatgen
data_Li2YbThSi3
_symmetry_space_group_name_H-M   'P 1'
_cell_length_a   9.45442803
_cell_length_b   9.45442829
_cell_length_c   6.80122400
_cell_angle_alpha   90.00000000
_cell_angle_beta   90.00000000
_cell_angle_gamma   153.20618421
_symmetry_Int_Tables_number   1
_chemical_formula_structural   Li2YbThSi3
_chemical_formula_sum   'Li4 Yb2 Th2 Si6'
_cell_volume   274.04595980
_cell_formula_units_Z   2
loop_
 _symmetry_equiv_pos_site_id
 _symmetry_equiv_pos_as_xyz
  1  'x, y, z'
loop_
 _atom_site_type_symbol
 _atom_site_label
 _atom_site_symmetry_multiplicity
 _atom_site_fract_x
 _atom_site_fract_y
 _atom_site_fract_z
 _atom_site_occupancy
  Li  Li0  1  0.809114  0.190886  0.556623  1
  Li  Li1  1  0.190886  0.809114  0.443377  1
  Li  Li2  1  0.190886  0.809114  0.056623  1
  Li  Li3  1  0.809114  0.190886  0.943377  1
  Yb  Yb4  1  0.341250  0.658750  0.250000  1
  Yb  Yb5  1  0.658750  0.341250  0.750000  1
  Th  Th6  1  0.554229  0.445771  0.250000  1
  Th  Th7  1  0.445771  0.554229  0.750000  1
  Si  Si8  1  0.941353  0.058647  0.074079  1
  Si  Si9  1  0.058647  0.941353  0.925921  1
  Si  Si10  1  0.058647  0.941353  0.574079  1
  Si  Si11  1  0.941353  0.058647  0.425921  1
  Si  Si12  1  0.717141  0.282859  0.250000  1
  Si  Si13  1  0.282859  0.717141  0.750000  1
