# generated using pymatgen
data_Al3Ni(AuO2)4
_symmetry_space_group_name_H-M   'P 1'
_cell_length_a   5.11692888
_cell_length_b   5.96659224
_cell_length_c   6.90341200
_cell_angle_alpha   64.37411686
_cell_angle_beta   75.81799969
_cell_angle_gamma   89.92076270
_symmetry_Int_Tables_number   1
_chemical_formula_structural   Al3Ni(AuO2)4
_chemical_formula_sum   'Al3 Ni1 Au4 O8'
_cell_volume   182.91902171
_cell_formula_units_Z   1
loop_
 _symmetry_equiv_pos_site_id
 _symmetry_equiv_pos_as_xyz
  1  'x, y, z'
loop_
 _atom_site_type_symbol
 _atom_site_label
 _atom_site_symmetry_multiplicity
 _atom_site_fract_x
 _atom_site_fract_y
 _atom_site_fract_z
 _atom_site_occupancy
  Al  Al0  1  0.499993  0.249974  0.999999  1
  Al  Al1  1  0.999928  0.500331  0.000034  1
  Al  Al2  1  0.000045  0.999624  0.999957  1
  Ni  Ni3  1  0.500110  0.750394  0.000062  1
  Au  Au4  1  0.005382  0.000095  0.499774  1
  Au  Au5  1  0.994620  0.499894  0.500222  1
  Au  Au6  1  0.499999  0.749958  0.499989  1
  Au  Au7  1  0.500007  0.249961  0.499995  1
  O  O8  1  0.909116  0.830497  0.839064  1
  O  O9  1  0.883610  0.328537  0.842932  1
  O  O10  1  0.375562  0.562854  0.841907  1
  O  O11  1  0.375618  0.095257  0.841877  1
  O  O12  1  0.116377  0.171410  0.157073  1
  O  O13  1  0.090853  0.669470  0.160925  1
  O  O14  1  0.624426  0.937068  0.158068  1
  O  O15  1  0.624353  0.404675  0.158120  1
