# generated using pymatgen
data_Dy11ThCoTc3
_symmetry_space_group_name_H-M   'P 1'
_cell_length_a   6.30623029
_cell_length_b   7.30545790
_cell_length_c   9.28267200
_cell_angle_alpha   90.00000000
_cell_angle_beta   90.00000000
_cell_angle_gamma   90.46669533
_symmetry_Int_Tables_number   1
_chemical_formula_structural   Dy11ThCoTc3
_chemical_formula_sum   'Dy11 Th1 Co1 Tc3'
_cell_volume   427.63758355
_cell_formula_units_Z   1
loop_
 _symmetry_equiv_pos_site_id
 _symmetry_equiv_pos_as_xyz
  1  'x, y, z'
loop_
 _atom_site_type_symbol
 _atom_site_label
 _atom_site_symmetry_multiplicity
 _atom_site_fract_x
 _atom_site_fract_y
 _atom_site_fract_z
 _atom_site_occupancy
  Dy  Dy0  1  0.667989  0.321220  0.934390  1
  Dy  Dy1  1  0.372222  0.955729  0.750000  1
  Dy  Dy2  1  0.855563  0.541355  0.250000  1
  Dy  Dy3  1  0.629009  0.048913  0.250000  1
  Dy  Dy4  1  0.169566  0.176676  0.432850  1
  Dy  Dy5  1  0.835909  0.823370  0.561646  1
  Dy  Dy6  1  0.169566  0.176676  0.067150  1
  Dy  Dy7  1  0.835909  0.823370  0.938354  1
  Dy  Dy8  1  0.667989  0.321220  0.565610  1
  Dy  Dy9  1  0.332386  0.675884  0.068452  1
  Dy  Dy10  1  0.332386  0.675884  0.431548  1
  Th  Th11  1  0.139850  0.451863  0.750000  1
  Co  Co12  1  0.460271  0.384555  0.250000  1
  Tc  Tc13  1  0.521841  0.609490  0.750000  1
  Tc  Tc14  1  0.977541  0.126352  0.750000  1
  Tc  Tc15  1  0.032004  0.887442  0.250000  1
