# generated using pymatgen
data_PrY(Tc2P)4
_symmetry_space_group_name_H-M   'P 1'
_cell_length_a   7.45812015
_cell_length_b   7.45812015
_cell_length_c   3.95932000
_cell_angle_alpha   90.00000000
_cell_angle_beta   90.00000000
_cell_angle_gamma   89.47541759
_symmetry_Int_Tables_number   1
_chemical_formula_structural   PrY(Tc2P)4
_chemical_formula_sum   'Pr1 Y1 Tc8 P4'
_cell_volume   220.22222777
_cell_formula_units_Z   1
loop_
 _symmetry_equiv_pos_site_id
 _symmetry_equiv_pos_as_xyz
  1  'x, y, z'
loop_
 _atom_site_type_symbol
 _atom_site_label
 _atom_site_symmetry_multiplicity
 _atom_site_fract_x
 _atom_site_fract_y
 _atom_site_fract_z
 _atom_site_occupancy
  Pr  Pr0  1  0.500000  0.500000  0.500000  1
  Y  Y1  1  0.000000  0.000000  0.000000  1
  Tc  Tc2  1  0.661691  0.919753  0.500000  1
  Tc  Tc3  1  0.338309  0.080247  0.500000  1
  Tc  Tc4  1  0.157332  0.583873  0.000000  1
  Tc  Tc5  1  0.842668  0.416127  0.000000  1
  Tc  Tc6  1  0.919753  0.661691  0.500000  1
  Tc  Tc7  1  0.080247  0.338309  0.500000  1
  Tc  Tc8  1  0.583873  0.157332  0.000000  1
  Tc  Tc9  1  0.416127  0.842668  0.000000  1
  P  P10  1  0.790550  0.209450  0.500000  1
  P  P11  1  0.209450  0.790550  0.500000  1
  P  P12  1  0.283732  0.283732  0.000000  1
  P  P13  1  0.716268  0.716268  0.000000  1
