# generated using pymatgen
data_Tb8Yb12Si15Au
_symmetry_space_group_name_H-M   'P 1'
_cell_length_a   7.41799600
_cell_length_b   7.83280899
_cell_length_c   15.19467700
_cell_angle_alpha   90.00000000
_cell_angle_beta   90.00000000
_cell_angle_gamma   89.95915391
_symmetry_Int_Tables_number   1
_chemical_formula_structural   Tb8Yb12Si15Au
_chemical_formula_sum   'Tb8 Yb12 Si15 Au1'
_cell_volume   882.86742496
_cell_formula_units_Z   1
loop_
 _symmetry_equiv_pos_site_id
 _symmetry_equiv_pos_as_xyz
  1  'x, y, z'
loop_
 _atom_site_type_symbol
 _atom_site_label
 _atom_site_symmetry_multiplicity
 _atom_site_fract_x
 _atom_site_fract_y
 _atom_site_fract_z
 _atom_site_occupancy
  Tb  Tb0  1  0.314713  0.176756  0.122636  1
  Tb  Tb1  1  0.815623  0.314152  0.379997  1
  Tb  Tb2  1  0.183855  0.677538  0.878722  1
  Tb  Tb3  1  0.683951  0.822325  0.621925  1
  Tb  Tb4  1  0.314713  0.176756  0.377364  1
  Tb  Tb5  1  0.815623  0.314152  0.120003  1
  Tb  Tb6  1  0.183855  0.677538  0.621278  1
  Tb  Tb7  1  0.683951  0.822325  0.878075  1
  Yb  Yb8  1  0.979806  0.822315  0.402812  1
  Yb  Yb9  1  0.471432  0.682426  0.095036  1
  Yb  Yb10  1  0.524492  0.316095  0.596092  1
  Yb  Yb11  1  0.024978  0.183896  0.904214  1
  Yb  Yb12  1  0.024978  0.183896  0.595786  1
  Yb  Yb13  1  0.524492  0.316095  0.903908  1
  Yb  Yb14  1  0.471432  0.682426  0.404964  1
  Yb  Yb15  1  0.979806  0.822315  0.097188  1
  Yb  Yb16  1  0.350366  0.021167  0.750000  1
  Yb  Yb17  1  0.850903  0.479036  0.750000  1
  Yb  Yb18  1  0.149938  0.521767  0.250000  1
  Yb  Yb19  1  0.650001  0.983315  0.250000  1
  Si  Si20  1  0.856383  0.534337  0.535976  1
  Si  Si21  1  0.357851  0.966280  0.961492  1
  Si  Si22  1  0.640983  0.031990  0.463039  1
  Si  Si23  1  0.141430  0.467260  0.038271  1
  Si  Si24  1  0.141430  0.467260  0.461729  1
  Si  Si25  1  0.640983  0.031990  0.036961  1
  Si  Si26  1  0.357851  0.966280  0.538508  1
  Si  Si27  1  0.856383  0.534337  0.964024  1
  Si  Si28  1  0.975579  0.885508  0.750000  1
  Si  Si29  1  0.475283  0.613954  0.750000  1
  Si  Si30  1  0.525107  0.375577  0.250000  1
  Si  Si31  1  0.025566  0.113924  0.250000  1
  Si  Si32  1  0.246193  0.394047  0.750000  1
  Si  Si33  1  0.746740  0.106620  0.750000  1
  Si  Si34  1  0.257216  0.893331  0.250000  1
  Au  Au35  1  0.756113  0.621009  0.250000  1
