# generated using pymatgen
data_TmLu7(Sc3Si4)4
_symmetry_space_group_name_H-M   'P 1'
_cell_length_a   7.02516509
_cell_length_b   7.32027818
_cell_length_c   13.84878418
_cell_angle_alpha   90.01807285
_cell_angle_beta   89.99652682
_cell_angle_gamma   89.98221933
_symmetry_Int_Tables_number   1
_chemical_formula_structural   TmLu7(Sc3Si4)4
_chemical_formula_sum   'Tm1 Lu7 Sc12 Si16'
_cell_volume   712.18975729
_cell_formula_units_Z   1
loop_
 _symmetry_equiv_pos_site_id
 _symmetry_equiv_pos_as_xyz
  1  'x, y, z'
loop_
 _atom_site_type_symbol
 _atom_site_label
 _atom_site_symmetry_multiplicity
 _atom_site_fract_x
 _atom_site_fract_y
 _atom_site_fract_z
 _atom_site_occupancy
  Tm  Tm0  1  0.488041  0.676938  0.595770  1
  Lu  Lu1  1  0.012030  0.177277  0.096000  1
  Lu  Lu2  1  0.988129  0.822645  0.904155  1
  Lu  Lu3  1  0.488085  0.677264  0.903787  1
  Lu  Lu4  1  0.988015  0.822916  0.596100  1
  Lu  Lu5  1  0.511902  0.322749  0.095984  1
  Lu  Lu6  1  0.011761  0.177296  0.403790  1
  Lu  Lu7  1  0.512163  0.322666  0.403742  1
  Sc  Sc8  1  0.161016  0.504242  0.750229  1
  Sc  Sc9  1  0.839346  0.495849  0.249904  1
  Sc  Sc10  1  0.339312  0.004338  0.249832  1
  Sc  Sc11  1  0.660995  0.995701  0.750178  1
  Sc  Sc12  1  0.330734  0.176630  0.625212  1
  Sc  Sc13  1  0.669047  0.823233  0.374236  1
  Sc  Sc14  1  0.168460  0.677300  0.374325  1
  Sc  Sc15  1  0.668869  0.822815  0.125433  1
  Sc  Sc16  1  0.831292  0.322816  0.625424  1
  Sc  Sc17  1  0.331032  0.176555  0.874899  1
  Sc  Sc18  1  0.831253  0.323075  0.874910  1
  Sc  Sc19  1  0.168653  0.677267  0.125858  1
  Si  Si20  1  0.032350  0.112163  0.750161  1
  Si  Si21  1  0.967591  0.888437  0.249940  1
  Si  Si22  1  0.467798  0.611754  0.249969  1
  Si  Si23  1  0.532395  0.387211  0.750117  1
  Si  Si24  1  0.284617  0.869716  0.750295  1
  Si  Si25  1  0.714949  0.130918  0.249855  1
  Si  Si26  1  0.214958  0.369364  0.249972  1
  Si  Si27  1  0.785435  0.630286  0.750344  1
  Si  Si28  1  0.159203  0.465304  0.539190  1
  Si  Si29  1  0.839792  0.534477  0.460438  1
  Si  Si30  1  0.339570  0.966120  0.460174  1
  Si  Si31  1  0.839889  0.534354  0.039580  1
  Si  Si32  1  0.660654  0.035001  0.539028  1
  Si  Si33  1  0.160674  0.465647  0.960880  1
  Si  Si34  1  0.660362  0.034314  0.960724  1
  Si  Si35  1  0.339627  0.965363  0.039566  1
