# generated using pymatgen
data_YTmBeCoSi4
_symmetry_space_group_name_H-M   'P 1'
_cell_length_a   8.42393696
_cell_length_b   8.42393767
_cell_length_c   3.89439300
_cell_angle_alpha   90.00000000
_cell_angle_beta   90.00000000
_cell_angle_gamma   152.61514180
_symmetry_Int_Tables_number   1
_chemical_formula_structural   YTmBeCoSi4
_chemical_formula_sum   'Y1 Tm1 Be1 Co1 Si4'
_cell_volume   127.11445773
_cell_formula_units_Z   1
loop_
 _symmetry_equiv_pos_site_id
 _symmetry_equiv_pos_as_xyz
  1  'x, y, z'
loop_
 _atom_site_type_symbol
 _atom_site_label
 _atom_site_symmetry_multiplicity
 _atom_site_fract_x
 _atom_site_fract_y
 _atom_site_fract_z
 _atom_site_occupancy
  Y  Y0  1  0.112927  0.887073  0.250000  1
  Tm  Tm1  1  0.897990  0.102010  0.750000  1
  Be  Be2  1  0.671277  0.328723  0.750000  1
  Co  Co3  1  0.319212  0.680788  0.250000  1
  Si  Si4  1  0.537662  0.462338  0.750000  1
  Si  Si5  1  0.454973  0.545027  0.250000  1
  Si  Si6  1  0.251742  0.748258  0.750000  1
  Si  Si7  1  0.754218  0.245782  0.250000  1
