# generated using pymatgen
data_Ba3CaPt2O9
_symmetry_space_group_name_H-M   'P 1'
_cell_length_a   5.98059932
_cell_length_b   5.98059875
_cell_length_c   15.10345914
_cell_angle_alpha   88.45481456
_cell_angle_beta   88.45481689
_cell_angle_gamma   119.61700178
_symmetry_Int_Tables_number   1
_chemical_formula_structural   Ba3CaPt2O9
_chemical_formula_sum   'Ba6 Ca2 Pt4 O18'
_cell_volume   468.95847191
_cell_formula_units_Z   2
loop_
 _symmetry_equiv_pos_site_id
 _symmetry_equiv_pos_as_xyz
  1  'x, y, z'
loop_
 _atom_site_type_symbol
 _atom_site_label
 _atom_site_symmetry_multiplicity
 _atom_site_fract_x
 _atom_site_fract_y
 _atom_site_fract_z
 _atom_site_occupancy
  Ba  Ba0  1  0.009592  0.990408  0.250000  1
  Ba  Ba1  1  0.340596  0.678427  0.914977  1
  Ba  Ba2  1  0.321573  0.659404  0.585023  1
  Ba  Ba3  1  0.678427  0.340596  0.414977  1
  Ba  Ba4  1  0.659404  0.321573  0.085023  1
  Ba  Ba5  1  0.990408  0.009592  0.750000  1
  Ca  Ca6  1  0.000000  0.000000  0.000000  1
  Ca  Ca7  1  0.000000  0.000000  0.500000  1
  Pt  Pt8  1  0.314450  0.640719  0.158533  1
  Pt  Pt9  1  0.640719  0.314450  0.658533  1
  Pt  Pt10  1  0.359281  0.685550  0.341467  1
  Pt  Pt11  1  0.685550  0.359281  0.841467  1
  O  O12  1  0.954892  0.482261  0.736197  1
  O  O13  1  0.139027  0.781231  0.085711  1
  O  O14  1  0.781231  0.139027  0.585711  1
  O  O15  1  0.863488  0.690675  0.899452  1
  O  O16  1  0.045108  0.517739  0.263803  1
  O  O17  1  0.136512  0.309325  0.100548  1
  O  O18  1  0.482261  0.954892  0.236197  1
  O  O19  1  0.221627  0.393568  0.429227  1
  O  O20  1  0.514993  0.485007  0.750000  1
  O  O21  1  0.606432  0.778373  0.070773  1
  O  O22  1  0.690675  0.863488  0.399452  1
  O  O23  1  0.860973  0.218769  0.914289  1
  O  O24  1  0.517739  0.045108  0.763803  1
  O  O25  1  0.393568  0.221627  0.929227  1
  O  O26  1  0.778373  0.606432  0.570773  1
  O  O27  1  0.309325  0.136512  0.600548  1
  O  O28  1  0.218769  0.860973  0.414289  1
  O  O29  1  0.485007  0.514993  0.250000  1
