# generated using pymatgen
data_Pr10Cd3Hg5Pt4
_symmetry_space_group_name_H-M   'P 1'
_cell_length_a   3.83213600
_cell_length_b   8.24327411
_cell_length_c   18.80354213
_cell_angle_alpha   90.09969915
_cell_angle_beta   90.00000000
_cell_angle_gamma   90.00000000
_symmetry_Int_Tables_number   1
_chemical_formula_structural   Pr10Cd3Hg5Pt4
_chemical_formula_sum   'Pr10 Cd3 Hg5 Pt4'
_cell_volume   593.99072714
_cell_formula_units_Z   1
loop_
 _symmetry_equiv_pos_site_id
 _symmetry_equiv_pos_as_xyz
  1  'x, y, z'
loop_
 _atom_site_type_symbol
 _atom_site_label
 _atom_site_symmetry_multiplicity
 _atom_site_fract_x
 _atom_site_fract_y
 _atom_site_fract_z
 _atom_site_occupancy
  Pr  Pr0  1  0.000000  0.111067  0.414420  1
  Pr  Pr1  1  0.000000  0.889540  0.586102  1
  Pr  Pr2  1  0.000000  0.389439  0.914247  1
  Pr  Pr3  1  0.000000  0.613294  0.087569  1
  Pr  Pr4  1  0.000000  0.234398  0.214853  1
  Pr  Pr5  1  0.000000  0.761350  0.784300  1
  Pr  Pr6  1  0.000000  0.260918  0.715847  1
  Pr  Pr7  1  0.000000  0.739910  0.283378  1
  Pr  Pr8  1  0.000000  0.999394  0.001253  1
  Pr  Pr9  1  0.000000  0.500528  0.500043  1
  Cd  Cd10  1  0.500000  0.422160  0.350472  1
  Cd  Cd11  1  0.500000  0.577785  0.649403  1
  Cd  Cd12  1  0.500000  0.077587  0.851225  1
  Hg  Hg13  1  0.500000  0.922240  0.146759  1
  Hg  Hg14  1  0.500000  0.288128  0.064033  1
  Hg  Hg15  1  0.500000  0.716629  0.934350  1
  Hg  Hg16  1  0.500000  0.217119  0.565216  1
  Hg  Hg17  1  0.500000  0.782905  0.434660  1
  Pt  Pt18  1  0.500000  0.027140  0.302768  1
  Pt  Pt19  1  0.500000  0.973377  0.698618  1
  Pt  Pt20  1  0.500000  0.473646  0.801549  1
  Pt  Pt21  1  0.500000  0.521446  0.198939  1
