# generated using pymatgen
data_Hf2Zr8Tl3Zn2Sb3
_symmetry_space_group_name_H-M   'P 1'
_cell_length_a   8.71946300
_cell_length_b   8.71946235
_cell_length_c   5.89665400
_cell_angle_alpha   90.00000000
_cell_angle_beta   90.00000000
_cell_angle_gamma   119.99999868
_symmetry_Int_Tables_number   1
_chemical_formula_structural   Hf2Zr8Tl3Zn2Sb3
_chemical_formula_sum   'Hf2 Zr8 Tl3 Zn2 Sb3'
_cell_volume   388.25381202
_cell_formula_units_Z   1
loop_
 _symmetry_equiv_pos_site_id
 _symmetry_equiv_pos_as_xyz
  1  'x, y, z'
loop_
 _atom_site_type_symbol
 _atom_site_label
 _atom_site_symmetry_multiplicity
 _atom_site_fract_x
 _atom_site_fract_y
 _atom_site_fract_z
 _atom_site_occupancy
  Hf  Hf0  1  0.666667  0.333333  0.999580  1
  Hf  Hf1  1  0.333333  0.666667  0.999580  1
  Zr  Zr2  1  0.333333  0.666667  0.501945  1
  Zr  Zr3  1  0.666667  0.333333  0.501945  1
  Zr  Zr4  1  0.732325  0.732325  0.749014  1
  Zr  Zr5  1  0.267675  0.000000  0.749014  1
  Zr  Zr6  1  0.000000  0.267675  0.749014  1
  Zr  Zr7  1  0.269462  0.269462  0.250420  1
  Zr  Zr8  1  0.730538  0.000000  0.250420  1
  Zr  Zr9  1  0.000000  0.730538  0.250420  1
  Tl  Tl10  1  0.617497  0.617497  0.248519  1
  Tl  Tl11  1  0.382503  0.000000  0.248519  1
  Tl  Tl12  1  0.000000  0.382503  0.248519  1
  Zn  Zn13  1  0.000000  0.000000  0.005040  1
  Zn  Zn14  1  0.000000  0.000000  0.494810  1
  Sb  Sb15  1  0.384908  0.384908  0.751080  1
  Sb  Sb16  1  0.615092  0.000000  0.751080  1
  Sb  Sb17  1  0.000000  0.615092  0.751080  1
