# generated using pymatgen
data_Ca6Yb2YPd6
_symmetry_space_group_name_H-M   'P 1'
_cell_length_a   7.65299472
_cell_length_b   7.65299571
_cell_length_c   7.65299454
_cell_angle_alpha   71.23871832
_cell_angle_beta   71.23870590
_cell_angle_gamma   71.23872540
_symmetry_Int_Tables_number   1
_chemical_formula_structural   Ca6Yb2YPd6
_chemical_formula_sum   'Ca6 Yb2 Y1 Pd6'
_cell_volume   389.77644261
_cell_formula_units_Z   1
loop_
 _symmetry_equiv_pos_site_id
 _symmetry_equiv_pos_as_xyz
  1  'x, y, z'
loop_
 _atom_site_type_symbol
 _atom_site_label
 _atom_site_symmetry_multiplicity
 _atom_site_fract_x
 _atom_site_fract_y
 _atom_site_fract_z
 _atom_site_occupancy
  Ca  Ca0  1  0.333379  0.602698  0.842896  1
  Ca  Ca1  1  0.842896  0.333379  0.602698  1
  Ca  Ca2  1  0.602698  0.842896  0.333379  1
  Ca  Ca3  1  0.666621  0.397302  0.157104  1
  Ca  Ca4  1  0.157104  0.666621  0.397302  1
  Ca  Ca5  1  0.397302  0.157104  0.666621  1
  Yb  Yb6  1  0.797019  0.797019  0.797019  1
  Yb  Yb7  1  0.202981  0.202981  0.202981  1
  Y  Y8  1  0.000000  0.000000  0.000000  1
  Pd  Pd9  1  0.145851  0.958117  0.599058  1
  Pd  Pd10  1  0.599058  0.145851  0.958117  1
  Pd  Pd11  1  0.958117  0.599058  0.145851  1
  Pd  Pd12  1  0.854149  0.041883  0.400942  1
  Pd  Pd13  1  0.400942  0.854149  0.041883  1
  Pd  Pd14  1  0.041883  0.400942  0.854149  1
