# generated using pymatgen
data_Nb9Si(NiPt)2
_symmetry_space_group_name_H-M   'P 1'
_cell_length_a   5.13139721
_cell_length_b   9.80627618
_cell_length_c   9.80627618
_cell_angle_alpha   86.07476505
_cell_angle_beta   74.83268977
_cell_angle_gamma   74.83269758
_symmetry_Int_Tables_number   1
_chemical_formula_structural   Nb9Si(NiPt)2
_chemical_formula_sum   'Nb18 Si2 Ni4 Pt4'
_cell_volume   459.67179326
_cell_formula_units_Z   2
loop_
 _symmetry_equiv_pos_site_id
 _symmetry_equiv_pos_as_xyz
  1  'x, y, z'
loop_
 _atom_site_type_symbol
 _atom_site_label
 _atom_site_symmetry_multiplicity
 _atom_site_fract_x
 _atom_site_fract_y
 _atom_site_fract_z
 _atom_site_occupancy
  Nb  Nb0  1  0.750000  0.500000  0.500000  1
  Nb  Nb1  1  0.250000  0.500000  0.500000  1
  Nb  Nb2  1  0.790151  0.780749  0.638948  1
  Nb  Nb3  1  0.209849  0.219251  0.361052  1
  Nb  Nb4  1  0.709849  0.361052  0.219251  1
  Nb  Nb5  1  0.290151  0.638948  0.780749  1
  Nb  Nb6  1  0.570901  0.638948  0.219251  1
  Nb  Nb7  1  0.429099  0.361052  0.780749  1
  Nb  Nb8  1  0.070901  0.219251  0.638948  1
  Nb  Nb9  1  0.929099  0.780749  0.361052  1
  Nb  Nb10  1  0.581871  0.077443  0.758815  1
  Nb  Nb11  1  0.418129  0.922557  0.241185  1
  Nb  Nb12  1  0.918129  0.241185  0.922557  1
  Nb  Nb13  1  0.081871  0.758815  0.077443  1
  Nb  Nb14  1  0.659314  0.758815  0.922557  1
  Nb  Nb15  1  0.340686  0.241185  0.077443  1
  Nb  Nb16  1  0.159314  0.922557  0.758815  1
  Nb  Nb17  1  0.840686  0.077443  0.241185  1
  Si  Si18  1  0.250000  0.000000  0.000000  1
  Si  Si19  1  0.750000  0.000000  0.000000  1
  Ni  Ni20  1  0.500000  0.000000  0.500000  1
  Ni  Ni21  1  0.000000  0.000000  0.500000  1
  Ni  Ni22  1  0.500000  0.500000  0.000000  1
  Ni  Ni23  1  0.000000  0.500000  0.000000  1
  Pt  Pt24  1  0.130626  0.500000  0.238748  1
  Pt  Pt25  1  0.869374  0.500000  0.761252  1
  Pt  Pt26  1  0.369374  0.761252  0.500000  1
  Pt  Pt27  1  0.630626  0.238748  0.500000  1
