# generated using pymatgen
data_Lu6Sc8Al8Ir7
_symmetry_space_group_name_H-M   'P 1'
_cell_length_a   9.20754672
_cell_length_b   9.20754729
_cell_length_c   9.20754600
_cell_angle_alpha   59.99999745
_cell_angle_beta   59.99999541
_cell_angle_gamma   60.00000313
_symmetry_Int_Tables_number   1
_chemical_formula_structural   Lu6Sc8Al8Ir7
_chemical_formula_sum   'Lu6 Sc8 Al8 Ir7'
_cell_volume   551.97165410
_cell_formula_units_Z   1
loop_
 _symmetry_equiv_pos_site_id
 _symmetry_equiv_pos_as_xyz
  1  'x, y, z'
loop_
 _atom_site_type_symbol
 _atom_site_label
 _atom_site_symmetry_multiplicity
 _atom_site_fract_x
 _atom_site_fract_y
 _atom_site_fract_z
 _atom_site_occupancy
  Lu  Lu0  1  0.692870  0.692870  0.307130  1
  Lu  Lu1  1  0.307130  0.692870  0.307130  1
  Lu  Lu2  1  0.692870  0.307130  0.307130  1
  Lu  Lu3  1  0.307130  0.307130  0.692870  1
  Lu  Lu4  1  0.692870  0.307130  0.692870  1
  Lu  Lu5  1  0.307130  0.692870  0.692870  1
  Sc  Sc6  1  0.878978  0.878978  0.363068  1
  Sc  Sc7  1  0.878978  0.363068  0.878978  1
  Sc  Sc8  1  0.363068  0.878978  0.878978  1
  Sc  Sc9  1  0.878978  0.878978  0.878978  1
  Sc  Sc10  1  0.121022  0.121022  0.636932  1
  Sc  Sc11  1  0.121022  0.636932  0.121022  1
  Sc  Sc12  1  0.636932  0.121022  0.121022  1
  Sc  Sc13  1  0.121022  0.121022  0.121022  1
  Al  Al14  1  0.667646  0.667646  0.997060  1
  Al  Al15  1  0.667646  0.997060  0.667646  1
  Al  Al16  1  0.997060  0.667646  0.667646  1
  Al  Al17  1  0.667646  0.667646  0.667646  1
  Al  Al18  1  0.332354  0.332354  0.002940  1
  Al  Al19  1  0.332354  0.002940  0.332354  1
  Al  Al20  1  0.002940  0.332354  0.332354  1
  Al  Al21  1  0.332354  0.332354  0.332354  1
  Ir  Ir22  1  0.000000  0.000000  0.000000  1
  Ir  Ir23  1  0.000000  0.000000  0.500000  1
  Ir  Ir24  1  0.500000  0.000000  0.500000  1
  Ir  Ir25  1  0.000000  0.500000  0.500000  1
  Ir  Ir26  1  0.500000  0.500000  0.000000  1
  Ir  Ir27  1  0.000000  0.500000  0.000000  1
  Ir  Ir28  1  0.500000  0.000000  0.000000  1
