# generated using pymatgen
data_Li2MgTa2Ga(SbPt)6
_symmetry_space_group_name_H-M   'P 1'
_cell_length_a   7.70019309
_cell_length_b   7.69823120
_cell_length_c   7.68165700
_cell_angle_alpha   99.71382405
_cell_angle_beta   99.52928491
_cell_angle_gamma   119.96865996
_symmetry_Int_Tables_number   1
_chemical_formula_structural   Li2MgTa2Ga(SbPt)6
_chemical_formula_sum   'Li2 Mg1 Ta2 Ga1 Sb6 Pt6'
_cell_volume   371.80025345
_cell_formula_units_Z   1
loop_
 _symmetry_equiv_pos_site_id
 _symmetry_equiv_pos_as_xyz
  1  'x, y, z'
loop_
 _atom_site_type_symbol
 _atom_site_label
 _atom_site_symmetry_multiplicity
 _atom_site_fract_x
 _atom_site_fract_y
 _atom_site_fract_z
 _atom_site_occupancy
  Li  Li0  1  0.997362  0.504170  0.499854  1
  Li  Li1  1  0.169098  0.329602  0.999162  1
  Mg  Mg2  1  0.501522  0.000776  0.000428  1
  Ta  Ta3  1  0.667908  0.832735  0.501152  1
  Ta  Ta4  1  0.830955  0.669649  0.000521  1
  Ga  Ga5  1  0.331414  0.160399  0.500390  1
  Sb  Sb6  1  0.921105  0.106071  0.242185  1
  Sb  Sb7  1  0.250312  0.734854  0.246419  1
  Sb  Sb8  1  0.575158  0.407441  0.252713  1
  Sb  Sb9  1  0.089826  0.912698  0.753120  1
  Sb  Sb10  1  0.767831  0.261348  0.746950  1
  Sb  Sb11  1  0.397275  0.579321  0.755134  1
  Pt  Pt12  1  0.198420  0.025834  0.136314  1
  Pt  Pt13  1  0.865782  0.387474  0.115494  1
  Pt  Pt14  1  0.562674  0.717000  0.136622  1
  Pt  Pt15  1  0.037570  0.185430  0.610776  1
  Pt  Pt16  1  0.391279  0.888261  0.620339  1
  Pt  Pt17  1  0.694466  0.546898  0.632429  1
