# generated using pymatgen
data_La15Pr(CdPt)4
_symmetry_space_group_name_H-M   'P 1'
_cell_length_a   10.19788711
_cell_length_b   10.19788727
_cell_length_c   10.16201300
_cell_angle_alpha   60.11629703
_cell_angle_beta   60.11629652
_cell_angle_gamma   60.30771615
_symmetry_Int_Tables_number   1
_chemical_formula_structural   La15Pr(CdPt)4
_chemical_formula_sum   'La15 Pr1 Cd4 Pt4'
_cell_volume   750.32549549
_cell_formula_units_Z   1
loop_
 _symmetry_equiv_pos_site_id
 _symmetry_equiv_pos_as_xyz
  1  'x, y, z'
loop_
 _atom_site_type_symbol
 _atom_site_label
 _atom_site_symmetry_multiplicity
 _atom_site_fract_x
 _atom_site_fract_y
 _atom_site_fract_z
 _atom_site_occupancy
  La  La0  1  0.349392  0.349392  0.348585  1
  La  La1  1  0.349392  0.349392  0.952630  1
  La  La2  1  0.349836  0.950421  0.349871  1
  La  La3  1  0.950421  0.349836  0.349871  1
  La  La4  1  0.807609  0.192743  0.193717  1
  La  La5  1  0.192743  0.807609  0.805931  1
  La  La6  1  0.192743  0.807609  0.193717  1
  La  La7  1  0.807609  0.192743  0.805931  1
  La  La8  1  0.192281  0.192281  0.807719  1
  La  La9  1  0.805904  0.805904  0.194096  1
  La  La10  1  0.937854  0.563193  0.563871  1
  La  La11  1  0.563193  0.937854  0.935082  1
  La  La12  1  0.563193  0.937854  0.563871  1
  La  La13  1  0.937854  0.563193  0.935082  1
  La  La14  1  0.562007  0.562007  0.937993  1
  Pr  Pr15  1  0.937490  0.937490  0.562510  1
  Cd  Cd16  1  0.579947  0.579947  0.579723  1
  Cd  Cd17  1  0.579947  0.579947  0.260382  1
  Cd  Cd18  1  0.580648  0.259575  0.579888  1
  Cd  Cd19  1  0.259575  0.580648  0.579888  1
  Pt  Pt20  1  0.142886  0.142886  0.143350  1
  Pt  Pt21  1  0.142886  0.142886  0.570878  1
  Pt  Pt22  1  0.142362  0.572224  0.142707  1
  Pt  Pt23  1  0.572224  0.142362  0.142707  1
