# generated using pymatgen
data_Ac5Sn2Pt
_symmetry_space_group_name_H-M   'P 1'
_cell_length_a   8.83216800
_cell_length_b   9.78413700
_cell_length_c   13.41072200
_cell_angle_alpha   90.00000000
_cell_angle_beta   90.00000000
_cell_angle_gamma   90.00000000
_symmetry_Int_Tables_number   1
_chemical_formula_structural   Ac5Sn2Pt
_chemical_formula_sum   'Ac20 Sn8 Pt4'
_cell_volume   1158.88944218
_cell_formula_units_Z   4
loop_
 _symmetry_equiv_pos_site_id
 _symmetry_equiv_pos_as_xyz
  1  'x, y, z'
loop_
 _atom_site_type_symbol
 _atom_site_label
 _atom_site_symmetry_multiplicity
 _atom_site_fract_x
 _atom_site_fract_y
 _atom_site_fract_z
 _atom_site_occupancy
  Ac  Ac0  1  0.829926  0.750000  0.789588  1
  Ac  Ac1  1  0.170074  0.250000  0.210412  1
  Ac  Ac2  1  0.329926  0.250000  0.710412  1
  Ac  Ac3  1  0.670074  0.750000  0.289588  1
  Ac  Ac4  1  0.360765  0.750000  0.693530  1
  Ac  Ac5  1  0.639235  0.250000  0.306470  1
  Ac  Ac6  1  0.860765  0.250000  0.806470  1
  Ac  Ac7  1  0.139235  0.750000  0.193530  1
  Ac  Ac8  1  0.947489  0.750000  0.502008  1
  Ac  Ac9  1  0.052511  0.250000  0.497992  1
  Ac  Ac10  1  0.447489  0.250000  0.997992  1
  Ac  Ac11  1  0.552511  0.750000  0.002008  1
  Ac  Ac12  1  0.680810  0.038967  0.577798  1
  Ac  Ac13  1  0.319190  0.961033  0.422202  1
  Ac  Ac14  1  0.180810  0.961033  0.922202  1
  Ac  Ac15  1  0.319190  0.538967  0.422202  1
  Ac  Ac16  1  0.819190  0.038967  0.077798  1
  Ac  Ac17  1  0.680810  0.461033  0.577798  1
  Ac  Ac18  1  0.819190  0.461033  0.077798  1
  Ac  Ac19  1  0.180810  0.538967  0.922202  1
  Sn  Sn20  1  0.560138  0.494458  0.826438  1
  Sn  Sn21  1  0.439862  0.505542  0.173562  1
  Sn  Sn22  1  0.060138  0.505542  0.673562  1
  Sn  Sn23  1  0.439862  0.994458  0.173562  1
  Sn  Sn24  1  0.939862  0.494458  0.326438  1
  Sn  Sn25  1  0.560138  0.005542  0.826438  1
  Sn  Sn26  1  0.939862  0.005542  0.326438  1
  Sn  Sn27  1  0.060138  0.994458  0.673562  1
  Pt  Pt28  1  0.578575  0.750000  0.508921  1
  Pt  Pt29  1  0.421425  0.250000  0.491079  1
  Pt  Pt30  1  0.078575  0.250000  0.991079  1
  Pt  Pt31  1  0.921425  0.750000  0.008921  1
