# generated using pymatgen
data_NdCdCu3Pd
_symmetry_space_group_name_H-M   'P 1'
_cell_length_a   5.24160071
_cell_length_b   5.24389565
_cell_length_c   5.24160100
_cell_angle_alpha   60.01446784
_cell_angle_beta   59.99999186
_cell_angle_gamma   60.01446691
_symmetry_Int_Tables_number   1
_chemical_formula_structural   NdCdCu3Pd
_chemical_formula_sum   'Nd1 Cd1 Cu3 Pd1'
_cell_volume   101.89710471
_cell_formula_units_Z   1
loop_
 _symmetry_equiv_pos_site_id
 _symmetry_equiv_pos_as_xyz
  1  'x, y, z'
loop_
 _atom_site_type_symbol
 _atom_site_label
 _atom_site_symmetry_multiplicity
 _atom_site_fract_x
 _atom_site_fract_y
 _atom_site_fract_z
 _atom_site_occupancy
  Nd  Nd0  1  0.752231  0.743309  0.752231  1
  Cd  Cd1  1  0.999932  0.000204  0.999932  1
  Cu  Cu2  1  0.374932  0.374426  0.374932  1
  Cu  Cu3  1  0.875711  0.374426  0.374932  1
  Cu  Cu4  1  0.374932  0.374426  0.875711  1
  Pd  Pd5  1  0.372263  0.883211  0.372263  1
