# generated using pymatgen
data_RbSmNpSe6
_symmetry_space_group_name_H-M   'P 1'
_cell_length_a   11.93152713
_cell_length_b   11.93152636
_cell_length_c   11.93152549
_cell_angle_alpha   159.67112687
_cell_angle_beta   152.47907957
_cell_angle_gamma   34.45648466
_symmetry_Int_Tables_number   1
_chemical_formula_structural   RbSmNpSe6
_chemical_formula_sum   'Rb1 Sm1 Np1 Se6'
_cell_volume   272.40758434
_cell_formula_units_Z   1
loop_
 _symmetry_equiv_pos_site_id
 _symmetry_equiv_pos_as_xyz
  1  'x, y, z'
loop_
 _atom_site_type_symbol
 _atom_site_label
 _atom_site_symmetry_multiplicity
 _atom_site_fract_x
 _atom_site_fract_y
 _atom_site_fract_z
 _atom_site_occupancy
  Rb  Rb0  1  0.998226  0.998226  0.000000  1
  Sm  Sm1  1  0.313619  0.813619  0.500000  1
  Np  Np2  1  0.688330  0.188330  0.500000  1
  Se  Se3  1  0.178042  0.391371  0.786672  1
  Se  Se4  1  0.220422  0.220422  0.000000  1
  Se  Se5  1  0.401179  0.612176  0.789004  1
  Se  Se6  1  0.604699  0.391371  0.213328  1
  Se  Se7  1  0.823173  0.612176  0.210996  1
  Se  Se8  1  0.772310  0.772310  0.000000  1
