# generated using pymatgen
data_NaTa6CoS12
_symmetry_space_group_name_H-M   'P 1'
_cell_length_a   5.77893200
_cell_length_b   5.77893207
_cell_length_c   13.23485300
_cell_angle_alpha   90.00000000
_cell_angle_beta   90.00000000
_cell_angle_gamma   119.99999960
_symmetry_Int_Tables_number   1
_chemical_formula_structural   NaTa6CoS12
_chemical_formula_sum   'Na1 Ta6 Co1 S12'
_cell_volume   382.77620213
_cell_formula_units_Z   1
loop_
 _symmetry_equiv_pos_site_id
 _symmetry_equiv_pos_as_xyz
  1  'x, y, z'
loop_
 _atom_site_type_symbol
 _atom_site_label
 _atom_site_symmetry_multiplicity
 _atom_site_fract_x
 _atom_site_fract_y
 _atom_site_fract_z
 _atom_site_occupancy
  Na  Na0  1  0.666667  0.333333  0.750000  1
  Ta  Ta1  1  0.333333  0.666667  0.027366  1
  Ta  Ta2  1  0.666667  0.333333  0.467435  1
  Ta  Ta3  1  0.333333  0.666667  0.472634  1
  Ta  Ta4  1  0.000000  0.000000  0.031926  1
  Ta  Ta5  1  0.666667  0.333333  0.032565  1
  Ta  Ta6  1  0.000000  0.000000  0.468074  1
  Co  Co7  1  0.333333  0.666667  0.250000  1
  S  S8  1  0.002618  0.666673  0.147550  1
  S  S9  1  0.669545  0.667974  0.588868  1
  S  S10  1  0.002618  0.335945  0.352450  1
  S  S11  1  0.333327  0.335945  0.147550  1
  S  S12  1  0.332026  0.001571  0.588868  1
  S  S13  1  0.332026  0.330455  0.911132  1
  S  S14  1  0.664055  0.666673  0.352450  1
  S  S15  1  0.998429  0.667974  0.911132  1
  S  S16  1  0.669545  0.001571  0.911132  1
  S  S17  1  0.333327  0.997382  0.352450  1
  S  S18  1  0.664055  0.997382  0.147550  1
  S  S19  1  0.998429  0.330455  0.588868  1
