# generated using pymatgen
data_NaUCl6
_symmetry_space_group_name_H-M   'P 1'
_cell_length_a   7.32211000
_cell_length_b   6.88815587
_cell_length_c   20.45934274
_cell_angle_alpha   89.02880011
_cell_angle_beta   90.00000000
_cell_angle_gamma   90.00000000
_symmetry_Int_Tables_number   1
_chemical_formula_structural   NaUCl6
_chemical_formula_sum   'Na4 U4 Cl24'
_cell_volume   1031.73579544
_cell_formula_units_Z   4
loop_
 _symmetry_equiv_pos_site_id
 _symmetry_equiv_pos_as_xyz
  1  'x, y, z'
loop_
 _atom_site_type_symbol
 _atom_site_label
 _atom_site_symmetry_multiplicity
 _atom_site_fract_x
 _atom_site_fract_y
 _atom_site_fract_z
 _atom_site_occupancy
  Na  Na0  1  0.811448  0.211237  0.746282  1
  Na  Na1  1  0.311448  0.788763  0.753718  1
  Na  Na2  1  0.188552  0.788763  0.253718  1
  Na  Na3  1  0.688552  0.211237  0.246282  1
  U  U4  1  0.719467  0.746494  0.621446  1
  U  U5  1  0.219467  0.253506  0.878554  1
  U  U6  1  0.280533  0.253506  0.378554  1
  U  U7  1  0.780533  0.746494  0.121446  1
  Cl  Cl8  1  0.827745  0.602512  0.239056  1
  Cl  Cl9  1  0.327745  0.397488  0.260944  1
  Cl  Cl10  1  0.172255  0.397488  0.760944  1
  Cl  Cl11  1  0.672255  0.602512  0.739056  1
  Cl  Cl12  1  0.601371  0.451170  0.093766  1
  Cl  Cl13  1  0.101371  0.548830  0.406234  1
  Cl  Cl14  1  0.398629  0.548830  0.906234  1
  Cl  Cl15  1  0.898629  0.451170  0.593766  1
  Cl  Cl16  1  0.490491  0.923430  0.162371  1
  Cl  Cl17  1  0.990491  0.076570  0.337629  1
  Cl  Cl18  1  0.509509  0.076570  0.837629  1
  Cl  Cl19  1  0.009509  0.923430  0.662371  1
  Cl  Cl20  1  0.745473  0.887408  0.010200  1
  Cl  Cl21  1  0.245473  0.112592  0.489801  1
  Cl  Cl22  1  0.254527  0.112592  0.989801  1
  Cl  Cl23  1  0.754527  0.887408  0.510199  1
  Cl  Cl24  1  0.965399  0.041363  0.162523  1
  Cl  Cl25  1  0.465399  0.958637  0.337477  1
  Cl  Cl26  1  0.034601  0.958637  0.837477  1
  Cl  Cl27  1  0.534601  0.041363  0.662523  1
  Cl  Cl28  1  0.073945  0.589913  0.091189  1
  Cl  Cl29  1  0.573945  0.410087  0.408811  1
  Cl  Cl30  1  0.926055  0.410087  0.908811  1
  Cl  Cl31  1  0.426055  0.589913  0.591189  1
