# generated using pymatgen
data_SrLa6ReBr12
_symmetry_space_group_name_H-M   'P 1'
_cell_length_a   9.79272691
_cell_length_b   9.96515585
_cell_length_c   9.63915470
_cell_angle_alpha   106.16539374
_cell_angle_beta   106.14034280
_cell_angle_gamma   106.89679311
_symmetry_Int_Tables_number   1
_chemical_formula_structural   SrLa6ReBr12
_chemical_formula_sum   'Sr1 La6 Re1 Br12'
_cell_volume   795.80165105
_cell_formula_units_Z   1
loop_
 _symmetry_equiv_pos_site_id
 _symmetry_equiv_pos_as_xyz
  1  'x, y, z'
loop_
 _atom_site_type_symbol
 _atom_site_label
 _atom_site_symmetry_multiplicity
 _atom_site_fract_x
 _atom_site_fract_y
 _atom_site_fract_z
 _atom_site_occupancy
  Sr  Sr0  1  0.500000  0.500000  0.500000  1
  La  La1  1  0.112773  0.323118  0.016921  1
  La  La2  1  0.310283  0.020995  0.106787  1
  La  La3  1  0.019536  0.100975  0.299722  1
  La  La4  1  0.980463  0.899025  0.700278  1
  La  La5  1  0.689717  0.979004  0.893212  1
  La  La6  1  0.887227  0.676882  0.983079  1
  Re  Re7  1  0.000000  0.000000  0.000000  1
  Br  Br8  1  0.212861  0.682911  0.071572  1
  Br  Br9  1  0.450988  0.364596  0.153160  1
  Br  Br10  1  0.680682  0.070515  0.214672  1
  Br  Br11  1  0.931569  0.787893  0.323050  1
  Br  Br12  1  0.156618  0.445840  0.363434  1
  Br  Br13  1  0.368385  0.160740  0.452291  1
  Br  Br14  1  0.631615  0.839260  0.547709  1
  Br  Br15  1  0.843381  0.554160  0.636566  1
  Br  Br16  1  0.068432  0.212108  0.676951  1
  Br  Br17  1  0.319319  0.929486  0.785328  1
  Br  Br18  1  0.549011  0.635403  0.846840  1
  Br  Br19  1  0.787139  0.317090  0.928428  1
