# generated using pymatgen
data_La8Tm5Pa7Rh16
_symmetry_space_group_name_H-M   'P 1'
_cell_length_a   7.65941529
_cell_length_b   7.63738213
_cell_length_c   14.32273288
_cell_angle_alpha   89.95463919
_cell_angle_beta   89.43791607
_cell_angle_gamma   89.76927857
_symmetry_Int_Tables_number   1
_chemical_formula_structural   La8Tm5Pa7Rh16
_chemical_formula_sum   'La8 Tm5 Pa7 Rh16'
_cell_volume   837.80218327
_cell_formula_units_Z   1
loop_
 _symmetry_equiv_pos_site_id
 _symmetry_equiv_pos_as_xyz
  1  'x, y, z'
loop_
 _atom_site_type_symbol
 _atom_site_label
 _atom_site_symmetry_multiplicity
 _atom_site_fract_x
 _atom_site_fract_y
 _atom_site_fract_z
 _atom_site_occupancy
  La  La0  1  0.487096  0.318237  0.904723  1
  La  La1  1  0.989276  0.179057  0.598127  1
  La  La2  1  0.506585  0.678835  0.403931  1
  La  La3  1  0.012922  0.822595  0.095898  1
  La  La4  1  0.509450  0.679750  0.095799  1
  La  La5  1  0.006609  0.822987  0.403087  1
  La  La6  1  0.491553  0.324338  0.596699  1
  La  La7  1  0.992952  0.171998  0.900405  1
  Tm  Tm8  1  0.344099  0.834965  0.878724  1
  Tm  Tm9  1  0.186895  0.492345  0.750575  1
  Tm  Tm10  1  0.677583  0.007301  0.751445  1
  Tm  Tm11  1  0.815121  0.512152  0.250235  1
  Tm  Tm12  1  0.315931  0.990712  0.250683  1
  Pa  Pa13  1  0.844865  0.659595  0.621449  1
  Pa  Pa14  1  0.656995  0.157526  0.379133  1
  Pa  Pa15  1  0.156272  0.340810  0.121481  1
  Pa  Pa16  1  0.659475  0.159535  0.123097  1
  Pa  Pa17  1  0.156715  0.343429  0.378613  1
  Pa  Pa18  1  0.339258  0.847105  0.623374  1
  Pa  Pa19  1  0.841043  0.655893  0.877954  1
  Rh  Rh20  1  0.332744  0.060556  0.047884  1
  Rh  Rh21  1  0.820562  0.446273  0.460069  1
  Rh  Rh22  1  0.678088  0.948099  0.537914  1
  Rh  Rh23  1  0.170723  0.534235  0.962849  1
  Rh  Rh24  1  0.694888  0.941545  0.961941  1
  Rh  Rh25  1  0.178734  0.558083  0.540239  1
  Rh  Rh26  1  0.319144  0.055584  0.457808  1
  Rh  Rh27  1  0.810679  0.442568  0.038382  1
  Rh  Rh28  1  0.549149  0.650431  0.740215  1
  Rh  Rh29  1  0.038560  0.850456  0.749208  1
  Rh  Rh30  1  0.458529  0.351256  0.253804  1
  Rh  Rh31  1  0.956936  0.153973  0.249694  1
  Rh  Rh32  1  0.310671  0.114239  0.743833  1
  Rh  Rh33  1  0.819772  0.391694  0.751125  1
  Rh  Rh34  1  0.686527  0.893367  0.249099  1
  Rh  Rh35  1  0.183599  0.608476  0.250504  1
