# generated using pymatgen
data_Pr5Nd11Cd3InIr4
_symmetry_space_group_name_H-M   'P 1'
_cell_length_a   9.98989527
_cell_length_b   9.99059368
_cell_length_c   9.99079520
_cell_angle_alpha   59.98968747
_cell_angle_beta   60.01682405
_cell_angle_gamma   60.01404287
_symmetry_Int_Tables_number   1
_chemical_formula_structural   Pr5Nd11Cd3InIr4
_chemical_formula_sum   'Pr5 Nd11 Cd3 In1 Ir4'
_cell_volume   705.18763173
_cell_formula_units_Z   1
loop_
 _symmetry_equiv_pos_site_id
 _symmetry_equiv_pos_as_xyz
  1  'x, y, z'
loop_
 _atom_site_type_symbol
 _atom_site_label
 _atom_site_symmetry_multiplicity
 _atom_site_fract_x
 _atom_site_fract_y
 _atom_site_fract_z
 _atom_site_occupancy
  Pr  Pr0  1  0.560522  0.939437  0.939446  1
  Pr  Pr1  1  0.561156  0.941435  0.561097  1
  Pr  Pr2  1  0.939414  0.560629  0.939190  1
  Pr  Pr3  1  0.561155  0.561094  0.941437  1
  Pr  Pr4  1  0.939420  0.939192  0.560627  1
  Nd  Nd5  1  0.347152  0.347457  0.347454  1
  Nd  Nd6  1  0.349036  0.348990  0.954668  1
  Nd  Nd7  1  0.349039  0.954667  0.348981  1
  Nd  Nd8  1  0.954545  0.349151  0.349141  1
  Nd  Nd9  1  0.809885  0.189619  0.189628  1
  Nd  Nd10  1  0.190104  0.808188  0.808189  1
  Nd  Nd11  1  0.189567  0.809875  0.189668  1
  Nd  Nd12  1  0.808267  0.190079  0.808094  1
  Nd  Nd13  1  0.189572  0.189662  0.809880  1
  Nd  Nd14  1  0.808267  0.808094  0.190091  1
  Nd  Nd15  1  0.941699  0.560985  0.560977  1
  Cd  Cd16  1  0.579357  0.579347  0.260373  1
  Cd  Cd17  1  0.579358  0.260370  0.579349  1
  Cd  Cd18  1  0.260152  0.579358  0.579361  1
  In  In19  1  0.580242  0.580069  0.580070  1
  Ir  Ir20  1  0.141723  0.141629  0.141617  1
  Ir  Ir21  1  0.142335  0.142592  0.575658  1
  Ir  Ir22  1  0.142337  0.575658  0.142586  1
  Ir  Ir23  1  0.575692  0.142425  0.142415  1
