# generated using pymatgen
data_Tb23DyTe12
_symmetry_space_group_name_H-M   'P 1'
_cell_length_a   4.08694400
_cell_length_b   11.57819807
_cell_length_c   22.26178113
_cell_angle_alpha   90.01239832
_cell_angle_beta   90.00000000
_cell_angle_gamma   90.00000000
_symmetry_Int_Tables_number   1
_chemical_formula_structural   Tb23DyTe12
_chemical_formula_sum   'Tb23 Dy1 Te12'
_cell_volume   1053.41515042
_cell_formula_units_Z   1
loop_
 _symmetry_equiv_pos_site_id
 _symmetry_equiv_pos_as_xyz
  1  'x, y, z'
loop_
 _atom_site_type_symbol
 _atom_site_label
 _atom_site_symmetry_multiplicity
 _atom_site_fract_x
 _atom_site_fract_y
 _atom_site_fract_z
 _atom_site_occupancy
  Tb  Tb0  1  0.250000  0.151973  0.391725  1
  Tb  Tb1  1  0.750000  0.848126  0.608245  1
  Tb  Tb2  1  0.750000  0.651952  0.108334  1
  Tb  Tb3  1  0.250000  0.348037  0.891687  1
  Tb  Tb4  1  0.250000  0.456006  0.340133  1
  Tb  Tb5  1  0.750000  0.544017  0.659859  1
  Tb  Tb6  1  0.750000  0.956063  0.159874  1
  Tb  Tb7  1  0.250000  0.043987  0.840109  1
  Tb  Tb8  1  0.250000  0.734270  0.233804  1
  Tb  Tb9  1  0.750000  0.265715  0.766257  1
  Tb  Tb10  1  0.750000  0.234368  0.266283  1
  Tb  Tb11  1  0.250000  0.765698  0.733737  1
  Tb  Tb12  1  0.250000  0.115611  0.034485  1
  Tb  Tb13  1  0.750000  0.884408  0.965496  1
  Tb  Tb14  1  0.750000  0.615714  0.465517  1
  Tb  Tb15  1  0.250000  0.384493  0.534492  1
  Tb  Tb16  1  0.250000  0.413701  0.147200  1
  Tb  Tb17  1  0.750000  0.586251  0.852798  1
  Tb  Tb18  1  0.750000  0.913800  0.352971  1
  Tb  Tb19  1  0.250000  0.086244  0.647214  1
  Tb  Tb20  1  0.250000  0.612618  0.982957  1
  Tb  Tb21  1  0.750000  0.387295  0.017012  1
  Tb  Tb22  1  0.750000  0.112338  0.516971  1
  Dy  Dy23  1  0.250000  0.887023  0.482731  1
  Te  Te24  1  0.250000  0.850443  0.068765  1
  Te  Te25  1  0.750000  0.149573  0.931244  1
  Te  Te26  1  0.750000  0.350352  0.431213  1
  Te  Te27  1  0.250000  0.649732  0.568704  1
  Te  Te28  1  0.250000  0.712210  0.372930  1
  Te  Te29  1  0.750000  0.287960  0.627220  1
  Te  Te30  1  0.750000  0.212039  0.127200  1
  Te  Te31  1  0.250000  0.787950  0.872801  1
  Te  Te32  1  0.250000  0.020624  0.261210  1
  Te  Te33  1  0.750000  0.979411  0.738811  1
  Te  Te34  1  0.750000  0.520613  0.238825  1
  Te  Te35  1  0.250000  0.479387  0.761188  1
