# generated using pymatgen
data_Ho3(CrC3)2
_symmetry_space_group_name_H-M   'P 1'
_cell_length_a   8.10772000
_cell_length_b   8.10772044
_cell_length_c   4.98421000
_cell_angle_alpha   90.00000000
_cell_angle_beta   90.00000000
_cell_angle_gamma   119.99999819
_symmetry_Int_Tables_number   1
_chemical_formula_structural   Ho3(CrC3)2
_chemical_formula_sum   'Ho6 Cr4 C12'
_cell_volume   283.74255787
_cell_formula_units_Z   2
loop_
 _symmetry_equiv_pos_site_id
 _symmetry_equiv_pos_as_xyz
  1  'x, y, z'
loop_
 _atom_site_type_symbol
 _atom_site_label
 _atom_site_symmetry_multiplicity
 _atom_site_fract_x
 _atom_site_fract_y
 _atom_site_fract_z
 _atom_site_occupancy
  Ho  Ho0  1  0.621641  0.686264  0.750000  1
  Ho  Ho1  1  0.935377  0.621641  0.250000  1
  Ho  Ho2  1  0.686264  0.064623  0.250000  1
  Ho  Ho3  1  0.313736  0.935377  0.750000  1
  Ho  Ho4  1  0.064623  0.378359  0.750000  1
  Ho  Ho5  1  0.378359  0.313736  0.250000  1
  Cr  Cr6  1  0.000000  0.000000  0.500000  1
  Cr  Cr7  1  0.000000  0.000000  0.000000  1
  Cr  Cr8  1  0.666667  0.333333  0.750000  1
  Cr  Cr9  1  0.333333  0.666667  0.250000  1
  C  C10  1  0.965319  0.775741  0.750000  1
  C  C11  1  0.189578  0.965319  0.250000  1
  C  C12  1  0.775741  0.810422  0.250000  1
  C  C13  1  0.224259  0.189578  0.750000  1
  C  C14  1  0.810422  0.034681  0.750000  1
  C  C15  1  0.034681  0.224259  0.250000  1
  C  C16  1  0.865671  0.579825  0.750000  1
  C  C17  1  0.285846  0.865671  0.250000  1
  C  C18  1  0.579825  0.714154  0.250000  1
  C  C19  1  0.420175  0.285846  0.750000  1
  C  C20  1  0.134329  0.420175  0.250000  1
  C  C21  1  0.714154  0.134329  0.750000  1
