# generated using pymatgen
data_Er2MnGa9Pd2
_symmetry_space_group_name_H-M   'P 1'
_cell_length_a   7.57454824
_cell_length_b   7.57454872
_cell_length_c   9.56389200
_cell_angle_alpha   90.00000000
_cell_angle_beta   90.00000000
_cell_angle_gamma   119.84984715
_symmetry_Int_Tables_number   1
_chemical_formula_structural   Er2MnGa9Pd2
_chemical_formula_sum   'Er4 Mn2 Ga18 Pd4'
_cell_volume   475.91995270
_cell_formula_units_Z   2
loop_
 _symmetry_equiv_pos_site_id
 _symmetry_equiv_pos_as_xyz
  1  'x, y, z'
loop_
 _atom_site_type_symbol
 _atom_site_label
 _atom_site_symmetry_multiplicity
 _atom_site_fract_x
 _atom_site_fract_y
 _atom_site_fract_z
 _atom_site_occupancy
  Er  Er0  1  0.318810  0.993604  0.250000  1
  Er  Er1  1  0.006396  0.681190  0.750000  1
  Er  Er2  1  0.666425  0.986958  0.750000  1
  Er  Er3  1  0.013042  0.333575  0.250000  1
  Mn  Mn4  1  0.669848  0.330152  0.000000  1
  Mn  Mn5  1  0.669848  0.330152  0.500000  1
  Ga  Ga6  1  0.346925  0.014184  0.920948  1
  Ga  Ga7  1  0.985816  0.653075  0.079052  1
  Ga  Ga8  1  0.346925  0.014184  0.579052  1
  Ga  Ga9  1  0.985816  0.653075  0.420948  1
  Ga  Ga10  1  0.664867  0.016179  0.079484  1
  Ga  Ga11  1  0.983821  0.335133  0.920516  1
  Ga  Ga12  1  0.664867  0.016179  0.420516  1
  Ga  Ga13  1  0.983821  0.335133  0.579484  1
  Ga  Ga14  1  0.666137  0.656406  0.934460  1
  Ga  Ga15  1  0.343594  0.333863  0.065540  1
  Ga  Ga16  1  0.666137  0.656406  0.565540  1
  Ga  Ga17  1  0.343594  0.333863  0.434460  1
  Ga  Ga18  1  0.131483  0.137115  0.750000  1
  Ga  Ga19  1  0.862885  0.868517  0.250000  1
  Ga  Ga20  1  0.463040  0.665409  0.250000  1
  Ga  Ga21  1  0.334591  0.536960  0.750000  1
  Ga  Ga22  1  0.570961  0.339216  0.750000  1
  Ga  Ga23  1  0.660784  0.429039  0.250000  1
  Pd  Pd24  1  0.998022  0.001978  0.000000  1
  Pd  Pd25  1  0.998022  0.001978  0.500000  1
  Pd  Pd26  1  0.326763  0.673237  0.000000  1
  Pd  Pd27  1  0.326763  0.673237  0.500000  1
