# generated using pymatgen
data_LaCoSb2Ru
_symmetry_space_group_name_H-M   'P 1'
_cell_length_a   4.53061200
_cell_length_b   4.53061200
_cell_length_c   10.06817700
_cell_angle_alpha   90.00000000
_cell_angle_beta   90.00000000
_cell_angle_gamma   90.00000000
_symmetry_Int_Tables_number   1
_chemical_formula_structural   LaCoSb2Ru
_chemical_formula_sum   'La2 Co2 Sb4 Ru2'
_cell_volume   206.66388239
_cell_formula_units_Z   2
loop_
 _symmetry_equiv_pos_site_id
 _symmetry_equiv_pos_as_xyz
  1  'x, y, z'
loop_
 _atom_site_type_symbol
 _atom_site_label
 _atom_site_symmetry_multiplicity
 _atom_site_fract_x
 _atom_site_fract_y
 _atom_site_fract_z
 _atom_site_occupancy
  La  La0  1  0.000000  0.500000  0.751955  1
  La  La1  1  0.500000  0.000000  0.248045  1
  Co  Co2  1  0.000000  0.500000  0.114894  1
  Co  Co3  1  0.500000  0.000000  0.885106  1
  Sb  Sb4  1  0.000000  0.500000  0.363089  1
  Sb  Sb5  1  0.000000  0.000000  0.000000  1
  Sb  Sb6  1  0.500000  0.000000  0.636911  1
  Sb  Sb7  1  0.500000  0.500000  0.000000  1
  Ru  Ru8  1  0.000000  0.000000  0.500000  1
  Ru  Ru9  1  0.500000  0.500000  0.500000  1
