# generated using pymatgen
data_TbDy3CuNiPt2
_symmetry_space_group_name_H-M   'P 1'
_cell_length_a   4.41241100
_cell_length_b   5.54236356
_cell_length_c   7.08602386
_cell_angle_alpha   90.31258886
_cell_angle_beta   90.00000000
_cell_angle_gamma   90.00000000
_symmetry_Int_Tables_number   1
_chemical_formula_structural   TbDy3CuNiPt2
_chemical_formula_sum   'Tb1 Dy3 Cu1 Ni1 Pt2'
_cell_volume   173.28745202
_cell_formula_units_Z   1
loop_
 _symmetry_equiv_pos_site_id
 _symmetry_equiv_pos_as_xyz
  1  'x, y, z'
loop_
 _atom_site_type_symbol
 _atom_site_label
 _atom_site_symmetry_multiplicity
 _atom_site_fract_x
 _atom_site_fract_y
 _atom_site_fract_z
 _atom_site_occupancy
  Tb  Tb0  1  0.000000  0.883244  0.189859  1
  Dy  Dy1  1  0.000000  0.114059  0.673478  1
  Dy  Dy2  1  0.500000  0.387554  0.322581  1
  Dy  Dy3  1  0.500000  0.612083  0.816253  1
  Cu  Cu4  1  0.500000  0.112517  0.960409  1
  Ni  Ni5  1  0.500000  0.896885  0.460611  1
  Pt  Pt6  1  0.000000  0.612225  0.541453  1
  Pt  Pt7  1  0.000000  0.381434  0.035357  1
