# generated using pymatgen
data_Er8Zr9Si16Mo3
_symmetry_space_group_name_H-M   'P 1'
_cell_length_a   7.22624011
_cell_length_b   7.22623867
_cell_length_c   13.23147800
_cell_angle_alpha   90.10045068
_cell_angle_beta   89.89954934
_cell_angle_gamma   89.92910197
_symmetry_Int_Tables_number   1
_chemical_formula_structural   Er8Zr9Si16Mo3
_chemical_formula_sum   'Er8 Zr9 Si16 Mo3'
_cell_volume   690.92575044
_cell_formula_units_Z   1
loop_
 _symmetry_equiv_pos_site_id
 _symmetry_equiv_pos_as_xyz
  1  'x, y, z'
loop_
 _atom_site_type_symbol
 _atom_site_label
 _atom_site_symmetry_multiplicity
 _atom_site_fract_x
 _atom_site_fract_y
 _atom_site_fract_z
 _atom_site_occupancy
  Er  Er0  1  0.345936  0.003488  0.463467  1
  Er  Er1  1  0.498210  0.849183  0.716983  1
  Er  Er2  1  0.499331  0.152127  0.212434  1
  Er  Er3  1  0.849183  0.498210  0.283017  1
  Er  Er4  1  0.152127  0.499331  0.787566  1
  Er  Er5  1  0.652706  0.999898  0.964242  1
  Er  Er6  1  0.003488  0.345936  0.536533  1
  Er  Er7  1  0.999898  0.652706  0.035758  1
  Zr  Zr8  1  0.676076  0.676076  0.500000  1
  Zr  Zr9  1  0.144898  0.006583  0.875912  1
  Zr  Zr10  1  0.494034  0.645832  0.123263  1
  Zr  Zr11  1  0.504176  0.353465  0.627744  1
  Zr  Zr12  1  0.645832  0.494034  0.876737  1
  Zr  Zr13  1  0.353465  0.504176  0.372256  1
  Zr  Zr14  1  0.857058  0.995929  0.372488  1
  Zr  Zr15  1  0.006583  0.144898  0.124088  1
  Zr  Zr16  1  0.995929  0.857058  0.627512  1
  Si  Si17  1  0.203588  0.142056  0.684189  1
  Si  Si18  1  0.357352  0.702721  0.932833  1
  Si  Si19  1  0.641710  0.293647  0.432435  1
  Si  Si20  1  0.702721  0.357352  0.067167  1
  Si  Si21  1  0.293647  0.641710  0.567565  1
  Si  Si22  1  0.796874  0.858014  0.182462  1
  Si  Si23  1  0.142056  0.203588  0.315811  1
  Si  Si24  1  0.858014  0.796874  0.817538  1
  Si  Si25  1  0.296001  0.947437  0.065415  1
  Si  Si26  1  0.547952  0.798104  0.312385  1
  Si  Si27  1  0.447513  0.204681  0.817367  1
  Si  Si28  1  0.798104  0.547952  0.687615  1
  Si  Si29  1  0.204681  0.447513  0.182633  1
  Si  Si30  1  0.704079  0.055160  0.567666  1
  Si  Si31  1  0.947437  0.296001  0.934585  1
  Si  Si32  1  0.055160  0.704079  0.432334  1
  Mo  Mo33  1  0.322978  0.322978  0.000000  1
  Mo  Mo34  1  0.177314  0.823889  0.248153  1
  Mo  Mo35  1  0.823889  0.177314  0.751847  1
