# generated using pymatgen
data_Sc12CdCo4Os
_symmetry_space_group_name_H-M   'P 1'
_cell_length_a   7.71790818
_cell_length_b   7.71718175
_cell_length_c   7.71790782
_cell_angle_alpha   111.70945238
_cell_angle_beta   111.14388260
_cell_angle_gamma   105.63147751
_symmetry_Int_Tables_number   1
_chemical_formula_structural   Sc12CdCo4Os
_chemical_formula_sum   'Sc12 Cd1 Co4 Os1'
_cell_volume   352.65615667
_cell_formula_units_Z   1
loop_
 _symmetry_equiv_pos_site_id
 _symmetry_equiv_pos_as_xyz
  1  'x, y, z'
loop_
 _atom_site_type_symbol
 _atom_site_label
 _atom_site_symmetry_multiplicity
 _atom_site_fract_x
 _atom_site_fract_y
 _atom_site_fract_z
 _atom_site_occupancy
  Sc  Sc0  1  0.424219  0.226798  0.197447  1
  Sc  Sc1  1  0.575781  0.773202  0.802553  1
  Sc  Sc2  1  0.029349  0.226798  0.802579  1
  Sc  Sc3  1  0.970651  0.773202  0.197421  1
  Sc  Sc4  1  0.312113  0.614236  0.302123  1
  Sc  Sc5  1  0.687887  0.385764  0.697877  1
  Sc  Sc6  1  0.312108  0.010016  0.697908  1
  Sc  Sc7  1  0.687892  0.989984  0.302092  1
  Sc  Sc8  1  0.183242  0.273560  0.456757  1
  Sc  Sc9  1  0.816758  0.726439  0.543243  1
  Sc  Sc10  1  0.183196  0.726439  0.909682  1
  Sc  Sc11  1  0.816804  0.273560  0.090318  1
  Cd  Cd12  1  0.500000  0.500000  0.000000  1
  Co  Co13  1  0.366639  0.000000  0.366639  1
  Co  Co14  1  0.633361  0.000000  0.633361  1
  Co  Co15  1  0.117816  0.617806  0.499990  1
  Co  Co16  1  0.882184  0.382194  0.500010  1
  Os  Os17  1  0.000000  0.000000  0.000000  1
