# generated using pymatgen
data_Er9Lu(TlBi)3
_symmetry_space_group_name_H-M   'P 1'
_cell_length_a   8.97610700
_cell_length_b   8.97610839
_cell_length_c   6.50226300
_cell_angle_alpha   90.00000000
_cell_angle_beta   90.00000000
_cell_angle_gamma   119.99999858
_symmetry_Int_Tables_number   1
_chemical_formula_structural   Er9Lu(TlBi)3
_chemical_formula_sum   'Er9 Lu1 Tl3 Bi3'
_cell_volume   453.70261090
_cell_formula_units_Z   1
loop_
 _symmetry_equiv_pos_site_id
 _symmetry_equiv_pos_as_xyz
  1  'x, y, z'
loop_
 _atom_site_type_symbol
 _atom_site_label
 _atom_site_symmetry_multiplicity
 _atom_site_fract_x
 _atom_site_fract_y
 _atom_site_fract_z
 _atom_site_occupancy
  Er  Er0  1  0.333333  0.666667  0.006444  1
  Er  Er1  1  0.333333  0.666667  0.493476  1
  Er  Er2  1  0.666667  0.333333  0.493441  1
  Er  Er3  1  0.763722  0.763707  0.750240  1
  Er  Er4  1  0.236293  0.000015  0.750240  1
  Er  Er5  1  0.999985  0.236278  0.750240  1
  Er  Er6  1  0.237761  0.237524  0.249841  1
  Er  Er7  1  0.762476  0.000237  0.249841  1
  Er  Er8  1  0.999763  0.762239  0.249841  1
  Lu  Lu9  1  0.666667  0.333333  0.007269  1
  Tl  Tl10  1  0.607369  0.606886  0.249282  1
  Tl  Tl11  1  0.393114  0.000483  0.249282  1
  Tl  Tl12  1  0.999517  0.392631  0.249282  1
  Bi  Bi13  1  0.396682  0.396033  0.750426  1
  Bi  Bi14  1  0.603967  0.000649  0.750426  1
  Bi  Bi15  1  0.999351  0.603318  0.750426  1
