# generated using pymatgen
data_Ce2B2MoRu5
_symmetry_space_group_name_H-M   'P 1'
_cell_length_a   9.80133600
_cell_length_b   9.80133600
_cell_length_c   3.07955200
_cell_angle_alpha   90.00000000
_cell_angle_beta   90.00000000
_cell_angle_gamma   90.00000000
_symmetry_Int_Tables_number   1
_chemical_formula_structural   Ce2B2MoRu5
_chemical_formula_sum   'Ce4 B4 Mo2 Ru10'
_cell_volume   295.84081949
_cell_formula_units_Z   2
loop_
 _symmetry_equiv_pos_site_id
 _symmetry_equiv_pos_as_xyz
  1  'x, y, z'
loop_
 _atom_site_type_symbol
 _atom_site_label
 _atom_site_symmetry_multiplicity
 _atom_site_fract_x
 _atom_site_fract_y
 _atom_site_fract_z
 _atom_site_occupancy
  Ce  Ce0  1  0.676745  0.176745  0.000000  1
  Ce  Ce1  1  0.323255  0.823255  0.000000  1
  Ce  Ce2  1  0.176745  0.323255  0.000000  1
  Ce  Ce3  1  0.823255  0.676745  0.000000  1
  B  B4  1  0.120791  0.620791  0.000000  1
  B  B5  1  0.879209  0.379209  0.000000  1
  B  B6  1  0.620791  0.879209  0.000000  1
  B  B7  1  0.379209  0.120791  0.000000  1
  Mo  Mo8  1  0.000000  0.000000  0.000000  1
  Mo  Mo9  1  0.500000  0.500000  0.000000  1
  Ru  Ru10  1  0.220002  0.070662  0.500000  1
  Ru  Ru11  1  0.779998  0.929338  0.500000  1
  Ru  Ru12  1  0.070662  0.779998  0.500000  1
  Ru  Ru13  1  0.720002  0.429338  0.500000  1
  Ru  Ru14  1  0.929338  0.220002  0.500000  1
  Ru  Ru15  1  0.279998  0.570662  0.500000  1
  Ru  Ru16  1  0.570662  0.720002  0.500000  1
  Ru  Ru17  1  0.429338  0.279998  0.500000  1
  Ru  Ru18  1  0.500000  0.000000  0.500000  1
  Ru  Ru19  1  0.000000  0.500000  0.500000  1
