# generated using pymatgen
data_EuMnSiO4
_symmetry_space_group_name_H-M   'P 1'
_cell_length_a   4.99491700
_cell_length_b   6.80454300
_cell_length_c   11.78544800
_cell_angle_alpha   90.00000000
_cell_angle_beta   90.00000000
_cell_angle_gamma   90.00000000
_symmetry_Int_Tables_number   1
_chemical_formula_structural   EuMnSiO4
_chemical_formula_sum   'Eu4 Mn4 Si4 O16'
_cell_volume   400.56530936
_cell_formula_units_Z   4
loop_
 _symmetry_equiv_pos_site_id
 _symmetry_equiv_pos_as_xyz
  1  'x, y, z'
loop_
 _atom_site_type_symbol
 _atom_site_label
 _atom_site_symmetry_multiplicity
 _atom_site_fract_x
 _atom_site_fract_y
 _atom_site_fract_z
 _atom_site_occupancy
  Eu  Eu0  1  0.030350  0.750000  0.720144  1
  Eu  Eu1  1  0.969650  0.250000  0.279856  1
  Eu  Eu2  1  0.530350  0.250000  0.779856  1
  Eu  Eu3  1  0.469650  0.750000  0.220144  1
  Mn  Mn4  1  0.500000  0.500000  0.500000  1
  Mn  Mn5  1  0.000000  0.500000  0.000000  1
  Mn  Mn6  1  0.500000  0.000000  0.500000  1
  Mn  Mn7  1  0.000000  0.000000  0.000000  1
  Si  Si8  1  0.587088  0.750000  0.918087  1
  Si  Si9  1  0.412912  0.250000  0.081913  1
  Si  Si10  1  0.087088  0.250000  0.581913  1
  Si  Si11  1  0.912912  0.750000  0.418087  1
  O  O12  1  0.717153  0.555385  0.853169  1
  O  O13  1  0.282847  0.444615  0.146831  1
  O  O14  1  0.217153  0.444615  0.646831  1
  O  O15  1  0.282847  0.055385  0.146831  1
  O  O16  1  0.782847  0.555385  0.353169  1
  O  O17  1  0.717153  0.944615  0.853169  1
  O  O18  1  0.782847  0.944615  0.353169  1
  O  O19  1  0.217153  0.055385  0.646831  1
  O  O20  1  0.762342  0.750000  0.545448  1
  O  O21  1  0.237658  0.250000  0.454552  1
  O  O22  1  0.262342  0.250000  0.954552  1
  O  O23  1  0.737658  0.750000  0.045448  1
  O  O24  1  0.258874  0.750000  0.923830  1
  O  O25  1  0.741126  0.250000  0.076170  1
  O  O26  1  0.758874  0.250000  0.576170  1
  O  O27  1  0.241126  0.750000  0.423830  1
