# generated using pymatgen
data_Dy3BiIrRh3O14
_symmetry_space_group_name_H-M   'P 1'
_cell_length_a   7.28155374
_cell_length_b   7.28155492
_cell_length_c   7.28155463
_cell_angle_alpha   59.72091193
_cell_angle_beta   59.72092133
_cell_angle_gamma   59.72090886
_symmetry_Int_Tables_number   1
_chemical_formula_structural   Dy3BiIrRh3O14
_chemical_formula_sum   'Dy3 Bi1 Ir1 Rh3 O14'
_cell_volume   271.26622647
_cell_formula_units_Z   1
loop_
 _symmetry_equiv_pos_site_id
 _symmetry_equiv_pos_as_xyz
  1  'x, y, z'
loop_
 _atom_site_type_symbol
 _atom_site_label
 _atom_site_symmetry_multiplicity
 _atom_site_fract_x
 _atom_site_fract_y
 _atom_site_fract_z
 _atom_site_occupancy
  Dy  Dy0  1  0.125000  0.625000  0.125000  1
  Dy  Dy1  1  0.625000  0.125000  0.125000  1
  Dy  Dy2  1  0.125000  0.125000  0.625000  1
  Bi  Bi3  1  0.125000  0.125000  0.125000  1
  Ir  Ir4  1  0.625000  0.625000  0.625000  1
  Rh  Rh5  1  0.625000  0.625000  0.125000  1
  Rh  Rh6  1  0.125000  0.625000  0.625000  1
  Rh  Rh7  1  0.625000  0.125000  0.625000  1
  O  O8  1  0.253290  0.253290  0.253290  1
  O  O9  1  0.287511  0.705396  0.287511  1
  O  O10  1  0.962489  0.962489  0.544604  1
  O  O11  1  0.540011  0.957634  0.540011  1
  O  O12  1  0.709989  0.709989  0.292366  1
  O  O13  1  0.957634  0.540011  0.540011  1
  O  O14  1  0.709989  0.292366  0.709989  1
  O  O15  1  0.287511  0.287511  0.705396  1
  O  O16  1  0.705396  0.287511  0.287511  1
  O  O17  1  0.292366  0.709989  0.709989  1
  O  O18  1  0.962489  0.544604  0.962489  1
  O  O19  1  0.540011  0.540011  0.957634  1
  O  O20  1  0.996710  0.996710  0.996710  1
  O  O21  1  0.544604  0.962489  0.962489  1
