# generated using pymatgen
data_DyEr2Zr7Pb6
_symmetry_space_group_name_H-M   'P 1'
_cell_length_a   8.79743800
_cell_length_b   8.78650860
_cell_length_c   6.02975600
_cell_angle_alpha   90.00000000
_cell_angle_beta   90.00000000
_cell_angle_gamma   120.04115588
_symmetry_Int_Tables_number   1
_chemical_formula_structural   DyEr2Zr7Pb6
_chemical_formula_sum   'Dy1 Er2 Zr7 Pb6'
_cell_volume   403.48060757
_cell_formula_units_Z   1
loop_
 _symmetry_equiv_pos_site_id
 _symmetry_equiv_pos_as_xyz
  1  'x, y, z'
loop_
 _atom_site_type_symbol
 _atom_site_label
 _atom_site_symmetry_multiplicity
 _atom_site_fract_x
 _atom_site_fract_y
 _atom_site_fract_z
 _atom_site_occupancy
  Dy  Dy0  1  0.757234  0.000000  0.750000  1
  Er  Er1  1  0.761847  0.758383  0.250000  1
  Er  Er2  1  0.003464  0.241617  0.250000  1
  Zr  Zr3  1  0.330589  0.666297  0.500740  1
  Zr  Zr4  1  0.247066  0.000000  0.250000  1
  Zr  Zr5  1  0.664294  0.333703  0.500740  1
  Zr  Zr6  1  0.001652  0.756185  0.750000  1
  Zr  Zr7  1  0.330589  0.666297  0.999260  1
  Zr  Zr8  1  0.245468  0.243815  0.750000  1
  Zr  Zr9  1  0.664294  0.333703  0.999260  1
  Pb  Pb10  1  0.605650  0.603820  0.750000  1
  Pb  Pb11  1  0.387875  0.000000  0.750000  1
  Pb  Pb12  1  0.601771  0.000000  0.250000  1
  Pb  Pb13  1  0.001831  0.396180  0.750000  1
  Pb  Pb14  1  0.394498  0.392619  0.250000  1
  Pb  Pb15  1  0.001879  0.607381  0.250000  1
