# generated using pymatgen
data_Li8Nd8Sn4Bi3Sb
_symmetry_space_group_name_H-M   'P 1'
_cell_length_a   9.60332500
_cell_length_b   9.61920026
_cell_length_c   7.59504200
_cell_angle_alpha   89.85797896
_cell_angle_beta   90.00000000
_cell_angle_gamma   119.94542458
_symmetry_Int_Tables_number   1
_chemical_formula_structural   Li8Nd8Sn4Bi3Sb
_chemical_formula_sum   'Li8 Nd8 Sn4 Bi3 Sb1'
_cell_volume   607.93647357
_cell_formula_units_Z   1
loop_
 _symmetry_equiv_pos_site_id
 _symmetry_equiv_pos_as_xyz
  1  'x, y, z'
loop_
 _atom_site_type_symbol
 _atom_site_label
 _atom_site_symmetry_multiplicity
 _atom_site_fract_x
 _atom_site_fract_y
 _atom_site_fract_z
 _atom_site_occupancy
  Li  Li0  1  0.167025  0.334051  0.272430  1
  Li  Li1  1  0.170194  0.834253  0.278458  1
  Li  Li2  1  0.664060  0.834253  0.278458  1
  Li  Li3  1  0.831392  0.662784  0.779740  1
  Li  Li4  1  0.834066  0.169923  0.784768  1
  Li  Li5  1  0.335856  0.169923  0.784768  1
  Li  Li6  1  0.332348  0.664697  0.672526  1
  Li  Li7  1  0.665340  0.330680  0.178792  1
  Nd  Nd8  1  0.513616  0.027233  0.491435  1
  Nd  Nd9  1  0.504324  0.482777  0.493861  1
  Nd  Nd10  1  0.978452  0.482777  0.493861  1
  Nd  Nd11  1  0.491434  0.982867  0.999265  1
  Nd  Nd12  1  0.484454  0.505366  0.995291  1
  Nd  Nd13  1  0.020913  0.505366  0.995291  1
  Nd  Nd14  1  0.004895  0.009790  0.498530  1
  Nd  Nd15  1  0.003415  0.006830  0.003681  1
  Sn  Sn16  1  0.833372  0.166418  0.234762  1
  Sn  Sn17  1  0.333046  0.166418  0.234762  1
  Sn  Sn18  1  0.332738  0.665478  0.261996  1
  Sn  Sn19  1  0.666619  0.333238  0.762047  1
  Bi  Bi20  1  0.166130  0.832865  0.736040  1
  Bi  Bi21  1  0.666733  0.832865  0.736040  1
  Bi  Bi22  1  0.833103  0.666207  0.236957  1
  Sb  Sb23  1  0.166472  0.332944  0.738218  1
