# generated using pymatgen
data_PrHg3Ir2(RhO7)2
_symmetry_space_group_name_H-M   'P 1'
_cell_length_a   7.39704203
_cell_length_b   7.28399978
_cell_length_c   7.28399958
_cell_angle_alpha   59.92671381
_cell_angle_beta   60.49739245
_cell_angle_gamma   60.49739061
_symmetry_Int_Tables_number   1
_chemical_formula_structural   PrHg3Ir2(RhO7)2
_chemical_formula_sum   'Pr1 Hg3 Ir2 Rh2 O14'
_cell_volume   279.42337710
_cell_formula_units_Z   1
loop_
 _symmetry_equiv_pos_site_id
 _symmetry_equiv_pos_as_xyz
  1  'x, y, z'
loop_
 _atom_site_type_symbol
 _atom_site_label
 _atom_site_symmetry_multiplicity
 _atom_site_fract_x
 _atom_site_fract_y
 _atom_site_fract_z
 _atom_site_occupancy
  Pr  Pr0  1  0.625000  0.125000  0.125000  1
  Hg  Hg1  1  0.125000  0.125000  0.625000  1
  Hg  Hg2  1  0.125000  0.125000  0.125000  1
  Hg  Hg3  1  0.125000  0.625000  0.125000  1
  Ir  Ir4  1  0.625000  0.625000  0.625000  1
  Ir  Ir5  1  0.125000  0.625000  0.625000  1
  Rh  Rh6  1  0.625000  0.125000  0.625000  1
  Rh  Rh7  1  0.625000  0.625000  0.125000  1
  O  O8  1  0.941050  0.557674  0.557674  1
  O  O9  1  0.301249  0.308408  0.692276  1
  O  O10  1  0.948751  0.557724  0.941592  1
  O  O11  1  0.699481  0.296096  0.296096  1
  O  O12  1  0.551088  0.546873  0.947847  1
  O  O13  1  0.551088  0.947847  0.546873  1
  O  O14  1  0.550519  0.953904  0.953904  1
  O  O15  1  0.226764  0.258175  0.258175  1
  O  O16  1  0.308950  0.692326  0.692326  1
  O  O17  1  0.698912  0.302153  0.703127  1
  O  O18  1  0.023236  0.991825  0.991825  1
  O  O19  1  0.948751  0.941592  0.557724  1
  O  O20  1  0.301249  0.692276  0.308408  1
  O  O21  1  0.698912  0.703127  0.302153  1
