# generated using pymatgen
data_Be5V6Fe12As
_symmetry_space_group_name_H-M   'P 1'
_cell_length_a   3.91005200
_cell_length_b   5.52239807
_cell_length_c   11.73077314
_cell_angle_alpha   89.98229427
_cell_angle_beta   90.00068386
_cell_angle_gamma   90.00070447
_symmetry_Int_Tables_number   1
_chemical_formula_structural   Be5V6Fe12As
_chemical_formula_sum   'Be5 V6 Fe12 As1'
_cell_volume   253.30097225
_cell_formula_units_Z   1
loop_
 _symmetry_equiv_pos_site_id
 _symmetry_equiv_pos_as_xyz
  1  'x, y, z'
loop_
 _atom_site_type_symbol
 _atom_site_label
 _atom_site_symmetry_multiplicity
 _atom_site_fract_x
 _atom_site_fract_y
 _atom_site_fract_z
 _atom_site_occupancy
  Be  Be0  1  0.499915  0.000059  0.167756  1
  Be  Be1  1  0.999907  0.499897  0.333952  1
  Be  Be2  1  0.499999  0.000000  0.500000  1
  Be  Be3  1  0.000095  0.500103  0.666047  1
  Be  Be4  1  0.500084  0.999941  0.832243  1
  V  V5  1  0.000000  0.000000  0.000000  1
  V  V6  1  0.499924  0.499953  0.175327  1
  V  V7  1  0.999916  0.000068  0.336564  1
  V  V8  1  0.499999  0.500000  0.500000  1
  V  V9  1  0.000086  0.999932  0.663436  1
  V  V10  1  0.500077  0.500047  0.824673  1
  Fe  Fe11  1  0.500000  0.243617  0.000004  1
  Fe  Fe12  1  0.499998  0.756383  0.999996  1
  Fe  Fe13  1  0.999925  0.245569  0.169958  1
  Fe  Fe14  1  0.999922  0.754427  0.169956  1
  Fe  Fe15  1  0.499922  0.249590  0.334487  1
  Fe  Fe16  1  0.499909  0.750420  0.334494  1
  Fe  Fe17  1  0.000002  0.252204  0.500012  1
  Fe  Fe18  1  0.999998  0.747796  0.499988  1
  Fe  Fe19  1  0.500090  0.249580  0.665506  1
  Fe  Fe20  1  0.500077  0.750410  0.665513  1
  Fe  Fe21  1  0.000077  0.245574  0.830044  1
  Fe  Fe22  1  0.000074  0.754432  0.830042  1
  As  As23  1  0.000000  0.500000  0.000000  1
