# generated using pymatgen
data_Tm2FeNi2P7Ru9
_symmetry_space_group_name_H-M   'P 1'
_cell_length_a   9.24489657
_cell_length_b   9.38893845
_cell_length_c   3.82190400
_cell_angle_alpha   90.00000000
_cell_angle_beta   90.00000000
_cell_angle_gamma   119.72562776
_symmetry_Int_Tables_number   1
_chemical_formula_structural   Tm2FeNi2P7Ru9
_chemical_formula_sum   'Tm2 Fe1 Ni2 P7 Ru9'
_cell_volume   288.08659190
_cell_formula_units_Z   1
loop_
 _symmetry_equiv_pos_site_id
 _symmetry_equiv_pos_as_xyz
  1  'x, y, z'
loop_
 _atom_site_type_symbol
 _atom_site_label
 _atom_site_symmetry_multiplicity
 _atom_site_fract_x
 _atom_site_fract_y
 _atom_site_fract_z
 _atom_site_occupancy
  Tm  Tm0  1  0.335536  0.664289  0.000000  1
  Tm  Tm1  1  0.998152  0.001697  0.500000  1
  Fe  Fe2  1  0.552507  0.492102  0.000000  1
  Ni  Ni3  1  0.938263  0.444792  0.000000  1
  Ni  Ni4  1  0.506140  0.062805  0.000000  1
  P  P5  1  0.964829  0.220126  0.000000  1
  P  P6  1  0.248274  0.030708  0.000000  1
  P  P7  1  0.774956  0.742700  0.000000  1
  P  P8  1  0.071720  0.623062  0.500000  1
  P  P9  1  0.551686  0.929094  0.500000  1
  P  P10  1  0.384775  0.453263  0.500000  1
  P  P11  1  0.663099  0.334838  0.000000  1
  Ru  Ru12  1  0.729280  0.967831  0.000000  1
  Ru  Ru13  1  0.238736  0.269194  0.000000  1
  Ru  Ru14  1  0.030718  0.757842  0.000000  1
  Ru  Ru15  1  0.105291  0.390103  0.500000  1
  Ru  Ru16  1  0.285079  0.901167  0.500000  1
  Ru  Ru17  1  0.614813  0.717296  0.500000  1
  Ru  Ru18  1  0.755555  0.206303  0.500000  1
  Ru  Ru19  1  0.467016  0.254697  0.500000  1
  Ru  Ru20  1  0.783580  0.536090  0.500000  1
