# generated using pymatgen
data_Y2Sc2Al17GaIr6
_symmetry_space_group_name_H-M   'P 1'
_cell_length_a   7.51241457
_cell_length_b   7.51241120
_cell_length_c   9.41337800
_cell_angle_alpha   90.00000000
_cell_angle_beta   90.00000000
_cell_angle_gamma   119.45322450
_symmetry_Int_Tables_number   1
_chemical_formula_structural   Y2Sc2Al17GaIr6
_chemical_formula_sum   'Y2 Sc2 Al17 Ga1 Ir6'
_cell_volume   462.59568433
_cell_formula_units_Z   1
loop_
 _symmetry_equiv_pos_site_id
 _symmetry_equiv_pos_as_xyz
  1  'x, y, z'
loop_
 _atom_site_type_symbol
 _atom_site_label
 _atom_site_symmetry_multiplicity
 _atom_site_fract_x
 _atom_site_fract_y
 _atom_site_fract_z
 _atom_site_occupancy
  Y  Y0  1  0.993291  0.675108  0.250000  1
  Y  Y1  1  0.675108  0.993290  0.250000  1
  Sc  Sc2  1  0.003005  0.326022  0.750000  1
  Sc  Sc3  1  0.326022  0.003004  0.750000  1
  Al  Al4  1  0.875196  0.875196  0.750000  1
  Al  Al5  1  0.002734  0.335885  0.068030  1
  Al  Al6  1  0.001957  0.663987  0.918731  1
  Al  Al7  1  0.001957  0.663987  0.581269  1
  Al  Al8  1  0.335884  0.002733  0.431970  1
  Al  Al9  1  0.002734  0.335885  0.431970  1
  Al  Al10  1  0.663988  0.001957  0.581269  1
  Al  Al11  1  0.663988  0.001957  0.918731  1
  Al  Al12  1  0.335884  0.002733  0.068030  1
  Al  Al13  1  0.330300  0.330300  0.564399  1
  Al  Al14  1  0.665090  0.665090  0.455511  1
  Al  Al15  1  0.665090  0.665090  0.044489  1
  Al  Al16  1  0.330300  0.330300  0.935601  1
  Al  Al17  1  0.338344  0.548534  0.250000  1
  Al  Al18  1  0.659724  0.444679  0.750000  1
  Al  Al19  1  0.548534  0.338344  0.250000  1
  Al  Al20  1  0.444679  0.659724  0.750000  1
  Ga  Ga21  1  0.137494  0.137494  0.250000  1
  Ir  Ir22  1  0.671695  0.327718  0.998970  1
  Ir  Ir23  1  0.327718  0.671695  0.998971  1
  Ir  Ir24  1  0.327718  0.671695  0.501029  1
  Ir  Ir25  1  0.671695  0.327718  0.501030  1
  Ir  Ir26  1  0.999938  0.999938  0.996265  1
  Ir  Ir27  1  0.999938  0.999938  0.503735  1
