# generated using pymatgen
data_Mn3Nb6Al8Fe
_symmetry_space_group_name_H-M   'P 1'
_cell_length_a   8.71777107
_cell_length_b   8.81379876
_cell_length_c   8.17807000
_cell_angle_alpha   90.00000000
_cell_angle_beta   90.00000000
_cell_angle_gamma   120.82465636
_symmetry_Int_Tables_number   1
_chemical_formula_structural   Mn3Nb6Al8Fe
_chemical_formula_sum   'Mn6 Nb12 Al16 Fe2'
_cell_volume   539.61105392
_cell_formula_units_Z   2
loop_
 _symmetry_equiv_pos_site_id
 _symmetry_equiv_pos_as_xyz
  1  'x, y, z'
loop_
 _atom_site_type_symbol
 _atom_site_label
 _atom_site_symmetry_multiplicity
 _atom_site_fract_x
 _atom_site_fract_y
 _atom_site_fract_z
 _atom_site_occupancy
  Mn  Mn0  1  0.178098  0.503685  0.750000  1
  Mn  Mn1  1  0.821902  0.496315  0.250000  1
  Mn  Mn2  1  0.484666  0.653261  0.750000  1
  Mn  Mn3  1  0.499530  0.166962  0.750000  1
  Mn  Mn4  1  0.515334  0.346739  0.250000  1
  Mn  Mn5  1  0.500470  0.833038  0.250000  1
  Nb  Nb6  1  0.332174  0.002770  0.062186  1
  Nb  Nb7  1  0.667826  0.997230  0.937814  1
  Nb  Nb8  1  0.000566  0.328865  0.059066  1
  Nb  Nb9  1  0.667826  0.997230  0.562186  1
  Nb  Nb10  1  0.000566  0.328865  0.440934  1
  Nb  Nb11  1  0.999434  0.671135  0.940934  1
  Nb  Nb12  1  0.332174  0.002770  0.437814  1
  Nb  Nb13  1  0.999434  0.671135  0.559066  1
  Nb  Nb14  1  0.666314  0.671310  0.062487  1
  Nb  Nb15  1  0.333686  0.328690  0.937513  1
  Nb  Nb16  1  0.333686  0.328690  0.562487  1
  Nb  Nb17  1  0.666314  0.671310  0.437513  1
  Al  Al18  1  0.341011  0.844080  0.750000  1
  Al  Al19  1  0.654571  0.502784  0.750000  1
  Al  Al20  1  0.658989  0.155920  0.250000  1
  Al  Al21  1  0.345429  0.497216  0.250000  1
  Al  Al22  1  0.845598  0.340827  0.750000  1
  Al  Al23  1  0.154402  0.659173  0.250000  1
  Al  Al24  1  0.338091  0.670364  0.500014  1
  Al  Al25  1  0.661909  0.329636  0.499986  1
  Al  Al26  1  0.661909  0.329636  0.000014  1
  Al  Al27  1  0.338091  0.670364  0.999986  1
  Al  Al28  1  0.172023  0.003704  0.750000  1
  Al  Al29  1  0.827977  0.996296  0.250000  1
  Al  Al30  1  0.009782  0.176736  0.750000  1
  Al  Al31  1  0.990218  0.823264  0.250000  1
  Al  Al32  1  0.821688  0.833415  0.750000  1
  Al  Al33  1  0.178312  0.166585  0.250000  1
  Fe  Fe34  1  0.000000  0.000000  0.500000  1
  Fe  Fe35  1  0.000000  0.000000  0.000000  1
