# generated using pymatgen
data_TbGd3Al17SiIr6
_symmetry_space_group_name_H-M   'P 1'
_cell_length_a   7.58607078
_cell_length_b   7.56702066
_cell_length_c   9.49430300
_cell_angle_alpha   90.06258831
_cell_angle_beta   89.80757039
_cell_angle_gamma   119.89474611
_symmetry_Int_Tables_number   1
_chemical_formula_structural   TbGd3Al17SiIr6
_chemical_formula_sum   'Tb1 Gd3 Al17 Si1 Ir6'
_cell_volume   472.49000158
_cell_formula_units_Z   1
loop_
 _symmetry_equiv_pos_site_id
 _symmetry_equiv_pos_as_xyz
  1  'x, y, z'
loop_
 _atom_site_type_symbol
 _atom_site_label
 _atom_site_symmetry_multiplicity
 _atom_site_fract_x
 _atom_site_fract_y
 _atom_site_fract_z
 _atom_site_occupancy
  Tb  Tb0  1  0.995353  0.663147  0.247130  1
  Gd  Gd1  1  0.004080  0.330326  0.754693  1
  Gd  Gd2  1  0.675741  0.003219  0.246905  1
  Gd  Gd3  1  0.329707  0.004142  0.750295  1
  Al  Al4  1  0.128936  0.127704  0.249877  1
  Al  Al5  1  0.871163  0.872901  0.749768  1
  Al  Al6  1  0.997609  0.669922  0.924138  1
  Al  Al7  1  0.998610  0.665737  0.573370  1
  Al  Al8  1  0.333991  0.999579  0.425847  1
  Al  Al9  1  0.002374  0.334767  0.431504  1
  Al  Al10  1  0.664784  0.998613  0.573183  1
  Al  Al11  1  0.660070  0.993657  0.924191  1
  Al  Al12  1  0.333735  0.000343  0.074325  1
  Al  Al13  1  0.334643  0.333702  0.553289  1
  Al  Al14  1  0.667364  0.667782  0.446772  1
  Al  Al15  1  0.666354  0.667038  0.054470  1
  Al  Al16  1  0.337783  0.334423  0.946819  1
  Al  Al17  1  0.339541  0.547638  0.250388  1
  Al  Al18  1  0.661639  0.452526  0.750557  1
  Al  Al19  1  0.544668  0.339043  0.249863  1
  Al  Al20  1  0.451541  0.658824  0.749787  1
  Si  Si21  1  0.001985  0.334625  0.072697  1
  Ir  Ir22  1  0.679785  0.328983  0.002258  1
  Ir  Ir23  1  0.319468  0.663611  0.000559  1
  Ir  Ir24  1  0.327811  0.670810  0.499400  1
  Ir  Ir25  1  0.672066  0.328776  0.498579  1
  Ir  Ir26  1  0.999146  0.007470  0.000173  1
  Ir  Ir27  1  0.000051  0.000692  0.499163  1
