# generated using pymatgen
data_Hf6GaNiSe
_symmetry_space_group_name_H-M   'P 1'
_cell_length_a   3.43849400
_cell_length_b   7.61697488
_cell_length_c   7.61697600
_cell_angle_alpha   119.99999618
_cell_angle_beta   90.00000000
_cell_angle_gamma   90.00000000
_symmetry_Int_Tables_number   1
_chemical_formula_structural   Hf6GaNiSe
_chemical_formula_sum   'Hf6 Ga1 Ni1 Se1'
_cell_volume   172.76828802
_cell_formula_units_Z   1
loop_
 _symmetry_equiv_pos_site_id
 _symmetry_equiv_pos_as_xyz
  1  'x, y, z'
loop_
 _atom_site_type_symbol
 _atom_site_label
 _atom_site_symmetry_multiplicity
 _atom_site_fract_x
 _atom_site_fract_y
 _atom_site_fract_z
 _atom_site_occupancy
  Hf  Hf0  1  0.500000  0.747571  0.753820  1
  Hf  Hf1  1  0.500000  0.006250  0.252429  1
  Hf  Hf2  1  0.500000  0.246180  0.993750  1
  Hf  Hf3  1  0.000000  0.408759  0.400936  1
  Hf  Hf4  1  0.000000  0.992177  0.591241  1
  Hf  Hf5  1  0.000000  0.599064  0.007823  1
  Ga  Ga6  1  0.500000  0.333333  0.666667  1
  Ni  Ni7  1  0.000000  0.000000  0.000000  1
  Se  Se8  1  0.500000  0.666667  0.333333  1
