# generated using pymatgen
data_MgTiPPt8
_symmetry_space_group_name_H-M   'P 1'
_cell_length_a   3.95558200
_cell_length_b   3.95558200
_cell_length_c   10.92073700
_cell_angle_alpha   90.00000000
_cell_angle_beta   90.00000000
_cell_angle_gamma   90.00000000
_symmetry_Int_Tables_number   1
_chemical_formula_structural   MgTiPPt8
_chemical_formula_sum   'Mg1 Ti1 P1 Pt8'
_cell_volume   170.87271979
_cell_formula_units_Z   1
loop_
 _symmetry_equiv_pos_site_id
 _symmetry_equiv_pos_as_xyz
  1  'x, y, z'
loop_
 _atom_site_type_symbol
 _atom_site_label
 _atom_site_symmetry_multiplicity
 _atom_site_fract_x
 _atom_site_fract_y
 _atom_site_fract_z
 _atom_site_occupancy
  Mg  Mg0  1  0.500000  0.500000  0.184515  1
  Ti  Ti1  1  0.500000  0.500000  0.821398  1
  P  P2  1  0.000000  0.000000  0.498562  1
  Pt  Pt3  1  0.500000  0.000000  0.994199  1
  Pt  Pt4  1  0.000000  0.500000  0.994199  1
  Pt  Pt5  1  0.500000  0.000000  0.636837  1
  Pt  Pt6  1  0.000000  0.500000  0.636837  1
  Pt  Pt7  1  0.500000  0.000000  0.368158  1
  Pt  Pt8  1  0.000000  0.500000  0.368158  1
  Pt  Pt9  1  0.000000  0.000000  0.817589  1
  Pt  Pt10  1  0.000000  0.000000  0.179549  1
