# generated using pymatgen
data_Ho4MoW3N8
_symmetry_space_group_name_H-M   'P 1'
_cell_length_a   3.19646500
_cell_length_b   5.69898045
_cell_length_c   10.54517184
_cell_angle_alpha   89.95435418
_cell_angle_beta   90.00000000
_cell_angle_gamma   90.00000000
_symmetry_Int_Tables_number   1
_chemical_formula_structural   Ho4MoW3N8
_chemical_formula_sum   'Ho4 Mo1 W3 N8'
_cell_volume   192.09702722
_cell_formula_units_Z   1
loop_
 _symmetry_equiv_pos_site_id
 _symmetry_equiv_pos_as_xyz
  1  'x, y, z'
loop_
 _atom_site_type_symbol
 _atom_site_label
 _atom_site_symmetry_multiplicity
 _atom_site_fract_x
 _atom_site_fract_y
 _atom_site_fract_z
 _atom_site_occupancy
  Ho  Ho0  1  0.250000  0.079554  0.853588  1
  Ho  Ho1  1  0.250000  0.578505  0.645459  1
  Ho  Ho2  1  0.750000  0.920526  0.145043  1
  Ho  Ho3  1  0.750000  0.420628  0.354367  1
  Mo  Mo4  1  0.750000  0.066668  0.594107  1
  W  W5  1  0.250000  0.432679  0.095414  1
  W  W6  1  0.250000  0.933551  0.405225  1
  W  W7  1  0.750000  0.568014  0.905074  1
  N  N8  1  0.250000  0.164596  0.248782  1
  N  N9  1  0.250000  0.666191  0.251647  1
  N  N10  1  0.750000  0.832703  0.752247  1
  N  N11  1  0.750000  0.337551  0.750874  1
  N  N12  1  0.250000  0.763208  0.993654  1
  N  N13  1  0.250000  0.260115  0.505214  1
  N  N14  1  0.750000  0.237756  0.007104  1
  N  N15  1  0.750000  0.737753  0.492201  1
