# generated using pymatgen
data_DyY(Er3C5)2
_symmetry_space_group_name_H-M   'P 1'
_cell_length_a   3.64860700
_cell_length_b   6.53600902
_cell_length_c   11.84216400
_cell_angle_alpha   90.93056131
_cell_angle_beta   90.00000000
_cell_angle_gamma   90.00000000
_symmetry_Int_Tables_number   1
_chemical_formula_structural   DyY(Er3C5)2
_chemical_formula_sum   'Dy1 Y1 Er6 C10'
_cell_volume   282.36672660
_cell_formula_units_Z   1
loop_
 _symmetry_equiv_pos_site_id
 _symmetry_equiv_pos_as_xyz
  1  'x, y, z'
loop_
 _atom_site_type_symbol
 _atom_site_label
 _atom_site_symmetry_multiplicity
 _atom_site_fract_x
 _atom_site_fract_y
 _atom_site_fract_z
 _atom_site_occupancy
  Dy  Dy0  1  0.500000  0.604543  0.698344  1
  Y  Y1  1  0.500000  0.394794  0.301627  1
  Er  Er2  1  0.000000  0.256668  0.542201  1
  Er  Er3  1  0.000000  0.743419  0.457887  1
  Er  Er4  1  0.000000  0.757458  0.956928  1
  Er  Er5  1  0.000000  0.242386  0.042957  1
  Er  Er6  1  0.500000  0.109334  0.804820  1
  Er  Er7  1  0.500000  0.890856  0.194996  1
  C  C8  1  0.500000  0.500537  0.500514  1
  C  C9  1  0.500000  0.999906  0.999928  1
  C  C10  1  0.000000  0.360876  0.734927  1
  C  C11  1  0.000000  0.639685  0.265053  1
  C  C12  1  0.000000  0.859405  0.762948  1
  C  C13  1  0.000000  0.139952  0.236829  1
  C  C14  1  0.000000  0.389842  0.847217  1
  C  C15  1  0.000000  0.610277  0.152853  1
  C  C16  1  0.000000  0.078358  0.343596  1
  C  C17  1  0.000000  0.921704  0.656376  1
