# generated using pymatgen
data_Pr6Nd4CuBi6P
_symmetry_space_group_name_H-M   'P 1'
_cell_length_a   9.68196106
_cell_length_b   9.68033926
_cell_length_c   6.63193905
_cell_angle_alpha   89.98578315
_cell_angle_beta   90.00710950
_cell_angle_gamma   119.99445116
_symmetry_Int_Tables_number   1
_chemical_formula_structural   Pr6Nd4CuBi6P
_chemical_formula_sum   'Pr6 Nd4 Cu1 Bi6 P1'
_cell_volume   538.33093236
_cell_formula_units_Z   1
loop_
 _symmetry_equiv_pos_site_id
 _symmetry_equiv_pos_as_xyz
  1  'x, y, z'
loop_
 _atom_site_type_symbol
 _atom_site_label
 _atom_site_symmetry_multiplicity
 _atom_site_fract_x
 _atom_site_fract_y
 _atom_site_fract_z
 _atom_site_occupancy
  Pr  Pr0  1  0.666698  0.333313  0.000020  1
  Pr  Pr1  1  0.333302  0.666616  0.000020  1
  Pr  Pr2  1  0.333304  0.666630  0.499972  1
  Pr  Pr3  1  0.666696  0.333326  0.499972  1
  Pr  Pr4  1  0.749930  0.749965  0.755056  1
  Pr  Pr5  1  0.250070  0.000035  0.755056  1
  Nd  Nd6  1  0.000000  0.249571  0.755297  1
  Nd  Nd7  1  0.249560  0.249636  0.244764  1
  Nd  Nd8  1  0.750440  0.000076  0.244764  1
  Nd  Nd9  1  0.000000  0.750392  0.244753  1
  Cu  Cu10  1  0.000000  0.000230  0.499522  1
  Bi  Bi11  1  0.387816  0.388091  0.747522  1
  Bi  Bi12  1  0.612184  0.000275  0.747522  1
  Bi  Bi13  1  0.000000  0.611520  0.747505  1
  Bi  Bi14  1  0.611970  0.611962  0.252496  1
  Bi  Bi15  1  0.388030  0.999991  0.252496  1
  Bi  Bi16  1  0.000000  0.387957  0.252484  1
  P  P17  1  0.000000  0.000414  0.000783  1
