# generated using pymatgen
data_Sr2NdPaO6
_symmetry_space_group_name_H-M   'P 1'
_cell_length_a   6.09220754
_cell_length_b   6.25676700
_cell_length_c   8.74199287
_cell_angle_alpha   89.99990567
_cell_angle_beta   90.03925500
_cell_angle_gamma   89.99996351
_symmetry_Int_Tables_number   1
_chemical_formula_structural   Sr2NdPaO6
_chemical_formula_sum   'Sr4 Nd2 Pa2 O12'
_cell_volume   333.22303681
_cell_formula_units_Z   2
loop_
 _symmetry_equiv_pos_site_id
 _symmetry_equiv_pos_as_xyz
  1  'x, y, z'
loop_
 _atom_site_type_symbol
 _atom_site_label
 _atom_site_symmetry_multiplicity
 _atom_site_fract_x
 _atom_site_fract_y
 _atom_site_fract_z
 _atom_site_occupancy
  Sr  Sr0  1  0.487717  0.045727  0.249261  1
  Sr  Sr1  1  0.012283  0.545727  0.250738  1
  Sr  Sr2  1  0.987720  0.454272  0.749262  1
  Sr  Sr3  1  0.512282  0.954272  0.750738  1
  Nd  Nd4  1  0.500000  0.499998  0.000000  1
  Nd  Nd5  1  0.000002  0.000002  0.500001  1
  Pa  Pa6  1  0.000000  0.000006  0.999997  1
  Pa  Pa7  1  0.499996  0.499998  0.500000  1
  O  O8  1  0.291223  0.812222  0.056928  1
  O  O9  1  0.186096  0.289939  0.062930  1
  O  O10  1  0.888732  0.952290  0.238691  1
  O  O11  1  0.611270  0.452290  0.261311  1
  O  O12  1  0.313904  0.789936  0.437071  1
  O  O13  1  0.208780  0.312224  0.443072  1
  O  O14  1  0.791222  0.687777  0.556928  1
  O  O15  1  0.686097  0.210061  0.562929  1
  O  O16  1  0.388733  0.547711  0.738689  1
  O  O17  1  0.111268  0.047709  0.761310  1
  O  O18  1  0.813904  0.710061  0.937070  1
  O  O19  1  0.708778  0.187776  0.943072  1
