# generated using pymatgen
data_ErTm9(Ir2Os)2
_symmetry_space_group_name_H-M   'P 1'
_cell_length_a   10.71407005
_cell_length_b   10.71269000
_cell_length_c   6.33843603
_cell_angle_alpha   90.00000000
_cell_angle_beta   90.01071878
_cell_angle_gamma   90.00000000
_symmetry_Int_Tables_number   1
_chemical_formula_structural   ErTm9(Ir2Os)2
_chemical_formula_sum   'Er2 Tm18 Ir8 Os4'
_cell_volume   727.50356005
_cell_formula_units_Z   2
loop_
 _symmetry_equiv_pos_site_id
 _symmetry_equiv_pos_as_xyz
  1  'x, y, z'
loop_
 _atom_site_type_symbol
 _atom_site_label
 _atom_site_symmetry_multiplicity
 _atom_site_fract_x
 _atom_site_fract_y
 _atom_site_fract_z
 _atom_site_occupancy
  Er  Er0  1  0.293405  0.086314  0.376149  1
  Er  Er1  1  0.293405  0.913686  0.876149  1
  Tm  Tm2  1  0.706433  0.086209  0.876318  1
  Tm  Tm3  1  0.706433  0.913791  0.376318  1
  Tm  Tm4  1  0.586336  0.793540  0.876329  1
  Tm  Tm5  1  0.586336  0.206460  0.376329  1
  Tm  Tm6  1  0.413920  0.793450  0.376302  1
  Tm  Tm7  1  0.413920  0.206550  0.876302  1
  Tm  Tm8  1  0.206357  0.413841  0.623711  1
  Tm  Tm9  1  0.206357  0.586159  0.123711  1
  Tm  Tm10  1  0.793623  0.413809  0.123680  1
  Tm  Tm11  1  0.793623  0.586191  0.623680  1
  Tm  Tm12  1  0.913804  0.706370  0.123676  1
  Tm  Tm13  1  0.913804  0.293630  0.623676  1
  Tm  Tm14  1  0.086094  0.706311  0.623614  1
  Tm  Tm15  1  0.086094  0.293689  0.123614  1
  Tm  Tm16  1  0.999855  0.999952  0.500033  1
  Tm  Tm17  1  0.999855  0.000048  0.000033  1
  Tm  Tm18  1  0.500034  0.500002  0.000019  1
  Tm  Tm19  1  0.500034  0.499998  0.500019  1
  Ir  Ir20  1  0.847490  0.152480  0.249997  1
  Ir  Ir21  1  0.847490  0.847520  0.749997  1
  Ir  Ir22  1  0.152277  0.152707  0.750286  1
  Ir  Ir23  1  0.152277  0.847293  0.250286  1
  Ir  Ir24  1  0.652474  0.347496  0.750003  1
  Ir  Ir25  1  0.652474  0.652504  0.250003  1
  Ir  Ir26  1  0.347558  0.347727  0.249892  1
  Ir  Ir27  1  0.347558  0.652273  0.749892  1
  Os  Os28  1  0.500346  0.000007  0.122822  1
  Os  Os29  1  0.500346  0.999993  0.622822  1
  Os  Os30  1  0.999993  0.499984  0.877171  1
  Os  Os31  1  0.999993  0.500016  0.377171  1
