# generated using pymatgen
data_DyEr3Fe4(Ni4P3)4
_symmetry_space_group_name_H-M   'P 1'
_cell_length_a   3.68761900
_cell_length_b   10.29755905
_cell_length_c   11.86291106
_cell_angle_alpha   89.98848483
_cell_angle_beta   90.00000000
_cell_angle_gamma   90.00000000
_symmetry_Int_Tables_number   1
_chemical_formula_structural   DyEr3Fe4(Ni4P3)4
_chemical_formula_sum   'Dy1 Er3 Fe4 Ni16 P12'
_cell_volume   450.47594051
_cell_formula_units_Z   1
loop_
 _symmetry_equiv_pos_site_id
 _symmetry_equiv_pos_as_xyz
  1  'x, y, z'
loop_
 _atom_site_type_symbol
 _atom_site_label
 _atom_site_symmetry_multiplicity
 _atom_site_fract_x
 _atom_site_fract_y
 _atom_site_fract_z
 _atom_site_occupancy
  Dy  Dy0  1  0.750000  0.079425  0.795093  1
  Er  Er1  1  0.250000  0.579313  0.704843  1
  Er  Er2  1  0.250000  0.920632  0.204932  1
  Er  Er3  1  0.750000  0.420646  0.295181  1
  Fe  Fe4  1  0.250000  0.464156  0.931673  1
  Fe  Fe5  1  0.250000  0.036068  0.431447  1
  Fe  Fe6  1  0.750000  0.536030  0.068406  1
  Fe  Fe7  1  0.750000  0.963800  0.568101  1
  Ni  Ni8  1  0.250000  0.713734  0.994553  1
  Ni  Ni9  1  0.250000  0.786246  0.494448  1
  Ni  Ni10  1  0.750000  0.286297  0.005504  1
  Ni  Ni11  1  0.750000  0.213719  0.505533  1
  Ni  Ni12  1  0.250000  0.407487  0.487240  1
  Ni  Ni13  1  0.250000  0.092548  0.987817  1
  Ni  Ni14  1  0.750000  0.592499  0.512718  1
  Ni  Ni15  1  0.750000  0.907345  0.012868  1
  Ni  Ni16  1  0.250000  0.225089  0.176961  1
  Ni  Ni17  1  0.250000  0.275348  0.676734  1
  Ni  Ni18  1  0.750000  0.774762  0.823154  1
  Ni  Ni19  1  0.750000  0.725015  0.323080  1
  Ni  Ni20  1  0.250000  0.877146  0.701581  1
  Ni  Ni21  1  0.250000  0.622394  0.201837  1
  Ni  Ni22  1  0.750000  0.122408  0.298157  1
  Ni  Ni23  1  0.750000  0.377879  0.798207  1
  P  P24  1  0.250000  0.425602  0.112238  1
  P  P25  1  0.250000  0.074306  0.611815  1
  P  P26  1  0.750000  0.574382  0.887765  1
  P  P27  1  0.750000  0.925607  0.387661  1
  P  P28  1  0.250000  0.268823  0.869113  1
  P  P29  1  0.250000  0.231731  0.368883  1
  P  P30  1  0.750000  0.731734  0.131101  1
  P  P31  1  0.750000  0.768349  0.631143  1
  P  P32  1  0.250000  0.603297  0.392695  1
  P  P33  1  0.250000  0.896244  0.892907  1
  P  P34  1  0.750000  0.396651  0.607345  1
  P  P35  1  0.750000  0.103290  0.107265  1
