# generated using pymatgen
data_Pr11Cd6In3Rh4
_symmetry_space_group_name_H-M   'P 1'
_cell_length_a   13.39588300
_cell_length_b   13.37846691
_cell_length_c   3.85385400
_cell_angle_alpha   90.00000000
_cell_angle_beta   90.00000000
_cell_angle_gamma   113.82021583
_symmetry_Int_Tables_number   1
_chemical_formula_structural   Pr11Cd6In3Rh4
_chemical_formula_sum   'Pr11 Cd6 In3 Rh4'
_cell_volume   631.84024755
_cell_formula_units_Z   1
loop_
 _symmetry_equiv_pos_site_id
 _symmetry_equiv_pos_as_xyz
  1  'x, y, z'
loop_
 _atom_site_type_symbol
 _atom_site_label
 _atom_site_symmetry_multiplicity
 _atom_site_fract_x
 _atom_site_fract_y
 _atom_site_fract_z
 _atom_site_occupancy
  Pr  Pr0  1  0.078289  0.416176  0.000000  1
  Pr  Pr1  1  0.921711  0.583824  0.000000  1
  Pr  Pr2  1  0.415880  0.078365  0.000000  1
  Pr  Pr3  1  0.584120  0.921635  0.000000  1
  Pr  Pr4  1  0.624224  0.373566  0.000000  1
  Pr  Pr5  1  0.375776  0.626434  0.000000  1
  Pr  Pr6  1  0.838868  0.160414  0.000000  1
  Pr  Pr7  1  0.161132  0.839586  0.000000  1
  Pr  Pr8  1  0.000000  0.000000  0.000000  1
  Pr  Pr9  1  0.306529  0.308980  0.000000  1
  Pr  Pr10  1  0.693471  0.691020  0.000000  1
  Cd  Cd11  1  0.841379  0.365774  0.500000  1
  Cd  Cd12  1  0.158621  0.634226  0.500000  1
  Cd  Cd13  1  0.364611  0.839825  0.500000  1
  Cd  Cd14  1  0.635389  0.160175  0.500000  1
  Cd  Cd15  1  0.075246  0.216283  0.500000  1
  Cd  Cd16  1  0.924754  0.783717  0.500000  1
  In  In17  1  0.215298  0.074222  0.500000  1
  In  In18  1  0.784702  0.925778  0.500000  1
  In  In19  1  0.500000  0.500000  0.500000  1
  Rh  Rh20  1  0.251465  0.450978  0.500000  1
  Rh  Rh21  1  0.748535  0.549022  0.500000  1
  Rh  Rh22  1  0.445089  0.248776  0.500000  1
  Rh  Rh23  1  0.554911  0.751224  0.500000  1
