# generated using pymatgen
data_ErNbP3Rh4
_symmetry_space_group_name_H-M   'P 1'
_cell_length_a   3.94222800
_cell_length_b   11.04705300
_cell_length_c   12.54516600
_cell_angle_alpha   90.00000000
_cell_angle_beta   90.00000000
_cell_angle_gamma   90.00000000
_symmetry_Int_Tables_number   1
_chemical_formula_structural   ErNbP3Rh4
_chemical_formula_sum   'Er4 Nb4 P12 Rh16'
_cell_volume   546.34200005
_cell_formula_units_Z   4
loop_
 _symmetry_equiv_pos_site_id
 _symmetry_equiv_pos_as_xyz
  1  'x, y, z'
loop_
 _atom_site_type_symbol
 _atom_site_label
 _atom_site_symmetry_multiplicity
 _atom_site_fract_x
 _atom_site_fract_y
 _atom_site_fract_z
 _atom_site_occupancy
  Er  Er0  1  0.250000  0.581978  0.705018  1
  Er  Er1  1  0.250000  0.918022  0.205018  1
  Er  Er2  1  0.750000  0.418022  0.294982  1
  Er  Er3  1  0.750000  0.081978  0.794982  1
  Nb  Nb4  1  0.250000  0.710637  0.989008  1
  Nb  Nb5  1  0.250000  0.789363  0.489008  1
  Nb  Nb6  1  0.750000  0.289363  0.010992  1
  Nb  Nb7  1  0.750000  0.210637  0.510992  1
  P  P8  1  0.250000  0.419692  0.117426  1
  P  P9  1  0.250000  0.080308  0.617426  1
  P  P10  1  0.750000  0.580308  0.882574  1
  P  P11  1  0.750000  0.919692  0.382574  1
  P  P12  1  0.250000  0.260579  0.868711  1
  P  P13  1  0.250000  0.239421  0.368711  1
  P  P14  1  0.750000  0.739421  0.131289  1
  P  P15  1  0.750000  0.760579  0.631289  1
  P  P16  1  0.250000  0.594954  0.391760  1
  P  P17  1  0.250000  0.905046  0.891760  1
  P  P18  1  0.750000  0.405046  0.608240  1
  P  P19  1  0.750000  0.094954  0.108240  1
  Rh  Rh20  1  0.250000  0.408184  0.487045  1
  Rh  Rh21  1  0.250000  0.091817  0.987045  1
  Rh  Rh22  1  0.750000  0.591816  0.512955  1
  Rh  Rh23  1  0.750000  0.908184  0.012955  1
  Rh  Rh24  1  0.250000  0.229323  0.182088  1
  Rh  Rh25  1  0.250000  0.270677  0.682088  1
  Rh  Rh26  1  0.750000  0.770677  0.817912  1
  Rh  Rh27  1  0.750000  0.729323  0.317912  1
  Rh  Rh28  1  0.250000  0.894633  0.706053  1
  Rh  Rh29  1  0.250000  0.605367  0.206053  1
  Rh  Rh30  1  0.750000  0.105367  0.293947  1
  Rh  Rh31  1  0.750000  0.394633  0.793947  1
  Rh  Rh32  1  0.250000  0.462076  0.933019  1
  Rh  Rh33  1  0.250000  0.037924  0.433019  1
  Rh  Rh34  1  0.750000  0.537924  0.066981  1
  Rh  Rh35  1  0.750000  0.962076  0.566981  1
