# generated using pymatgen
data_BaYb2Pt9
_symmetry_space_group_name_H-M   'P 1'
_cell_length_a   9.34817178
_cell_length_b   9.34817193
_cell_length_c   9.34817162
_cell_angle_alpha   34.27783468
_cell_angle_beta   34.27783385
_cell_angle_gamma   34.27783276
_symmetry_Int_Tables_number   1
_chemical_formula_structural   BaYb2Pt9
_chemical_formula_sum   'Ba1 Yb2 Pt9'
_cell_volume   231.08821166
_cell_formula_units_Z   1
loop_
 _symmetry_equiv_pos_site_id
 _symmetry_equiv_pos_as_xyz
  1  'x, y, z'
loop_
 _atom_site_type_symbol
 _atom_site_label
 _atom_site_symmetry_multiplicity
 _atom_site_fract_x
 _atom_site_fract_y
 _atom_site_fract_z
 _atom_site_occupancy
  Ba  Ba0  1  0.000000  0.000000  0.000000  1
  Yb  Yb1  1  0.141432  0.141432  0.141432  1
  Yb  Yb2  1  0.858568  0.858568  0.858568  1
  Pt  Pt3  1  0.587397  0.587397  0.081695  1
  Pt  Pt4  1  0.332167  0.332167  0.332167  1
  Pt  Pt5  1  0.918306  0.412602  0.412603  1
  Pt  Pt6  1  0.412602  0.918306  0.412603  1
  Pt  Pt7  1  0.500000  0.500000  0.500000  1
  Pt  Pt8  1  0.587398  0.081694  0.587397  1
  Pt  Pt9  1  0.081694  0.587398  0.587397  1
  Pt  Pt10  1  0.667833  0.667833  0.667833  1
  Pt  Pt11  1  0.412603  0.412603  0.918306  1
