# generated using pymatgen
data_Y3Tm2(FeB3)2
_symmetry_space_group_name_H-M   'P 1'
_cell_length_a   5.40235866
_cell_length_b   5.40235853
_cell_length_c   8.26149844
_cell_angle_alpha   70.91564138
_cell_angle_beta   70.91564343
_cell_angle_gamma   59.99999680
_symmetry_Int_Tables_number   1
_chemical_formula_structural   Y3Tm2(FeB3)2
_chemical_formula_sum   'Y3 Tm2 Fe2 B6'
_cell_volume   193.35880124
_cell_formula_units_Z   1
loop_
 _symmetry_equiv_pos_site_id
 _symmetry_equiv_pos_as_xyz
  1  'x, y, z'
loop_
 _atom_site_type_symbol
 _atom_site_label
 _atom_site_symmetry_multiplicity
 _atom_site_fract_x
 _atom_site_fract_y
 _atom_site_fract_z
 _atom_site_occupancy
  Y  Y0  1  0.000000  0.000000  0.000000  1
  Y  Y1  1  0.747746  0.747746  0.756762  1
  Y  Y2  1  0.252254  0.252254  0.243238  1
  Tm  Tm3  1  0.581840  0.581840  0.254481  1
  Tm  Tm4  1  0.418160  0.418160  0.745519  1
  Fe  Fe5  1  0.881635  0.881635  0.355095  1
  Fe  Fe6  1  0.118365  0.118365  0.644905  1
  B  B7  1  0.500000  0.168229  0.500000  1
  B  B8  1  0.831771  0.500000  0.500000  1
  B  B9  1  0.168229  0.831771  0.500000  1
  B  B10  1  0.168229  0.500000  0.500000  1
  B  B11  1  0.831771  0.168229  0.500000  1
  B  B12  1  0.500000  0.831771  0.500000  1
