# generated using pymatgen
data_TbHg3(Pt2O7)2
_symmetry_space_group_name_H-M   'P 1'
_cell_length_a   7.28532430
_cell_length_b   7.36300756
_cell_length_c   7.28532400
_cell_angle_alpha   60.34839899
_cell_angle_beta   60.00000134
_cell_angle_gamma   60.34839854
_symmetry_Int_Tables_number   1
_chemical_formula_structural   TbHg3(Pt2O7)2
_chemical_formula_sum   'Tb1 Hg3 Pt4 O14'
_cell_volume   277.78261766
_cell_formula_units_Z   1
loop_
 _symmetry_equiv_pos_site_id
 _symmetry_equiv_pos_as_xyz
  1  'x, y, z'
loop_
 _atom_site_type_symbol
 _atom_site_label
 _atom_site_symmetry_multiplicity
 _atom_site_fract_x
 _atom_site_fract_y
 _atom_site_fract_z
 _atom_site_occupancy
  Tb  Tb0  1  0.125000  0.625000  0.125000  1
  Hg  Hg1  1  0.125000  0.125000  0.125000  1
  Hg  Hg2  1  0.625000  0.125000  0.125000  1
  Hg  Hg3  1  0.125000  0.125000  0.625000  1
  Pt  Pt4  1  0.625000  0.625000  0.125000  1
  Pt  Pt5  1  0.625000  0.625000  0.625000  1
  Pt  Pt6  1  0.625000  0.125000  0.625000  1
  Pt  Pt7  1  0.125000  0.625000  0.625000  1
  O  O8  1  0.703101  0.298936  0.294862  1
  O  O9  1  0.703101  0.298936  0.703101  1
  O  O10  1  0.996105  0.011685  0.996105  1
  O  O11  1  0.292664  0.691782  0.292664  1
  O  O12  1  0.722891  0.691782  0.292664  1
  O  O13  1  0.957336  0.558218  0.527109  1
  O  O14  1  0.292664  0.691782  0.722891  1
  O  O15  1  0.253895  0.238315  0.253895  1
  O  O16  1  0.957336  0.558218  0.957336  1
  O  O17  1  0.546899  0.951064  0.546899  1
  O  O18  1  0.527109  0.558218  0.957336  1
  O  O19  1  0.955138  0.951064  0.546899  1
  O  O20  1  0.546899  0.951064  0.955138  1
  O  O21  1  0.294862  0.298936  0.703101  1
