# generated using pymatgen
data_Dy3Y6ErBi6
_symmetry_space_group_name_H-M   'P 1'
_cell_length_a   9.22524700
_cell_length_b   9.22524566
_cell_length_c   6.36742500
_cell_angle_alpha   90.00000000
_cell_angle_beta   90.00000000
_cell_angle_gamma   120.00000122
_symmetry_Int_Tables_number   1
_chemical_formula_structural   Dy3Y6ErBi6
_chemical_formula_sum   'Dy3 Y6 Er1 Bi6'
_cell_volume   469.29984138
_cell_formula_units_Z   1
loop_
 _symmetry_equiv_pos_site_id
 _symmetry_equiv_pos_as_xyz
  1  'x, y, z'
loop_
 _atom_site_type_symbol
 _atom_site_label
 _atom_site_symmetry_multiplicity
 _atom_site_fract_x
 _atom_site_fract_y
 _atom_site_fract_z
 _atom_site_occupancy
  Dy  Dy0  1  0.666667  0.333333  0.000000  1
  Dy  Dy1  1  0.333333  0.666667  0.000000  1
  Dy  Dy2  1  0.333333  0.666667  0.500000  1
  Y  Y3  1  0.754694  0.755038  0.750463  1
  Y  Y4  1  0.244962  0.999655  0.750463  1
  Y  Y5  1  0.000345  0.245306  0.750463  1
  Y  Y6  1  0.244962  0.245306  0.249537  1
  Y  Y7  1  0.754694  0.999655  0.249537  1
  Y  Y8  1  0.000345  0.755038  0.249537  1
  Er  Er9  1  0.666667  0.333333  0.500000  1
  Bi  Bi10  1  0.388145  0.387994  0.749858  1
  Bi  Bi11  1  0.612006  0.000151  0.749858  1
  Bi  Bi12  1  0.999849  0.611855  0.749858  1
  Bi  Bi13  1  0.612006  0.611855  0.250142  1
  Bi  Bi14  1  0.388145  0.000151  0.250142  1
  Bi  Bi15  1  0.999849  0.387994  0.250142  1
