# generated using pymatgen
data_La6Pr4InSi4Ge
_symmetry_space_group_name_H-M   'P 1'
_cell_length_a   7.91286600
_cell_length_b   9.32781290
_cell_length_c   7.91286600
_cell_angle_alpha   115.09715221
_cell_angle_beta   90.00000000
_cell_angle_gamma   115.09715221
_symmetry_Int_Tables_number   1
_chemical_formula_structural   La6Pr4InSi4Ge
_chemical_formula_sum   'La6 Pr4 In1 Si4 Ge1'
_cell_volume   467.30514042
_cell_formula_units_Z   1
loop_
 _symmetry_equiv_pos_site_id
 _symmetry_equiv_pos_as_xyz
  1  'x, y, z'
loop_
 _atom_site_type_symbol
 _atom_site_label
 _atom_site_symmetry_multiplicity
 _atom_site_fract_x
 _atom_site_fract_y
 _atom_site_fract_z
 _atom_site_occupancy
  La  La0  1  0.974322  0.948644  0.974322  1
  La  La1  1  0.526164  0.052327  0.526164  1
  La  La2  1  0.524869  0.721353  0.673233  1
  La  La3  1  0.196486  0.721353  0.048121  1
  La  La4  1  0.673233  0.721353  0.196486  1
  La  La5  1  0.048121  0.721353  0.524869  1
  Pr  Pr6  1  0.450876  0.277961  0.303092  1
  Pr  Pr7  1  0.827084  0.277961  0.974867  1
  Pr  Pr8  1  0.303092  0.277961  0.827084  1
  Pr  Pr9  1  0.974867  0.277961  0.450876  1
  In  In10  1  0.748748  0.497497  0.748748  1
  Si  Si11  1  0.886514  0.002110  0.615813  1
  Si  Si12  1  0.115596  0.002110  0.386297  1
  Si  Si13  1  0.615813  0.002110  0.115596  1
  Si  Si14  1  0.386297  0.002110  0.886514  1
  Ge  Ge15  1  0.247918  0.495836  0.247918  1
