# generated using pymatgen
data_MoAsPCl13
_symmetry_space_group_name_H-M   'P 1'
_cell_length_a   9.71750102
_cell_length_b   9.71750078
_cell_length_c   12.01014200
_cell_angle_alpha   90.00000000
_cell_angle_beta   90.00000000
_cell_angle_gamma   115.02775230
_symmetry_Int_Tables_number   1
_chemical_formula_structural   MoAsPCl13
_chemical_formula_sum   'Mo2 As2 P2 Cl26'
_cell_volume   1027.62551422
_cell_formula_units_Z   2
loop_
 _symmetry_equiv_pos_site_id
 _symmetry_equiv_pos_as_xyz
  1  'x, y, z'
loop_
 _atom_site_type_symbol
 _atom_site_label
 _atom_site_symmetry_multiplicity
 _atom_site_fract_x
 _atom_site_fract_y
 _atom_site_fract_z
 _atom_site_occupancy
  Mo  Mo0  1  0.206458  0.793542  0.501295  1
  Mo  Mo1  1  0.793542  0.206458  0.001295  1
  As  As2  1  0.549384  0.450616  0.150196  1
  As  As3  1  0.450616  0.549384  0.650196  1
  P  P4  1  0.141323  0.858677  0.963269  1
  P  P5  1  0.858677  0.141323  0.463269  1
  Cl  Cl6  1  0.376255  0.302245  0.627050  1
  Cl  Cl7  1  0.745536  0.254464  0.411733  1
  Cl  Cl8  1  0.447156  0.552844  0.835383  1
  Cl  Cl9  1  0.307061  0.009976  0.387867  1
  Cl  Cl10  1  0.067057  0.238069  0.406637  1
  Cl  Cl11  1  0.254464  0.745536  0.911733  1
  Cl  Cl12  1  0.302245  0.376255  0.127050  1
  Cl  Cl13  1  0.009976  0.307061  0.887867  1
  Cl  Cl14  1  0.990024  0.692939  0.387867  1
  Cl  Cl15  1  0.932943  0.761931  0.906637  1
  Cl  Cl16  1  0.552844  0.447156  0.335383  1
  Cl  Cl17  1  0.139487  0.860513  0.126313  1
  Cl  Cl18  1  0.894670  0.425273  0.116331  1
  Cl  Cl19  1  0.325300  0.674700  0.394140  1
  Cl  Cl20  1  0.910378  0.089622  0.113901  1
  Cl  Cl21  1  0.692939  0.990024  0.887867  1
  Cl  Cl22  1  0.761931  0.932943  0.406637  1
  Cl  Cl23  1  0.238069  0.067057  0.906637  1
  Cl  Cl24  1  0.674700  0.325300  0.894140  1
  Cl  Cl25  1  0.623745  0.697755  0.127050  1
  Cl  Cl26  1  0.574727  0.105330  0.116331  1
  Cl  Cl27  1  0.860513  0.139487  0.626313  1
  Cl  Cl28  1  0.425273  0.894670  0.616331  1
  Cl  Cl29  1  0.697755  0.623745  0.627050  1
  Cl  Cl30  1  0.089622  0.910378  0.613901  1
  Cl  Cl31  1  0.105330  0.574727  0.616331  1
