# generated using pymatgen
data_NdSi4(RuRh)3
_symmetry_space_group_name_H-M   'P 1'
_cell_length_a   7.03572500
_cell_length_b   7.03572424
_cell_length_c   3.83698600
_cell_angle_alpha   90.00000000
_cell_angle_beta   90.00000000
_cell_angle_gamma   119.99999885
_symmetry_Int_Tables_number   1
_chemical_formula_structural   NdSi4(RuRh)3
_chemical_formula_sum   'Nd1 Si4 Ru3 Rh3'
_cell_volume   164.48962747
_cell_formula_units_Z   1
loop_
 _symmetry_equiv_pos_site_id
 _symmetry_equiv_pos_as_xyz
  1  'x, y, z'
loop_
 _atom_site_type_symbol
 _atom_site_label
 _atom_site_symmetry_multiplicity
 _atom_site_fract_x
 _atom_site_fract_y
 _atom_site_fract_z
 _atom_site_occupancy
  Nd  Nd0  1  0.000000  0.000000  0.000000  1
  Si  Si1  1  0.333334  0.666667  0.000000  1
  Si  Si2  1  0.404649  0.202325  0.500000  1
  Si  Si3  1  0.797676  0.202325  0.500000  1
  Si  Si4  1  0.797676  0.595352  0.500000  1
  Ru  Ru5  1  0.534771  0.069540  0.000000  1
  Ru  Ru6  1  0.534770  0.465230  0.000000  1
  Ru  Ru7  1  0.930460  0.465230  0.000000  1
  Rh  Rh8  1  0.199949  0.399898  0.500000  1
  Rh  Rh9  1  0.199948  0.800051  0.500000  1
  Rh  Rh10  1  0.600102  0.800051  0.500000  1
