# generated using pymatgen
data_Sr3LaAl18OsPd5
_symmetry_space_group_name_H-M   'P 1'
_cell_length_a   7.75656974
_cell_length_b   7.74949783
_cell_length_c   9.74435024
_cell_angle_alpha   90.06119408
_cell_angle_beta   90.11597735
_cell_angle_gamma   119.40797072
_symmetry_Int_Tables_number   1
_chemical_formula_structural   Sr3LaAl18OsPd5
_chemical_formula_sum   'Sr3 La1 Al18 Os1 Pd5'
_cell_volume   510.25203399
_cell_formula_units_Z   1
loop_
 _symmetry_equiv_pos_site_id
 _symmetry_equiv_pos_as_xyz
  1  'x, y, z'
loop_
 _atom_site_type_symbol
 _atom_site_label
 _atom_site_symmetry_multiplicity
 _atom_site_fract_x
 _atom_site_fract_y
 _atom_site_fract_z
 _atom_site_occupancy
  Sr  Sr0  1  0.994437  0.670824  0.248716  1
  Sr  Sr1  1  0.004763  0.329746  0.750007  1
  Sr  Sr2  1  0.671391  0.994681  0.249930  1
  La  La3  1  0.330073  0.002460  0.752128  1
  Al  Al4  1  0.134471  0.137045  0.248922  1
  Al  Al5  1  0.866610  0.865732  0.750749  1
  Al  Al6  1  0.996180  0.334211  0.071104  1
  Al  Al7  1  0.990918  0.657219  0.926467  1
  Al  Al8  1  0.994338  0.664944  0.575654  1
  Al  Al9  1  0.334875  0.006527  0.424304  1
  Al  Al10  1  0.006225  0.335942  0.426445  1
  Al  Al11  1  0.665219  0.995023  0.574903  1
  Al  Al12  1  0.667306  0.002876  0.927999  1
  Al  Al13  1  0.341927  0.009243  0.074061  1
  Al  Al14  1  0.335838  0.335694  0.550124  1
  Al  Al15  1  0.662522  0.662804  0.453105  1
  Al  Al16  1  0.665367  0.660362  0.040604  1
  Al  Al17  1  0.337695  0.333783  0.957001  1
  Al  Al18  1  0.338251  0.541453  0.249094  1
  Al  Al19  1  0.657540  0.454064  0.754591  1
  Al  Al20  1  0.544922  0.340839  0.244470  1
  Al  Al21  1  0.460793  0.664697  0.750859  1
  Os  Os22  1  0.668432  0.328375  0.998560  1
  Pd  Pd23  1  0.329166  0.670920  0.998805  1
  Pd  Pd24  1  0.329001  0.671301  0.501174  1
  Pd  Pd25  1  0.669797  0.329039  0.500643  1
  Pd  Pd26  1  0.001106  0.000031  0.998784  1
  Pd  Pd27  1  0.000837  0.000167  0.500799  1
