# generated using pymatgen
data_Nd3Sm(ZnSi3)2
_symmetry_space_group_name_H-M   'P 1'
_cell_length_a   8.24452383
_cell_length_b   8.18879916
_cell_length_c   5.86901029
_cell_angle_alpha   69.58428463
_cell_angle_beta   68.56801152
_cell_angle_gamma   41.84769180
_symmetry_Int_Tables_number   1
_chemical_formula_structural   Nd3Sm(ZnSi3)2
_chemical_formula_sum   'Nd3 Sm1 Zn2 Si6'
_cell_volume   244.18792937
_cell_formula_units_Z   1
loop_
 _symmetry_equiv_pos_site_id
 _symmetry_equiv_pos_as_xyz
  1  'x, y, z'
loop_
 _atom_site_type_symbol
 _atom_site_label
 _atom_site_symmetry_multiplicity
 _atom_site_fract_x
 _atom_site_fract_y
 _atom_site_fract_z
 _atom_site_occupancy
  Nd  Nd0  1  0.244576  0.755424  0.244576  1
  Nd  Nd1  1  0.755424  0.244576  0.755424  1
  Nd  Nd2  1  0.250000  0.250000  0.250000  1
  Sm  Sm3  1  0.750000  0.750000  0.750000  1
  Zn  Zn4  1  0.333565  0.333565  0.666435  1
  Zn  Zn5  1  0.666435  0.666435  0.333565  1
  Si  Si6  1  0.166669  0.166669  0.833331  1
  Si  Si7  1  0.833331  0.833331  0.166669  1
  Si  Si8  1  0.832412  0.334220  0.167157  1
  Si  Si9  1  0.666211  0.167157  0.334220  1
  Si  Si10  1  0.334220  0.832412  0.666211  1
  Si  Si11  1  0.167157  0.666211  0.832412  1
