# generated using pymatgen
data_LiEu2ZnP3
_symmetry_space_group_name_H-M   'P 1'
_cell_length_a   7.89196770
_cell_length_b   7.89196727
_cell_length_c   11.55002568
_cell_angle_alpha   55.19935091
_cell_angle_beta   55.19935408
_cell_angle_gamma   30.23063694
_symmetry_Int_Tables_number   1
_chemical_formula_structural   LiEu2ZnP3
_chemical_formula_sum   'Li2 Eu4 Zn2 P6'
_cell_volume   292.12240856
_cell_formula_units_Z   2
loop_
 _symmetry_equiv_pos_site_id
 _symmetry_equiv_pos_as_xyz
  1  'x, y, z'
loop_
 _atom_site_type_symbol
 _atom_site_label
 _atom_site_symmetry_multiplicity
 _atom_site_fract_x
 _atom_site_fract_y
 _atom_site_fract_z
 _atom_site_occupancy
  Li  Li0  1  0.040670  0.040670  0.674195  1
  Li  Li1  1  0.959330  0.959330  0.325805  1
  Eu  Eu2  1  0.267595  0.267595  0.334689  1
  Eu  Eu3  1  0.732405  0.732405  0.665311  1
  Eu  Eu4  1  0.392500  0.392500  0.945898  1
  Eu  Eu5  1  0.607500  0.607500  0.054102  1
  Zn  Zn6  1  0.414626  0.414626  0.652002  1
  Zn  Zn7  1  0.585374  0.585374  0.347998  1
  P  P8  1  0.069037  0.069037  0.884806  1
  P  P9  1  0.930963  0.930963  0.115194  1
  P  P10  1  0.159337  0.159337  0.194414  1
  P  P11  1  0.840663  0.840663  0.805586  1
  P  P12  1  0.381806  0.381806  0.469399  1
  P  P13  1  0.618194  0.618194  0.530601  1
