# generated using pymatgen
data_HfCo21B6As
_symmetry_space_group_name_H-M   'P 1'
_cell_length_a   7.41386438
_cell_length_b   7.41386455
_cell_length_c   7.41386500
_cell_angle_alpha   60.00000248
_cell_angle_beta   60.00000168
_cell_angle_gamma   59.99999676
_symmetry_Int_Tables_number   1
_chemical_formula_structural   HfCo21B6As
_chemical_formula_sum   'Hf1 Co21 B6 As1'
_cell_volume   288.15022536
_cell_formula_units_Z   1
loop_
 _symmetry_equiv_pos_site_id
 _symmetry_equiv_pos_as_xyz
  1  'x, y, z'
loop_
 _atom_site_type_symbol
 _atom_site_label
 _atom_site_symmetry_multiplicity
 _atom_site_fract_x
 _atom_site_fract_y
 _atom_site_fract_z
 _atom_site_occupancy
  Hf  Hf0  1  0.750000  0.750000  0.750000  1
  Co  Co1  1  0.998473  0.998473  0.337832  1
  Co  Co2  1  0.665222  0.998473  0.337832  1
  Co  Co3  1  0.998473  0.665222  0.337832  1
  Co  Co4  1  0.665222  0.337832  0.998473  1
  Co  Co5  1  0.998473  0.337832  0.998473  1
  Co  Co6  1  0.998473  0.337832  0.665222  1
  Co  Co7  1  0.337832  0.665222  0.998473  1
  Co  Co8  1  0.337832  0.998473  0.665222  1
  Co  Co9  1  0.337832  0.998473  0.998473  1
  Co  Co10  1  0.998473  0.998473  0.665222  1
  Co  Co11  1  0.998473  0.665222  0.998473  1
  Co  Co12  1  0.665222  0.998473  0.998473  1
  Co  Co13  1  0.610526  0.610526  0.168421  1
  Co  Co14  1  0.610526  0.168421  0.610526  1
  Co  Co15  1  0.168421  0.610526  0.610526  1
  Co  Co16  1  0.610526  0.610526  0.610526  1
  Co  Co17  1  0.375817  0.375817  0.872548  1
  Co  Co18  1  0.375817  0.872548  0.375817  1
  Co  Co19  1  0.872548  0.375817  0.375817  1
  Co  Co20  1  0.375817  0.375817  0.375817  1
  Co  Co21  1  0.000000  0.000000  0.000000  1
  B  B22  1  0.725119  0.725119  0.274881  1
  B  B23  1  0.274881  0.725119  0.274881  1
  B  B24  1  0.725119  0.274881  0.274881  1
  B  B25  1  0.274881  0.274881  0.725119  1
  B  B26  1  0.725119  0.274881  0.725119  1
  B  B27  1  0.274881  0.725119  0.725119  1
  As  As28  1  0.250000  0.250000  0.250000  1
