# generated using pymatgen
data_Nd3Np3(Sb4Au3)2
_symmetry_space_group_name_H-M   'P 1'
_cell_length_a   8.72363278
_cell_length_b   8.73877940
_cell_length_c   8.72363384
_cell_angle_alpha   109.86591522
_cell_angle_beta   109.21179818
_cell_angle_gamma   109.26610224
_symmetry_Int_Tables_number   1
_chemical_formula_structural   Nd3Np3(Sb4Au3)2
_chemical_formula_sum   'Nd3 Np3 Sb8 Au6'
_cell_volume   512.37081757
_cell_formula_units_Z   1
loop_
 _symmetry_equiv_pos_site_id
 _symmetry_equiv_pos_as_xyz
  1  'x, y, z'
loop_
 _atom_site_type_symbol
 _atom_site_label
 _atom_site_symmetry_multiplicity
 _atom_site_fract_x
 _atom_site_fract_y
 _atom_site_fract_z
 _atom_site_occupancy
  Nd  Nd0  1  0.125608  0.875069  0.251342  1
  Nd  Nd1  1  0.623636  0.750000  0.373636  1
  Nd  Nd2  1  0.376273  0.624931  0.750538  1
  Np  Np3  1  0.249728  0.123393  0.874360  1
  Np  Np4  1  0.750968  0.376607  0.626335  1
  Np  Np5  1  0.874743  0.250000  0.124743  1
  Sb  Sb6  1  0.321351  0.323332  0.320648  1
  Sb  Sb7  1  0.502963  0.004039  0.178230  1
  Sb  Sb8  1  0.174192  0.495961  0.998925  1
  Sb  Sb9  1  0.997315  0.176668  0.498019  1
  Sb  Sb10  1  0.825246  0.824117  0.824727  1
  Sb  Sb11  1  0.501301  0.003777  0.680159  1
  Sb  Sb12  1  0.000610  0.675883  0.501130  1
  Sb  Sb13  1  0.676381  0.496223  0.997524  1
  Au  Au14  1  0.373055  0.250000  0.623055  1
  Au  Au15  1  0.749758  0.873085  0.123932  1
  Au  Au16  1  0.250848  0.626915  0.376674  1
  Au  Au17  1  0.625733  0.377174  0.250525  1
  Au  Au18  1  0.126939  0.750000  0.876939  1
  Au  Au19  1  0.873351  0.122826  0.748559  1
