# generated using pymatgen
data_Hf3Ti2Ir2Pt
_symmetry_space_group_name_H-M   'P 1'
_cell_length_a   7.93430600
_cell_length_b   7.97153854
_cell_length_c   5.21415500
_cell_angle_alpha   90.00000000
_cell_angle_beta   90.00000000
_cell_angle_gamma   119.84562320
_symmetry_Int_Tables_number   1
_chemical_formula_structural   Hf3Ti2Ir2Pt
_chemical_formula_sum   'Hf6 Ti4 Ir4 Pt2'
_cell_volume   286.04815752
_cell_formula_units_Z   2
loop_
 _symmetry_equiv_pos_site_id
 _symmetry_equiv_pos_as_xyz
  1  'x, y, z'
loop_
 _atom_site_type_symbol
 _atom_site_label
 _atom_site_symmetry_multiplicity
 _atom_site_fract_x
 _atom_site_fract_y
 _atom_site_fract_z
 _atom_site_occupancy
  Hf  Hf0  1  0.243363  0.000000  0.250000  1
  Hf  Hf1  1  0.756637  0.000000  0.750000  1
  Hf  Hf2  1  0.004675  0.249584  0.250000  1
  Hf  Hf3  1  0.995325  0.750416  0.750000  1
  Hf  Hf4  1  0.755091  0.750416  0.250000  1
  Hf  Hf5  1  0.244909  0.249584  0.750000  1
  Ti  Ti6  1  0.330792  0.661585  0.000000  1
  Ti  Ti7  1  0.669208  0.338415  0.000000  1
  Ti  Ti8  1  0.669208  0.338415  0.500000  1
  Ti  Ti9  1  0.330792  0.661585  0.500000  1
  Ir  Ir10  1  0.001672  0.598603  0.250000  1
  Ir  Ir11  1  0.998328  0.401397  0.750000  1
  Ir  Ir12  1  0.403069  0.401397  0.250000  1
  Ir  Ir13  1  0.596931  0.598603  0.750000  1
  Pt  Pt14  1  0.597865  0.000000  0.250000  1
  Pt  Pt15  1  0.402135  0.000000  0.750000  1
