# generated using pymatgen
data_Y2ScGa5Ni
_symmetry_space_group_name_H-M   'P 1'
_cell_length_a   6.78588249
_cell_length_b   6.78588341
_cell_length_c   4.17840600
_cell_angle_alpha   90.00000000
_cell_angle_beta   90.00000000
_cell_angle_gamma   118.76754751
_symmetry_Int_Tables_number   1
_chemical_formula_structural   Y2ScGa5Ni
_chemical_formula_sum   'Y2 Sc1 Ga5 Ni1'
_cell_volume   168.66098338
_cell_formula_units_Z   1
loop_
 _symmetry_equiv_pos_site_id
 _symmetry_equiv_pos_as_xyz
  1  'x, y, z'
loop_
 _atom_site_type_symbol
 _atom_site_label
 _atom_site_symmetry_multiplicity
 _atom_site_fract_x
 _atom_site_fract_y
 _atom_site_fract_z
 _atom_site_occupancy
  Y  Y0  1  0.590876  0.997187  0.000000  1
  Y  Y1  1  0.997187  0.590876  0.000000  1
  Sc  Sc2  1  0.397863  0.397863  0.000000  1
  Ga  Ga3  1  0.238193  0.003681  0.500000  1
  Ga  Ga4  1  0.003681  0.238193  0.500000  1
  Ga  Ga5  1  0.763325  0.763325  0.500000  1
  Ga  Ga6  1  0.337554  0.657860  0.500000  1
  Ga  Ga7  1  0.657860  0.337554  0.500000  1
  Ni  Ni8  1  0.013461  0.013461  0.000000  1
