# generated using pymatgen
data_Er5Hg13
_symmetry_space_group_name_H-M   'P 1'
_cell_length_a   15.91195863
_cell_length_b   15.91195811
_cell_length_c   7.12923700
_cell_angle_alpha   95.06599235
_cell_angle_beta   95.06599219
_cell_angle_gamma   14.34502821
_symmetry_Int_Tables_number   1
_chemical_formula_structural   Er5Hg13
_chemical_formula_sum   'Er5 Hg13'
_cell_volume   445.44644231
_cell_formula_units_Z   1
loop_
 _symmetry_equiv_pos_site_id
 _symmetry_equiv_pos_as_xyz
  1  'x, y, z'
loop_
 _atom_site_type_symbol
 _atom_site_label
 _atom_site_symmetry_multiplicity
 _atom_site_fract_x
 _atom_site_fract_y
 _atom_site_fract_z
 _atom_site_occupancy
  Er  Er0  1  0.000000  0.000000  0.000000  1
  Er  Er1  1  0.672883  0.672883  0.320707  1
  Er  Er2  1  0.892388  0.892388  0.412949  1
  Er  Er3  1  0.107612  0.107612  0.587052  1
  Er  Er4  1  0.327117  0.327117  0.679293  1
  Hg  Hg5  1  0.111356  0.111356  0.080864  1
  Hg  Hg6  1  0.224576  0.224576  0.103965  1
  Hg  Hg7  1  0.334078  0.334078  0.165561  1
  Hg  Hg8  1  0.444194  0.444194  0.184511  1
  Hg  Hg9  1  0.556714  0.556714  0.299934  1
  Hg  Hg10  1  0.780030  0.780030  0.385866  1
  Hg  Hg11  1  0.000000  0.000000  0.500000  1
  Hg  Hg12  1  0.219970  0.219970  0.614135  1
  Hg  Hg13  1  0.443286  0.443286  0.700066  1
  Hg  Hg14  1  0.555806  0.555806  0.815488  1
  Hg  Hg15  1  0.665921  0.665921  0.834439  1
  Hg  Hg16  1  0.775423  0.775423  0.896034  1
  Hg  Hg17  1  0.888645  0.888645  0.919137  1
