# generated using pymatgen
data_CaHf(UH6)2
_symmetry_space_group_name_H-M   'P 1'
_cell_length_a   6.46859800
_cell_length_b   6.46226600
_cell_length_c   6.46226600
_cell_angle_alpha   90.00000000
_cell_angle_beta   90.00000000
_cell_angle_gamma   90.00000000
_symmetry_Int_Tables_number   1
_chemical_formula_structural   CaHf(UH6)2
_chemical_formula_sum   'Ca2 Hf2 U4 H24'
_cell_volume   270.13435684
_cell_formula_units_Z   2
loop_
 _symmetry_equiv_pos_site_id
 _symmetry_equiv_pos_as_xyz
  1  'x, y, z'
loop_
 _atom_site_type_symbol
 _atom_site_label
 _atom_site_symmetry_multiplicity
 _atom_site_fract_x
 _atom_site_fract_y
 _atom_site_fract_z
 _atom_site_occupancy
  Ca  Ca0  1  0.250000  0.000000  0.500000  1
  Ca  Ca1  1  0.750000  0.000000  0.500000  1
  Hf  Hf2  1  0.000000  0.000000  0.000000  1
  Hf  Hf3  1  0.500000  0.500000  0.500000  1
  U  U4  1  0.000000  0.500000  0.251459  1
  U  U5  1  0.000000  0.500000  0.748541  1
  U  U6  1  0.500000  0.751459  0.000000  1
  U  U7  1  0.500000  0.248541  0.000000  1
  H  H8  1  0.000000  0.155680  0.277233  1
  H  H9  1  0.500000  0.222767  0.655680  1
  H  H10  1  0.500000  0.777233  0.344320  1
  H  H11  1  0.798671  0.647271  0.500000  1
  H  H12  1  0.201329  0.647271  0.500000  1
  H  H13  1  0.348857  0.500000  0.792140  1
  H  H14  1  0.651143  0.500000  0.792140  1
  H  H15  1  0.298671  0.000000  0.147271  1
  H  H16  1  0.151143  0.292140  0.000000  1
  H  H17  1  0.848857  0.707860  0.000000  1
  H  H18  1  0.298671  0.000000  0.852729  1
  H  H19  1  0.848857  0.292140  0.000000  1
  H  H20  1  0.701329  0.000000  0.147271  1
  H  H21  1  0.701329  0.000000  0.852729  1
  H  H22  1  0.151143  0.707860  0.000000  1
  H  H23  1  0.000000  0.844320  0.722767  1
  H  H24  1  0.000000  0.155680  0.722767  1
  H  H25  1  0.000000  0.844320  0.277233  1
  H  H26  1  0.651143  0.500000  0.207860  1
  H  H27  1  0.348857  0.500000  0.207860  1
  H  H28  1  0.798671  0.352729  0.500000  1
  H  H29  1  0.201329  0.352729  0.500000  1
  H  H30  1  0.500000  0.777233  0.655680  1
  H  H31  1  0.500000  0.222767  0.344320  1
