# generated using pymatgen
data_TbSmP7(Rh3W)3
_symmetry_space_group_name_H-M   'P 1'
_cell_length_a   3.95706809
_cell_length_b   9.53902707
_cell_length_c   9.54038603
_cell_angle_alpha   120.00883116
_cell_angle_beta   90.00201383
_cell_angle_gamma   89.99414730
_symmetry_Int_Tables_number   1
_chemical_formula_structural   TbSmP7(Rh3W)3
_chemical_formula_sum   'Tb1 Sm1 P7 Rh9 W3'
_cell_volume   311.84266135
_cell_formula_units_Z   1
loop_
 _symmetry_equiv_pos_site_id
 _symmetry_equiv_pos_as_xyz
  1  'x, y, z'
loop_
 _atom_site_type_symbol
 _atom_site_label
 _atom_site_symmetry_multiplicity
 _atom_site_fract_x
 _atom_site_fract_y
 _atom_site_fract_z
 _atom_site_occupancy
  Tb  Tb0  1  0.761749  0.333327  0.666676  1
  Sm  Sm1  1  0.262032  0.666663  0.333318  1
  P  P2  1  0.262119  0.000061  0.999987  1
  P  P3  1  0.761801  0.883094  0.593985  1
  P  P4  1  0.761794  0.405989  0.289114  1
  P  P5  1  0.761797  0.710865  0.116904  1
  P  P6  1  0.261937  0.117677  0.412988  1
  P  P7  1  0.261922  0.587026  0.704659  1
  P  P8  1  0.261920  0.295319  0.882324  1
  Rh  Rh9  1  0.261948  0.886519  0.159404  1
  Rh  Rh10  1  0.261939  0.840595  0.727088  1
  Rh  Rh11  1  0.261937  0.272842  0.113493  1
  Rh  Rh12  1  0.761909  0.612720  0.562414  1
  Rh  Rh13  1  0.761906  0.437579  0.050291  1
  Rh  Rh14  1  0.761891  0.949654  0.387250  1
  Rh  Rh15  1  0.261835  0.368803  0.437417  1
  Rh  Rh16  1  0.261828  0.562614  0.931452  1
  Rh  Rh17  1  0.261841  0.068623  0.631231  1
  W  W18  1  0.761970  0.090026  0.870940  1
  W  W19  1  0.761965  0.129103  0.219133  1
  W  W20  1  0.761955  0.780901  0.909932  1
