# generated using pymatgen
data_Ce2SmAl9Si3Os4
_symmetry_space_group_name_H-M   'P 1'
_cell_length_a   8.79552605
_cell_length_b   8.77055879
_cell_length_c   9.54006600
_cell_angle_alpha   90.00000000
_cell_angle_beta   90.00000000
_cell_angle_gamma   120.03436887
_symmetry_Int_Tables_number   1
_chemical_formula_structural   Ce2SmAl9Si3Os4
_chemical_formula_sum   'Ce4 Sm2 Al18 Si6 Os8'
_cell_volume   637.11903940
_cell_formula_units_Z   2
loop_
 _symmetry_equiv_pos_site_id
 _symmetry_equiv_pos_as_xyz
  1  'x, y, z'
loop_
 _atom_site_type_symbol
 _atom_site_label
 _atom_site_symmetry_multiplicity
 _atom_site_fract_x
 _atom_site_fract_y
 _atom_site_fract_z
 _atom_site_occupancy
  Ce  Ce0  1  0.191838  0.383115  0.250000  1
  Ce  Ce1  1  0.808162  0.616885  0.750000  1
  Ce  Ce2  1  0.614085  0.808550  0.250000  1
  Ce  Ce3  1  0.385915  0.191450  0.750000  1
  Sm  Sm4  1  0.195969  0.808397  0.250000  1
  Sm  Sm5  1  0.804031  0.191603  0.750000  1
  Al  Al6  1  0.164110  0.328579  0.577595  1
  Al  Al7  1  0.835890  0.671421  0.422405  1
  Al  Al8  1  0.671963  0.835584  0.575708  1
  Al  Al9  1  0.835890  0.671421  0.077595  1
  Al  Al10  1  0.328037  0.164416  0.424292  1
  Al  Al11  1  0.164110  0.328579  0.922405  1
  Al  Al12  1  0.163039  0.835249  0.576625  1
  Al  Al13  1  0.328037  0.164416  0.075708  1
  Al  Al14  1  0.836961  0.164751  0.423375  1
  Al  Al15  1  0.671963  0.835584  0.924292  1
  Al  Al16  1  0.836961  0.164751  0.076625  1
  Al  Al17  1  0.163039  0.835249  0.923375  1
  Al  Al18  1  0.871315  0.432006  0.250000  1
  Al  Al19  1  0.128685  0.567994  0.750000  1
  Al  Al20  1  0.561662  0.431462  0.250000  1
  Al  Al21  1  0.438338  0.568538  0.750000  1
  Al  Al22  1  0.999346  0.998405  0.250000  1
  Al  Al23  1  0.000654  0.001595  0.750000  1
  Si  Si24  1  0.331316  0.664351  0.035672  1
  Si  Si25  1  0.668684  0.335649  0.964328  1
  Si  Si26  1  0.668684  0.335649  0.535672  1
  Si  Si27  1  0.331316  0.664351  0.464328  1
  Si  Si28  1  0.563472  0.126782  0.250000  1
  Si  Si29  1  0.436528  0.873218  0.750000  1
  Os  Os30  1  0.500000  0.000000  0.000000  1
  Os  Os31  1  0.000000  0.500000  0.000000  1
  Os  Os32  1  0.500000  0.000000  0.500000  1
  Os  Os33  1  0.500000  0.500000  0.000000  1
  Os  Os34  1  0.000000  0.500000  0.500000  1
  Os  Os35  1  0.500000  0.500000  0.500000  1
  Os  Os36  1  0.000000  0.000000  0.000000  1
  Os  Os37  1  0.000000  0.000000  0.500000  1
