# generated using pymatgen
data_Tm3GaCo9P5
_symmetry_space_group_name_H-M   'P 1'
_cell_length_a   10.51618200
_cell_length_b   3.71802500
_cell_length_c   12.27365900
_cell_angle_alpha   90.00000000
_cell_angle_beta   90.00000000
_cell_angle_gamma   90.00000000
_symmetry_Int_Tables_number   1
_chemical_formula_structural   Tm3GaCo9P5
_chemical_formula_sum   'Tm6 Ga2 Co18 P10'
_cell_volume   479.89304122
_cell_formula_units_Z   2
loop_
 _symmetry_equiv_pos_site_id
 _symmetry_equiv_pos_as_xyz
  1  'x, y, z'
loop_
 _atom_site_type_symbol
 _atom_site_label
 _atom_site_symmetry_multiplicity
 _atom_site_fract_x
 _atom_site_fract_y
 _atom_site_fract_z
 _atom_site_occupancy
  Tm  Tm0  1  0.070550  0.750001  0.206880  1
  Tm  Tm1  1  0.429449  0.750001  0.206880  1
  Tm  Tm2  1  0.250000  0.750001  0.478269  1
  Tm  Tm3  1  0.750000  0.250001  0.529068  1
  Tm  Tm4  1  0.565827  0.250001  0.792898  1
  Tm  Tm5  1  0.934173  0.250001  0.792898  1
  Ga  Ga6  1  0.607343  0.250001  0.110717  1
  Ga  Ga7  1  0.892658  0.250001  0.110717  1
  Co  Co8  1  0.086925  0.250001  0.000084  1
  Co  Co9  1  0.413075  0.250001  0.000084  1
  Co  Co10  1  0.250000  0.750001  0.012897  1
  Co  Co11  1  0.750000  0.750001  0.172725  1
  Co  Co12  1  0.630972  0.250001  0.308158  1
  Co  Co13  1  0.869028  0.250001  0.308158  1
  Co  Co14  1  0.250000  0.250001  0.295961  1
  Co  Co15  1  0.543703  0.750001  0.434966  1
  Co  Co16  1  0.956298  0.750001  0.434966  1
  Co  Co17  1  0.049239  0.250001  0.569046  1
  Co  Co18  1  0.450761  0.250001  0.569046  1
  Co  Co19  1  0.750000  0.750001  0.696734  1
  Co  Co20  1  0.129789  0.750001  0.707951  1
  Co  Co21  1  0.370211  0.750001  0.707951  1
  Co  Co22  1  0.250000  0.250001  0.839203  1
  Co  Co23  1  0.750000  0.250001  0.964682  1
  Co  Co24  1  0.582240  0.750001  0.982391  1
  Co  Co25  1  0.917760  0.750001  0.982391  1
  P  P26  1  0.250000  0.250001  0.114972  1
  P  P27  1  0.750000  0.750001  0.350437  1
  P  P28  1  0.062980  0.250001  0.384619  1
  P  P29  1  0.437020  0.250001  0.384619  1
  P  P30  1  0.558411  0.750001  0.617597  1
  P  P31  1  0.941588  0.750001  0.617597  1
  P  P32  1  0.250000  0.250001  0.655504  1
  P  P33  1  0.750000  0.750001  0.875184  1
  P  P34  1  0.097371  0.750001  0.891874  1
  P  P35  1  0.402630  0.750001  0.891874  1
