# generated using pymatgen
data_Yb8TiSi16Tc11
_symmetry_space_group_name_H-M   'P 1'
_cell_length_a   6.79068375
_cell_length_b   6.78533900
_cell_length_c   12.61127256
_cell_angle_alpha   90.16220379
_cell_angle_beta   89.95063146
_cell_angle_gamma   90.06113845
_symmetry_Int_Tables_number   1
_chemical_formula_structural   Yb8TiSi16Tc11
_chemical_formula_sum   'Yb8 Ti1 Si16 Tc11'
_cell_volume   581.08788302
_cell_formula_units_Z   1
loop_
 _symmetry_equiv_pos_site_id
 _symmetry_equiv_pos_as_xyz
  1  'x, y, z'
loop_
 _atom_site_type_symbol
 _atom_site_label
 _atom_site_symmetry_multiplicity
 _atom_site_fract_x
 _atom_site_fract_y
 _atom_site_fract_z
 _atom_site_occupancy
  Yb  Yb0  1  0.329428  0.007881  0.469687  1
  Yb  Yb1  1  0.495186  0.830059  0.722952  1
  Yb  Yb2  1  0.505764  0.167838  0.222088  1
  Yb  Yb3  1  0.831991  0.494419  0.277065  1
  Yb  Yb4  1  0.167870  0.502945  0.779099  1
  Yb  Yb5  1  0.667265  0.994956  0.972427  1
  Yb  Yb6  1  0.008409  0.332552  0.528359  1
  Yb  Yb7  1  0.994295  0.667845  0.028221  1
  Ti  Ti8  1  0.990640  0.835161  0.621754  1
  Si  Si9  1  0.200056  0.119164  0.689788  1
  Si  Si10  1  0.376899  0.694924  0.941222  1
  Si  Si11  1  0.624224  0.308564  0.439243  1
  Si  Si12  1  0.695785  0.375174  0.061897  1
  Si  Si13  1  0.310138  0.627049  0.557792  1
  Si  Si14  1  0.805733  0.875876  0.190321  1
  Si  Si15  1  0.122839  0.196515  0.309712  1
  Si  Si16  1  0.877785  0.800210  0.813435  1
  Si  Si17  1  0.285335  0.974419  0.066754  1
  Si  Si18  1  0.530024  0.786895  0.317560  1
  Si  Si19  1  0.470717  0.213322  0.817000  1
  Si  Si20  1  0.784186  0.523626  0.686183  1
  Si  Si21  1  0.214764  0.471459  0.181720  1
  Si  Si22  1  0.702204  0.038745  0.564800  1
  Si  Si23  1  0.973667  0.284935  0.934667  1
  Si  Si24  1  0.033592  0.715407  0.427953  1
  Tc  Tc25  1  0.332736  0.332625  0.000627  1
  Tc  Tc26  1  0.169844  0.832098  0.247632  1
  Tc  Tc27  1  0.830837  0.163424  0.747749  1
  Tc  Tc28  1  0.670374  0.667197  0.501885  1
  Tc  Tc29  1  0.170952  0.991262  0.876506  1
  Tc  Tc30  1  0.511203  0.668813  0.124986  1
  Tc  Tc31  1  0.493380  0.330315  0.624494  1
  Tc  Tc32  1  0.668328  0.503326  0.880036  1
  Tc  Tc33  1  0.333187  0.491100  0.372809  1
  Tc  Tc34  1  0.831858  0.011970  0.374777  1
  Tc  Tc35  1  0.988501  0.167928  0.126801  1
