# generated using pymatgen
data_TbNd2Zr(Al3Ir)6
_symmetry_space_group_name_H-M   'P 1'
_cell_length_a   7.57486920
_cell_length_b   7.56477562
_cell_length_c   9.48709700
_cell_angle_alpha   90.00000000
_cell_angle_beta   90.00000000
_cell_angle_gamma   119.55074478
_symmetry_Int_Tables_number   1
_chemical_formula_structural   TbNd2Zr(Al3Ir)6
_chemical_formula_sum   'Tb1 Nd2 Zr1 Al18 Ir6'
_cell_volume   472.91540692
_cell_formula_units_Z   1
loop_
 _symmetry_equiv_pos_site_id
 _symmetry_equiv_pos_as_xyz
  1  'x, y, z'
loop_
 _atom_site_type_symbol
 _atom_site_label
 _atom_site_symmetry_multiplicity
 _atom_site_fract_x
 _atom_site_fract_y
 _atom_site_fract_z
 _atom_site_occupancy
  Tb  Tb0  1  0.670788  0.995580  0.250000  1
  Nd  Nd1  1  0.005052  0.327661  0.750000  1
  Nd  Nd2  1  0.329697  0.006271  0.750000  1
  Zr  Zr3  1  0.997222  0.672927  0.250000  1
  Al  Al4  1  0.124939  0.122579  0.250000  1
  Al  Al5  1  0.868445  0.866890  0.750000  1
  Al  Al6  1  0.000346  0.338413  0.080443  1
  Al  Al7  1  0.998121  0.665064  0.933969  1
  Al  Al8  1  0.998121  0.665064  0.566031  1
  Al  Al9  1  0.332301  0.998125  0.419430  1
  Al  Al10  1  0.000346  0.338413  0.419557  1
  Al  Al11  1  0.664527  0.996433  0.570684  1
  Al  Al12  1  0.664527  0.996433  0.929316  1
  Al  Al13  1  0.332301  0.998125  0.080570  1
  Al  Al14  1  0.334640  0.334785  0.543953  1
  Al  Al15  1  0.669265  0.667117  0.442892  1
  Al  Al16  1  0.669265  0.667117  0.057108  1
  Al  Al17  1  0.334640  0.334785  0.956047  1
  Al  Al18  1  0.336170  0.549926  0.250000  1
  Al  Al19  1  0.660997  0.454416  0.750000  1
  Al  Al20  1  0.556149  0.345186  0.250000  1
  Al  Al21  1  0.452999  0.659436  0.750000  1
  Ir  Ir22  1  0.672465  0.328873  0.002251  1
  Ir  Ir23  1  0.328505  0.672268  0.003082  1
  Ir  Ir24  1  0.328505  0.672268  0.496918  1
  Ir  Ir25  1  0.672465  0.328873  0.497749  1
  Ir  Ir26  1  0.998602  0.998486  0.002496  1
  Ir  Ir27  1  0.998602  0.998486  0.497504  1
