# generated using pymatgen
data_Be5Nb6NiRu6
_symmetry_space_group_name_H-M   'P 1'
_cell_length_a   7.36299694
_cell_length_b   7.36057912
_cell_length_c   7.36287058
_cell_angle_alpha   126.37747362
_cell_angle_beta   129.19011645
_cell_angle_gamma   77.00073098
_symmetry_Int_Tables_number   1
_chemical_formula_structural   Be5Nb6NiRu6
_chemical_formula_sum   'Be5 Nb6 Ni1 Ru6'
_cell_volume   241.72078585
_cell_formula_units_Z   1
loop_
 _symmetry_equiv_pos_site_id
 _symmetry_equiv_pos_as_xyz
  1  'x, y, z'
loop_
 _atom_site_type_symbol
 _atom_site_label
 _atom_site_symmetry_multiplicity
 _atom_site_fract_x
 _atom_site_fract_y
 _atom_site_fract_z
 _atom_site_occupancy
  Be  Be0  1  0.749976  0.496896  0.246689  1
  Be  Be1  1  0.250116  0.496625  0.747063  1
  Be  Be2  1  0.333802  0.830112  0.496844  1
  Be  Be3  1  0.665664  0.163604  0.495932  1
  Be  Be4  1  0.832892  0.829941  0.996434  1
  Nb  Nb5  1  0.548178  0.088655  0.038232  1
  Nb  Nb6  1  0.451577  0.503164  0.547173  1
  Nb  Nb7  1  0.956125  0.502647  0.050865  1
  Nb  Nb8  1  0.049904  0.088146  0.540319  1
  Nb  Nb9  1  0.748188  0.898562  0.653046  1
  Nb  Nb10  1  0.244979  0.897921  0.150118  1
  Ni  Ni11  1  0.167582  0.164317  0.998214  1
  Ru  Ru12  1  0.500318  0.240720  0.740433  1
  Ru  Ru13  1  0.993930  0.237127  0.243398  1
  Ru  Ru14  1  0.128722  0.742354  0.613893  1
  Ru  Ru15  1  0.871297  0.498547  0.627135  1
  Ru  Ru16  1  0.629312  0.754783  0.125464  1
  Ru  Ru17  1  0.377436  0.508079  0.130950  1
