# generated using pymatgen
data_Li8Ca6Zn8N
_symmetry_space_group_name_H-M   'P 1'
_cell_length_a   8.38960764
_cell_length_b   8.40933857
_cell_length_c   8.48589857
_cell_angle_alpha   109.87954774
_cell_angle_beta   110.09147677
_cell_angle_gamma   108.59712045
_symmetry_Int_Tables_number   1
_chemical_formula_structural   Li8Ca6Zn8N
_chemical_formula_sum   'Li8 Ca6 Zn8 N1'
_cell_volume   459.92187605
_cell_formula_units_Z   1
loop_
 _symmetry_equiv_pos_site_id
 _symmetry_equiv_pos_as_xyz
  1  'x, y, z'
loop_
 _atom_site_type_symbol
 _atom_site_label
 _atom_site_symmetry_multiplicity
 _atom_site_fract_x
 _atom_site_fract_y
 _atom_site_fract_z
 _atom_site_occupancy
  Li  Li0  1  0.670762  0.330408  0.336438  1
  Li  Li1  1  0.346303  0.006261  0.667937  1
  Li  Li2  1  0.345444  0.682174  0.342825  1
  Li  Li3  1  0.350137  0.343652  0.686754  1
  Li  Li4  1  0.340838  0.667963  0.999841  1
  Li  Li5  1  0.996067  0.341672  0.654965  1
  Li  Li6  1  0.004566  0.656028  0.344283  1
  Li  Li7  1  0.659401  0.656225  0.310193  1
  Ca  Ca8  1  0.998475  0.249531  0.248719  1
  Ca  Ca9  1  0.253569  0.002630  0.252324  1
  Ca  Ca10  1  0.746725  0.001650  0.748342  1
  Ca  Ca11  1  0.750343  0.749878  0.997428  1
  Ca  Ca12  1  0.247009  0.245072  0.999548  1
  Ca  Ca13  1  0.999976  0.750006  0.752021  1
  Zn  Zn14  1  0.499296  0.502257  0.507234  1
  Zn  Zn15  1  0.503638  0.999755  0.999394  1
  Zn  Zn16  1  0.988956  0.493998  0.996551  1
  Zn  Zn17  1  0.990847  0.998157  0.495107  1
  Zn  Zn18  1  0.661705  0.002323  0.342609  1
  Zn  Zn19  1  0.661966  0.339540  0.000423  1
  Zn  Zn20  1  0.661211  0.319956  0.657812  1
  Zn  Zn21  1  0.322039  0.660998  0.659041  1
  N  N22  1  0.000728  0.999867  0.000210  1
