# generated using pymatgen
data_Dy4ReTcB12
_symmetry_space_group_name_H-M   'P 1'
_cell_length_a   3.68886400
_cell_length_b   9.17581809
_cell_length_c   11.55804238
_cell_angle_alpha   90.05599488
_cell_angle_beta   90.00000000
_cell_angle_gamma   90.00000000
_symmetry_Int_Tables_number   1
_chemical_formula_structural   Dy4ReTcB12
_chemical_formula_sum   'Dy8 Re2 Tc2 B24'
_cell_volume   391.22041967
_cell_formula_units_Z   2
loop_
 _symmetry_equiv_pos_site_id
 _symmetry_equiv_pos_as_xyz
  1  'x, y, z'
loop_
 _atom_site_type_symbol
 _atom_site_label
 _atom_site_symmetry_multiplicity
 _atom_site_fract_x
 _atom_site_fract_y
 _atom_site_fract_z
 _atom_site_occupancy
  Dy  Dy0  1  0.000000  0.324167  0.413918  1
  Dy  Dy1  1  0.000000  0.675833  0.586082  1
  Dy  Dy2  1  0.000000  0.823813  0.086082  1
  Dy  Dy3  1  0.000000  0.176187  0.913918  1
  Dy  Dy4  1  0.000000  0.942236  0.369873  1
  Dy  Dy5  1  0.000000  0.057764  0.630127  1
  Dy  Dy6  1  0.000000  0.443868  0.130528  1
  Dy  Dy7  1  0.000000  0.556132  0.869472  1
  Re  Re8  1  0.000000  0.138730  0.179190  1
  Re  Re9  1  0.000000  0.861270  0.820810  1
  Tc  Tc10  1  0.000000  0.638838  0.320824  1
  Tc  Tc11  1  0.000000  0.361162  0.679176  1
  B  B12  1  0.500000  0.553316  0.432893  1
  B  B13  1  0.500000  0.446684  0.567107  1
  B  B14  1  0.500000  0.053251  0.067003  1
  B  B15  1  0.500000  0.946749  0.932997  1
  B  B16  1  0.500000  0.748506  0.418561  1
  B  B17  1  0.500000  0.251494  0.581439  1
  B  B18  1  0.500000  0.249073  0.081402  1
  B  B19  1  0.500000  0.750927  0.918598  1
  B  B20  1  0.500000  0.791836  0.265501  1
  B  B21  1  0.500000  0.208164  0.734499  1
  B  B22  1  0.500000  0.292149  0.234621  1
  B  B23  1  0.500000  0.707851  0.765379  1
  B  B24  1  0.500000  0.631210  0.185850  1
  B  B25  1  0.500000  0.368790  0.814150  1
  B  B26  1  0.500000  0.130845  0.314419  1
  B  B27  1  0.500000  0.869155  0.685581  1
  B  B28  1  0.500000  0.982426  0.211820  1
  B  B29  1  0.500000  0.017574  0.788180  1
  B  B30  1  0.500000  0.482783  0.288290  1
  B  B31  1  0.500000  0.517217  0.711710  1
  B  B32  1  0.500000  0.600546  0.027965  1
  B  B33  1  0.500000  0.399454  0.972035  1
  B  B34  1  0.500000  0.100333  0.471774  1
  B  B35  1  0.500000  0.899667  0.528226  1
