# generated using pymatgen
data_Hf11Ti(Ga3Sb)3
_symmetry_space_group_name_H-M   'P 1'
_cell_length_a   5.64179670
_cell_length_b   8.70683413
_cell_length_c   9.30224478
_cell_angle_alpha   89.78547233
_cell_angle_beta   90.02985933
_cell_angle_gamma   90.14489641
_symmetry_Int_Tables_number   1
_chemical_formula_structural   Hf11Ti(Ga3Sb)3
_chemical_formula_sum   'Hf11 Ti1 Ga9 Sb3'
_cell_volume   456.94189344
_cell_formula_units_Z   1
loop_
 _symmetry_equiv_pos_site_id
 _symmetry_equiv_pos_as_xyz
  1  'x, y, z'
loop_
 _atom_site_type_symbol
 _atom_site_label
 _atom_site_symmetry_multiplicity
 _atom_site_fract_x
 _atom_site_fract_y
 _atom_site_fract_z
 _atom_site_occupancy
  Hf  Hf0  1  0.497220  0.253733  0.884943  1
  Hf  Hf1  1  0.002947  0.253201  0.884439  1
  Hf  Hf2  1  0.496389  0.744755  0.119267  1
  Hf  Hf3  1  0.750276  0.470543  0.612139  1
  Hf  Hf4  1  0.252029  0.529115  0.377297  1
  Hf  Hf5  1  0.747834  0.968930  0.390932  1
  Hf  Hf6  1  0.249721  0.029991  0.610753  1
  Hf  Hf7  1  0.748854  0.378945  0.196939  1
  Hf  Hf8  1  0.251967  0.617052  0.809201  1
  Hf  Hf9  1  0.748458  0.875346  0.803443  1
  Hf  Hf10  1  0.250956  0.133329  0.192969  1
  Ti  Ti11  1  0.001947  0.745778  0.118004  1
  Ga  Ga12  1  0.003913  0.747818  0.572594  1
  Ga  Ga13  1  0.500347  0.250430  0.428243  1
  Ga  Ga14  1  0.999789  0.250454  0.427766  1
  Ga  Ga15  1  0.496004  0.747708  0.571290  1
  Ga  Ga16  1  0.246760  0.451416  0.084188  1
  Ga  Ga17  1  0.749950  0.140610  0.647309  1
  Ga  Ga18  1  0.243024  0.862904  0.349697  1
  Ga  Ga19  1  0.757354  0.641143  0.352385  1
  Ga  Ga20  1  0.249939  0.362354  0.642929  1
  Sb  Sb21  1  0.752474  0.048381  0.087981  1
  Sb  Sb22  1  0.245816  0.944535  0.915583  1
  Sb  Sb23  1  0.756032  0.551528  0.919707  1
