# generated using pymatgen
data_KAl2HgF9
_symmetry_space_group_name_H-M   'P 1'
_cell_length_a   7.25139300
_cell_length_b   7.25139261
_cell_length_c   23.02129600
_cell_angle_alpha   90.00000000
_cell_angle_beta   90.00000000
_cell_angle_gamma   119.80602513
_symmetry_Int_Tables_number   1
_chemical_formula_structural   KAl2HgF9
_chemical_formula_sum   'K6 Al12 Hg6 F54'
_cell_volume   1050.38577048
_cell_formula_units_Z   6
loop_
 _symmetry_equiv_pos_site_id
 _symmetry_equiv_pos_as_xyz
  1  'x, y, z'
loop_
 _atom_site_type_symbol
 _atom_site_label
 _atom_site_symmetry_multiplicity
 _atom_site_fract_x
 _atom_site_fract_y
 _atom_site_fract_z
 _atom_site_occupancy
  K  K0  1  0.011085  0.988915  0.000000  1
  K  K1  1  0.964302  0.006564  0.833184  1
  K  K2  1  0.988915  0.011085  0.500000  1
  K  K3  1  0.006564  0.964302  0.666816  1
  K  K4  1  0.993436  0.035698  0.166816  1
  K  K5  1  0.035698  0.993436  0.333184  1
  Al  Al6  1  0.001439  0.484480  0.586742  1
  Al  Al7  1  0.520054  0.017162  0.253595  1
  Al  Al8  1  0.982838  0.479946  0.746405  1
  Al  Al9  1  0.484480  0.001439  0.913258  1
  Al  Al10  1  0.497212  0.512444  0.079688  1
  Al  Al11  1  0.998561  0.515520  0.086742  1
  Al  Al12  1  0.479946  0.982838  0.753595  1
  Al  Al13  1  0.017162  0.520054  0.246405  1
  Al  Al14  1  0.487556  0.502788  0.920312  1
  Al  Al15  1  0.512444  0.497212  0.420312  1
  Al  Al16  1  0.502788  0.487556  0.579688  1
  Al  Al17  1  0.515520  0.998561  0.413258  1
  Hg  Hg18  1  0.500820  0.989126  0.583336  1
  Hg  Hg19  1  0.515805  0.515805  0.250000  1
  Hg  Hg20  1  0.989126  0.500820  0.916664  1
  Hg  Hg21  1  0.484195  0.484195  0.750000  1
  Hg  Hg22  1  0.010874  0.499180  0.416664  1
  Hg  Hg23  1  0.499180  0.010874  0.083336  1
  F  F24  1  0.454191  0.526969  0.843041  1
  F  F25  1  0.228999  0.326899  0.414812  1
  F  F26  1  0.795170  0.669479  0.427855  1
  F  F27  1  0.526969  0.454191  0.656959  1
  F  F28  1  0.251048  0.709902  0.760562  1
  F  F29  1  0.406581  0.968459  0.676817  1
  F  F30  1  0.484341  0.515659  0.500000  1
  F  F31  1  0.898949  0.681872  0.231088  1
  F  F32  1  0.473031  0.545809  0.156959  1
  F  F33  1  0.204830  0.330521  0.927855  1
  F  F34  1  0.793976  0.121110  0.396215  1
  F  F35  1  0.545809  0.473031  0.343041  1
  F  F36  1  0.748952  0.290098  0.260562  1
  F  F37  1  0.650235  0.872445  0.740982  1
  F  F38  1  0.271905  0.523084  0.595310  1
  F  F39  1  0.008035  0.459687  0.166379  1
  F  F40  1  0.728095  0.476916  0.095310  1
  F  F41  1  0.593419  0.031541  0.176817  1
  F  F42  1  0.236009  0.883165  0.427447  1
  F  F43  1  0.515659  0.484341  0.000000  1
  F  F44  1  0.523084  0.271905  0.904690  1
  F  F45  1  0.681872  0.898949  0.268912  1
  F  F46  1  0.116835  0.763991  0.572553  1
  F  F47  1  0.985816  0.581694  0.010503  1
  F  F48  1  0.736260  0.450992  0.570600  1
  F  F49  1  0.878890  0.206024  0.603785  1
  F  F50  1  0.476916  0.728095  0.404690  1
  F  F51  1  0.669479  0.795170  0.072145  1
  F  F52  1  0.771001  0.673101  0.914812  1
  F  F53  1  0.883165  0.236009  0.072553  1
  F  F54  1  0.549008  0.263740  0.429400  1
  F  F55  1  0.290098  0.748952  0.239438  1
  F  F56  1  0.709902  0.251048  0.739438  1
  F  F57  1  0.121110  0.793976  0.103785  1
  F  F58  1  0.968459  0.406581  0.823183  1
  F  F59  1  0.991965  0.540313  0.666379  1
  F  F60  1  0.318128  0.101051  0.768912  1
  F  F61  1  0.459687  0.008035  0.333621  1
  F  F62  1  0.031541  0.593419  0.323183  1
  F  F63  1  0.014184  0.418306  0.510503  1
  F  F64  1  0.763991  0.116835  0.927447  1
  F  F65  1  0.673101  0.771001  0.585188  1
  F  F66  1  0.349765  0.127555  0.240982  1
  F  F67  1  0.326899  0.228999  0.085188  1
  F  F68  1  0.872445  0.650235  0.759018  1
  F  F69  1  0.450992  0.736260  0.929400  1
  F  F70  1  0.330521  0.204830  0.572145  1
  F  F71  1  0.101051  0.318128  0.731088  1
  F  F72  1  0.127555  0.349765  0.259018  1
  F  F73  1  0.206024  0.878890  0.896215  1
  F  F74  1  0.418306  0.014184  0.989497  1
  F  F75  1  0.581694  0.985816  0.489497  1
  F  F76  1  0.540313  0.991965  0.833621  1
  F  F77  1  0.263740  0.549008  0.070600  1
