# generated using pymatgen
data_La6TlOsI6
_symmetry_space_group_name_H-M   'P 1'
_cell_length_a   11.34175862
_cell_length_b   11.34175865
_cell_length_c   11.03185900
_cell_angle_alpha   109.31792418
_cell_angle_beta   109.31792959
_cell_angle_gamma   110.88286291
_symmetry_Int_Tables_number   1
_chemical_formula_structural   La6TlOsI6
_chemical_formula_sum   'La12 Tl2 Os2 I12'
_cell_volume   1077.05840155
_cell_formula_units_Z   2
loop_
 _symmetry_equiv_pos_site_id
 _symmetry_equiv_pos_as_xyz
  1  'x, y, z'
loop_
 _atom_site_type_symbol
 _atom_site_label
 _atom_site_symmetry_multiplicity
 _atom_site_fract_x
 _atom_site_fract_y
 _atom_site_fract_z
 _atom_site_occupancy
  La  La0  1  0.464266  0.494567  0.221896  1
  La  La1  1  0.772671  0.242370  0.278104  1
  La  La2  1  0.780122  0.035966  0.497566  1
  La  La3  1  0.217443  0.461598  0.497566  1
  La  La4  1  0.257630  0.727329  0.221896  1
  La  La5  1  0.038402  0.282557  0.002434  1
  La  La6  1  0.005433  0.035734  0.278104  1
  La  La7  1  0.464034  0.719878  0.002434  1
  La  La8  1  0.491836  0.241836  0.483671  1
  La  La9  1  0.019102  0.480898  0.750000  1
  La  La10  1  0.258164  0.008164  0.016329  1
  La  La11  1  0.230898  0.269102  0.750000  1
  Tl  Tl12  1  0.249591  0.250409  0.250000  1
  Tl  Tl13  1  0.500409  0.999591  0.250000  1
  Os  Os14  1  0.001566  0.251566  0.503130  1
  Os  Os15  1  0.248434  0.498434  0.996870  1
  I  I16  1  0.252157  0.760824  0.744136  1
  I  I17  1  0.516688  0.508021  0.755864  1
  I  I18  1  0.990112  0.745798  0.997049  1
  I  I19  1  0.739176  0.247843  0.755864  1
  I  I20  1  0.991979  0.983312  0.744136  1
  I  I21  1  0.248750  0.993064  0.502951  1
  I  I22  1  0.754202  0.509888  0.502951  1
  I  I23  1  0.506936  0.251250  0.997049  1
  I  I24  1  0.757317  0.742683  0.250000  1
  I  I25  1  0.744500  0.994500  0.989002  1
  I  I26  1  0.992683  0.507317  0.250000  1
  I  I27  1  0.505500  0.755500  0.510998  1
