# generated using pymatgen
data_HoErFe3Tc14C3
_symmetry_space_group_name_H-M   'P 1'
_cell_length_a   6.89097537
_cell_length_b   6.89097622
_cell_length_c   6.89097458
_cell_angle_alpha   82.26332990
_cell_angle_beta   82.26333054
_cell_angle_gamma   82.26332140
_symmetry_Int_Tables_number   1
_chemical_formula_structural   HoErFe3Tc14C3
_chemical_formula_sum   'Ho1 Er1 Fe3 Tc14 C3'
_cell_volume   319.02208909
_cell_formula_units_Z   1
loop_
 _symmetry_equiv_pos_site_id
 _symmetry_equiv_pos_as_xyz
  1  'x, y, z'
loop_
 _atom_site_type_symbol
 _atom_site_label
 _atom_site_symmetry_multiplicity
 _atom_site_fract_x
 _atom_site_fract_y
 _atom_site_fract_z
 _atom_site_occupancy
  Ho  Ho0  1  0.651855  0.651855  0.651855  1
  Er  Er1  1  0.348124  0.348124  0.348124  1
  Fe  Fe2  1  0.000006  0.000006  0.500000  1
  Fe  Fe3  1  0.500000  0.000006  0.000006  1
  Fe  Fe4  1  0.000006  0.500000  0.000006  1
  Tc  Tc5  1  0.724131  0.275859  0.000016  1
  Tc  Tc6  1  0.000016  0.724131  0.275859  1
  Tc  Tc7  1  0.275859  0.000016  0.724131  1
  Tc  Tc8  1  0.000016  0.275859  0.724131  1
  Tc  Tc9  1  0.724131  0.000016  0.275859  1
  Tc  Tc10  1  0.275859  0.724131  0.000016  1
  Tc  Tc11  1  0.348838  0.860142  0.348838  1
  Tc  Tc12  1  0.348838  0.348838  0.860142  1
  Tc  Tc13  1  0.860142  0.348838  0.348838  1
  Tc  Tc14  1  0.651137  0.139879  0.651137  1
  Tc  Tc15  1  0.651137  0.651137  0.139879  1
  Tc  Tc16  1  0.139879  0.651137  0.651137  1
  Tc  Tc17  1  0.898678  0.898678  0.898678  1
  Tc  Tc18  1  0.101338  0.101338  0.101338  1
  C  C19  1  0.499972  0.499972  0.000066  1
  C  C20  1  0.000066  0.499972  0.499972  1
  C  C21  1  0.499972  0.000066  0.499972  1
