# generated using pymatgen
data_TmLu5Hf2(Co4P3)4
_symmetry_space_group_name_H-M   'P 1'
_cell_length_a   3.68205500
_cell_length_b   10.61623600
_cell_length_c   12.29473300
_cell_angle_alpha   90.00000000
_cell_angle_beta   90.00000000
_cell_angle_gamma   90.00000000
_symmetry_Int_Tables_number   1
_chemical_formula_structural   TmLu5Hf2(Co4P3)4
_chemical_formula_sum   'Tm1 Lu5 Hf2 Co16 P12'
_cell_volume   480.59576286
_cell_formula_units_Z   1
loop_
 _symmetry_equiv_pos_site_id
 _symmetry_equiv_pos_as_xyz
  1  'x, y, z'
loop_
 _atom_site_type_symbol
 _atom_site_label
 _atom_site_symmetry_multiplicity
 _atom_site_fract_x
 _atom_site_fract_y
 _atom_site_fract_z
 _atom_site_occupancy
  Tm  Tm0  1  0.500000  0.000000  0.470592  1
  Lu  Lu1  1  0.000000  0.500000  0.529249  1
  Lu  Lu2  1  0.500000  0.822491  0.204564  1
  Lu  Lu3  1  0.500000  0.177509  0.204564  1
  Lu  Lu4  1  0.000000  0.677604  0.795445  1
  Lu  Lu5  1  0.000000  0.322396  0.795445  1
  Hf  Hf6  1  0.500000  0.500000  0.158410  1
  Hf  Hf7  1  0.000000  0.000000  0.841636  1
  Co  Co8  1  0.500000  0.500000  0.702665  1
  Co  Co9  1  0.000000  0.000000  0.296880  1
  Co  Co10  1  0.000000  0.500000  0.986344  1
  Co  Co11  1  0.500000  0.000000  0.013631  1
  Co  Co12  1  0.500000  0.331938  0.993088  1
  Co  Co13  1  0.500000  0.668062  0.993088  1
  Co  Co14  1  0.000000  0.168042  0.006900  1
  Co  Co15  1  0.000000  0.831958  0.006900  1
  Co  Co16  1  0.500000  0.295392  0.433270  1
  Co  Co17  1  0.500000  0.704608  0.433270  1
  Co  Co18  1  0.000000  0.204972  0.566788  1
  Co  Co19  1  0.000000  0.795028  0.566788  1
  Co  Co20  1  0.500000  0.876754  0.702676  1
  Co  Co21  1  0.500000  0.123246  0.702676  1
  Co  Co22  1  0.000000  0.623243  0.297445  1
  Co  Co23  1  0.000000  0.376757  0.297445  1
  P  P24  1  0.500000  0.500000  0.882069  1
  P  P25  1  0.000000  0.000000  0.118030  1
  P  P26  1  0.500000  0.500000  0.364278  1
  P  P27  1  0.000000  0.000000  0.636225  1
  P  P28  1  0.500000  0.311966  0.616517  1
  P  P29  1  0.500000  0.688034  0.616517  1
  P  P30  1  0.000000  0.188228  0.383312  1
  P  P31  1  0.000000  0.811772  0.383312  1
  P  P32  1  0.500000  0.837310  0.891623  1
  P  P33  1  0.500000  0.162690  0.891623  1
  P  P34  1  0.000000  0.662681  0.108366  1
  P  P35  1  0.000000  0.337319  0.108366  1
