# generated using pymatgen
data_Nb12VZn3(Ga2N)4
_symmetry_space_group_name_H-M   'P 1'
_cell_length_a   8.34448341
_cell_length_b   8.25286656
_cell_length_c   8.25286800
_cell_angle_alpha   60.00000223
_cell_angle_beta   60.36253582
_cell_angle_gamma   60.36253652
_symmetry_Int_Tables_number   1
_chemical_formula_structural   Nb12VZn3(Ga2N)4
_chemical_formula_sum   'Nb12 V1 Zn3 Ga8 N4'
_cell_volume   404.06608139
_cell_formula_units_Z   1
loop_
 _symmetry_equiv_pos_site_id
 _symmetry_equiv_pos_as_xyz
  1  'x, y, z'
loop_
 _atom_site_type_symbol
 _atom_site_label
 _atom_site_symmetry_multiplicity
 _atom_site_fract_x
 _atom_site_fract_y
 _atom_site_fract_z
 _atom_site_occupancy
  Nb  Nb0  1  0.443706  0.441779  0.057257  1
  Nb  Nb1  1  0.057919  0.443200  0.055680  1
  Nb  Nb2  1  0.443706  0.057257  0.057257  1
  Nb  Nb3  1  0.057919  0.055680  0.443200  1
  Nb  Nb4  1  0.443706  0.057257  0.441779  1
  Nb  Nb5  1  0.057919  0.443200  0.443200  1
  Nb  Nb6  1  0.806294  0.808221  0.192743  1
  Nb  Nb7  1  0.192081  0.806800  0.194320  1
  Nb  Nb8  1  0.806294  0.192743  0.192743  1
  Nb  Nb9  1  0.192081  0.194320  0.806800  1
  Nb  Nb10  1  0.806294  0.192743  0.808221  1
  Nb  Nb11  1  0.192081  0.806800  0.806800  1
  V  V12  1  0.125000  0.625000  0.625000  1
  Zn  Zn13  1  0.625000  0.625000  0.125000  1
  Zn  Zn14  1  0.625000  0.125000  0.625000  1
  Zn  Zn15  1  0.625000  0.625000  0.625000  1
  Ga  Ga16  1  0.841485  0.835822  0.486872  1
  Ga  Ga17  1  0.841485  0.486872  0.835822  1
  Ga  Ga18  1  0.482296  0.839235  0.839235  1
  Ga  Ga19  1  0.841485  0.835822  0.835822  1
  Ga  Ga20  1  0.408515  0.414178  0.763128  1
  Ga  Ga21  1  0.408515  0.763128  0.414178  1
  Ga  Ga22  1  0.767704  0.410765  0.410765  1
  Ga  Ga23  1  0.408515  0.414178  0.414178  1
  N  N24  1  0.125000  0.125000  0.625000  1
  N  N25  1  0.125000  0.625000  0.125000  1
  N  N26  1  0.625000  0.125000  0.125000  1
  N  N27  1  0.125000  0.125000  0.125000  1
