# generated using pymatgen
data_CsK3WO5
_symmetry_space_group_name_H-M   'P 1'
_cell_length_a   6.51580805
_cell_length_b   6.51580861
_cell_length_c   10.33268730
_cell_angle_alpha   79.42312148
_cell_angle_beta   79.42312043
_cell_angle_gamma   78.20459675
_symmetry_Int_Tables_number   1
_chemical_formula_structural   CsK3WO5
_chemical_formula_sum   'Cs2 K6 W2 O10'
_cell_volume   417.23333935
_cell_formula_units_Z   2
loop_
 _symmetry_equiv_pos_site_id
 _symmetry_equiv_pos_as_xyz
  1  'x, y, z'
loop_
 _atom_site_type_symbol
 _atom_site_label
 _atom_site_symmetry_multiplicity
 _atom_site_fract_x
 _atom_site_fract_y
 _atom_site_fract_z
 _atom_site_occupancy
  Cs  Cs0  1  0.251962  0.748038  0.500000  1
  Cs  Cs1  1  0.748038  0.251962  0.500000  1
  K  K2  1  0.355718  0.838401  0.112598  1
  K  K3  1  0.161599  0.644282  0.887402  1
  K  K4  1  0.644282  0.161599  0.887402  1
  K  K5  1  0.808723  0.808723  0.290798  1
  K  K6  1  0.838401  0.355718  0.112598  1
  K  K7  1  0.191277  0.191277  0.709202  1
  W  W8  1  0.306410  0.306410  0.263457  1
  W  W9  1  0.693590  0.693590  0.736543  1
  O  O10  1  0.742771  0.742771  0.550539  1
  O  O11  1  0.257229  0.257229  0.449461  1
  O  O12  1  0.534270  0.128154  0.172223  1
  O  O13  1  0.884015  0.884015  0.745920  1
  O  O14  1  0.499039  0.499039  0.264746  1
  O  O15  1  0.128154  0.534270  0.172223  1
  O  O16  1  0.871846  0.465730  0.827777  1
  O  O17  1  0.500961  0.500961  0.735254  1
  O  O18  1  0.115985  0.115985  0.254080  1
  O  O19  1  0.465730  0.871846  0.827777  1
