# generated using pymatgen
data_DyHo3Th6(Ge5Rh2)4
_symmetry_space_group_name_H-M   'P 1'
_cell_length_a   13.12255300
_cell_length_b   13.12255300
_cell_length_c   4.38256400
_cell_angle_alpha   90.00000000
_cell_angle_beta   90.00000000
_cell_angle_gamma   90.00133606
_symmetry_Int_Tables_number   1
_chemical_formula_structural   DyHo3Th6(Ge5Rh2)4
_chemical_formula_sum   'Dy1 Ho3 Th6 Ge20 Rh8'
_cell_volume   754.68364418
_cell_formula_units_Z   1
loop_
 _symmetry_equiv_pos_site_id
 _symmetry_equiv_pos_as_xyz
  1  'x, y, z'
loop_
 _atom_site_type_symbol
 _atom_site_label
 _atom_site_symmetry_multiplicity
 _atom_site_fract_x
 _atom_site_fract_y
 _atom_site_fract_z
 _atom_site_occupancy
  Dy  Dy0  1  0.325071  0.825071  0.500000  1
  Ho  Ho1  1  0.825116  0.674879  0.500000  1
  Ho  Ho2  1  0.174879  0.325116  0.500000  1
  Ho  Ho3  1  0.674886  0.174886  0.500000  1
  Th  Th4  1  0.499999  0.500004  0.000000  1
  Th  Th5  1  0.000004  0.999999  0.000000  1
  Th  Th6  1  0.887554  0.387554  0.500000  1
  Th  Th7  1  0.387562  0.112465  0.500000  1
  Th  Th8  1  0.612465  0.887562  0.500000  1
  Th  Th9  1  0.112430  0.612430  0.500000  1
  Ge  Ge10  1  0.433172  0.933172  0.000000  1
  Ge  Ge11  1  0.933098  0.566905  0.000000  1
  Ge  Ge12  1  0.066905  0.433098  0.000000  1
  Ge  Ge13  1  0.566903  0.066903  0.000000  1
  Ge  Ge14  1  0.337465  0.300608  0.000000  1
  Ge  Ge15  1  0.662535  0.699397  0.000000  1
  Ge  Ge16  1  0.699397  0.337463  0.000000  1
  Ge  Ge17  1  0.300578  0.662462  0.000000  1
  Ge  Ge18  1  0.800608  0.837465  0.000000  1
  Ge  Ge19  1  0.837463  0.199397  0.000000  1
  Ge  Ge20  1  0.162462  0.800578  0.000000  1
  Ge  Ge21  1  0.199397  0.162535  0.000000  1
  Ge  Ge22  1  0.337893  0.497060  0.500000  1
  Ge  Ge23  1  0.662100  0.502952  0.500000  1
  Ge  Ge24  1  0.502951  0.337895  0.500000  1
  Ge  Ge25  1  0.497092  0.662078  0.500000  1
  Ge  Ge26  1  0.997060  0.837893  0.500000  1
  Ge  Ge27  1  0.837895  0.002951  0.500000  1
  Ge  Ge28  1  0.002952  0.162100  0.500000  1
  Ge  Ge29  1  0.162078  0.997092  0.500000  1
  Rh  Rh30  1  0.255772  0.477460  0.000000  1
  Rh  Rh31  1  0.744223  0.522535  0.000000  1
  Rh  Rh32  1  0.522530  0.255778  0.000000  1
  Rh  Rh33  1  0.477551  0.744181  0.000000  1
  Rh  Rh34  1  0.977460  0.755772  0.000000  1
  Rh  Rh35  1  0.755778  0.022530  0.000000  1
  Rh  Rh36  1  0.244181  0.977551  0.000000  1
  Rh  Rh37  1  0.022535  0.244223  0.000000  1
