# generated using pymatgen
data_Ac5(CBr4)2
_symmetry_space_group_name_H-M   'P 1'
_cell_length_a   9.75814091
_cell_length_b   13.07312817
_cell_length_c   17.94656800
_cell_angle_alpha   100.13488682
_cell_angle_beta   90.10666919
_cell_angle_gamma   95.79886788
_symmetry_Int_Tables_number   1
_chemical_formula_structural   Ac5(CBr4)2
_chemical_formula_sum   'Ac20 C8 Br32'
_cell_volume   2241.72574089
_cell_formula_units_Z   4
loop_
 _symmetry_equiv_pos_site_id
 _symmetry_equiv_pos_as_xyz
  1  'x, y, z'
loop_
 _atom_site_type_symbol
 _atom_site_label
 _atom_site_symmetry_multiplicity
 _atom_site_fract_x
 _atom_site_fract_y
 _atom_site_fract_z
 _atom_site_occupancy
  Ac  Ac0  1  0.261832  0.003718  0.302201  1
  Ac  Ac1  1  0.127739  0.368496  0.226181  1
  Ac  Ac2  1  0.833879  0.933053  0.906247  1
  Ac  Ac3  1  0.166121  0.066947  0.093753  1
  Ac  Ac4  1  0.413841  0.565036  0.381876  1
  Ac  Ac5  1  0.552455  0.739884  0.753049  1
  Ac  Ac6  1  0.738167  0.996282  0.697799  1
  Ac  Ac7  1  0.661961  0.512708  0.199762  1
  Ac  Ac8  1  0.338039  0.487292  0.800238  1
  Ac  Ac9  1  0.586159  0.434964  0.618124  1
  Ac  Ac10  1  0.313985  0.627785  0.175425  1
  Ac  Ac11  1  0.381130  0.352927  0.037600  1
  Ac  Ac12  1  0.686015  0.372216  0.824575  1
  Ac  Ac13  1  0.911275  0.114934  0.274269  1
  Ac  Ac14  1  0.447545  0.260116  0.246951  1
  Ac  Ac15  1  0.178470  0.269865  0.440456  1
  Ac  Ac16  1  0.618870  0.647073  0.962400  1
  Ac  Ac17  1  0.872261  0.631504  0.773819  1
  Ac  Ac18  1  0.088726  0.885066  0.725731  1
  Ac  Ac19  1  0.821530  0.730135  0.559543  1
  C  C20  1  0.601017  0.522188  0.750328  1
  C  C21  1  0.818813  0.798840  0.695752  1
  C  C22  1  0.398983  0.477812  0.249672  1
  C  C23  1  0.823112  0.846412  0.773950  1
  C  C24  1  0.181187  0.201160  0.304248  1
  C  C25  1  0.176888  0.153588  0.226050  1
  C  C26  1  0.391917  0.429629  0.171861  1
  C  C27  1  0.608083  0.570371  0.828139  1
  Br  Br28  1  0.926954  0.726344  0.951859  1
  Br  Br29  1  0.871815  0.206868  0.442447  1
  Br  Br30  1  0.303971  0.565192  0.987235  1
  Br  Br31  1  0.524626  0.853303  0.927262  1
  Br  Br32  1  0.785695  0.312983  0.230968  1
  Br  Br33  1  0.000086  0.569090  0.181414  1
  Br  Br34  1  0.106678  0.486422  0.401410  1
  Br  Br35  1  0.214305  0.687017  0.769032  1
  Br  Br36  1  0.711343  0.925317  0.525658  1
  Br  Br37  1  0.425159  0.944148  0.718846  1
  Br  Br38  1  0.128186  0.793132  0.557553  1
  Br  Br39  1  0.500400  0.643409  0.570539  1
  Br  Br40  1  0.999914  0.430910  0.818586  1
  Br  Br41  1  0.034175  0.092569  0.686710  1
  Br  Br42  1  0.747190  0.139481  0.863188  1
  Br  Br43  1  0.252810  0.860519  0.136812  1
  Br  Br44  1  0.893323  0.513578  0.598590  1
  Br  Br45  1  0.664415  0.231768  0.664358  1
  Br  Br46  1  0.615039  0.721760  0.151214  1
  Br  Br47  1  0.073046  0.273656  0.048141  1
  Br  Br48  1  0.574841  0.055852  0.281154  1
  Br  Br49  1  0.335585  0.768232  0.335642  1
  Br  Br50  1  0.146515  0.995837  0.900217  1
  Br  Br51  1  0.965826  0.907431  0.313290  1
  Br  Br52  1  0.853485  0.004163  0.099783  1
  Br  Br53  1  0.696029  0.434808  0.012765  1
  Br  Br54  1  0.384961  0.278240  0.848786  1
  Br  Br55  1  0.726568  0.622672  0.368427  1
  Br  Br56  1  0.273432  0.377328  0.631573  1
  Br  Br57  1  0.475374  0.146697  0.072738  1
  Br  Br58  1  0.499600  0.356591  0.429461  1
  Br  Br59  1  0.288657  0.074683  0.474342  1
