# generated using pymatgen
data_Zr4Al2(CrTc)3
_symmetry_space_group_name_H-M   'P 1'
_cell_length_a   5.14133200
_cell_length_b   5.10337685
_cell_length_c   8.69007600
_cell_angle_alpha   90.00000000
_cell_angle_beta   90.00000000
_cell_angle_gamma   120.24630309
_symmetry_Int_Tables_number   1
_chemical_formula_structural   Zr4Al2(CrTc)3
_chemical_formula_sum   'Zr4 Al2 Cr3 Tc3'
_cell_volume   196.97189114
_cell_formula_units_Z   1
loop_
 _symmetry_equiv_pos_site_id
 _symmetry_equiv_pos_as_xyz
  1  'x, y, z'
loop_
 _atom_site_type_symbol
 _atom_site_label
 _atom_site_symmetry_multiplicity
 _atom_site_fract_x
 _atom_site_fract_y
 _atom_site_fract_z
 _atom_site_occupancy
  Zr  Zr0  1  0.333343  0.666686  0.432408  1
  Zr  Zr1  1  0.666420  0.332840  0.934945  1
  Zr  Zr2  1  0.666420  0.332840  0.565055  1
  Zr  Zr3  1  0.333343  0.666686  0.067592  1
  Al  Al4  1  0.004066  0.008133  0.003760  1
  Al  Al5  1  0.004066  0.008133  0.496240  1
  Cr  Cr6  1  0.169730  0.339458  0.750000  1
  Cr  Cr7  1  0.825765  0.168582  0.250000  1
  Cr  Cr8  1  0.342814  0.168582  0.250000  1
  Tc  Tc9  1  0.659262  0.826819  0.750000  1
  Tc  Tc10  1  0.827211  0.654423  0.250000  1
  Tc  Tc11  1  0.167558  0.826819  0.750000  1
