# generated using pymatgen
data_Ca7UAs6
_symmetry_space_group_name_H-M   'P 1'
_cell_length_a   7.68380846
_cell_length_b   7.78039160
_cell_length_c   7.78039141
_cell_angle_alpha   109.72131988
_cell_angle_beta   109.21994026
_cell_angle_gamma   109.21995165
_symmetry_Int_Tables_number   1
_chemical_formula_structural   Ca7UAs6
_chemical_formula_sum   'Ca7 U1 As6'
_cell_volume   359.16577255
_cell_formula_units_Z   1
loop_
 _symmetry_equiv_pos_site_id
 _symmetry_equiv_pos_as_xyz
  1  'x, y, z'
loop_
 _atom_site_type_symbol
 _atom_site_label
 _atom_site_symmetry_multiplicity
 _atom_site_fract_x
 _atom_site_fract_y
 _atom_site_fract_z
 _atom_site_occupancy
  Ca  Ca0  1  0.499865  0.000482  0.638488  1
  Ca  Ca1  1  0.368258  0.366443  0.374644  1
  Ca  Ca2  1  0.993614  0.125356  0.491798  1
  Ca  Ca3  1  0.861377  0.861512  0.861994  1
  Ca  Ca4  1  0.999383  0.638006  0.499518  1
  Ca  Ca5  1  0.637465  0.500000  0.000000  1
  Ca  Ca6  1  0.501816  0.008202  0.133557  1
  U  U7  1  0.143106  0.500000  0.000000  1
  As  As8  1  0.884695  0.257575  0.120404  1
  As  As9  1  0.127120  0.862829  0.242425  1
  As  As10  1  0.366465  0.621679  0.758704  1
  As  As11  1  0.244786  0.137025  0.878321  1
  As  As12  1  0.764290  0.379596  0.637171  1
  As  As13  1  0.607761  0.741296  0.362975  1
