# generated using pymatgen
data_Tb7YSbPd24
_symmetry_space_group_name_H-M   'P 1'
_cell_length_a   8.42396224
_cell_length_b   8.42396224
_cell_length_c   8.42396224
_cell_angle_alpha   90.01943711
_cell_angle_beta   90.01943711
_cell_angle_gamma   90.01943711
_symmetry_Int_Tables_number   1
_chemical_formula_structural   Tb7YSbPd24
_chemical_formula_sum   'Tb7 Y1 Sb1 Pd24'
_cell_volume   597.79070758
_cell_formula_units_Z   1
loop_
 _symmetry_equiv_pos_site_id
 _symmetry_equiv_pos_as_xyz
  1  'x, y, z'
loop_
 _atom_site_type_symbol
 _atom_site_label
 _atom_site_symmetry_multiplicity
 _atom_site_fract_x
 _atom_site_fract_y
 _atom_site_fract_z
 _atom_site_occupancy
  Tb  Tb0  1  0.746759  0.746759  0.253286  1
  Tb  Tb1  1  0.746759  0.253286  0.746759  1
  Tb  Tb2  1  0.253286  0.746759  0.746759  1
  Tb  Tb3  1  0.746618  0.746618  0.746618  1
  Tb  Tb4  1  0.746746  0.253279  0.253279  1
  Tb  Tb5  1  0.253279  0.253279  0.746746  1
  Tb  Tb6  1  0.253279  0.746746  0.253279  1
  Y  Y7  1  0.253039  0.253039  0.253039  1
  Sb  Sb8  1  0.000066  0.000066  0.000066  1
  Pd  Pd9  1  0.999932  0.999932  0.306885  1
  Pd  Pd10  1  0.734916  0.999971  0.500114  1
  Pd  Pd11  1  0.734916  0.500114  0.999971  1
  Pd  Pd12  1  0.500114  0.999971  0.734916  1
  Pd  Pd13  1  0.999971  0.734916  0.500114  1
  Pd  Pd14  1  0.500110  0.999863  0.265086  1
  Pd  Pd15  1  0.999863  0.265086  0.500110  1
  Pd  Pd16  1  0.500114  0.734916  0.999971  1
  Pd  Pd17  1  0.254511  0.500083  0.500083  1
  Pd  Pd18  1  0.500028  0.500028  0.745473  1
  Pd  Pd19  1  0.500083  0.500083  0.254511  1
  Pd  Pd20  1  0.500083  0.254511  0.500083  1
  Pd  Pd21  1  0.500028  0.745473  0.500028  1
  Pd  Pd22  1  0.745473  0.500028  0.500028  1
  Pd  Pd23  1  0.306885  0.999932  0.999932  1
  Pd  Pd24  1  0.999989  0.999989  0.693115  1
  Pd  Pd25  1  0.999863  0.500110  0.265086  1
  Pd  Pd26  1  0.999932  0.306885  0.999932  1
  Pd  Pd27  1  0.999989  0.693115  0.999989  1
  Pd  Pd28  1  0.693115  0.999989  0.999989  1
  Pd  Pd29  1  0.265086  0.500110  0.999863  1
  Pd  Pd30  1  0.265086  0.999863  0.500110  1
  Pd  Pd31  1  0.999971  0.500114  0.734916  1
  Pd  Pd32  1  0.500110  0.265086  0.999863  1
