# generated using pymatgen
data_CeYHo(RhPb)3
_symmetry_space_group_name_H-M   'P 1'
_cell_length_a   7.70399480
_cell_length_b   7.79141047
_cell_length_c   3.89960600
_cell_angle_alpha   90.00000000
_cell_angle_beta   90.00000000
_cell_angle_gamma   120.48279956
_symmetry_Int_Tables_number   1
_chemical_formula_structural   CeYHo(RhPb)3
_chemical_formula_sum   'Ce1 Y1 Ho1 Rh3 Pb3'
_cell_volume   201.72046293
_cell_formula_units_Z   1
loop_
 _symmetry_equiv_pos_site_id
 _symmetry_equiv_pos_as_xyz
  1  'x, y, z'
loop_
 _atom_site_type_symbol
 _atom_site_label
 _atom_site_symmetry_multiplicity
 _atom_site_fract_x
 _atom_site_fract_y
 _atom_site_fract_z
 _atom_site_occupancy
  Ce  Ce0  1  0.000022  0.588791  0.500000  1
  Y  Y1  1  0.404151  0.404151  0.500000  1
  Ho  Ho2  1  0.595574  0.999812  0.500000  1
  Rh  Rh3  1  0.998853  0.994116  0.500000  1
  Rh  Rh4  1  0.682393  0.345689  0.000000  1
  Rh  Rh5  1  0.319400  0.667254  0.000000  1
  Pb  Pb6  1  0.728567  0.736900  0.000000  1
  Pb  Pb7  1  0.271174  0.008343  0.000000  1
  Pb  Pb8  1  0.999867  0.254945  0.000000  1
