# generated using pymatgen
data_Er8Ta11Si16Os
_symmetry_space_group_name_H-M   'P 1'
_cell_length_a   6.99815904
_cell_length_b   6.99815906
_cell_length_c   12.91114246
_cell_angle_alpha   90.13682714
_cell_angle_beta   89.86317442
_cell_angle_gamma   89.67343186
_symmetry_Int_Tables_number   1
_chemical_formula_structural   Er8Ta11Si16Os
_chemical_formula_sum   'Er8 Ta11 Si16 Os1'
_cell_volume   632.29936433
_cell_formula_units_Z   1
loop_
 _symmetry_equiv_pos_site_id
 _symmetry_equiv_pos_as_xyz
  1  'x, y, z'
loop_
 _atom_site_type_symbol
 _atom_site_label
 _atom_site_symmetry_multiplicity
 _atom_site_fract_x
 _atom_site_fract_y
 _atom_site_fract_z
 _atom_site_occupancy
  Er  Er0  1  0.341276  0.004099  0.468522  1
  Er  Er1  1  0.496158  0.841396  0.719240  1
  Er  Er2  1  0.500686  0.159111  0.217131  1
  Er  Er3  1  0.841396  0.496158  0.280760  1
  Er  Er4  1  0.159111  0.500686  0.782869  1
  Er  Er5  1  0.657769  0.997584  0.969379  1
  Er  Er6  1  0.004099  0.341276  0.531478  1
  Er  Er7  1  0.997584  0.657769  0.030621  1
  Ta  Ta8  1  0.173862  0.829676  0.247431  1
  Ta  Ta9  1  0.829676  0.173862  0.752569  1
  Ta  Ta10  1  0.671295  0.671295  0.500000  1
  Ta  Ta11  1  0.148738  0.002120  0.874704  1
  Ta  Ta12  1  0.494735  0.657768  0.124228  1
  Ta  Ta13  1  0.504265  0.347617  0.625778  1
  Ta  Ta14  1  0.657768  0.494735  0.875772  1
  Ta  Ta15  1  0.347617  0.504265  0.374222  1
  Ta  Ta16  1  0.847968  0.993974  0.374326  1
  Ta  Ta17  1  0.002120  0.148738  0.125296  1
  Ta  Ta18  1  0.993974  0.847968  0.625674  1
  Si  Si19  1  0.203308  0.135761  0.682600  1
  Si  Si20  1  0.367500  0.700300  0.932231  1
  Si  Si21  1  0.635603  0.296463  0.432336  1
  Si  Si22  1  0.700300  0.367500  0.067769  1
  Si  Si23  1  0.296463  0.635603  0.567664  1
  Si  Si24  1  0.795269  0.864961  0.182139  1
  Si  Si25  1  0.135761  0.203308  0.317400  1
  Si  Si26  1  0.864961  0.795269  0.817861  1
  Si  Si27  1  0.292590  0.958196  0.061288  1
  Si  Si28  1  0.544942  0.795847  0.314089  1
  Si  Si29  1  0.450046  0.206922  0.818296  1
  Si  Si30  1  0.795847  0.544942  0.685911  1
  Si  Si31  1  0.206922  0.450046  0.181704  1
  Si  Si32  1  0.704785  0.045703  0.565049  1
  Si  Si33  1  0.958196  0.292590  0.938712  1
  Si  Si34  1  0.045703  0.704785  0.434951  1
  Os  Os35  1  0.331710  0.331710  0.000000  1
