# generated using pymatgen
data_Na2Al2SiS6
_symmetry_space_group_name_H-M   'P 1'
_cell_length_a   7.01872503
_cell_length_b   7.01872482
_cell_length_c   11.72760154
_cell_angle_alpha   76.17903685
_cell_angle_beta   76.17903837
_cell_angle_gamma   68.64620245
_symmetry_Int_Tables_number   1
_chemical_formula_structural   Na2Al2SiS6
_chemical_formula_sum   'Na4 Al4 Si2 S12'
_cell_volume   515.06795244
_cell_formula_units_Z   2
loop_
 _symmetry_equiv_pos_site_id
 _symmetry_equiv_pos_as_xyz
  1  'x, y, z'
loop_
 _atom_site_type_symbol
 _atom_site_label
 _atom_site_symmetry_multiplicity
 _atom_site_fract_x
 _atom_site_fract_y
 _atom_site_fract_z
 _atom_site_occupancy
  Na  Na0  1  0.909021  0.520405  0.342159  1
  Na  Na1  1  0.520405  0.909021  0.842159  1
  Na  Na2  1  0.061236  0.933210  0.501551  1
  Na  Na3  1  0.933210  0.061236  0.001551  1
  Al  Al4  1  0.601289  0.460549  0.696696  1
  Al  Al5  1  0.460549  0.601289  0.196696  1
  Al  Al6  1  0.296689  0.414235  0.997912  1
  Al  Al7  1  0.414235  0.296689  0.497912  1
  Si  Si8  1  0.078533  0.504062  0.746168  1
  Si  Si9  1  0.504062  0.078533  0.246168  1
  S  S10  1  0.715495  0.296191  0.537033  1
  S  S11  1  0.296191  0.715495  0.037033  1
  S  S12  1  0.590411  0.251761  0.877539  1
  S  S13  1  0.251761  0.590411  0.377539  1
  S  S14  1  0.272311  0.697021  0.694674  1
  S  S15  1  0.697021  0.272311  0.194674  1
  S  S16  1  0.215257  0.219809  0.679148  1
  S  S17  1  0.219809  0.215257  0.179148  1
  S  S18  1  0.796668  0.678420  0.672367  1
  S  S19  1  0.678420  0.796668  0.172367  1
  S  S20  1  0.996962  0.456182  0.934904  1
  S  S21  1  0.456182  0.996962  0.434904  1
