# generated using pymatgen
data_Nd8DyHo11Si16
_symmetry_space_group_name_H-M   'P 1'
_cell_length_a   7.49995302
_cell_length_b   7.77474502
_cell_length_c   14.77160303
_cell_angle_alpha   89.99664007
_cell_angle_beta   90.00586214
_cell_angle_gamma   90.00701448
_symmetry_Int_Tables_number   1
_chemical_formula_structural   Nd8DyHo11Si16
_chemical_formula_sum   'Nd8 Dy1 Ho11 Si16'
_cell_volume   861.33544529
_cell_formula_units_Z   1
loop_
 _symmetry_equiv_pos_site_id
 _symmetry_equiv_pos_as_xyz
  1  'x, y, z'
loop_
 _atom_site_type_symbol
 _atom_site_label
 _atom_site_symmetry_multiplicity
 _atom_site_fract_x
 _atom_site_fract_y
 _atom_site_fract_z
 _atom_site_occupancy
  Nd  Nd0  1  0.975272  0.819999  0.098049  1
  Nd  Nd1  1  0.475261  0.679993  0.401963  1
  Nd  Nd2  1  0.524735  0.319995  0.901971  1
  Nd  Nd3  1  0.024752  0.180000  0.598029  1
  Nd  Nd4  1  0.024771  0.180003  0.901970  1
  Nd  Nd5  1  0.524740  0.320011  0.598028  1
  Nd  Nd6  1  0.475240  0.679989  0.098053  1
  Nd  Nd7  1  0.975251  0.820011  0.401965  1
  Dy  Dy8  1  0.680885  0.821496  0.876839  1
  Ho  Ho9  1  0.649777  0.989427  0.250003  1
  Ho  Ho10  1  0.149775  0.510570  0.250000  1
  Ho  Ho11  1  0.850233  0.489382  0.749986  1
  Ho  Ho12  1  0.350189  0.010583  0.749993  1
  Ho  Ho13  1  0.180882  0.678472  0.623179  1
  Ho  Ho14  1  0.819114  0.321516  0.123181  1
  Ho  Ho15  1  0.319122  0.178477  0.376808  1
  Ho  Ho16  1  0.319119  0.178482  0.123189  1
  Ho  Ho17  1  0.819127  0.321527  0.376808  1
  Ho  Ho18  1  0.180881  0.678442  0.876822  1
  Ho  Ho19  1  0.680867  0.821536  0.623159  1
  Si  Si20  1  0.768395  0.621724  0.250002  1
  Si  Si21  1  0.268403  0.878270  0.249999  1
  Si  Si22  1  0.731629  0.121808  0.749962  1
  Si  Si23  1  0.231614  0.378290  0.749996  1
  Si  Si24  1  0.024060  0.110876  0.250001  1
  Si  Si25  1  0.524053  0.389127  0.250006  1
  Si  Si26  1  0.475845  0.610789  0.749957  1
  Si  Si27  1  0.976051  0.889155  0.749951  1
  Si  Si28  1  0.855641  0.530554  0.959971  1
  Si  Si29  1  0.355543  0.969354  0.540065  1
  Si  Si30  1  0.644424  0.030735  0.040127  1
  Si  Si31  1  0.144462  0.469354  0.459933  1
  Si  Si32  1  0.144456  0.469343  0.040067  1
  Si  Si33  1  0.644461  0.030648  0.459936  1
  Si  Si34  1  0.355437  0.969416  0.959968  1
  Si  Si35  1  0.855535  0.530647  0.540066  1
