# generated using pymatgen
data_Sm3ZnP6N13
_symmetry_space_group_name_H-M   'P 1'
_cell_length_a   7.31638040
_cell_length_b   7.31638099
_cell_length_c   7.31638300
_cell_angle_alpha   108.87979399
_cell_angle_beta   108.87978729
_cell_angle_gamma   108.87978516
_symmetry_Int_Tables_number   1
_chemical_formula_structural   Sm3ZnP6N13
_chemical_formula_sum   'Sm3 Zn1 P6 N13'
_cell_volume   307.91072562
_cell_formula_units_Z   1
loop_
 _symmetry_equiv_pos_site_id
 _symmetry_equiv_pos_as_xyz
  1  'x, y, z'
loop_
 _atom_site_type_symbol
 _atom_site_label
 _atom_site_symmetry_multiplicity
 _atom_site_fract_x
 _atom_site_fract_y
 _atom_site_fract_z
 _atom_site_occupancy
  Sm  Sm0  1  0.703482  0.016354  0.016354  1
  Sm  Sm1  1  0.016354  0.016354  0.703482  1
  Sm  Sm2  1  0.016354  0.703482  0.016354  1
  Zn  Zn3  1  0.281869  0.281869  0.281869  1
  P  P4  1  0.253338  0.759463  0.509349  1
  P  P5  1  0.759463  0.253338  0.509349  1
  P  P6  1  0.759463  0.509349  0.253338  1
  P  P7  1  0.253338  0.509349  0.759463  1
  P  P8  1  0.509349  0.759463  0.253338  1
  P  P9  1  0.509349  0.253338  0.759463  1
  N  N10  1  0.850979  0.850979  0.850979  1
  N  N11  1  0.752674  0.322926  0.322926  1
  N  N12  1  0.322926  0.752674  0.322926  1
  N  N13  1  0.272454  0.576485  0.576485  1
  N  N14  1  0.576485  0.576485  0.272454  1
  N  N15  1  0.397178  0.732285  0.001895  1
  N  N16  1  0.001895  0.732285  0.397178  1
  N  N17  1  0.576485  0.272454  0.576485  1
  N  N18  1  0.732285  0.001895  0.397178  1
  N  N19  1  0.397178  0.001895  0.732285  1
  N  N20  1  0.732285  0.397178  0.001895  1
  N  N21  1  0.322926  0.322926  0.752674  1
  N  N22  1  0.001895  0.397178  0.732285  1
