# generated using pymatgen
data_Hf5Zr5(In2Rh)4
_symmetry_space_group_name_H-M   'P 1'
_cell_length_a   17.60734464
_cell_length_b   7.63641890
_cell_length_c   3.37890900
_cell_angle_alpha   90.00000000
_cell_angle_beta   90.00000000
_cell_angle_gamma   89.90027629
_symmetry_Int_Tables_number   1
_chemical_formula_structural   Hf5Zr5(In2Rh)4
_chemical_formula_sum   'Hf5 Zr5 In8 Rh4'
_cell_volume   454.31748014
_cell_formula_units_Z   1
loop_
 _symmetry_equiv_pos_site_id
 _symmetry_equiv_pos_as_xyz
  1  'x, y, z'
loop_
 _atom_site_type_symbol
 _atom_site_label
 _atom_site_symmetry_multiplicity
 _atom_site_fract_x
 _atom_site_fract_y
 _atom_site_fract_z
 _atom_site_occupancy
  Hf  Hf0  1  0.080884  0.638784  0.000000  1
  Hf  Hf1  1  0.222007  0.259877  0.000000  1
  Hf  Hf2  1  0.777896  0.738677  0.000000  1
  Hf  Hf3  1  0.722610  0.239459  0.000000  1
  Hf  Hf4  1  0.277301  0.761318  0.000000  1
  Zr  Zr5  1  0.000631  0.999479  0.000000  1
  Zr  Zr6  1  0.499806  0.499896  0.000000  1
  Zr  Zr7  1  0.420718  0.139106  0.000000  1
  Zr  Zr8  1  0.578952  0.860776  0.000000  1
  Zr  Zr9  1  0.921004  0.360169  0.000000  1
  In  In10  1  0.568346  0.198947  0.500000  1
  In  In11  1  0.431374  0.801015  0.500000  1
  In  In12  1  0.068363  0.301468  0.500000  1
  In  In13  1  0.932752  0.698762  0.500000  1
  In  In14  1  0.850697  0.060954  0.500000  1
  In  In15  1  0.149518  0.938644  0.500000  1
  In  In16  1  0.349875  0.439136  0.500000  1
  In  In17  1  0.649334  0.561227  0.500000  1
  Rh  Rh18  1  0.304845  0.049226  0.500000  1
  Rh  Rh19  1  0.695004  0.950844  0.500000  1
  Rh  Rh20  1  0.805425  0.451251  0.500000  1
  Rh  Rh21  1  0.192658  0.550975  0.500000  1
