# generated using pymatgen
data_Zr2In(PO4)3
_symmetry_space_group_name_H-M   'P 1'
_cell_length_a   8.86966549
_cell_length_b   8.86966539
_cell_length_c   9.62566230
_cell_angle_alpha   117.43423766
_cell_angle_beta   117.43423111
_cell_angle_gamma   59.99999785
_symmetry_Int_Tables_number   1
_chemical_formula_structural   Zr2In(PO4)3
_chemical_formula_sum   'Zr4 In2 P6 O24'
_cell_volume   555.29824078
_cell_formula_units_Z   2
loop_
 _symmetry_equiv_pos_site_id
 _symmetry_equiv_pos_as_xyz
  1  'x, y, z'
loop_
 _atom_site_type_symbol
 _atom_site_label
 _atom_site_symmetry_multiplicity
 _atom_site_fract_x
 _atom_site_fract_y
 _atom_site_fract_z
 _atom_site_occupancy
  Zr  Zr0  1  0.349929  0.349929  0.049789  1
  Zr  Zr1  1  0.150070  0.150070  0.450210  1
  Zr  Zr2  1  0.849930  0.849929  0.549790  1
  Zr  Zr3  1  0.650070  0.650071  0.950211  1
  In  In4  1  0.000000  0.000000  0.000000  1
  In  In5  1  0.499999  0.500000  0.499999  1
  P  P6  1  0.750000  0.036841  0.250000  1
  P  P7  1  0.463159  0.749999  0.250000  1
  P  P8  1  0.036841  0.463158  0.250000  1
  P  P9  1  0.963159  0.536841  0.750000  1
  P  P10  1  0.536841  0.250000  0.750000  1
  P  P11  1  0.250000  0.963159  0.750000  1
  O  O12  1  0.867499  0.489616  0.098383  1
  O  O13  1  0.741267  0.867499  0.098383  1
  O  O14  1  0.489616  0.741267  0.098383  1
  O  O15  1  0.577462  0.203694  0.210114  1
  O  O16  1  0.428958  0.577462  0.210114  1
  O  O17  1  0.203694  0.428957  0.210114  1
  O  O18  1  0.922537  0.071043  0.289887  1
  O  O19  1  0.296306  0.922539  0.289887  1
  O  O20  1  0.071043  0.296306  0.289887  1
  O  O21  1  0.758734  0.010384  0.401617  1
  O  O22  1  0.632500  0.758733  0.401617  1
  O  O23  1  0.010384  0.632500  0.401617  1
  O  O24  1  0.989616  0.367500  0.598383  1
  O  O25  1  0.367500  0.241267  0.598383  1
  O  O26  1  0.241267  0.989617  0.598383  1
  O  O27  1  0.928957  0.703694  0.710113  1
  O  O28  1  0.703694  0.077462  0.710113  1
  O  O29  1  0.077463  0.928957  0.710113  1
  O  O30  1  0.796307  0.571043  0.789887  1
  O  O31  1  0.571043  0.422538  0.789887  1
  O  O32  1  0.422538  0.796306  0.789887  1
  O  O33  1  0.510384  0.258734  0.901617  1
  O  O34  1  0.258733  0.132500  0.901617  1
  O  O35  1  0.132500  0.510384  0.901617  1
