# generated using pymatgen
data_CsAu2F11
_symmetry_space_group_name_H-M   'P 1'
_cell_length_a   14.64633000
_cell_length_b   7.92522798
_cell_length_c   9.90593500
_cell_angle_alpha   65.50049647
_cell_angle_beta   90.00000000
_cell_angle_gamma   90.00000000
_symmetry_Int_Tables_number   1
_chemical_formula_structural   CsAu2F11
_chemical_formula_sum   'Cs4 Au8 F44'
_cell_volume   1046.31072401
_cell_formula_units_Z   4
loop_
 _symmetry_equiv_pos_site_id
 _symmetry_equiv_pos_as_xyz
  1  'x, y, z'
loop_
 _atom_site_type_symbol
 _atom_site_label
 _atom_site_symmetry_multiplicity
 _atom_site_fract_x
 _atom_site_fract_y
 _atom_site_fract_z
 _atom_site_occupancy
  Cs  Cs0  1  0.624891  0.735372  0.268788  1
  Cs  Cs1  1  0.375109  0.264628  0.731212  1
  Cs  Cs2  1  0.875109  0.735372  0.768788  1
  Cs  Cs3  1  0.124891  0.264628  0.231212  1
  Au  Au4  1  0.944555  0.719094  0.247996  1
  Au  Au5  1  0.055445  0.280906  0.752004  1
  Au  Au6  1  0.555445  0.719094  0.747996  1
  Au  Au7  1  0.808858  0.290671  0.311126  1
  Au  Au8  1  0.191142  0.709329  0.688874  1
  Au  Au9  1  0.308858  0.709329  0.188874  1
  Au  Au10  1  0.691142  0.290671  0.811126  1
  Au  Au11  1  0.444555  0.280906  0.252004  1
  F  F12  1  0.353989  0.901655  0.004360  1
  F  F13  1  0.945534  0.411886  0.653627  1
  F  F14  1  0.514712  0.059984  0.349833  1
  F  F15  1  0.747737  0.106299  0.267125  1
  F  F16  1  0.252263  0.893701  0.732875  1
  F  F17  1  0.870852  0.483445  0.369083  1
  F  F18  1  0.752263  0.106299  0.767125  1
  F  F19  1  0.799472  0.323719  0.910891  1
  F  F20  1  0.247737  0.893701  0.232875  1
  F  F21  1  0.485288  0.940016  0.650167  1
  F  F22  1  0.200528  0.676281  0.089109  1
  F  F23  1  0.332672  0.156811  0.350410  1
  F  F24  1  0.554466  0.411886  0.153627  1
  F  F25  1  0.146011  0.901655  0.504360  1
  F  F26  1  0.734799  0.490914  0.629281  1
  F  F27  1  0.234799  0.509086  0.870719  1
  F  F28  1  0.445534  0.588114  0.846373  1
  F  F29  1  0.968768  0.644079  0.086869  1
  F  F30  1  0.418943  0.740279  0.286588  1
  F  F31  1  0.299472  0.676281  0.589109  1
  F  F32  1  0.580261  0.792528  0.908961  1
  F  F33  1  0.031232  0.355921  0.913131  1
  F  F34  1  0.167328  0.156811  0.850410  1
  F  F35  1  0.853989  0.098345  0.495640  1
  F  F36  1  0.700528  0.323719  0.410891  1
  F  F37  1  0.629148  0.483445  0.869083  1
  F  F38  1  0.080261  0.207472  0.591039  1
  F  F39  1  0.985288  0.059984  0.849833  1
  F  F40  1  0.646011  0.098345  0.995640  1
  F  F41  1  0.581057  0.259721  0.713412  1
  F  F42  1  0.919739  0.792528  0.408961  1
  F  F43  1  0.765201  0.490914  0.129281  1
  F  F44  1  0.054466  0.588114  0.346373  1
  F  F45  1  0.370852  0.516555  0.130917  1
  F  F46  1  0.265201  0.509086  0.370719  1
  F  F47  1  0.468768  0.355921  0.413131  1
  F  F48  1  0.419739  0.207472  0.091039  1
  F  F49  1  0.531232  0.644079  0.586869  1
  F  F50  1  0.014712  0.940016  0.150167  1
  F  F51  1  0.667328  0.843189  0.649590  1
  F  F52  1  0.832672  0.843189  0.149590  1
  F  F53  1  0.918943  0.259721  0.213412  1
  F  F54  1  0.129148  0.516555  0.630917  1
  F  F55  1  0.081057  0.740279  0.786588  1
