# generated using pymatgen
data_YTm7(AlRu)8
_symmetry_space_group_name_H-M   'P 1'
_cell_length_a   4.05157000
_cell_length_b   6.94594186
_cell_length_c   15.83946649
_cell_angle_alpha   89.77166240
_cell_angle_beta   90.00000000
_cell_angle_gamma   90.00000000
_symmetry_Int_Tables_number   1
_chemical_formula_structural   YTm7(AlRu)8
_chemical_formula_sum   'Y1 Tm7 Al8 Ru8'
_cell_volume   445.75024591
_cell_formula_units_Z   1
loop_
 _symmetry_equiv_pos_site_id
 _symmetry_equiv_pos_as_xyz
  1  'x, y, z'
loop_
 _atom_site_type_symbol
 _atom_site_label
 _atom_site_symmetry_multiplicity
 _atom_site_fract_x
 _atom_site_fract_y
 _atom_site_fract_z
 _atom_site_occupancy
  Y  Y0  1  0.250000  0.537103  0.719392  1
  Tm  Tm1  1  0.750000  0.962543  0.219174  1
  Tm  Tm2  1  0.250000  0.157887  0.563053  1
  Tm  Tm3  1  0.750000  0.843755  0.435599  1
  Tm  Tm4  1  0.750000  0.462609  0.281049  1
  Tm  Tm5  1  0.750000  0.342358  0.064340  1
  Tm  Tm6  1  0.250000  0.656233  0.936741  1
  Tm  Tm7  1  0.250000  0.037372  0.781331  1
  Al  Al8  1  0.750000  0.502699  0.565086  1
  Al  Al9  1  0.750000  0.364770  0.849353  1
  Al  Al10  1  0.750000  0.000749  0.934691  1
  Al  Al11  1  0.750000  0.867390  0.650866  1
  Al  Al12  1  0.250000  0.499158  0.433555  1
  Al  Al13  1  0.250000  0.997395  0.066676  1
  Al  Al14  1  0.250000  0.633491  0.151985  1
  Al  Al15  1  0.250000  0.134173  0.348161  1
  Ru  Ru16  1  0.750000  0.750054  0.813772  1
  Ru  Ru17  1  0.250000  0.236160  0.938260  1
  Ru  Ru18  1  0.750000  0.263439  0.437145  1
  Ru  Ru19  1  0.250000  0.753344  0.312518  1
  Ru  Ru20  1  0.750000  0.761750  0.062907  1
  Ru  Ru21  1  0.750000  0.243170  0.686468  1
  Ru  Ru22  1  0.250000  0.252412  0.187297  1
  Ru  Ru23  1  0.250000  0.739987  0.560583  1
