# generated using pymatgen
data_Ho2Tm2LuRu2
_symmetry_space_group_name_H-M   'P 1'
_cell_length_a   6.24944565
_cell_length_b   7.24091385
_cell_length_c   8.35839330
_cell_angle_alpha   96.97392803
_cell_angle_beta   111.95278235
_cell_angle_gamma   89.99998928
_symmetry_Int_Tables_number   1
_chemical_formula_structural   Ho2Tm2LuRu2
_chemical_formula_sum   'Ho4 Tm4 Lu2 Ru4'
_cell_volume   347.78783983
_cell_formula_units_Z   2
loop_
 _symmetry_equiv_pos_site_id
 _symmetry_equiv_pos_as_xyz
  1  'x, y, z'
loop_
 _atom_site_type_symbol
 _atom_site_label
 _atom_site_symmetry_multiplicity
 _atom_site_fract_x
 _atom_site_fract_y
 _atom_site_fract_z
 _atom_site_occupancy
  Ho  Ho0  1  0.521891  0.083453  0.812656  1
  Ho  Ho1  1  0.478109  0.916547  0.187344  1
  Ho  Ho2  1  0.709235  0.416547  0.187344  1
  Ho  Ho3  1  0.290765  0.583453  0.812656  1
  Tm  Tm4  1  0.299703  0.313102  0.433042  1
  Tm  Tm5  1  0.700297  0.686898  0.566958  1
  Tm  Tm6  1  0.866662  0.186898  0.566958  1
  Tm  Tm7  1  0.133338  0.813102  0.433042  1
  Lu  Lu8  1  0.079754  0.250000  0.000000  1
  Lu  Lu9  1  0.920246  0.750000  0.000000  1
  Ru  Ru10  1  0.320324  0.576808  0.220343  1
  Ru  Ru11  1  0.679676  0.423192  0.779657  1
  Ru  Ru12  1  0.099982  0.923192  0.779657  1
  Ru  Ru13  1  0.900018  0.076808  0.220343  1
