# generated using pymatgen
data_TcMoAs3
_symmetry_space_group_name_H-M   'P 1'
_cell_length_a   6.77375319
_cell_length_b   6.75096726
_cell_length_c   8.08851450
_cell_angle_alpha   95.41713920
_cell_angle_beta   102.04392857
_cell_angle_gamma   104.39706531
_symmetry_Int_Tables_number   1
_chemical_formula_structural   TcMoAs3
_chemical_formula_sum   'Tc4 Mo4 As12'
_cell_volume   346.17749240
_cell_formula_units_Z   4
loop_
 _symmetry_equiv_pos_site_id
 _symmetry_equiv_pos_as_xyz
  1  'x, y, z'
loop_
 _atom_site_type_symbol
 _atom_site_label
 _atom_site_symmetry_multiplicity
 _atom_site_fract_x
 _atom_site_fract_y
 _atom_site_fract_z
 _atom_site_occupancy
  Tc  Tc0  1  0.528562  0.863402  0.367955  1
  Tc  Tc1  1  0.471438  0.136598  0.632045  1
  Tc  Tc2  1  0.095373  0.875354  0.377431  1
  Tc  Tc3  1  0.904627  0.124646  0.622569  1
  Mo  Mo4  1  0.893406  0.431064  0.133363  1
  Mo  Mo5  1  0.106594  0.568936  0.866637  1
  Mo  Mo6  1  0.387055  0.432415  0.127489  1
  Mo  Mo7  1  0.612945  0.567585  0.872511  1
  As  As8  1  0.746504  0.609841  0.362402  1
  As  As9  1  0.253496  0.390159  0.637598  1
  As  As10  1  0.232346  0.564474  0.377898  1
  As  As11  1  0.767654  0.435526  0.622102  1
  As  As12  1  0.853754  0.117784  0.312450  1
  As  As13  1  0.146246  0.882216  0.687550  1
  As  As14  1  0.373021  0.151174  0.318383  1
  As  As15  1  0.626979  0.848826  0.681617  1
  As  As16  1  0.542493  0.196510  0.959903  1
  As  As17  1  0.457507  0.803490  0.040097  1
  As  As18  1  0.034702  0.194199  0.955507  1
  As  As19  1  0.965298  0.805801  0.044493  1
