# generated using pymatgen
data_SnBi6(PdO9)2
_symmetry_space_group_name_H-M   'P 1'
_cell_length_a   9.36538900
_cell_length_b   9.36538670
_cell_length_c   5.20711900
_cell_angle_alpha   90.00000000
_cell_angle_beta   90.00000000
_cell_angle_gamma   119.99999753
_symmetry_Int_Tables_number   1
_chemical_formula_structural   SnBi6(PdO9)2
_chemical_formula_sum   'Sn1 Bi6 Pd2 O18'
_cell_volume   395.53022880
_cell_formula_units_Z   1
loop_
 _symmetry_equiv_pos_site_id
 _symmetry_equiv_pos_as_xyz
  1  'x, y, z'
loop_
 _atom_site_type_symbol
 _atom_site_label
 _atom_site_symmetry_multiplicity
 _atom_site_fract_x
 _atom_site_fract_y
 _atom_site_fract_z
 _atom_site_occupancy
  Sn  Sn0  1  0.666667  0.333333  0.012416  1
  Bi  Bi1  1  0.999085  0.370168  0.504631  1
  Bi  Bi2  1  0.291894  0.296459  0.003421  1
  Bi  Bi3  1  0.004564  0.708106  0.003421  1
  Bi  Bi4  1  0.629832  0.628917  0.504631  1
  Bi  Bi5  1  0.371083  0.000915  0.504631  1
  Bi  Bi6  1  0.703541  0.995436  0.003421  1
  Pd  Pd7  1  0.000000  0.000000  0.492774  1
  Pd  Pd8  1  0.333333  0.666667  0.996264  1
  O  O9  1  0.095047  0.206119  0.711387  1
  O  O10  1  0.217234  0.454933  0.206579  1
  O  O11  1  0.127614  0.594472  0.785155  1
  O  O12  1  0.405528  0.533142  0.785155  1
  O  O13  1  0.237699  0.782766  0.206579  1
  O  O14  1  0.111072  0.904953  0.711387  1
  O  O15  1  0.545067  0.762301  0.206579  1
  O  O16  1  0.203191  0.084810  0.266974  1
  O  O17  1  0.466858  0.872386  0.785155  1
  O  O18  1  0.793881  0.888928  0.711387  1
  O  O19  1  0.449127  0.227718  0.788598  1
  O  O20  1  0.599037  0.122218  0.232770  1
  O  O21  1  0.523181  0.400963  0.232770  1
  O  O22  1  0.772282  0.221409  0.788598  1
  O  O23  1  0.915190  0.118381  0.266974  1
  O  O24  1  0.778591  0.550873  0.788598  1
  O  O25  1  0.877782  0.476819  0.232770  1
  O  O26  1  0.881619  0.796809  0.266974  1
