# generated using pymatgen
data_ReTc5(Se4I)2
_symmetry_space_group_name_H-M   'P 1'
_cell_length_a   12.17214500
_cell_length_b   6.67719655
_cell_length_c   11.79390884
_cell_angle_alpha   67.62501720
_cell_angle_beta   90.00000000
_cell_angle_gamma   90.00000000
_symmetry_Int_Tables_number   1
_chemical_formula_structural   ReTc5(Se4I)2
_chemical_formula_sum   'Re2 Tc10 Se16 I4'
_cell_volume   886.39172763
_cell_formula_units_Z   2
loop_
 _symmetry_equiv_pos_site_id
 _symmetry_equiv_pos_as_xyz
  1  'x, y, z'
loop_
 _atom_site_type_symbol
 _atom_site_label
 _atom_site_symmetry_multiplicity
 _atom_site_fract_x
 _atom_site_fract_y
 _atom_site_fract_z
 _atom_site_occupancy
  Re  Re0  1  0.560426  0.029544  0.349101  1
  Re  Re1  1  0.939574  0.029544  0.849101  1
  Tc  Tc2  1  0.439534  0.970805  0.651828  1
  Tc  Tc3  1  0.060466  0.970805  0.151828  1
  Tc  Tc4  1  0.358820  0.964932  0.445812  1
  Tc  Tc5  1  0.141180  0.964932  0.945812  1
  Tc  Tc6  1  0.641328  0.035236  0.554705  1
  Tc  Tc7  1  0.858672  0.035236  0.054705  1
  Tc  Tc8  1  0.521616  0.701432  0.556877  1
  Tc  Tc9  1  0.978384  0.701432  0.056877  1
  Tc  Tc10  1  0.478774  0.298313  0.443587  1
  Tc  Tc11  1  0.021226  0.298313  0.943587  1
  Se  Se12  1  0.439374  0.721101  0.346481  1
  Se  Se13  1  0.060626  0.721101  0.846481  1
  Se  Se14  1  0.560456  0.279464  0.652535  1
  Se  Se15  1  0.939544  0.279464  0.152535  1
  Se  Se16  1  0.332039  0.653837  0.647838  1
  Se  Se17  1  0.167961  0.653837  0.147838  1
  Se  Se18  1  0.669051  0.347014  0.351580  1
  Se  Se19  1  0.830949  0.347014  0.851580  1
  Se  Se20  1  0.402464  0.279731  0.248446  1
  Se  Se21  1  0.097536  0.279731  0.748446  1
  Se  Se22  1  0.597487  0.720834  0.750697  1
  Se  Se23  1  0.902513  0.720834  0.250697  1
  Se  Se24  1  0.711126  0.774830  0.463229  1
  Se  Se25  1  0.788874  0.774830  0.963229  1
  Se  Se26  1  0.289937  0.225347  0.536126  1
  Se  Se27  1  0.210063  0.225347  0.036126  1
  I  I28  1  0.138242  0.901866  0.389550  1
  I  I29  1  0.361758  0.901866  0.889550  1
  I  I30  1  0.862625  0.095713  0.611607  1
  I  I31  1  0.637375  0.095713  0.111607  1
