# generated using pymatgen
data_CeCoP3Rh3W
_symmetry_space_group_name_H-M   'P 1'
_cell_length_a   3.90087700
_cell_length_b   10.83052400
_cell_length_c   12.46469700
_cell_angle_alpha   90.00000000
_cell_angle_beta   90.00000000
_cell_angle_gamma   90.00000000
_symmetry_Int_Tables_number   1
_chemical_formula_structural   CeCoP3Rh3W
_chemical_formula_sum   'Ce4 Co4 P12 Rh12 W4'
_cell_volume   526.61527434
_cell_formula_units_Z   4
loop_
 _symmetry_equiv_pos_site_id
 _symmetry_equiv_pos_as_xyz
  1  'x, y, z'
loop_
 _atom_site_type_symbol
 _atom_site_label
 _atom_site_symmetry_multiplicity
 _atom_site_fract_x
 _atom_site_fract_y
 _atom_site_fract_z
 _atom_site_occupancy
  Ce  Ce0  1  0.250000  0.582689  0.707780  1
  Ce  Ce1  1  0.250000  0.917311  0.207780  1
  Ce  Ce2  1  0.750000  0.417311  0.292220  1
  Ce  Ce3  1  0.750000  0.082689  0.792220  1
  Co  Co4  1  0.250000  0.462916  0.935518  1
  Co  Co5  1  0.250000  0.037084  0.435518  1
  Co  Co6  1  0.750000  0.537084  0.064482  1
  Co  Co7  1  0.750000  0.962916  0.564482  1
  P  P8  1  0.250000  0.423397  0.106437  1
  P  P9  1  0.250000  0.076603  0.606437  1
  P  P10  1  0.750000  0.576603  0.893563  1
  P  P11  1  0.750000  0.923397  0.393563  1
  P  P12  1  0.250000  0.272114  0.871830  1
  P  P13  1  0.250000  0.227886  0.371830  1
  P  P14  1  0.750000  0.727886  0.128170  1
  P  P15  1  0.750000  0.772114  0.628170  1
  P  P16  1  0.250000  0.601963  0.392650  1
  P  P17  1  0.250000  0.898037  0.892650  1
  P  P18  1  0.750000  0.398037  0.607350  1
  P  P19  1  0.750000  0.101963  0.107350  1
  Rh  Rh20  1  0.250000  0.403907  0.486235  1
  Rh  Rh21  1  0.250000  0.096093  0.986235  1
  Rh  Rh22  1  0.750000  0.596093  0.513765  1
  Rh  Rh23  1  0.750000  0.903907  0.013765  1
  Rh  Rh24  1  0.250000  0.228573  0.178877  1
  Rh  Rh25  1  0.250000  0.271427  0.678877  1
  Rh  Rh26  1  0.750000  0.771427  0.821123  1
  Rh  Rh27  1  0.750000  0.728573  0.321123  1
  Rh  Rh28  1  0.250000  0.888558  0.699524  1
  Rh  Rh29  1  0.250000  0.611442  0.199524  1
  Rh  Rh30  1  0.750000  0.111442  0.300476  1
  Rh  Rh31  1  0.750000  0.388558  0.800476  1
  W  W32  1  0.250000  0.705452  0.986332  1
  W  W33  1  0.250000  0.794548  0.486332  1
  W  W34  1  0.750000  0.294548  0.013668  1
  W  W35  1  0.750000  0.205452  0.513668  1
