# generated using pymatgen
data_Cs4VFe3P12(HO10)4
_symmetry_space_group_name_H-M   'P 1'
_cell_length_a   8.84975305
_cell_length_b   9.19477312
_cell_length_c   12.28562700
_cell_angle_alpha   69.04856361
_cell_angle_beta   89.99397892
_cell_angle_gamma   90.00321219
_symmetry_Int_Tables_number   1
_chemical_formula_structural   Cs4VFe3P12(HO10)4
_chemical_formula_sum   'Cs4 V1 Fe3 P12 H4 O40'
_cell_volume   933.60324319
_cell_formula_units_Z   1
loop_
 _symmetry_equiv_pos_site_id
 _symmetry_equiv_pos_as_xyz
  1  'x, y, z'
loop_
 _atom_site_type_symbol
 _atom_site_label
 _atom_site_symmetry_multiplicity
 _atom_site_fract_x
 _atom_site_fract_y
 _atom_site_fract_z
 _atom_site_occupancy
  Cs  Cs0  1  0.563229  0.250080  0.499551  1
  Cs  Cs1  1  0.063708  0.249648  0.000448  1
  Cs  Cs2  1  0.436349  0.750372  0.499546  1
  Cs  Cs3  1  0.936787  0.749945  0.000442  1
  V  V4  1  0.249969  0.999979  0.749992  1
  Fe  Fe5  1  0.749926  0.500034  0.750000  1
  Fe  Fe6  1  0.749949  0.000007  0.250001  1
  Fe  Fe7  1  0.249995  0.499935  0.249967  1
  P  P8  1  0.124022  0.250429  0.499021  1
  P  P9  1  0.623959  0.250038  0.000044  1
  P  P10  1  0.876049  0.750022  0.499934  1
  P  P11  1  0.376018  0.749563  0.001008  1
  P  P12  1  0.939533  0.200839  0.707111  1
  P  P13  1  0.439602  0.200031  0.207980  1
  P  P14  1  0.939255  0.300065  0.291726  1
  P  P15  1  0.439733  0.300062  0.792243  1
  P  P16  1  0.060373  0.799930  0.291982  1
  P  P17  1  0.560495  0.799204  0.792921  1
  P  P18  1  0.060164  0.699878  0.707713  1
  P  P19  1  0.560766  0.699875  0.208308  1
  H  H20  1  0.249885  0.999855  0.250075  1
  H  H21  1  0.750082  0.000098  0.749939  1
  H  H22  1  0.750051  0.499988  0.250006  1
  H  H23  1  0.250027  0.500014  0.750016  1
  O  O24  1  0.013759  0.196379  0.417419  1
  O  O25  1  0.514518  0.195727  0.917852  1
  O  O26  1  0.014707  0.304553  0.581745  1
  O  O27  1  0.514631  0.304275  0.082047  1
  O  O28  1  0.985474  0.804344  0.582104  1
  O  O29  1  0.486286  0.803630  0.082603  1
  O  O30  1  0.985443  0.695794  0.417955  1
  O  O31  1  0.485304  0.695454  0.918270  1
  O  O32  1  0.817610  0.102818  0.676793  1
  O  O33  1  0.317685  0.102732  0.176847  1
  O  O34  1  0.817155  0.397066  0.322962  1
  O  O35  1  0.317483  0.397154  0.823103  1
  O  O36  1  0.182294  0.897279  0.323123  1
  O  O37  1  0.682452  0.897187  0.823222  1
  O  O38  1  0.182569  0.602938  0.676854  1
  O  O39  1  0.682931  0.602971  0.177052  1
  O  O40  1  0.879349  0.317783  0.757385  1
  O  O41  1  0.379241  0.317388  0.257754  1
  O  O42  1  0.879076  0.182348  0.242083  1
  O  O43  1  0.378225  0.183707  0.741646  1
  O  O44  1  0.120777  0.682579  0.242231  1
  O  O45  1  0.620618  0.682312  0.742555  1
  O  O46  1  0.121646  0.816123  0.758411  1
  O  O47  1  0.620922  0.817617  0.257937  1
  O  O48  1  0.212556  0.392857  0.425656  1
  O  O49  1  0.713626  0.391405  0.926514  1
  O  O50  1  0.214139  0.109512  0.570710  1
  O  O51  1  0.713811  0.108720  0.073321  1
  O  O52  1  0.786421  0.608658  0.573492  1
  O  O53  1  0.287490  0.607109  0.074346  1
  O  O54  1  0.786200  0.891343  0.426686  1
  O  O55  1  0.285835  0.890421  0.929313  1
  O  O56  1  0.064734  0.397938  0.213152  1
  O  O57  1  0.565235  0.397505  0.713689  1
  O  O58  1  0.064663  0.102106  0.786339  1
  O  O59  1  0.565195  0.102234  0.286487  1
  O  O60  1  0.934635  0.602508  0.786326  1
  O  O61  1  0.435239  0.601999  0.286842  1
  O  O62  1  0.934790  0.897764  0.213542  1
  O  O63  1  0.435349  0.897875  0.713659  1
