# generated using pymatgen
data_CeSm3Co12(P3Rh2)4
_symmetry_space_group_name_H-M   'P 1'
_cell_length_a   3.78132800
_cell_length_b   10.58608530
_cell_length_c   12.17966546
_cell_angle_alpha   89.94354395
_cell_angle_beta   90.00000000
_cell_angle_gamma   90.00000000
_symmetry_Int_Tables_number   1
_chemical_formula_structural   CeSm3Co12(P3Rh2)4
_chemical_formula_sum   'Ce1 Sm3 Co12 P12 Rh8'
_cell_volume   487.54520389
_cell_formula_units_Z   1
loop_
 _symmetry_equiv_pos_site_id
 _symmetry_equiv_pos_as_xyz
  1  'x, y, z'
loop_
 _atom_site_type_symbol
 _atom_site_label
 _atom_site_symmetry_multiplicity
 _atom_site_fract_x
 _atom_site_fract_y
 _atom_site_fract_z
 _atom_site_occupancy
  Ce  Ce0  1  0.250000  0.584659  0.709287  1
  Sm  Sm1  1  0.250000  0.914977  0.209314  1
  Sm  Sm2  1  0.750000  0.415718  0.290805  1
  Sm  Sm3  1  0.750000  0.084562  0.790260  1
  Co  Co4  1  0.250000  0.221847  0.177905  1
  Co  Co5  1  0.250000  0.278579  0.678181  1
  Co  Co6  1  0.750000  0.778368  0.821911  1
  Co  Co7  1  0.750000  0.721140  0.322564  1
  Co  Co8  1  0.250000  0.882462  0.696871  1
  Co  Co9  1  0.250000  0.617547  0.196771  1
  Co  Co10  1  0.750000  0.117122  0.302801  1
  Co  Co11  1  0.750000  0.383398  0.803577  1
  Co  Co12  1  0.250000  0.463627  0.931210  1
  Co  Co13  1  0.250000  0.036293  0.431723  1
  Co  Co14  1  0.750000  0.536500  0.067677  1
  Co  Co15  1  0.750000  0.964138  0.567321  1
  P  P16  1  0.250000  0.422628  0.109672  1
  P  P17  1  0.250000  0.077569  0.609481  1
  P  P18  1  0.750000  0.577973  0.890624  1
  P  P19  1  0.750000  0.922369  0.390182  1
  P  P20  1  0.250000  0.276587  0.862832  1
  P  P21  1  0.250000  0.222971  0.362253  1
  P  P22  1  0.750000  0.722772  0.137635  1
  P  P23  1  0.750000  0.778867  0.637785  1
  P  P24  1  0.250000  0.606093  0.379925  1
  P  P25  1  0.250000  0.894456  0.880457  1
  P  P26  1  0.750000  0.391965  0.620057  1
  P  P27  1  0.750000  0.106013  0.119572  1
  Rh  Rh28  1  0.250000  0.711427  0.986449  1
  Rh  Rh29  1  0.250000  0.787949  0.486865  1
  Rh  Rh30  1  0.750000  0.288520  0.012714  1
  Rh  Rh31  1  0.750000  0.211250  0.512451  1
  Rh  Rh32  1  0.250000  0.406510  0.483145  1
  Rh  Rh33  1  0.250000  0.093859  0.983098  1
  Rh  Rh34  1  0.750000  0.593423  0.519576  1
  Rh  Rh35  1  0.750000  0.905863  0.017048  1
