# generated using pymatgen
data_Yb6Ho2Si12IrPd3
_symmetry_space_group_name_H-M   'P 1'
_cell_length_a   8.23207100
_cell_length_b   8.23207245
_cell_length_c   8.10363300
_cell_angle_alpha   90.00000000
_cell_angle_beta   90.00000000
_cell_angle_gamma   119.99999818
_symmetry_Int_Tables_number   1
_chemical_formula_structural   Yb6Ho2Si12IrPd3
_chemical_formula_sum   'Yb6 Ho2 Si12 Ir1 Pd3'
_cell_volume   475.58559908
_cell_formula_units_Z   1
loop_
 _symmetry_equiv_pos_site_id
 _symmetry_equiv_pos_as_xyz
  1  'x, y, z'
loop_
 _atom_site_type_symbol
 _atom_site_label
 _atom_site_symmetry_multiplicity
 _atom_site_fract_x
 _atom_site_fract_y
 _atom_site_fract_z
 _atom_site_occupancy
  Yb  Yb0  1  0.499241  0.998481  0.247527  1
  Yb  Yb1  1  0.497060  0.994121  0.752549  1
  Yb  Yb2  1  0.001519  0.500759  0.247527  1
  Yb  Yb3  1  0.005879  0.502940  0.752549  1
  Yb  Yb4  1  0.499241  0.500759  0.247527  1
  Yb  Yb5  1  0.497060  0.502940  0.752549  1
  Ho  Ho6  1  0.000000  0.000000  0.250151  1
  Ho  Ho7  1  0.000000  0.000000  0.749621  1
  Si  Si8  1  0.167096  0.334191  0.001275  1
  Si  Si9  1  0.836774  0.673550  0.999073  1
  Si  Si10  1  0.665809  0.832904  0.001275  1
  Si  Si11  1  0.835915  0.671830  0.501153  1
  Si  Si12  1  0.326450  0.163226  0.999073  1
  Si  Si13  1  0.163509  0.327017  0.498792  1
  Si  Si14  1  0.167096  0.832904  0.001275  1
  Si  Si15  1  0.328170  0.164085  0.501153  1
  Si  Si16  1  0.836774  0.163226  0.999073  1
  Si  Si17  1  0.672983  0.836491  0.498792  1
  Si  Si18  1  0.835915  0.164085  0.501153  1
  Si  Si19  1  0.163509  0.836491  0.498792  1
  Ir  Ir20  1  0.333333  0.666667  0.001858  1
  Pd  Pd21  1  0.666667  0.333333  0.998287  1
  Pd  Pd22  1  0.666667  0.333333  0.501352  1
  Pd  Pd23  1  0.333333  0.666667  0.497623  1
