# generated using pymatgen
data_SmZr2Al6CoCu2
_symmetry_space_group_name_H-M   'P 1'
_cell_length_a   8.72918903
_cell_length_b   8.72919036
_cell_length_c   8.72918988
_cell_angle_alpha   35.62420060
_cell_angle_beta   35.62418520
_cell_angle_gamma   35.62419342
_symmetry_Int_Tables_number   1
_chemical_formula_structural   SmZr2Al6CoCu2
_chemical_formula_sum   'Sm1 Zr2 Al6 Co1 Cu2'
_cell_volume   201.70824571
_cell_formula_units_Z   1
loop_
 _symmetry_equiv_pos_site_id
 _symmetry_equiv_pos_as_xyz
  1  'x, y, z'
loop_
 _atom_site_type_symbol
 _atom_site_label
 _atom_site_symmetry_multiplicity
 _atom_site_fract_x
 _atom_site_fract_y
 _atom_site_fract_z
 _atom_site_occupancy
  Sm  Sm0  1  0.000000  0.000000  0.000000  1
  Zr  Zr1  1  0.857090  0.857090  0.857090  1
  Zr  Zr2  1  0.142910  0.142910  0.142910  1
  Al  Al3  1  0.413176  0.413176  0.914433  1
  Al  Al4  1  0.914433  0.413176  0.413176  1
  Al  Al5  1  0.413176  0.914433  0.413176  1
  Al  Al6  1  0.586824  0.085567  0.586824  1
  Al  Al7  1  0.085567  0.586824  0.586824  1
  Al  Al8  1  0.586824  0.586824  0.085567  1
  Co  Co9  1  0.500000  0.500000  0.500000  1
  Cu  Cu10  1  0.665944  0.665944  0.665944  1
  Cu  Cu11  1  0.334056  0.334056  0.334056  1
