# generated using pymatgen
data_LaZnAgPd3
_symmetry_space_group_name_H-M   'P 1'
_cell_length_a   5.46737820
_cell_length_b   5.46737834
_cell_length_c   5.17721300
_cell_angle_alpha   58.12799532
_cell_angle_beta   58.12800677
_cell_angle_gamma   60.00000178
_symmetry_Int_Tables_number   1
_chemical_formula_structural   LaZnAgPd3
_chemical_formula_sum   'La1 Zn1 Ag1 Pd3'
_cell_volume   106.23140464
_cell_formula_units_Z   1
loop_
 _symmetry_equiv_pos_site_id
 _symmetry_equiv_pos_as_xyz
  1  'x, y, z'
loop_
 _atom_site_type_symbol
 _atom_site_label
 _atom_site_symmetry_multiplicity
 _atom_site_fract_x
 _atom_site_fract_y
 _atom_site_fract_z
 _atom_site_occupancy
  La  La0  1  0.249073  0.249073  0.252782  1
  Zn  Zn1  1  0.626629  0.626629  0.120112  1
  Ag  Ag2  1  0.996630  0.996630  0.010110  1
  Pd  Pd3  1  0.626874  0.123921  0.622332  1
  Pd  Pd4  1  0.123921  0.626874  0.622332  1
  Pd  Pd5  1  0.626874  0.626874  0.622332  1
