# generated using pymatgen
data_Dy7Er3CuPb6Se
_symmetry_space_group_name_H-M   'P 1'
_cell_length_a   9.18258600
_cell_length_b   9.18258499
_cell_length_c   6.66399800
_cell_angle_alpha   90.00000000
_cell_angle_beta   90.00000000
_cell_angle_gamma   120.00001086
_symmetry_Int_Tables_number   1
_chemical_formula_structural   Dy7Er3CuPb6Se
_chemical_formula_sum   'Dy7 Er3 Cu1 Pb6 Se1'
_cell_volume   486.62610529
_cell_formula_units_Z   1
loop_
 _symmetry_equiv_pos_site_id
 _symmetry_equiv_pos_as_xyz
  1  'x, y, z'
loop_
 _atom_site_type_symbol
 _atom_site_label
 _atom_site_symmetry_multiplicity
 _atom_site_fract_x
 _atom_site_fract_y
 _atom_site_fract_z
 _atom_site_occupancy
  Dy  Dy0  1  0.253360  0.000117  0.246455  1
  Dy  Dy1  1  0.746758  0.000117  0.753545  1
  Dy  Dy2  1  0.999883  0.253242  0.246455  1
  Dy  Dy3  1  0.999883  0.746640  0.753545  1
  Dy  Dy4  1  0.746758  0.746640  0.246455  1
  Dy  Dy5  1  0.253360  0.253242  0.753545  1
  Dy  Dy6  1  0.333333  0.666667  0.000000  1
  Er  Er7  1  0.666667  0.333333  0.000000  1
  Er  Er8  1  0.666667  0.333333  0.500000  1
  Er  Er9  1  0.333333  0.666667  0.500000  1
  Cu  Cu10  1  0.000000  0.000000  0.500000  1
  Pb  Pb11  1  0.606797  0.000367  0.250311  1
  Pb  Pb12  1  0.393569  0.000367  0.749689  1
  Pb  Pb13  1  0.999633  0.606431  0.250311  1
  Pb  Pb14  1  0.999633  0.393203  0.749689  1
  Pb  Pb15  1  0.393569  0.393203  0.250311  1
  Pb  Pb16  1  0.606797  0.606431  0.749689  1
  Se  Se17  1  0.000000  0.000000  0.000000  1
