# generated using pymatgen
data_Ba4TbPr7S16
_symmetry_space_group_name_H-M   'P 1'
_cell_length_a   4.20438100
_cell_length_b   12.56582093
_cell_length_c   15.01982481
_cell_angle_alpha   90.28534042
_cell_angle_beta   90.00000000
_cell_angle_gamma   90.00000000
_symmetry_Int_Tables_number   1
_chemical_formula_structural   Ba4TbPr7S16
_chemical_formula_sum   'Ba4 Tb1 Pr7 S16'
_cell_volume   793.51001584
_cell_formula_units_Z   1
loop_
 _symmetry_equiv_pos_site_id
 _symmetry_equiv_pos_as_xyz
  1  'x, y, z'
loop_
 _atom_site_type_symbol
 _atom_site_label
 _atom_site_symmetry_multiplicity
 _atom_site_fract_x
 _atom_site_fract_y
 _atom_site_fract_z
 _atom_site_occupancy
  Ba  Ba0  1  0.250000  0.241822  0.337897  1
  Ba  Ba1  1  0.250000  0.742855  0.160357  1
  Ba  Ba2  1  0.750000  0.759150  0.665175  1
  Ba  Ba3  1  0.750000  0.256689  0.838642  1
  Tb  Tb4  1  0.750000  0.934680  0.889860  1
  Pr  Pr5  1  0.250000  0.079676  0.603684  1
  Pr  Pr6  1  0.250000  0.582873  0.898417  1
  Pr  Pr7  1  0.750000  0.919003  0.397568  1
  Pr  Pr8  1  0.750000  0.418424  0.102281  1
  Pr  Pr9  1  0.250000  0.570719  0.391641  1
  Pr  Pr10  1  0.250000  0.068298  0.105912  1
  Pr  Pr11  1  0.750000  0.430312  0.608795  1
  S  S12  1  0.250000  0.079173  0.918095  1
  S  S13  1  0.250000  0.583498  0.579950  1
  S  S14  1  0.750000  0.915980  0.071495  1
  S  S15  1  0.750000  0.417065  0.420828  1
  S  S16  1  0.250000  0.293561  0.674166  1
  S  S17  1  0.250000  0.800244  0.833458  1
  S  S18  1  0.750000  0.706199  0.325753  1
  S  S19  1  0.750000  0.204611  0.172487  1
  S  S20  1  0.250000  0.370851  0.973168  1
  S  S21  1  0.250000  0.869952  0.526002  1
  S  S22  1  0.750000  0.627608  0.027201  1
  S  S23  1  0.750000  0.128818  0.475767  1
  S  S24  1  0.250000  0.475382  0.217275  1
  S  S25  1  0.250000  0.975065  0.281553  1
  S  S26  1  0.750000  0.526345  0.783163  1
  S  S27  1  0.750000  0.021146  0.719415  1
