# generated using pymatgen
data_YErHf2Zr4F30
_symmetry_space_group_name_H-M   'P 1'
_cell_length_a   8.19399249
_cell_length_b   8.19399265
_cell_length_c   8.17923252
_cell_angle_alpha   79.76731643
_cell_angle_beta   79.76731201
_cell_angle_gamma   100.06628364
_symmetry_Int_Tables_number   1
_chemical_formula_structural   YErHf2Zr4F30
_chemical_formula_sum   'Y1 Er1 Hf2 Zr4 F30'
_cell_volume   519.62286227
_cell_formula_units_Z   1
loop_
 _symmetry_equiv_pos_site_id
 _symmetry_equiv_pos_as_xyz
  1  'x, y, z'
loop_
 _atom_site_type_symbol
 _atom_site_label
 _atom_site_symmetry_multiplicity
 _atom_site_fract_x
 _atom_site_fract_y
 _atom_site_fract_z
 _atom_site_occupancy
  Y  Y0  1  0.821917  0.178083  0.750000  1
  Er  Er1  1  0.178186  0.821814  0.250000  1
  Hf  Hf2  1  0.751290  0.248710  0.250000  1
  Hf  Hf3  1  0.248587  0.751413  0.750000  1
  Zr  Zr4  1  0.748415  0.677889  0.674040  1
  Zr  Zr5  1  0.322111  0.251585  0.825960  1
  Zr  Zr6  1  0.252400  0.322193  0.325101  1
  Zr  Zr7  1  0.677807  0.747600  0.174899  1
  F  F8  1  0.316152  0.350078  0.053491  1
  F  F9  1  0.936802  0.811751  0.153007  1
  F  F10  1  0.845317  0.461577  0.682720  1
  F  F11  1  0.459112  0.842938  0.184624  1
  F  F12  1  0.812389  0.935968  0.650552  1
  F  F13  1  0.350000  0.315967  0.553899  1
  F  F14  1  0.684033  0.650000  0.946100  1
  F  F15  1  0.064032  0.187611  0.849448  1
  F  F16  1  0.157062  0.540888  0.315376  1
  F  F17  1  0.538423  0.154683  0.817280  1
  F  F18  1  0.188249  0.063198  0.346993  1
  F  F19  1  0.649922  0.683848  0.446509  1
  F  F20  1  0.774160  0.280079  0.999316  1
  F  F21  1  0.004281  0.276039  0.221221  1
  F  F22  1  0.775420  0.503395  0.223219  1
  F  F23  1  0.503197  0.775383  0.722932  1
  F  F24  1  0.275419  0.004461  0.721266  1
  F  F25  1  0.277739  0.775115  0.498900  1
  F  F26  1  0.224885  0.722261  0.001100  1
  F  F27  1  0.995539  0.724581  0.778734  1
  F  F28  1  0.224617  0.496803  0.777068  1
  F  F29  1  0.496605  0.224580  0.276781  1
  F  F30  1  0.723961  0.995719  0.278779  1
  F  F31  1  0.719921  0.225840  0.500684  1
  F  F32  1  0.467372  0.532628  0.250000  1
  F  F33  1  0.747444  0.953691  0.971733  1
  F  F34  1  0.046309  0.252556  0.528267  1
  F  F35  1  0.252010  0.044562  0.030217  1
  F  F36  1  0.955438  0.747990  0.469783  1
  F  F37  1  0.533477  0.466523  0.750000  1
