# generated using pymatgen
data_Pa3Sn3Rh10
_symmetry_space_group_name_H-M   'P 1'
_cell_length_a   4.21875500
_cell_length_b   5.85622242
_cell_length_c   11.41125376
_cell_angle_alpha   90.83992410
_cell_angle_beta   90.00000000
_cell_angle_gamma   90.00000000
_symmetry_Int_Tables_number   1
_chemical_formula_structural   Pa3Sn3Rh10
_chemical_formula_sum   'Pa3 Sn3 Rh10'
_cell_volume   281.89577382
_cell_formula_units_Z   1
loop_
 _symmetry_equiv_pos_site_id
 _symmetry_equiv_pos_as_xyz
  1  'x, y, z'
loop_
 _atom_site_type_symbol
 _atom_site_label
 _atom_site_symmetry_multiplicity
 _atom_site_fract_x
 _atom_site_fract_y
 _atom_site_fract_z
 _atom_site_occupancy
  Pa  Pa0  1  0.500000  0.835327  0.363482  1
  Pa  Pa1  1  0.500000  0.667740  0.849473  1
  Pa  Pa2  1  0.500000  0.327245  0.142277  1
  Sn  Sn3  1  0.500000  0.163231  0.649548  1
  Sn  Sn4  1  0.000000  0.494514  0.500248  1
  Sn  Sn5  1  0.000000  0.993841  0.999028  1
  Rh  Rh6  1  0.500000  0.203413  0.893174  1
  Rh  Rh7  1  0.500000  0.799457  0.115169  1
  Rh  Rh8  1  0.500000  0.698866  0.607726  1
  Rh  Rh9  1  0.500000  0.313068  0.379059  1
  Rh  Rh10  1  0.000000  0.436532  0.739040  1
  Rh  Rh11  1  0.000000  0.570534  0.253624  1
  Rh  Rh12  1  0.000000  0.010186  0.502998  1
  Rh  Rh13  1  0.000000  0.498514  0.998491  1
  Rh  Rh14  1  0.000000  0.067683  0.247734  1
  Rh  Rh15  1  0.000000  0.919849  0.758930  1
