# generated using pymatgen
data_Zr8Co2ReOs
_symmetry_space_group_name_H-M   'P 1'
_cell_length_a   8.69645508
_cell_length_b   8.69645510
_cell_length_c   8.69656700
_cell_angle_alpha   59.99957816
_cell_angle_beta   59.99957807
_cell_angle_gamma   59.92955830
_symmetry_Int_Tables_number   1
_chemical_formula_structural   Zr8Co2ReOs
_chemical_formula_sum   'Zr16 Co4 Re2 Os2'
_cell_volume   464.81792124
_cell_formula_units_Z   2
loop_
 _symmetry_equiv_pos_site_id
 _symmetry_equiv_pos_as_xyz
  1  'x, y, z'
loop_
 _atom_site_type_symbol
 _atom_site_label
 _atom_site_symmetry_multiplicity
 _atom_site_fract_x
 _atom_site_fract_y
 _atom_site_fract_z
 _atom_site_occupancy
  Zr  Zr0  1  0.052928  0.648432  0.649321  1
  Zr  Zr1  1  0.648432  0.052928  0.649321  1
  Zr  Zr2  1  0.649033  0.649033  0.052498  1
  Zr  Zr3  1  0.649033  0.649033  0.649438  1
  Zr  Zr4  1  0.796633  0.796633  0.203367  1
  Zr  Zr5  1  0.203359  0.203359  0.796641  1
  Zr  Zr6  1  0.796539  0.203620  0.796381  1
  Zr  Zr7  1  0.203620  0.796539  0.203459  1
  Zr  Zr8  1  0.203620  0.796539  0.796381  1
  Zr  Zr9  1  0.796539  0.203620  0.203459  1
  Zr  Zr10  1  0.435410  0.435410  0.064590  1
  Zr  Zr11  1  0.064267  0.064267  0.435733  1
  Zr  Zr12  1  0.435351  0.065605  0.435258  1
  Zr  Zr13  1  0.065605  0.435351  0.063785  1
  Zr  Zr14  1  0.065605  0.435351  0.435258  1
  Zr  Zr15  1  0.435351  0.065605  0.063785  1
  Co  Co16  1  0.419804  0.859656  0.860269  1
  Co  Co17  1  0.859656  0.419804  0.860269  1
  Co  Co18  1  0.859816  0.859816  0.419786  1
  Co  Co19  1  0.859816  0.859816  0.860580  1
  Re  Re20  1  0.418440  0.418440  0.743593  1
  Re  Re21  1  0.418440  0.418440  0.419528  1
  Os  Os22  1  0.744963  0.417742  0.418648  1
  Os  Os23  1  0.417742  0.744963  0.418648  1
