# generated using pymatgen
data_Sr3MnCoO6
_symmetry_space_group_name_H-M   'P 1'
_cell_length_a   6.66137758
_cell_length_b   6.67922586
_cell_length_c   6.68166154
_cell_angle_alpha   93.02887401
_cell_angle_beta   92.86704561
_cell_angle_gamma   92.87429442
_symmetry_Int_Tables_number   1
_chemical_formula_structural   Sr3MnCoO6
_chemical_formula_sum   'Sr6 Mn2 Co2 O12'
_cell_volume   296.08364659
_cell_formula_units_Z   2
loop_
 _symmetry_equiv_pos_site_id
 _symmetry_equiv_pos_as_xyz
  1  'x, y, z'
loop_
 _atom_site_type_symbol
 _atom_site_label
 _atom_site_symmetry_multiplicity
 _atom_site_fract_x
 _atom_site_fract_y
 _atom_site_fract_z
 _atom_site_occupancy
  Sr  Sr0  1  0.888588  0.251134  0.611567  1
  Sr  Sr1  1  0.249718  0.612569  0.887465  1
  Sr  Sr2  1  0.611653  0.887935  0.248763  1
  Sr  Sr3  1  0.750350  0.388358  0.111754  1
  Sr  Sr4  1  0.387645  0.111819  0.748304  1
  Sr  Sr5  1  0.112173  0.751097  0.388152  1
  Mn  Mn6  1  0.999005  0.999663  0.001882  1
  Mn  Mn7  1  0.500837  0.497934  0.501188  1
  Co  Co8  1  0.749790  0.753284  0.746904  1
  Co  Co9  1  0.251051  0.254071  0.244862  1
  O  O10  1  0.222900  0.410832  0.540201  1
  O  O11  1  0.411878  0.539224  0.222183  1
  O  O12  1  0.541165  0.221575  0.412909  1
  O  O13  1  0.912258  0.723030  0.041729  1
  O  O14  1  0.720908  0.039986  0.914316  1
  O  O15  1  0.038736  0.910102  0.722931  1
  O  O16  1  0.778803  0.585910  0.459977  1
  O  O17  1  0.587871  0.458261  0.777404  1
  O  O18  1  0.460868  0.776944  0.590181  1
  O  O19  1  0.087295  0.278271  0.960202  1
  O  O20  1  0.277467  0.960487  0.089069  1
  O  O21  1  0.959041  0.087515  0.278057  1
