# generated using pymatgen
data_Rb4PaBiTe6
_symmetry_space_group_name_H-M   'P 1'
_cell_length_a   8.31259319
_cell_length_b   8.31259265
_cell_length_c   8.98528417
_cell_angle_alpha   80.89335644
_cell_angle_beta   80.89335682
_cell_angle_gamma   120.15890312
_symmetry_Int_Tables_number   1
_chemical_formula_structural   Rb4PaBiTe6
_chemical_formula_sum   'Rb4 Pa1 Bi1 Te6'
_cell_volume   509.08932496
_cell_formula_units_Z   1
loop_
 _symmetry_equiv_pos_site_id
 _symmetry_equiv_pos_as_xyz
  1  'x, y, z'
loop_
 _atom_site_type_symbol
 _atom_site_label
 _atom_site_symmetry_multiplicity
 _atom_site_fract_x
 _atom_site_fract_y
 _atom_site_fract_z
 _atom_site_occupancy
  Rb  Rb0  1  0.500111  0.499889  0.000000  1
  Rb  Rb1  1  0.655212  0.344788  0.500000  1
  Rb  Rb2  1  0.348269  0.651731  0.500000  1
  Rb  Rb3  1  0.995961  0.004039  0.500000  1
  Pa  Pa4  1  0.167783  0.832217  0.000000  1
  Bi  Bi5  1  0.830617  0.169383  0.000000  1
  Te  Te6  1  0.814909  0.799432  0.200428  1
  Te  Te7  1  0.200568  0.185091  0.799572  1
  Te  Te8  1  0.415636  0.045934  0.203849  1
  Te  Te9  1  0.554890  0.938021  0.795629  1
  Te  Te10  1  0.954066  0.584364  0.796151  1
  Te  Te11  1  0.061979  0.445110  0.204371  1
