# generated using pymatgen
data_MgZr8Al(In7Co3)2
_symmetry_space_group_name_H-M   'P 1'
_cell_length_a   9.47301542
_cell_length_b   9.47309115
_cell_length_c   9.47332615
_cell_angle_alpha   60.35662833
_cell_angle_beta   60.34451937
_cell_angle_gamma   60.34763366
_symmetry_Int_Tables_number   1
_chemical_formula_structural   MgZr8Al(In7Co3)2
_chemical_formula_sum   'Mg1 Zr8 Al1 In14 Co6'
_cell_volume   605.88269935
_cell_formula_units_Z   1
loop_
 _symmetry_equiv_pos_site_id
 _symmetry_equiv_pos_as_xyz
  1  'x, y, z'
loop_
 _atom_site_type_symbol
 _atom_site_label
 _atom_site_symmetry_multiplicity
 _atom_site_fract_x
 _atom_site_fract_y
 _atom_site_fract_z
 _atom_site_occupancy
  Mg  Mg0  1  0.500000  0.500000  0.500000  1
  Zr  Zr1  1  0.123034  0.629283  0.123084  1
  Zr  Zr2  1  0.370702  0.876964  0.876943  1
  Zr  Zr3  1  0.875682  0.875676  0.875710  1
  Zr  Zr4  1  0.629298  0.123036  0.123057  1
  Zr  Zr5  1  0.876944  0.876918  0.370711  1
  Zr  Zr6  1  0.124318  0.124324  0.124290  1
  Zr  Zr7  1  0.876966  0.370717  0.876916  1
  Zr  Zr8  1  0.123056  0.123082  0.629289  1
  Al  Al9  1  0.000000  0.000000  0.000000  1
  In  In10  1  0.499974  0.841050  0.158954  1
  In  In11  1  0.499957  0.841654  0.499930  1
  In  In12  1  0.500043  0.158346  0.500070  1
  In  In13  1  0.500010  0.499919  0.841604  1
  In  In14  1  0.158632  0.499978  0.499930  1
  In  In15  1  0.841160  0.158821  0.500023  1
  In  In16  1  0.158840  0.841179  0.499977  1
  In  In17  1  0.500026  0.158950  0.841046  1
  In  In18  1  0.158786  0.499999  0.841228  1
  In  In19  1  0.499990  0.500081  0.158396  1
  In  In20  1  0.841368  0.500022  0.500070  1
  In  In21  1  0.841214  0.500001  0.158772  1
  In  In22  1  0.250072  0.250128  0.250111  1
  In  In23  1  0.749928  0.749872  0.749889  1
  Co  Co24  1  0.785476  0.785383  0.215017  1
  Co  Co25  1  0.214473  0.785030  0.214555  1
  Co  Co26  1  0.214952  0.785462  0.785478  1
  Co  Co27  1  0.214524  0.214617  0.784983  1
  Co  Co28  1  0.785527  0.214970  0.785445  1
  Co  Co29  1  0.785048  0.214538  0.214522  1
