# generated using pymatgen
data_Yb5Er3(Si3Ag)4
_symmetry_space_group_name_H-M   'P 1'
_cell_length_a   8.36509222
_cell_length_b   8.36509206
_cell_length_c   8.03930700
_cell_angle_alpha   90.00000000
_cell_angle_beta   90.00000000
_cell_angle_gamma   120.49816547
_symmetry_Int_Tables_number   1
_chemical_formula_structural   Yb5Er3(Si3Ag)4
_chemical_formula_sum   'Yb5 Er3 Si12 Ag4'
_cell_volume   484.71744543
_cell_formula_units_Z   1
loop_
 _symmetry_equiv_pos_site_id
 _symmetry_equiv_pos_as_xyz
  1  'x, y, z'
loop_
 _atom_site_type_symbol
 _atom_site_label
 _atom_site_symmetry_multiplicity
 _atom_site_fract_x
 _atom_site_fract_y
 _atom_site_fract_z
 _atom_site_occupancy
  Yb  Yb0  1  0.503852  0.007629  0.250000  1
  Yb  Yb1  1  0.495761  0.992020  0.750000  1
  Yb  Yb2  1  0.992371  0.496148  0.250000  1
  Yb  Yb3  1  0.007980  0.504239  0.750000  1
  Yb  Yb4  1  0.503654  0.496346  0.250000  1
  Er  Er5  1  0.496571  0.503429  0.750000  1
  Er  Er6  1  0.999998  0.000002  0.250000  1
  Er  Er7  1  0.000066  0.999934  0.750000  1
  Si  Si8  1  0.162428  0.322067  0.998306  1
  Si  Si9  1  0.837687  0.678093  0.996945  1
  Si  Si10  1  0.677933  0.837572  0.998306  1
  Si  Si11  1  0.837687  0.678093  0.503055  1
  Si  Si12  1  0.321907  0.162313  0.996945  1
  Si  Si13  1  0.162428  0.322067  0.501694  1
  Si  Si14  1  0.160336  0.839664  0.001166  1
  Si  Si15  1  0.321907  0.162313  0.503055  1
  Si  Si16  1  0.839491  0.160509  0.997938  1
  Si  Si17  1  0.677933  0.837572  0.501694  1
  Si  Si18  1  0.839491  0.160509  0.502062  1
  Si  Si19  1  0.160336  0.839664  0.498834  1
  Ag  Ag20  1  0.332836  0.667164  0.010487  1
  Ag  Ag21  1  0.667254  0.332746  0.983146  1
  Ag  Ag22  1  0.667254  0.332746  0.516854  1
  Ag  Ag23  1  0.332836  0.667164  0.489513  1
