# generated using pymatgen
data_Tm10Sn5Pb3
_symmetry_space_group_name_H-M   'P 1'
_cell_length_a   8.08761300
_cell_length_b   8.09594540
_cell_length_c   15.37279500
_cell_angle_alpha   90.00000000
_cell_angle_beta   90.00000000
_cell_angle_gamma   90.10425275
_symmetry_Int_Tables_number   1
_chemical_formula_structural   Tm10Sn5Pb3
_chemical_formula_sum   'Tm20 Sn10 Pb6'
_cell_volume   1006.56088392
_cell_formula_units_Z   2
loop_
 _symmetry_equiv_pos_site_id
 _symmetry_equiv_pos_as_xyz
  1  'x, y, z'
loop_
 _atom_site_type_symbol
 _atom_site_label
 _atom_site_symmetry_multiplicity
 _atom_site_fract_x
 _atom_site_fract_y
 _atom_site_fract_z
 _atom_site_occupancy
  Tm  Tm0  1  0.056324  0.169538  0.392449  1
  Tm  Tm1  1  0.393885  0.835885  0.120468  1
  Tm  Tm2  1  0.110561  0.335125  0.621653  1
  Tm  Tm3  1  0.447837  0.674903  0.891599  1
  Tm  Tm4  1  0.889439  0.664875  0.121653  1
  Tm  Tm5  1  0.108807  0.337387  0.877912  1
  Tm  Tm6  1  0.221402  0.501571  0.249614  1
  Tm  Tm7  1  0.721693  0.996560  0.248717  1
  Tm  Tm8  1  0.444641  0.675797  0.608606  1
  Tm  Tm9  1  0.278307  0.003440  0.748717  1
  Tm  Tm10  1  0.606115  0.164115  0.620468  1
  Tm  Tm11  1  0.778598  0.498429  0.749614  1
  Tm  Tm12  1  0.891193  0.662613  0.377912  1
  Tm  Tm13  1  0.049614  0.169933  0.107245  1
  Tm  Tm14  1  0.943676  0.830462  0.892449  1
  Tm  Tm15  1  0.609796  0.162153  0.880044  1
  Tm  Tm16  1  0.555359  0.324203  0.108606  1
  Tm  Tm17  1  0.390204  0.837847  0.380044  1
  Tm  Tm18  1  0.950386  0.830067  0.607245  1
  Tm  Tm19  1  0.552163  0.325097  0.391599  1
  Sn  Sn20  1  0.641816  0.855271  0.749488  1
  Sn  Sn21  1  0.859863  0.352573  0.250514  1
  Sn  Sn22  1  0.584848  0.626672  0.250985  1
  Sn  Sn23  1  0.415152  0.373328  0.750985  1
  Sn  Sn24  1  0.140137  0.647427  0.750514  1
  Sn  Sn25  1  0.912601  0.128178  0.749838  1
  Sn  Sn26  1  0.271953  0.021505  0.543027  1
  Sn  Sn27  1  0.728047  0.978495  0.043027  1
  Sn  Sn28  1  0.358184  0.144729  0.249488  1
  Sn  Sn29  1  0.087399  0.871822  0.249838  1
  Pb  Pb30  1  0.770634  0.479794  0.541582  1
  Pb  Pb31  1  0.729932  0.978527  0.457933  1
  Pb  Pb32  1  0.228319  0.520738  0.458329  1
  Pb  Pb33  1  0.270068  0.021473  0.957933  1
  Pb  Pb34  1  0.771681  0.479262  0.958329  1
  Pb  Pb35  1  0.229366  0.520206  0.041582  1
