# generated using pymatgen
data_Cs4Zr2Se5S
_symmetry_space_group_name_H-M   'P 1'
_cell_length_a   8.24151274
_cell_length_b   8.24151371
_cell_length_c   7.15051347
_cell_angle_alpha   89.76269940
_cell_angle_beta   89.76269758
_cell_angle_gamma   108.66256251
_symmetry_Int_Tables_number   1
_chemical_formula_structural   Cs4Zr2Se5S
_chemical_formula_sum   'Cs4 Zr2 Se5 S1'
_cell_volume   460.13211137
_cell_formula_units_Z   1
loop_
 _symmetry_equiv_pos_site_id
 _symmetry_equiv_pos_as_xyz
  1  'x, y, z'
loop_
 _atom_site_type_symbol
 _atom_site_label
 _atom_site_symmetry_multiplicity
 _atom_site_fract_x
 _atom_site_fract_y
 _atom_site_fract_z
 _atom_site_occupancy
  Cs  Cs0  1  0.507791  0.820191  0.250912  1
  Cs  Cs1  1  0.495177  0.180639  0.748508  1
  Cs  Cs2  1  0.179809  0.492209  0.749088  1
  Cs  Cs3  1  0.819361  0.504823  0.251492  1
  Zr  Zr4  1  0.078160  0.083088  0.254543  1
  Zr  Zr5  1  0.916912  0.921840  0.745457  1
  Se  Se6  1  0.658113  0.659680  0.748914  1
  Se  Se7  1  0.340320  0.341887  0.251086  1
  Se  Se8  1  0.861753  0.138247  0.000000  1
  Se  Se9  1  0.137374  0.862626  0.500000  1
  Se  Se10  1  0.132668  0.867332  0.000000  1
  S  S11  1  0.872560  0.127440  0.500000  1
