# generated using pymatgen
data_Tb4Si12(Ni3Ru)5
_symmetry_space_group_name_H-M   'P 1'
_cell_length_a   3.76104400
_cell_length_b   10.77867496
_cell_length_c   12.00992872
_cell_angle_alpha   90.12083136
_cell_angle_beta   90.00000000
_cell_angle_gamma   90.00000000
_symmetry_Int_Tables_number   1
_chemical_formula_structural   Tb4Si12(Ni3Ru)5
_chemical_formula_sum   'Tb4 Si12 Ni15 Ru5'
_cell_volume   486.87026798
_cell_formula_units_Z   1
loop_
 _symmetry_equiv_pos_site_id
 _symmetry_equiv_pos_as_xyz
  1  'x, y, z'
loop_
 _atom_site_type_symbol
 _atom_site_label
 _atom_site_symmetry_multiplicity
 _atom_site_fract_x
 _atom_site_fract_y
 _atom_site_fract_z
 _atom_site_occupancy
  Tb  Tb0  1  0.250000  0.591236  0.704693  1
  Tb  Tb1  1  0.250000  0.909562  0.203723  1
  Tb  Tb2  1  0.750000  0.409849  0.295567  1
  Tb  Tb3  1  0.750000  0.090544  0.796471  1
  Si  Si4  1  0.250000  0.407875  0.107918  1
  Si  Si5  1  0.250000  0.090215  0.608519  1
  Si  Si6  1  0.750000  0.592565  0.892086  1
  Si  Si7  1  0.750000  0.907582  0.391647  1
  Si  Si8  1  0.250000  0.274104  0.878362  1
  Si  Si9  1  0.250000  0.222998  0.376554  1
  Si  Si10  1  0.750000  0.726149  0.121633  1
  Si  Si11  1  0.750000  0.775262  0.624285  1
  Si  Si12  1  0.250000  0.599582  0.386733  1
  Si  Si13  1  0.250000  0.903637  0.888982  1
  Si  Si14  1  0.750000  0.402308  0.611878  1
  Si  Si15  1  0.750000  0.096334  0.111099  1
  Ni  Ni16  1  0.250000  0.090098  0.991502  1
  Ni  Ni17  1  0.750000  0.596489  0.508419  1
  Ni  Ni18  1  0.750000  0.910355  0.008243  1
  Ni  Ni19  1  0.250000  0.209784  0.181424  1
  Ni  Ni20  1  0.250000  0.285458  0.684749  1
  Ni  Ni21  1  0.750000  0.789683  0.818293  1
  Ni  Ni22  1  0.750000  0.712350  0.316012  1
  Ni  Ni23  1  0.250000  0.891869  0.697297  1
  Ni  Ni24  1  0.250000  0.611229  0.194846  1
  Ni  Ni25  1  0.750000  0.108201  0.303055  1
  Ni  Ni26  1  0.750000  0.391219  0.803382  1
  Ni  Ni27  1  0.250000  0.472466  0.928681  1
  Ni  Ni28  1  0.250000  0.025837  0.429417  1
  Ni  Ni29  1  0.750000  0.527363  0.070980  1
  Ni  Ni30  1  0.750000  0.971638  0.571153  1
  Ru  Ru31  1  0.250000  0.713595  0.986162  1
  Ru  Ru32  1  0.250000  0.786836  0.489345  1
  Ru  Ru33  1  0.750000  0.285919  0.012628  1
  Ru  Ru34  1  0.750000  0.209301  0.513576  1
  Ru  Ru35  1  0.250000  0.410508  0.490684  1
