# generated using pymatgen
data_TaNb5V4(Ga3B)2
_symmetry_space_group_name_H-M   'P 1'
_cell_length_a   7.69858204
_cell_length_b   7.69858153
_cell_length_c   5.14162700
_cell_angle_alpha   90.00000000
_cell_angle_beta   90.00000000
_cell_angle_gamma   120.01199919
_symmetry_Int_Tables_number   1
_chemical_formula_structural   TaNb5V4(Ga3B)2
_chemical_formula_sum   'Ta1 Nb5 V4 Ga6 B2'
_cell_volume   263.87614498
_cell_formula_units_Z   1
loop_
 _symmetry_equiv_pos_site_id
 _symmetry_equiv_pos_as_xyz
  1  'x, y, z'
loop_
 _atom_site_type_symbol
 _atom_site_label
 _atom_site_symmetry_multiplicity
 _atom_site_fract_x
 _atom_site_fract_y
 _atom_site_fract_z
 _atom_site_occupancy
  Ta  Ta0  1  0.244444  0.244444  0.750000  1
  Nb  Nb1  1  0.244882  0.000471  0.250000  1
  Nb  Nb2  1  0.755253  0.000041  0.750000  1
  Nb  Nb3  1  0.000471  0.244882  0.250000  1
  Nb  Nb4  1  0.000041  0.755253  0.750000  1
  Nb  Nb5  1  0.755341  0.755341  0.250000  1
  V  V6  1  0.333184  0.666273  0.999649  1
  V  V7  1  0.666273  0.333184  0.999649  1
  V  V8  1  0.666273  0.333184  0.500351  1
  V  V9  1  0.333184  0.666273  0.500351  1
  Ga  Ga10  1  0.593581  0.000048  0.250000  1
  Ga  Ga11  1  0.406514  0.999903  0.750000  1
  Ga  Ga12  1  0.000048  0.593581  0.250000  1
  Ga  Ga13  1  0.999903  0.406514  0.750000  1
  Ga  Ga14  1  0.406580  0.406580  0.250000  1
  Ga  Ga15  1  0.593695  0.593695  0.750000  1
  B  B16  1  0.000166  0.000166  0.000057  1
  B  B17  1  0.000166  0.000166  0.499943  1
