# generated using pymatgen
data_Ho3Si3Pd2
_symmetry_space_group_name_H-M   'P 1'
_cell_length_a   5.61089223
_cell_length_b   5.61089116
_cell_length_c   14.06799700
_cell_angle_alpha   90.00000000
_cell_angle_beta   90.00000000
_cell_angle_gamma   135.31275192
_symmetry_Int_Tables_number   1
_chemical_formula_structural   Ho3Si3Pd2
_chemical_formula_sum   'Ho6 Si6 Pd4'
_cell_volume   311.45652572
_cell_formula_units_Z   2
loop_
 _symmetry_equiv_pos_site_id
 _symmetry_equiv_pos_as_xyz
  1  'x, y, z'
loop_
 _atom_site_type_symbol
 _atom_site_label
 _atom_site_symmetry_multiplicity
 _atom_site_fract_x
 _atom_site_fract_y
 _atom_site_fract_z
 _atom_site_occupancy
  Ho  Ho0  1  0.412987  0.587013  0.388880  1
  Ho  Ho1  1  0.587013  0.412987  0.611120  1
  Ho  Ho2  1  0.865284  0.134716  0.750000  1
  Ho  Ho3  1  0.134716  0.865284  0.250000  1
  Ho  Ho4  1  0.412987  0.587013  0.111120  1
  Ho  Ho5  1  0.587013  0.412987  0.888880  1
  Si  Si6  1  0.839515  0.160485  0.250000  1
  Si  Si7  1  0.160485  0.839515  0.750000  1
  Si  Si8  1  0.894691  0.105309  0.539383  1
  Si  Si9  1  0.105309  0.894691  0.460617  1
  Si  Si10  1  0.105309  0.894691  0.039383  1
  Si  Si11  1  0.894691  0.105309  0.960617  1
  Pd  Pd12  1  0.295504  0.704496  0.594792  1
  Pd  Pd13  1  0.704496  0.295504  0.405208  1
  Pd  Pd14  1  0.704496  0.295504  0.094792  1
  Pd  Pd15  1  0.295504  0.704496  0.905208  1
