# generated using pymatgen
data_ThSc6Co6Sn23
_symmetry_space_group_name_H-M   'P 1'
_cell_length_a   9.57177500
_cell_length_b   9.57177448
_cell_length_c   9.81874600
_cell_angle_alpha   90.00000000
_cell_angle_beta   90.00000000
_cell_angle_gamma   119.99999833
_symmetry_Int_Tables_number   1
_chemical_formula_structural   ThSc6Co6Sn23
_chemical_formula_sum   'Th1 Sc6 Co6 Sn23'
_cell_volume   779.06125023
_cell_formula_units_Z   1
loop_
 _symmetry_equiv_pos_site_id
 _symmetry_equiv_pos_as_xyz
  1  'x, y, z'
loop_
 _atom_site_type_symbol
 _atom_site_label
 _atom_site_symmetry_multiplicity
 _atom_site_fract_x
 _atom_site_fract_y
 _atom_site_fract_z
 _atom_site_occupancy
  Th  Th0  1  0.000000  0.000000  0.000000  1
  Sc  Sc1  1  0.518050  0.481950  0.692130  1
  Sc  Sc2  1  0.518050  0.036099  0.692130  1
  Sc  Sc3  1  0.963901  0.481950  0.692130  1
  Sc  Sc4  1  0.036099  0.518050  0.307870  1
  Sc  Sc5  1  0.481950  0.963901  0.307870  1
  Sc  Sc6  1  0.481950  0.518050  0.307870  1
  Co  Co7  1  0.168536  0.831464  0.801647  1
  Co  Co8  1  0.168536  0.337072  0.801647  1
  Co  Co9  1  0.662928  0.831464  0.801647  1
  Co  Co10  1  0.337072  0.168536  0.198353  1
  Co  Co11  1  0.831464  0.662928  0.198353  1
  Co  Co12  1  0.831464  0.168536  0.198353  1
  Sn  Sn13  1  0.666667  0.333333  0.177314  1
  Sn  Sn14  1  0.666667  0.333333  0.863783  1
  Sn  Sn15  1  0.333333  0.666667  0.136217  1
  Sn  Sn16  1  0.349180  0.349180  0.000000  1
  Sn  Sn17  1  0.000000  0.650820  0.000000  1
  Sn  Sn18  1  0.650820  0.000000  0.000000  1
  Sn  Sn19  1  0.650820  0.650820  0.000000  1
  Sn  Sn20  1  0.333333  0.666667  0.822686  1
  Sn  Sn21  1  0.442031  0.221016  0.453318  1
  Sn  Sn22  1  0.221016  0.778984  0.546682  1
  Sn  Sn23  1  0.221016  0.442031  0.546682  1
  Sn  Sn24  1  0.557969  0.778984  0.546682  1
  Sn  Sn25  1  0.122358  0.877642  0.277416  1
  Sn  Sn26  1  0.778984  0.557969  0.453318  1
  Sn  Sn27  1  0.778984  0.221016  0.453318  1
  Sn  Sn28  1  0.349180  0.000000  0.000000  1
  Sn  Sn29  1  0.122358  0.244716  0.277416  1
  Sn  Sn30  1  0.755284  0.877642  0.277416  1
  Sn  Sn31  1  0.244716  0.122358  0.722584  1
  Sn  Sn32  1  0.877642  0.755284  0.722584  1
  Sn  Sn33  1  0.877642  0.122358  0.722584  1
  Sn  Sn34  1  0.000000  0.000000  0.500000  1
  Sn  Sn35  1  0.000000  0.349180  0.000000  1
