# generated using pymatgen
data_TbSmU8O20
_symmetry_space_group_name_H-M   'P 1'
_cell_length_a   6.63085352
_cell_length_b   7.66787638
_cell_length_c   8.56711645
_cell_angle_alpha   102.95963223
_cell_angle_beta   97.31659399
_cell_angle_gamma   106.84928494
_symmetry_Int_Tables_number   1
_chemical_formula_structural   TbSmU8O20
_chemical_formula_sum   'Tb1 Sm1 U8 O20'
_cell_volume   397.53860803
_cell_formula_units_Z   1
loop_
 _symmetry_equiv_pos_site_id
 _symmetry_equiv_pos_as_xyz
  1  'x, y, z'
loop_
 _atom_site_type_symbol
 _atom_site_label
 _atom_site_symmetry_multiplicity
 _atom_site_fract_x
 _atom_site_fract_y
 _atom_site_fract_z
 _atom_site_occupancy
  Tb  Tb0  1  0.800318  0.600992  0.600797  1
  Sm  Sm1  1  0.999199  0.998488  0.998445  1
  U  U2  1  0.600579  0.201421  0.199939  1
  U  U3  1  0.000915  0.500012  0.998856  1
  U  U4  1  0.798331  0.100109  0.600155  1
  U  U5  1  0.399702  0.799276  0.799430  1
  U  U6  1  0.200148  0.399779  0.401286  1
  U  U7  1  0.601700  0.700383  0.201254  1
  U  U8  1  0.400481  0.300321  0.799758  1
  U  U9  1  0.198459  0.899246  0.399911  1
  O  O10  1  0.850918  0.319200  0.449864  1
  O  O11  1  0.641532  0.922650  0.055777  1
  O  O12  1  0.949255  0.767821  0.153089  1
  O  O13  1  0.441944  0.520612  0.650389  1
  O  O14  1  0.852038  0.830178  0.448401  1
  O  O15  1  0.649457  0.426110  0.049842  1
  O  O16  1  0.745183  0.370348  0.752594  1
  O  O17  1  0.256440  0.127201  0.256914  1
  O  O18  1  0.948628  0.283919  0.152832  1
  O  O19  1  0.445135  0.025862  0.647465  1
  O  O20  1  0.549300  0.973809  0.352967  1
  O  O21  1  0.059359  0.718739  0.849165  1
  O  O22  1  0.737601  0.876477  0.746159  1
  O  O23  1  0.354321  0.573775  0.952020  1
  O  O24  1  0.253175  0.626575  0.248211  1
  O  O25  1  0.547855  0.475143  0.345927  1
  O  O26  1  0.149679  0.174018  0.549914  1
  O  O27  1  0.052564  0.231838  0.845827  1
  O  O28  1  0.360484  0.079714  0.948045  1
  O  O29  1  0.155300  0.675985  0.544765  1
