# generated using pymatgen
data_SmY(SiRh2)2
_symmetry_space_group_name_H-M   'P 1'
_cell_length_a   5.61078400
_cell_length_b   5.61078309
_cell_length_c   15.06114500
_cell_angle_alpha   90.00000000
_cell_angle_beta   90.00000000
_cell_angle_gamma   119.99999360
_symmetry_Int_Tables_number   1
_chemical_formula_structural   SmY(SiRh2)2
_chemical_formula_sum   'Sm3 Y3 Si6 Rh12'
_cell_volume   410.61582060
_cell_formula_units_Z   3
loop_
 _symmetry_equiv_pos_site_id
 _symmetry_equiv_pos_as_xyz
  1  'x, y, z'
loop_
 _atom_site_type_symbol
 _atom_site_label
 _atom_site_symmetry_multiplicity
 _atom_site_fract_x
 _atom_site_fract_y
 _atom_site_fract_z
 _atom_site_occupancy
  Sm  Sm0  1  0.666667  0.333333  0.963212  1
  Sm  Sm1  1  0.666667  0.333333  0.750386  1
  Sm  Sm2  1  0.333333  0.666667  0.249903  1
  Y  Y3  1  0.666667  0.333333  0.536084  1
  Y  Y4  1  0.333333  0.666667  0.036576  1
  Y  Y5  1  0.333333  0.666667  0.464075  1
  Si  Si6  1  0.666667  0.333333  0.250176  1
  Si  Si7  1  0.000000  0.000000  0.500055  1
  Si  Si8  1  0.000000  0.000000  0.250466  1
  Si  Si9  1  0.000000  0.000000  0.749479  1
  Si  Si10  1  0.333333  0.666667  0.749720  1
  Si  Si11  1  0.000000  0.000000  0.000052  1
  Rh  Rh12  1  0.166384  0.332768  0.868533  1
  Rh  Rh13  1  0.166400  0.332801  0.630717  1
  Rh  Rh14  1  0.667232  0.833616  0.868533  1
  Rh  Rh15  1  0.332671  0.166335  0.369101  1
  Rh  Rh16  1  0.833665  0.667329  0.369101  1
  Rh  Rh17  1  0.833665  0.166335  0.369101  1
  Rh  Rh18  1  0.833963  0.166037  0.131587  1
  Rh  Rh19  1  0.332073  0.166037  0.131587  1
  Rh  Rh20  1  0.667199  0.833600  0.630717  1
  Rh  Rh21  1  0.166400  0.833600  0.630717  1
  Rh  Rh22  1  0.833963  0.667927  0.131587  1
  Rh  Rh23  1  0.166384  0.833616  0.868533  1
