# generated using pymatgen
data_La15NdCd4Tc3Ni
_symmetry_space_group_name_H-M   'P 1'
_cell_length_a   9.99792804
_cell_length_b   10.16192706
_cell_length_c   10.14828400
_cell_angle_alpha   60.04439528
_cell_angle_beta   59.50125724
_cell_angle_gamma   59.41446031
_symmetry_Int_Tables_number   1
_chemical_formula_structural   La15NdCd4Tc3Ni
_chemical_formula_sum   'La15 Nd1 Cd4 Tc3 Ni1'
_cell_volume   723.26659995
_cell_formula_units_Z   1
loop_
 _symmetry_equiv_pos_site_id
 _symmetry_equiv_pos_as_xyz
  1  'x, y, z'
loop_
 _atom_site_type_symbol
 _atom_site_label
 _atom_site_symmetry_multiplicity
 _atom_site_fract_x
 _atom_site_fract_y
 _atom_site_fract_z
 _atom_site_occupancy
  La  La0  1  0.597882  0.593719  0.595419  1
  La  La1  1  0.597882  0.593719  0.212982  1
  La  La2  1  0.597903  0.211439  0.595329  1
  La  La3  1  0.214070  0.593891  0.596020  1
  La  La4  1  0.064531  0.438808  0.439113  1
  La  La5  1  0.439122  0.061475  0.060097  1
  La  La6  1  0.439122  0.061475  0.439306  1
  La  La7  1  0.064531  0.438808  0.057549  1
  La  La8  1  0.439439  0.440095  0.060233  1
  La  La9  1  0.065770  0.057854  0.438188  1
  La  La10  1  0.190632  0.808650  0.806389  1
  La  La11  1  0.807209  0.190635  0.188833  1
  La  La12  1  0.807209  0.190635  0.813324  1
  La  La13  1  0.190632  0.808650  0.194329  1
  La  La14  1  0.806741  0.813867  0.189697  1
  Nd  Nd15  1  0.191053  0.194542  0.807203  1
  Cd  Cd16  1  0.827783  0.828932  0.829011  1
  Cd  Cd17  1  0.827783  0.828932  0.514274  1
  Cd  Cd18  1  0.829483  0.512930  0.828794  1
  Cd  Cd19  1  0.513608  0.829618  0.828387  1
  Tc  Tc20  1  0.385148  0.383814  0.384839  1
  Tc  Tc21  1  0.385148  0.383814  0.846199  1
  Tc  Tc22  1  0.385566  0.845684  0.384376  1
  Ni  Ni23  1  0.831761  0.388016  0.390111  1
