# generated using pymatgen
data_Ce2Si3Tc14C3
_symmetry_space_group_name_H-M   'P 1'
_cell_length_a   6.90888420
_cell_length_b   6.90888291
_cell_length_c   6.90888408
_cell_angle_alpha   82.39584966
_cell_angle_beta   82.39585077
_cell_angle_gamma   82.39584997
_symmetry_Int_Tables_number   1
_chemical_formula_structural   Ce2Si3Tc14C3
_chemical_formula_sum   'Ce2 Si3 Tc14 C3'
_cell_volume   321.78471464
_cell_formula_units_Z   1
loop_
 _symmetry_equiv_pos_site_id
 _symmetry_equiv_pos_as_xyz
  1  'x, y, z'
loop_
 _atom_site_type_symbol
 _atom_site_label
 _atom_site_symmetry_multiplicity
 _atom_site_fract_x
 _atom_site_fract_y
 _atom_site_fract_z
 _atom_site_occupancy
  Ce  Ce0  1  0.652432  0.652432  0.652432  1
  Ce  Ce1  1  0.347568  0.347568  0.347568  1
  Si  Si2  1  0.000000  0.000000  0.500000  1
  Si  Si3  1  0.000000  0.500000  0.000000  1
  Si  Si4  1  0.500000  0.000000  0.000000  1
  Tc  Tc5  1  0.277429  0.722571  0.000000  1
  Tc  Tc6  1  0.722571  0.000000  0.277429  1
  Tc  Tc7  1  0.000000  0.277429  0.722571  1
  Tc  Tc8  1  0.277429  0.000000  0.722571  1
  Tc  Tc9  1  0.000000  0.722571  0.277429  1
  Tc  Tc10  1  0.722571  0.277429  0.000000  1
  Tc  Tc11  1  0.347028  0.347028  0.858299  1
  Tc  Tc12  1  0.347028  0.858299  0.347028  1
  Tc  Tc13  1  0.858299  0.347028  0.347028  1
  Tc  Tc14  1  0.652972  0.652972  0.141701  1
  Tc  Tc15  1  0.652972  0.141701  0.652972  1
  Tc  Tc16  1  0.141701  0.652972  0.652972  1
  Tc  Tc17  1  0.900219  0.900219  0.900219  1
  Tc  Tc18  1  0.099781  0.099781  0.099781  1
  C  C19  1  0.500000  0.500000  0.000000  1
  C  C20  1  0.500000  0.000000  0.500000  1
  C  C21  1  0.000000  0.500000  0.500000  1
