# generated using pymatgen
data_LaTb4(ThSe4)3
_symmetry_space_group_name_H-M   'P 1'
_cell_length_a   11.29282056
_cell_length_b   4.11883400
_cell_length_c   11.05117939
_cell_angle_alpha   90.00000000
_cell_angle_beta   90.15692961
_cell_angle_gamma   90.00000000
_symmetry_Int_Tables_number   1
_chemical_formula_structural   LaTb4(ThSe4)3
_chemical_formula_sum   'La1 Tb4 Th3 Se12'
_cell_volume   514.02437802
_cell_formula_units_Z   1
loop_
 _symmetry_equiv_pos_site_id
 _symmetry_equiv_pos_as_xyz
  1  'x, y, z'
loop_
 _atom_site_type_symbol
 _atom_site_label
 _atom_site_symmetry_multiplicity
 _atom_site_fract_x
 _atom_site_fract_y
 _atom_site_fract_z
 _atom_site_occupancy
  La  La0  1  0.697206  0.750000  0.496672  1
  Tb  Tb1  1  0.484906  0.250000  0.188090  1
  Tb  Tb2  1  0.983549  0.250000  0.313100  1
  Tb  Tb3  1  0.515315  0.750000  0.813544  1
  Tb  Tb4  1  0.016259  0.750000  0.686661  1
  Th  Th5  1  0.197068  0.750000  0.001274  1
  Th  Th6  1  0.305246  0.250000  0.501965  1
  Th  Th7  1  0.802380  0.250000  0.001713  1
  Se  Se8  1  0.542536  0.250000  0.630651  1
  Se  Se9  1  0.046685  0.250000  0.873466  1
  Se  Se10  1  0.448080  0.750000  0.369871  1
  Se  Se11  1  0.955126  0.750000  0.126602  1
  Se  Se12  1  0.615661  0.750000  0.054184  1
  Se  Se13  1  0.118213  0.750000  0.444909  1
  Se  Se14  1  0.382868  0.250000  0.945617  1
  Se  Se15  1  0.886974  0.250000  0.555340  1
  Se  Se16  1  0.728725  0.250000  0.288836  1
  Se  Se17  1  0.223423  0.250000  0.201941  1
  Se  Se18  1  0.273153  0.750000  0.704673  1
  Se  Se19  1  0.776628  0.750000  0.800891  1
