# generated using pymatgen
data_GdYTh(B2C)3
_symmetry_space_group_name_H-M   'P 1'
_cell_length_a   5.31231943
_cell_length_b   5.31232085
_cell_length_c   5.31232127
_cell_angle_alpha   77.21880435
_cell_angle_beta   77.21880559
_cell_angle_gamma   77.21880573
_symmetry_Int_Tables_number   1
_chemical_formula_structural   GdYTh(B2C)3
_chemical_formula_sum   'Gd1 Y1 Th1 B6 C3'
_cell_volume   140.22140535
_cell_formula_units_Z   1
loop_
 _symmetry_equiv_pos_site_id
 _symmetry_equiv_pos_as_xyz
  1  'x, y, z'
loop_
 _atom_site_type_symbol
 _atom_site_label
 _atom_site_symmetry_multiplicity
 _atom_site_fract_x
 _atom_site_fract_y
 _atom_site_fract_z
 _atom_site_occupancy
  Gd  Gd0  1  0.311406  0.311406  0.311406  1
  Y  Y1  1  0.688537  0.688537  0.688537  1
  Th  Th2  1  0.999887  0.999887  0.999887  1
  B  B3  1  0.500061  0.773886  0.226518  1
  B  B4  1  0.226518  0.500061  0.773886  1
  B  B5  1  0.773886  0.226518  0.500061  1
  B  B6  1  0.500061  0.226518  0.773886  1
  B  B7  1  0.226518  0.773886  0.500061  1
  B  B8  1  0.773886  0.500061  0.226518  1
  C  C9  1  0.999433  0.999433  0.500374  1
  C  C10  1  0.999433  0.500374  0.999433  1
  C  C11  1  0.500374  0.999433  0.999433  1
