# generated using pymatgen
data_YNb8FeSe16
_symmetry_space_group_name_H-M   'P 1'
_cell_length_a   6.97432000
_cell_length_b   6.97432061
_cell_length_c   13.43297500
_cell_angle_alpha   90.00000000
_cell_angle_beta   90.00000000
_cell_angle_gamma   119.99999710
_symmetry_Int_Tables_number   1
_chemical_formula_structural   YNb8FeSe16
_chemical_formula_sum   'Y1 Nb8 Fe1 Se16'
_cell_volume   565.85691702
_cell_formula_units_Z   1
loop_
 _symmetry_equiv_pos_site_id
 _symmetry_equiv_pos_as_xyz
  1  'x, y, z'
loop_
 _atom_site_type_symbol
 _atom_site_label
 _atom_site_symmetry_multiplicity
 _atom_site_fract_x
 _atom_site_fract_y
 _atom_site_fract_z
 _atom_site_occupancy
  Y  Y0  1  0.000000  0.000000  0.500000  1
  Nb  Nb1  1  0.000000  0.000000  0.232848  1
  Nb  Nb2  1  0.000000  0.000000  0.767152  1
  Nb  Nb3  1  0.507455  0.014911  0.228084  1
  Nb  Nb4  1  0.985089  0.492545  0.228084  1
  Nb  Nb5  1  0.507455  0.492545  0.228084  1
  Nb  Nb6  1  0.492545  0.985089  0.771916  1
  Nb  Nb7  1  0.014911  0.507455  0.771916  1
  Nb  Nb8  1  0.492545  0.507455  0.771916  1
  Fe  Fe9  1  0.000000  0.000000  0.000000  1
  Se  Se10  1  0.333333  0.666667  0.900511  1
  Se  Se11  1  0.666667  0.333333  0.099489  1
  Se  Se12  1  0.666667  0.333333  0.358670  1
  Se  Se13  1  0.333333  0.666667  0.641330  1
  Se  Se14  1  0.170928  0.829072  0.354817  1
  Se  Se15  1  0.170928  0.341857  0.354817  1
  Se  Se16  1  0.658143  0.829072  0.354817  1
  Se  Se17  1  0.829072  0.170928  0.645183  1
  Se  Se18  1  0.829072  0.658143  0.645183  1
  Se  Se19  1  0.341857  0.170928  0.645183  1
  Se  Se20  1  0.835409  0.164591  0.893631  1
  Se  Se21  1  0.835409  0.670818  0.893631  1
  Se  Se22  1  0.329182  0.164591  0.893631  1
  Se  Se23  1  0.164591  0.835409  0.106369  1
  Se  Se24  1  0.164591  0.329182  0.106369  1
  Se  Se25  1  0.670818  0.835409  0.106369  1
