# generated using pymatgen
data_Er2CuNiHg
_symmetry_space_group_name_H-M   'P 1'
_cell_length_a   7.24400050
_cell_length_b   7.24399932
_cell_length_c   3.56066800
_cell_angle_alpha   90.00000000
_cell_angle_beta   90.00000000
_cell_angle_gamma   147.16925713
_symmetry_Int_Tables_number   1
_chemical_formula_structural   Er2CuNiHg
_chemical_formula_sum   'Er2 Cu1 Ni1 Hg1'
_cell_volume   101.30132964
_cell_formula_units_Z   1
loop_
 _symmetry_equiv_pos_site_id
 _symmetry_equiv_pos_as_xyz
  1  'x, y, z'
loop_
 _atom_site_type_symbol
 _atom_site_label
 _atom_site_symmetry_multiplicity
 _atom_site_fract_x
 _atom_site_fract_y
 _atom_site_fract_z
 _atom_site_occupancy
  Er  Er0  1  0.367206  0.632794  0.500000  1
  Er  Er1  1  0.635470  0.364530  0.500000  1
  Cu  Cu2  1  0.200187  0.799813  0.000000  1
  Ni  Ni3  1  0.798070  0.201930  0.000000  1
  Hg  Hg4  1  0.999068  0.000932  0.000000  1
