# generated using pymatgen
data_CsNdDy9(C2Br9)2
_symmetry_space_group_name_H-M   'P 1'
_cell_length_a   10.73676154
_cell_length_b   10.82405759
_cell_length_c   10.94813605
_cell_angle_alpha   113.43261339
_cell_angle_beta   87.43428496
_cell_angle_gamma   118.82229273
_symmetry_Int_Tables_number   1
_chemical_formula_structural   CsNdDy9(C2Br9)2
_chemical_formula_sum   'Cs1 Nd1 Dy9 C4 Br18'
_cell_volume   1005.55497363
_cell_formula_units_Z   1
loop_
 _symmetry_equiv_pos_site_id
 _symmetry_equiv_pos_as_xyz
  1  'x, y, z'
loop_
 _atom_site_type_symbol
 _atom_site_label
 _atom_site_symmetry_multiplicity
 _atom_site_fract_x
 _atom_site_fract_y
 _atom_site_fract_z
 _atom_site_occupancy
  Cs  Cs0  1  0.500140  0.000845  0.499993  1
  Nd  Nd1  1  0.656147  0.714887  0.698804  1
  Dy  Dy2  1  0.281455  0.363011  0.012710  1
  Dy  Dy3  1  0.092132  0.404334  0.299189  1
  Dy  Dy4  1  0.960694  0.037284  0.332353  1
  Dy  Dy5  1  0.906627  0.594548  0.699671  1
  Dy  Dy6  1  0.112202  0.942376  0.001681  1
  Dy  Dy7  1  0.040766  0.963529  0.668417  1
  Dy  Dy8  1  0.336371  0.281705  0.296323  1
  Dy  Dy9  1  0.719666  0.637431  0.988447  1
  Dy  Dy10  1  0.888656  0.057839  0.998691  1
  C  C11  1  0.156668  0.226967  0.123388  1
  C  C12  1  0.846180  0.774165  0.878268  1
  C  C13  1  0.924570  0.852790  0.798290  1
  C  C14  1  0.078168  0.148148  0.203528  1
  Br  Br15  1  0.449251  0.527594  0.838314  1
  Br  Br16  1  0.382319  0.039587  0.159024  1
  Br  Br17  1  0.783001  0.861487  0.499361  1
  Br  Br18  1  0.839404  0.311169  0.154595  1
  Br  Br19  1  0.547392  0.468527  0.166379  1
  Br  Br20  1  0.221396  0.142946  0.497655  1
  Br  Br21  1  0.314289  0.099518  0.829539  1
  Br  Br22  1  0.686409  0.900677  0.170319  1
  Br  Br23  1  0.974454  0.761570  0.172692  1
  Br  Br24  1  0.933812  0.301916  0.499844  1
  Br  Br25  1  0.025881  0.238135  0.827817  1
  Br  Br26  1  0.066553  0.698158  0.500078  1
  Br  Br27  1  0.259283  0.620802  0.186636  1
  Br  Br28  1  0.740506  0.379367  0.813478  1
  Br  Br29  1  0.639433  0.424126  0.493742  1
  Br  Br30  1  0.160836  0.689547  0.845888  1
  Br  Br31  1  0.618248  0.971306  0.847403  1
  Br  Br32  1  0.357094  0.563710  0.497485  1
