# generated using pymatgen
data_Tb2Er2Al5Ni9
_symmetry_space_group_name_H-M   'P 1'
_cell_length_a   5.18561656
_cell_length_b   5.18561366
_cell_length_c   12.17603600
_cell_angle_alpha   77.70509199
_cell_angle_beta   77.70509896
_cell_angle_gamma   60.00001287
_symmetry_Int_Tables_number   1
_chemical_formula_structural   Tb2Er2Al5Ni9
_chemical_formula_sum   'Tb2 Er2 Al5 Ni9'
_cell_volume   274.84942092
_cell_formula_units_Z   1
loop_
 _symmetry_equiv_pos_site_id
 _symmetry_equiv_pos_as_xyz
  1  'x, y, z'
loop_
 _atom_site_type_symbol
 _atom_site_label
 _atom_site_symmetry_multiplicity
 _atom_site_fract_x
 _atom_site_fract_y
 _atom_site_fract_z
 _atom_site_occupancy
  Tb  Tb0  1  0.951792  0.951792  0.144627  1
  Tb  Tb1  1  0.048208  0.048208  0.855373  1
  Er  Er2  1  0.854969  0.854969  0.435092  1
  Er  Er3  1  0.145031  0.145031  0.564908  1
  Al  Al4  1  0.500000  0.500000  0.500000  1
  Al  Al5  1  0.722467  0.722467  0.832600  1
  Al  Al6  1  0.277533  0.277533  0.167400  1
  Al  Al7  1  0.610297  0.610297  0.169107  1
  Al  Al8  1  0.389703  0.389703  0.830893  1
  Ni  Ni9  1  0.000000  0.500000  0.000000  1
  Ni  Ni10  1  0.500000  0.000000  0.000000  1
  Ni  Ni11  1  0.500000  0.500000  0.000000  1
  Ni  Ni12  1  0.386643  0.386643  0.333072  1
  Ni  Ni13  1  0.893642  0.386643  0.333072  1
  Ni  Ni14  1  0.386643  0.893642  0.333072  1
  Ni  Ni15  1  0.613357  0.613357  0.666928  1
  Ni  Ni16  1  0.106358  0.613357  0.666928  1
  Ni  Ni17  1  0.613357  0.106358  0.666928  1
