# generated using pymatgen
data_Th8Al3Si12Ni
_symmetry_space_group_name_H-M   'P 1'
_cell_length_a   8.18635100
_cell_length_b   8.18634944
_cell_length_c   8.54381600
_cell_angle_alpha   90.00000000
_cell_angle_beta   90.00000000
_cell_angle_gamma   119.99999416
_symmetry_Int_Tables_number   1
_chemical_formula_structural   Th8Al3Si12Ni
_chemical_formula_sum   'Th8 Al3 Si12 Ni1'
_cell_volume   495.86469116
_cell_formula_units_Z   1
loop_
 _symmetry_equiv_pos_site_id
 _symmetry_equiv_pos_as_xyz
  1  'x, y, z'
loop_
 _atom_site_type_symbol
 _atom_site_label
 _atom_site_symmetry_multiplicity
 _atom_site_fract_x
 _atom_site_fract_y
 _atom_site_fract_z
 _atom_site_occupancy
  Th  Th0  1  0.498951  0.997903  0.249920  1
  Th  Th1  1  0.499028  0.998056  0.750149  1
  Th  Th2  1  0.002097  0.501049  0.249920  1
  Th  Th3  1  0.001944  0.500972  0.750149  1
  Th  Th4  1  0.498951  0.501049  0.249920  1
  Th  Th5  1  0.499028  0.500972  0.750149  1
  Th  Th6  1  0.000000  0.000000  0.248564  1
  Th  Th7  1  0.000000  0.000000  0.751418  1
  Al  Al8  1  0.666667  0.333333  0.000176  1
  Al  Al9  1  0.666667  0.333333  0.500006  1
  Al  Al10  1  0.333333  0.666667  0.500044  1
  Si  Si11  1  0.171532  0.343064  0.000245  1
  Si  Si12  1  0.835256  0.670512  0.999829  1
  Si  Si13  1  0.656936  0.828468  0.000245  1
  Si  Si14  1  0.834568  0.669137  0.499719  1
  Si  Si15  1  0.329488  0.164744  0.999829  1
  Si  Si16  1  0.164965  0.329930  0.500341  1
  Si  Si17  1  0.171532  0.828468  0.000245  1
  Si  Si18  1  0.330863  0.165432  0.499719  1
  Si  Si19  1  0.835256  0.164744  0.999829  1
  Si  Si20  1  0.670070  0.835035  0.500341  1
  Si  Si21  1  0.834568  0.165432  0.499719  1
  Si  Si22  1  0.164965  0.835035  0.500341  1
  Ni  Ni23  1  0.333333  0.666667  0.999184  1
