# generated using pymatgen
data_Sc4Si12Ni7Rh13
_symmetry_space_group_name_H-M   'P 1'
_cell_length_a   3.72629700
_cell_length_b   10.96910019
_cell_length_c   12.29654869
_cell_angle_alpha   90.29153973
_cell_angle_beta   90.00000000
_cell_angle_gamma   90.00000000
_symmetry_Int_Tables_number   1
_chemical_formula_structural   Sc4Si12Ni7Rh13
_chemical_formula_sum   'Sc4 Si12 Ni7 Rh13'
_cell_volume   502.60416324
_cell_formula_units_Z   1
loop_
 _symmetry_equiv_pos_site_id
 _symmetry_equiv_pos_as_xyz
  1  'x, y, z'
loop_
 _atom_site_type_symbol
 _atom_site_label
 _atom_site_symmetry_multiplicity
 _atom_site_fract_x
 _atom_site_fract_y
 _atom_site_fract_z
 _atom_site_occupancy
  Sc  Sc0  1  0.250000  0.590682  0.705986  1
  Sc  Sc1  1  0.250000  0.909952  0.202133  1
  Sc  Sc2  1  0.750000  0.412127  0.297353  1
  Sc  Sc3  1  0.750000  0.086721  0.796863  1
  Si  Si4  1  0.250000  0.411381  0.111819  1
  Si  Si5  1  0.250000  0.091675  0.606189  1
  Si  Si6  1  0.750000  0.582853  0.890868  1
  Si  Si7  1  0.750000  0.913339  0.384180  1
  Si  Si8  1  0.250000  0.271239  0.878218  1
  Si  Si9  1  0.250000  0.228867  0.378200  1
  Si  Si10  1  0.750000  0.723494  0.122359  1
  Si  Si11  1  0.750000  0.777269  0.622391  1
  Si  Si12  1  0.250000  0.597070  0.384112  1
  Si  Si13  1  0.250000  0.901420  0.887336  1
  Si  Si14  1  0.750000  0.405700  0.617665  1
  Si  Si15  1  0.750000  0.096407  0.116370  1
  Ni  Ni16  1  0.250000  0.602767  0.193675  1
  Ni  Ni17  1  0.750000  0.106839  0.305987  1
  Ni  Ni18  1  0.750000  0.392800  0.808022  1
  Ni  Ni19  1  0.250000  0.467641  0.932156  1
  Ni  Ni20  1  0.250000  0.030998  0.425959  1
  Ni  Ni21  1  0.750000  0.526744  0.070493  1
  Ni  Ni22  1  0.750000  0.974747  0.560434  1
  Rh  Rh23  1  0.250000  0.708359  0.988929  1
  Rh  Rh24  1  0.250000  0.790852  0.481816  1
  Rh  Rh25  1  0.750000  0.287259  0.013167  1
  Rh  Rh26  1  0.750000  0.215400  0.511514  1
  Rh  Rh27  1  0.250000  0.410208  0.486072  1
  Rh  Rh28  1  0.250000  0.091518  0.986371  1
  Rh  Rh29  1  0.750000  0.595165  0.516900  1
  Rh  Rh30  1  0.750000  0.905473  0.017637  1
  Rh  Rh31  1  0.250000  0.216869  0.187221  1
  Rh  Rh32  1  0.250000  0.285005  0.686479  1
  Rh  Rh33  1  0.750000  0.776939  0.818266  1
  Rh  Rh34  1  0.750000  0.714977  0.312974  1
  Rh  Rh35  1  0.250000  0.899245  0.693883  1
