# generated using pymatgen
data_GdY2TaO7
_symmetry_space_group_name_H-M   'P 1'
_cell_length_a   6.49312401
_cell_length_b   6.49312323
_cell_length_c   7.57469200
_cell_angle_alpha   90.00000000
_cell_angle_beta   90.00000000
_cell_angle_gamma   109.47932096
_symmetry_Int_Tables_number   1
_chemical_formula_structural   GdY2TaO7
_chemical_formula_sum   'Gd2 Y4 Ta2 O14'
_cell_volume   301.07475874
_cell_formula_units_Z   2
loop_
 _symmetry_equiv_pos_site_id
 _symmetry_equiv_pos_as_xyz
  1  'x, y, z'
loop_
 _atom_site_type_symbol
 _atom_site_label
 _atom_site_symmetry_multiplicity
 _atom_site_fract_x
 _atom_site_fract_y
 _atom_site_fract_z
 _atom_site_occupancy
  Gd  Gd0  1  0.500000  0.500000  0.500000  1
  Gd  Gd1  1  0.500000  0.500000  0.000000  1
  Y  Y2  1  0.533823  0.000158  0.750000  1
  Y  Y3  1  0.000158  0.533823  0.250000  1
  Y  Y4  1  0.466177  0.999842  0.250000  1
  Y  Y5  1  0.999842  0.466177  0.750000  1
  Ta  Ta6  1  0.000000  0.000000  0.500000  1
  Ta  Ta7  1  0.000000  0.000000  0.000000  1
  O  O8  1  0.679282  0.929284  0.468329  1
  O  O9  1  0.929284  0.679282  0.531671  1
  O  O10  1  0.679282  0.929284  0.031671  1
  O  O11  1  0.929284  0.679282  0.968329  1
  O  O12  1  0.320718  0.070716  0.531671  1
  O  O13  1  0.070716  0.320718  0.468329  1
  O  O14  1  0.320718  0.070716  0.968329  1
  O  O15  1  0.070716  0.320718  0.031671  1
  O  O16  1  0.935799  0.064201  0.750000  1
  O  O17  1  0.064201  0.935799  0.250000  1
  O  O18  1  0.369151  0.630849  0.750000  1
  O  O19  1  0.630849  0.369151  0.250000  1
  O  O20  1  0.639261  0.360739  0.750000  1
  O  O21  1  0.360739  0.639261  0.250000  1
