# generated using pymatgen
data_La4YSn4
_symmetry_space_group_name_H-M   'P 1'
_cell_length_a   8.42297700
_cell_length_b   8.51316200
_cell_length_c   16.30080000
_cell_angle_alpha   90.00000000
_cell_angle_beta   90.00000000
_cell_angle_gamma   90.00000000
_symmetry_Int_Tables_number   1
_chemical_formula_structural   La4YSn4
_chemical_formula_sum   'La16 Y4 Sn16'
_cell_volume   1168.86789882
_cell_formula_units_Z   4
loop_
 _symmetry_equiv_pos_site_id
 _symmetry_equiv_pos_as_xyz
  1  'x, y, z'
loop_
 _atom_site_type_symbol
 _atom_site_label
 _atom_site_symmetry_multiplicity
 _atom_site_fract_x
 _atom_site_fract_y
 _atom_site_fract_z
 _atom_site_occupancy
  La  La0  1  0.971648  0.818967  0.899995  1
  La  La1  1  0.471648  0.681033  0.600005  1
  La  La2  1  0.528352  0.318967  0.100005  1
  La  La3  1  0.028352  0.181033  0.399995  1
  La  La4  1  0.971648  0.818967  0.600005  1
  La  La5  1  0.471648  0.681033  0.899995  1
  La  La6  1  0.528352  0.318967  0.399995  1
  La  La7  1  0.028352  0.181033  0.100005  1
  La  La8  1  0.877082  0.658916  0.381878  1
  La  La9  1  0.377082  0.841084  0.118122  1
  La  La10  1  0.622918  0.158916  0.618122  1
  La  La11  1  0.122918  0.341084  0.881878  1
  La  La12  1  0.122918  0.341084  0.618122  1
  La  La13  1  0.622918  0.158916  0.881878  1
  La  La14  1  0.377082  0.841084  0.381878  1
  La  La15  1  0.877082  0.658916  0.118122  1
  Y  Y16  1  0.288973  0.002808  0.750000  1
  Y  Y17  1  0.788973  0.497192  0.750000  1
  Y  Y18  1  0.211027  0.502808  0.250000  1
  Y  Y19  1  0.711027  0.997192  0.250000  1
  Sn  Sn20  1  0.781984  0.470782  0.546461  1
  Sn  Sn21  1  0.281984  0.029218  0.953539  1
  Sn  Sn22  1  0.718016  0.970782  0.453539  1
  Sn  Sn23  1  0.218016  0.529218  0.046461  1
  Sn  Sn24  1  0.218016  0.529218  0.453539  1
  Sn  Sn25  1  0.718016  0.970782  0.046461  1
  Sn  Sn26  1  0.281984  0.029218  0.546461  1
  Sn  Sn27  1  0.781984  0.470782  0.953539  1
  Sn  Sn28  1  0.167455  0.645963  0.750000  1
  Sn  Sn29  1  0.667455  0.854037  0.750000  1
  Sn  Sn30  1  0.332545  0.145963  0.250000  1
  Sn  Sn31  1  0.832545  0.354037  0.250000  1
  Sn  Sn32  1  0.925137  0.118143  0.750000  1
  Sn  Sn33  1  0.425137  0.381857  0.750000  1
  Sn  Sn34  1  0.574863  0.618143  0.250000  1
  Sn  Sn35  1  0.074863  0.881857  0.250000  1
