# generated using pymatgen
data_Y4Sc4OsPt3
_symmetry_space_group_name_H-M   'P 1'
_cell_length_a   4.47728800
_cell_length_b   7.08103416
_cell_length_c   8.57101929
_cell_angle_alpha   88.34915921
_cell_angle_beta   90.00000000
_cell_angle_gamma   90.00000000
_symmetry_Int_Tables_number   1
_chemical_formula_structural   Y4Sc4OsPt3
_chemical_formula_sum   'Y4 Sc4 Os1 Pt3'
_cell_volume   271.62134783
_cell_formula_units_Z   1
loop_
 _symmetry_equiv_pos_site_id
 _symmetry_equiv_pos_as_xyz
  1  'x, y, z'
loop_
 _atom_site_type_symbol
 _atom_site_label
 _atom_site_symmetry_multiplicity
 _atom_site_fract_x
 _atom_site_fract_y
 _atom_site_fract_z
 _atom_site_occupancy
  Y  Y0  1  0.250000  0.018252  0.671285  1
  Y  Y1  1  0.250000  0.518257  0.820944  1
  Y  Y2  1  0.750000  0.993135  0.328426  1
  Y  Y3  1  0.750000  0.470319  0.183178  1
  Sc  Sc4  1  0.250000  0.137436  0.071494  1
  Sc  Sc5  1  0.250000  0.646253  0.425446  1
  Sc  Sc6  1  0.750000  0.857020  0.932208  1
  Sc  Sc7  1  0.750000  0.357306  0.566951  1
  Os  Os8  1  0.250000  0.266517  0.394486  1
  Pt  Pt9  1  0.250000  0.754755  0.097720  1
  Pt  Pt10  1  0.750000  0.740090  0.607935  1
  Pt  Pt11  1  0.750000  0.240659  0.899927  1
