# generated using pymatgen
data_Cs6Na4HfZrP6
_symmetry_space_group_name_H-M   'P 1'
_cell_length_a   10.87082590
_cell_length_b   10.87082514
_cell_length_c   16.52088400
_cell_angle_alpha   90.00000000
_cell_angle_beta   90.00000000
_cell_angle_gamma   142.72613109
_symmetry_Int_Tables_number   1
_chemical_formula_structural   Cs6Na4HfZrP6
_chemical_formula_sum   'Cs12 Na8 Hf2 Zr2 P12'
_cell_volume   1182.39481345
_cell_formula_units_Z   2
loop_
 _symmetry_equiv_pos_site_id
 _symmetry_equiv_pos_as_xyz
  1  'x, y, z'
loop_
 _atom_site_type_symbol
 _atom_site_label
 _atom_site_symmetry_multiplicity
 _atom_site_fract_x
 _atom_site_fract_y
 _atom_site_fract_z
 _atom_site_occupancy
  Cs  Cs0  1  0.948915  0.609119  0.824595  1
  Cs  Cs1  1  0.551085  0.890881  0.324595  1
  Cs  Cs2  1  0.390881  0.051085  0.175405  1
  Cs  Cs3  1  0.051164  0.390790  0.175205  1
  Cs  Cs4  1  0.890790  0.551164  0.324795  1
  Cs  Cs5  1  0.448836  0.109210  0.675205  1
  Cs  Cs6  1  0.609210  0.948836  0.824795  1
  Cs  Cs7  1  0.282879  0.282701  0.315409  1
  Cs  Cs8  1  0.782701  0.782879  0.184591  1
  Cs  Cs9  1  0.217121  0.217299  0.815409  1
  Cs  Cs10  1  0.717299  0.717121  0.684591  1
  Cs  Cs11  1  0.109119  0.448915  0.675405  1
  Na  Na12  1  0.919719  0.080281  0.000000  1
  Na  Na13  1  0.580281  0.419719  0.500000  1
  Na  Na14  1  0.079906  0.920094  0.000000  1
  Na  Na15  1  0.420094  0.579906  0.500000  1
  Na  Na16  1  0.755012  0.244988  0.000000  1
  Na  Na17  1  0.744988  0.255012  0.500000  1
  Na  Na18  1  0.245613  0.754387  0.000000  1
  Na  Na19  1  0.254387  0.745613  0.500000  1
  Hf  Hf20  1  0.414764  0.585236  0.000000  1
  Hf  Hf21  1  0.085236  0.914764  0.500000  1
  Zr  Zr22  1  0.585388  0.414612  0.000000  1
  Zr  Zr23  1  0.914612  0.085388  0.500000  1
  P  P24  1  0.869500  0.558681  0.089600  1
  P  P25  1  0.441319  0.130500  0.910400  1
  P  P26  1  0.630500  0.941319  0.589600  1
  P  P27  1  0.942878  0.633558  0.588899  1
  P  P28  1  0.133558  0.442878  0.911101  1
  P  P29  1  0.557122  0.866442  0.088899  1
  P  P30  1  0.366442  0.057122  0.411101  1
  P  P31  1  0.197358  0.195530  0.581023  1
  P  P32  1  0.695530  0.697358  0.918977  1
  P  P33  1  0.302642  0.304470  0.081023  1
  P  P34  1  0.058681  0.369500  0.410400  1
  P  P35  1  0.804470  0.802642  0.418977  1
