# generated using pymatgen
data_Ta4V4Si3B
_symmetry_space_group_name_H-M   'P 1'
_cell_length_a   3.32421200
_cell_length_b   6.49412148
_cell_length_c   7.82543885
_cell_angle_alpha   89.96591936
_cell_angle_beta   90.00000000
_cell_angle_gamma   90.00000000
_symmetry_Int_Tables_number   1
_chemical_formula_structural   Ta4V4Si3B
_chemical_formula_sum   'Ta4 V4 Si3 B1'
_cell_volume   168.93426504
_cell_formula_units_Z   1
loop_
 _symmetry_equiv_pos_site_id
 _symmetry_equiv_pos_as_xyz
  1  'x, y, z'
loop_
 _atom_site_type_symbol
 _atom_site_label
 _atom_site_symmetry_multiplicity
 _atom_site_fract_x
 _atom_site_fract_y
 _atom_site_fract_z
 _atom_site_occupancy
  Ta  Ta0  1  0.250000  0.548070  0.165647  1
  Ta  Ta1  1  0.750000  0.441944  0.817541  1
  Ta  Ta2  1  0.750000  0.979710  0.665895  1
  Ta  Ta3  1  0.250000  0.049044  0.340966  1
  V  V4  1  0.250000  0.616062  0.563753  1
  V  V5  1  0.750000  0.360066  0.450267  1
  V  V6  1  0.750000  0.868727  0.061881  1
  V  V7  1  0.250000  0.135709  0.930600  1
  Si  Si8  1  0.250000  0.755882  0.856971  1
  Si  Si9  1  0.750000  0.245521  0.138763  1
  Si  Si10  1  0.750000  0.743681  0.367832  1
  B  B11  1  0.250000  0.255585  0.639884  1
