# generated using pymatgen
data_CaSb12IrOsRu2
_symmetry_space_group_name_H-M   'P 1'
_cell_length_a   8.15139412
_cell_length_b   8.17008388
_cell_length_c   8.15994467
_cell_angle_alpha   109.51318020
_cell_angle_beta   109.40844222
_cell_angle_gamma   109.48793686
_symmetry_Int_Tables_number   1
_chemical_formula_structural   CaSb12IrOsRu2
_chemical_formula_sum   'Ca1 Sb12 Ir1 Os1 Ru2'
_cell_volume   418.35544068
_cell_formula_units_Z   1
loop_
 _symmetry_equiv_pos_site_id
 _symmetry_equiv_pos_as_xyz
  1  'x, y, z'
loop_
 _atom_site_type_symbol
 _atom_site_label
 _atom_site_symmetry_multiplicity
 _atom_site_fract_x
 _atom_site_fract_y
 _atom_site_fract_z
 _atom_site_occupancy
  Ca  Ca0  1  0.000000  0.000000  0.000000  1
  Sb  Sb1  1  0.842799  0.661120  0.504104  1
  Sb  Sb2  1  0.157201  0.338880  0.495896  1
  Sb  Sb3  1  0.156916  0.661328  0.816205  1
  Sb  Sb4  1  0.843084  0.338672  0.183795  1
  Sb  Sb5  1  0.658776  0.504381  0.842125  1
  Sb  Sb6  1  0.341224  0.495619  0.157875  1
  Sb  Sb7  1  0.661791  0.818014  0.157626  1
  Sb  Sb8  1  0.338209  0.181986  0.842374  1
  Sb  Sb9  1  0.504122  0.842631  0.660532  1
  Sb  Sb10  1  0.495878  0.157369  0.339468  1
  Sb  Sb11  1  0.183244  0.845412  0.341047  1
  Sb  Sb12  1  0.816756  0.154588  0.658953  1
  Ir  Ir13  1  0.000000  0.500000  0.000000  1
  Os  Os14  1  0.500000  0.000000  0.000000  1
  Ru  Ru15  1  0.500000  0.500000  0.500000  1
  Ru  Ru16  1  0.000000  0.000000  0.500000  1
