# generated using pymatgen
data_Fe14B6PtRh17
_symmetry_space_group_name_H-M   'P 1'
_cell_length_a   2.88458900
_cell_length_b   11.39910500
_cell_length_c   14.85206300
_cell_angle_alpha   90.00000000
_cell_angle_beta   90.00000000
_cell_angle_gamma   90.00000000
_symmetry_Int_Tables_number   1
_chemical_formula_structural   Fe14B6PtRh17
_chemical_formula_sum   'Fe14 B6 Pt1 Rh17'
_cell_volume   488.36156847
_cell_formula_units_Z   1
loop_
 _symmetry_equiv_pos_site_id
 _symmetry_equiv_pos_as_xyz
  1  'x, y, z'
loop_
 _atom_site_type_symbol
 _atom_site_label
 _atom_site_symmetry_multiplicity
 _atom_site_fract_x
 _atom_site_fract_y
 _atom_site_fract_z
 _atom_site_occupancy
  Fe  Fe0  1  0.500000  0.500000  0.350258  1
  Fe  Fe1  1  0.500000  0.000000  0.650662  1
  Fe  Fe2  1  0.500000  0.395168  0.999349  1
  Fe  Fe3  1  0.500000  0.106448  0.996488  1
  Fe  Fe4  1  0.500000  0.604832  0.999349  1
  Fe  Fe5  1  0.500000  0.893552  0.996488  1
  Fe  Fe6  1  0.500000  0.364743  0.767458  1
  Fe  Fe7  1  0.500000  0.133369  0.235317  1
  Fe  Fe8  1  0.500000  0.635257  0.767458  1
  Fe  Fe9  1  0.500000  0.866631  0.235317  1
  Fe  Fe10  1  0.500000  0.301824  0.607523  1
  Fe  Fe11  1  0.500000  0.198873  0.393048  1
  Fe  Fe12  1  0.500000  0.698176  0.607523  1
  Fe  Fe13  1  0.500000  0.801127  0.393048  1
  B  B14  1  0.500000  0.500000  0.531170  1
  B  B15  1  0.500000  0.000000  0.472175  1
  B  B16  1  0.500000  0.144859  0.824448  1
  B  B17  1  0.500000  0.355502  0.174807  1
  B  B18  1  0.500000  0.855141  0.824448  1
  B  B19  1  0.500000  0.644498  0.174807  1
  Pt  Pt20  1  0.000000  0.000000  0.123839  1
  Rh  Rh21  1  0.000000  0.248568  0.897452  1
  Rh  Rh22  1  0.000000  0.251778  0.101726  1
  Rh  Rh23  1  0.000000  0.751432  0.897452  1
  Rh  Rh24  1  0.000000  0.748222  0.101726  1
  Rh  Rh25  1  0.000000  0.500000  0.644898  1
  Rh  Rh26  1  0.000000  0.000000  0.360284  1
  Rh  Rh27  1  0.000000  0.172024  0.717989  1
  Rh  Rh28  1  0.000000  0.329022  0.281606  1
  Rh  Rh29  1  0.000000  0.827976  0.717989  1
  Rh  Rh30  1  0.000000  0.670978  0.281606  1
  Rh  Rh31  1  0.000000  0.500000  0.137930  1
  Rh  Rh32  1  0.000000  0.000000  0.859699  1
  Rh  Rh33  1  0.000000  0.124461  0.530729  1
  Rh  Rh34  1  0.000000  0.376385  0.470843  1
  Rh  Rh35  1  0.000000  0.875539  0.530729  1
  Rh  Rh36  1  0.000000  0.623615  0.470843  1
  Rh  Rh37  1  0.000000  0.500000  0.871511  1
