# generated using pymatgen
data_Dy3ErGeI6
_symmetry_space_group_name_H-M   'P 1'
_cell_length_a   4.20348400
_cell_length_b   13.90265507
_cell_length_c   14.71413100
_cell_angle_alpha   89.96870352
_cell_angle_beta   90.00000000
_cell_angle_gamma   90.00000000
_symmetry_Int_Tables_number   1
_chemical_formula_structural   Dy3ErGeI6
_chemical_formula_sum   'Dy6 Er2 Ge2 I12'
_cell_volume   859.88762751
_cell_formula_units_Z   2
loop_
 _symmetry_equiv_pos_site_id
 _symmetry_equiv_pos_as_xyz
  1  'x, y, z'
loop_
 _atom_site_type_symbol
 _atom_site_label
 _atom_site_symmetry_multiplicity
 _atom_site_fract_x
 _atom_site_fract_y
 _atom_site_fract_z
 _atom_site_occupancy
  Dy  Dy0  1  0.500000  0.115726  0.346201  1
  Dy  Dy1  1  0.500000  0.884274  0.653799  1
  Dy  Dy2  1  0.500000  0.615500  0.153544  1
  Dy  Dy3  1  0.500000  0.384500  0.846456  1
  Dy  Dy4  1  0.000000  0.112043  0.575477  1
  Dy  Dy5  1  0.000000  0.887957  0.424523  1
  Er  Er6  1  0.000000  0.610832  0.925388  1
  Er  Er7  1  0.000000  0.389168  0.074612  1
  Ge  Ge8  1  0.500000  0.000000  0.500000  1
  Ge  Ge9  1  0.500000  0.500000  0.000000  1
  I  I10  1  0.500000  0.247778  0.161643  1
  I  I11  1  0.500000  0.752222  0.838357  1
  I  I12  1  0.500000  0.745726  0.337181  1
  I  I13  1  0.500000  0.254274  0.662819  1
  I  I14  1  0.000000  0.260111  0.414956  1
  I  I15  1  0.000000  0.739889  0.585044  1
  I  I16  1  0.000000  0.759435  0.083787  1
  I  I17  1  0.000000  0.240565  0.916213  1
  I  I18  1  0.000000  0.999481  0.239226  1
  I  I19  1  0.000000  0.000519  0.760774  1
  I  I20  1  0.000000  0.498309  0.259594  1
  I  I21  1  0.000000  0.501691  0.740406  1
