# generated using pymatgen
data_Yb3Pa(AlRh)4
_symmetry_space_group_name_H-M   'P 1'
_cell_length_a   3.94808900
_cell_length_b   7.10584767
_cell_length_c   8.18935989
_cell_angle_alpha   89.30539686
_cell_angle_beta   90.00000000
_cell_angle_gamma   90.00000000
_symmetry_Int_Tables_number   1
_chemical_formula_structural   Yb3Pa(AlRh)4
_chemical_formula_sum   'Yb3 Pa1 Al4 Rh4'
_cell_volume   229.73166987
_cell_formula_units_Z   1
loop_
 _symmetry_equiv_pos_site_id
 _symmetry_equiv_pos_as_xyz
  1  'x, y, z'
loop_
 _atom_site_type_symbol
 _atom_site_label
 _atom_site_symmetry_multiplicity
 _atom_site_fract_x
 _atom_site_fract_y
 _atom_site_fract_z
 _atom_site_occupancy
  Yb  Yb0  1  0.250000  0.040266  0.682892  1
  Yb  Yb1  1  0.250000  0.541152  0.824278  1
  Yb  Yb2  1  0.750000  0.461836  0.172952  1
  Pa  Pa3  1  0.750000  0.962169  0.327539  1
  Al  Al4  1  0.750000  0.875974  0.942772  1
  Al  Al5  1  0.250000  0.139069  0.055005  1
  Al  Al6  1  0.250000  0.618532  0.440445  1
  Al  Al7  1  0.750000  0.365746  0.561388  1
  Rh  Rh8  1  0.750000  0.736515  0.608933  1
  Rh  Rh9  1  0.250000  0.246308  0.365432  1
  Rh  Rh10  1  0.250000  0.779062  0.145381  1
  Rh  Rh11  1  0.750000  0.233371  0.872982  1
