# generated using pymatgen
data_Ho2TmLu(ReB6)2
_symmetry_space_group_name_H-M   'P 1'
_cell_length_a   3.64904800
_cell_length_b   9.11474501
_cell_length_c   11.49087002
_cell_angle_alpha   90.00650588
_cell_angle_beta   90.00000000
_cell_angle_gamma   90.00000000
_symmetry_Int_Tables_number   1
_chemical_formula_structural   Ho2TmLu(ReB6)2
_chemical_formula_sum   'Ho4 Tm2 Lu2 Re4 B24'
_cell_volume   382.18796682
_cell_formula_units_Z   2
loop_
 _symmetry_equiv_pos_site_id
 _symmetry_equiv_pos_as_xyz
  1  'x, y, z'
loop_
 _atom_site_type_symbol
 _atom_site_label
 _atom_site_symmetry_multiplicity
 _atom_site_fract_x
 _atom_site_fract_y
 _atom_site_fract_z
 _atom_site_occupancy
  Ho  Ho0  1  0.000000  0.323249  0.413845  1
  Ho  Ho1  1  0.000000  0.676751  0.586155  1
  Ho  Ho2  1  0.000000  0.822805  0.085950  1
  Ho  Ho3  1  0.000000  0.177195  0.914050  1
  Tm  Tm4  1  0.000000  0.943297  0.370001  1
  Tm  Tm5  1  0.000000  0.056703  0.629999  1
  Lu  Lu6  1  0.000000  0.443373  0.129558  1
  Lu  Lu7  1  0.000000  0.556627  0.870442  1
  Re  Re8  1  0.000000  0.638484  0.319747  1
  Re  Re9  1  0.000000  0.361516  0.680253  1
  Re  Re10  1  0.000000  0.140084  0.179356  1
  Re  Re11  1  0.000000  0.859916  0.820644  1
  B  B12  1  0.500000  0.553215  0.432758  1
  B  B13  1  0.500000  0.446785  0.567242  1
  B  B14  1  0.500000  0.053660  0.066994  1
  B  B15  1  0.500000  0.946340  0.933006  1
  B  B16  1  0.500000  0.749910  0.418462  1
  B  B17  1  0.500000  0.250090  0.581538  1
  B  B18  1  0.500000  0.250996  0.081262  1
  B  B19  1  0.500000  0.749004  0.918738  1
  B  B20  1  0.500000  0.792514  0.264926  1
  B  B21  1  0.500000  0.207486  0.735074  1
  B  B22  1  0.500000  0.293469  0.234587  1
  B  B23  1  0.500000  0.706531  0.765413  1
  B  B24  1  0.500000  0.629866  0.184407  1
  B  B25  1  0.500000  0.370134  0.815593  1
  B  B26  1  0.500000  0.130799  0.314937  1
  B  B27  1  0.500000  0.869201  0.685063  1
  B  B28  1  0.500000  0.982030  0.212090  1
  B  B29  1  0.500000  0.017970  0.787910  1
  B  B30  1  0.500000  0.481465  0.287276  1
  B  B31  1  0.500000  0.518535  0.712724  1
  B  B32  1  0.500000  0.597976  0.027259  1
  B  B33  1  0.500000  0.402024  0.972741  1
  B  B34  1  0.500000  0.099245  0.472467  1
  B  B35  1  0.500000  0.900755  0.527533  1
