# generated using pymatgen
data_La5RhAu2
_symmetry_space_group_name_H-M   'P 1'
_cell_length_a   8.91281100
_cell_length_b   8.55591700
_cell_length_c   12.43724800
_cell_angle_alpha   90.00000000
_cell_angle_beta   90.00000000
_cell_angle_gamma   90.00000000
_symmetry_Int_Tables_number   1
_chemical_formula_structural   La5RhAu2
_chemical_formula_sum   'La20 Rh4 Au8'
_cell_volume   948.43059313
_cell_formula_units_Z   4
loop_
 _symmetry_equiv_pos_site_id
 _symmetry_equiv_pos_as_xyz
  1  'x, y, z'
loop_
 _atom_site_type_symbol
 _atom_site_label
 _atom_site_symmetry_multiplicity
 _atom_site_fract_x
 _atom_site_fract_y
 _atom_site_fract_z
 _atom_site_occupancy
  La  La0  1  0.668549  0.750000  0.710163  1
  La  La1  1  0.331451  0.250000  0.289837  1
  La  La2  1  0.168549  0.250000  0.789837  1
  La  La3  1  0.831451  0.750000  0.210163  1
  La  La4  1  0.131462  0.750000  0.801027  1
  La  La5  1  0.868538  0.250000  0.198973  1
  La  La6  1  0.631462  0.250000  0.698973  1
  La  La7  1  0.368538  0.750000  0.301027  1
  La  La8  1  0.537238  0.750000  0.004461  1
  La  La9  1  0.462762  0.250000  0.995539  1
  La  La10  1  0.037238  0.250000  0.495539  1
  La  La11  1  0.962762  0.750000  0.504461  1
  La  La12  1  0.824243  0.463204  0.920667  1
  La  La13  1  0.175757  0.536796  0.079333  1
  La  La14  1  0.324243  0.536796  0.579333  1
  La  La15  1  0.175757  0.963204  0.079333  1
  La  La16  1  0.675757  0.463204  0.420667  1
  La  La17  1  0.824243  0.036796  0.920667  1
  La  La18  1  0.675757  0.036796  0.420667  1
  La  La19  1  0.324243  0.963204  0.579333  1
  Rh  Rh20  1  0.939720  0.750000  0.990738  1
  Rh  Rh21  1  0.060280  0.250000  0.009262  1
  Rh  Rh22  1  0.439720  0.250000  0.509262  1
  Rh  Rh23  1  0.560280  0.750000  0.490738  1
  Au  Au24  1  0.935473  0.020305  0.674975  1
  Au  Au25  1  0.064527  0.979695  0.325025  1
  Au  Au26  1  0.435473  0.979695  0.825025  1
  Au  Au27  1  0.064527  0.520305  0.325025  1
  Au  Au28  1  0.564527  0.020305  0.174975  1
  Au  Au29  1  0.935473  0.479695  0.674975  1
  Au  Au30  1  0.564527  0.479695  0.174975  1
  Au  Au31  1  0.435473  0.520305  0.825025  1
