# generated using pymatgen
data_ThSnSe
_symmetry_space_group_name_H-M   'P 1'
_cell_length_a   4.20663400
_cell_length_b   4.20663400
_cell_length_c   9.09112900
_cell_angle_alpha   90.00000000
_cell_angle_beta   90.00000000
_cell_angle_gamma   90.00000000
_symmetry_Int_Tables_number   1
_chemical_formula_structural   ThSnSe
_chemical_formula_sum   'Th2 Sn2 Se2'
_cell_volume   160.87452428
_cell_formula_units_Z   2
loop_
 _symmetry_equiv_pos_site_id
 _symmetry_equiv_pos_as_xyz
  1  'x, y, z'
loop_
 _atom_site_type_symbol
 _atom_site_label
 _atom_site_symmetry_multiplicity
 _atom_site_fract_x
 _atom_site_fract_y
 _atom_site_fract_z
 _atom_site_occupancy
  Th  Th0  1  0.000000  0.500000  0.711207  1
  Th  Th1  1  0.500000  0.000000  0.288793  1
  Sn  Sn2  1  0.000000  0.000000  0.000000  1
  Sn  Sn3  1  0.500000  0.500000  0.000000  1
  Se  Se4  1  0.000000  0.500000  0.369479  1
  Se  Se5  1  0.500000  0.000000  0.630521  1
