# generated using pymatgen
data_Cs2Li2PuS4
_symmetry_space_group_name_H-M   'P 1'
_cell_length_a   7.68247113
_cell_length_b   7.68247081
_cell_length_c   7.78236800
_cell_angle_alpha   108.03433441
_cell_angle_beta   108.03434148
_cell_angle_gamma   31.12813174
_symmetry_Int_Tables_number   1
_chemical_formula_structural   Cs2Li2PuS4
_chemical_formula_sum   'Cs2 Li2 Pu1 S4'
_cell_volume   224.85047357
_cell_formula_units_Z   1
loop_
 _symmetry_equiv_pos_site_id
 _symmetry_equiv_pos_as_xyz
  1  'x, y, z'
loop_
 _atom_site_type_symbol
 _atom_site_label
 _atom_site_symmetry_multiplicity
 _atom_site_fract_x
 _atom_site_fract_y
 _atom_site_fract_z
 _atom_site_occupancy
  Cs  Cs0  1  0.860424  0.860424  0.436824  1
  Cs  Cs1  1  0.139576  0.139576  0.563177  1
  Li  Li2  1  0.318960  0.318960  0.010989  1
  Li  Li3  1  0.681040  0.681040  0.989012  1
  Pu  Pu4  1  0.000000  0.000000  0.000000  1
  S  S5  1  0.189618  0.189618  0.148357  1
  S  S6  1  0.481614  0.481614  0.214783  1
  S  S7  1  0.518386  0.518386  0.785218  1
  S  S8  1  0.810383  0.810383  0.851642  1
