# generated using pymatgen
data_HoErSn(PRh2)6
_symmetry_space_group_name_H-M   'P 1'
_cell_length_a   9.76965800
_cell_length_b   9.76965749
_cell_length_c   3.86892300
_cell_angle_alpha   90.00000000
_cell_angle_beta   90.00000000
_cell_angle_gamma   119.99999496
_symmetry_Int_Tables_number   1
_chemical_formula_structural   HoErSn(PRh2)6
_chemical_formula_sum   'Ho1 Er1 Sn1 P6 Rh12'
_cell_volume   319.80072149
_cell_formula_units_Z   1
loop_
 _symmetry_equiv_pos_site_id
 _symmetry_equiv_pos_as_xyz
  1  'x, y, z'
loop_
 _atom_site_type_symbol
 _atom_site_label
 _atom_site_symmetry_multiplicity
 _atom_site_fract_x
 _atom_site_fract_y
 _atom_site_fract_z
 _atom_site_occupancy
  Ho  Ho0  1  0.333333  0.666667  0.751032  1
  Er  Er1  1  0.666667  0.333333  0.248956  1
  Sn  Sn2  1  0.000000  0.000000  0.499981  1
  P  P3  1  0.406408  0.287586  0.746877  1
  P  P4  1  0.712414  0.118822  0.746877  1
  P  P5  1  0.881178  0.593592  0.746877  1
  P  P6  1  0.593669  0.712440  0.253125  1
  P  P7  1  0.287560  0.881228  0.253125  1
  P  P8  1  0.118772  0.406331  0.253125  1
  Rh  Rh9  1  0.454448  0.068418  0.747611  1
  Rh  Rh10  1  0.931582  0.386029  0.747611  1
  Rh  Rh11  1  0.613971  0.545552  0.747611  1
  Rh  Rh12  1  0.545702  0.931776  0.252395  1
  Rh  Rh13  1  0.068224  0.613927  0.252395  1
  Rh  Rh14  1  0.386073  0.454298  0.252395  1
  Rh  Rh15  1  0.161810  0.287657  0.758564  1
  Rh  Rh16  1  0.712343  0.874153  0.758564  1
  Rh  Rh17  1  0.125847  0.838190  0.758564  1
  Rh  Rh18  1  0.838163  0.712292  0.241439  1
  Rh  Rh19  1  0.287708  0.125871  0.241439  1
  Rh  Rh20  1  0.874129  0.161837  0.241439  1
