# generated using pymatgen
data_TbDy5Al24CuOs7
_symmetry_space_group_name_H-M   'P 1'
_cell_length_a   8.84119963
_cell_length_b   8.83914835
_cell_length_c   9.54138336
_cell_angle_alpha   89.64343827
_cell_angle_beta   90.34915502
_cell_angle_gamma   119.78754059
_symmetry_Int_Tables_number   1
_chemical_formula_structural   TbDy5Al24CuOs7
_chemical_formula_sum   'Tb1 Dy5 Al24 Cu1 Os7'
_cell_volume   647.11041000
_cell_formula_units_Z   1
loop_
 _symmetry_equiv_pos_site_id
 _symmetry_equiv_pos_as_xyz
  1  'x, y, z'
loop_
 _atom_site_type_symbol
 _atom_site_label
 _atom_site_symmetry_multiplicity
 _atom_site_fract_x
 _atom_site_fract_y
 _atom_site_fract_z
 _atom_site_occupancy
  Tb  Tb0  1  0.189923  0.385781  0.249814  1
  Dy  Dy1  1  0.809983  0.613782  0.750029  1
  Dy  Dy2  1  0.613784  0.810041  0.249988  1
  Dy  Dy3  1  0.386220  0.189997  0.750009  1
  Dy  Dy4  1  0.194468  0.805588  0.251334  1
  Dy  Dy5  1  0.805562  0.194514  0.748650  1
  Al  Al6  1  0.332424  0.667715  0.019113  1
  Al  Al7  1  0.667573  0.332442  0.980695  1
  Al  Al8  1  0.666374  0.333707  0.516199  1
  Al  Al9  1  0.333719  0.666435  0.483945  1
  Al  Al10  1  0.163462  0.325805  0.575739  1
  Al  Al11  1  0.836549  0.674186  0.424492  1
  Al  Al12  1  0.674233  0.836560  0.575608  1
  Al  Al13  1  0.842797  0.675729  0.078466  1
  Al  Al14  1  0.325856  0.163347  0.424498  1
  Al  Al15  1  0.157206  0.324297  0.921335  1
  Al  Al16  1  0.163175  0.836854  0.574870  1
  Al  Al17  1  0.324312  0.157114  0.078443  1
  Al  Al18  1  0.836705  0.163102  0.425222  1
  Al  Al19  1  0.675759  0.842817  0.921471  1
  Al  Al20  1  0.836119  0.163622  0.074888  1
  Al  Al21  1  0.163718  0.836326  0.925005  1
  Al  Al22  1  0.560869  0.122011  0.249024  1
  Al  Al23  1  0.439120  0.877977  0.750987  1
  Al  Al24  1  0.877747  0.439161  0.249012  1
  Al  Al25  1  0.122034  0.560914  0.750955  1
  Al  Al26  1  0.561202  0.439090  0.249965  1
  Al  Al27  1  0.439102  0.560951  0.750123  1
  Al  Al28  1  0.999113  0.000368  0.250350  1
  Al  Al29  1  0.000705  0.999309  0.749672  1
  Cu  Cu30  1  0.500089  0.500062  0.999953  1
  Os  Os31  1  0.500042  0.000061  0.999960  1
  Os  Os32  1  0.999868  0.500071  0.999826  1
  Os  Os33  1  0.500054  0.000084  0.500053  1
  Os  Os34  1  0.999937  0.500064  0.500123  1
  Os  Os35  1  0.500168  0.500067  0.500156  1
  Os  Os36  1  0.000017  0.000038  0.999985  1
  Os  Os37  1  0.000011  0.000010  0.500042  1
