# generated using pymatgen
data_Dy2Tm10Os3Rh
_symmetry_space_group_name_H-M   'P 1'
_cell_length_a   7.30677199
_cell_length_b   8.95486900
_cell_length_c   6.28186623
_cell_angle_alpha   90.00000000
_cell_angle_beta   89.87634798
_cell_angle_gamma   90.00000000
_symmetry_Int_Tables_number   1
_chemical_formula_structural   Dy2Tm10Os3Rh
_chemical_formula_sum   'Dy2 Tm10 Os3 Rh1'
_cell_volume   411.02900083
_cell_formula_units_Z   1
loop_
 _symmetry_equiv_pos_site_id
 _symmetry_equiv_pos_as_xyz
  1  'x, y, z'
loop_
 _atom_site_type_symbol
 _atom_site_label
 _atom_site_symmetry_multiplicity
 _atom_site_fract_x
 _atom_site_fract_y
 _atom_site_fract_z
 _atom_site_occupancy
  Dy  Dy0  1  0.039212  0.250000  0.627266  1
  Dy  Dy1  1  0.538569  0.250000  0.871176  1
  Tm  Tm2  1  0.961860  0.750000  0.373585  1
  Tm  Tm3  1  0.462446  0.750000  0.129941  1
  Tm  Tm4  1  0.171939  0.059659  0.165874  1
  Tm  Tm5  1  0.824284  0.936321  0.830697  1
  Tm  Tm6  1  0.322870  0.932613  0.672537  1
  Tm  Tm7  1  0.824284  0.563679  0.830697  1
  Tm  Tm8  1  0.678453  0.060493  0.331701  1
  Tm  Tm9  1  0.171939  0.440341  0.165874  1
  Tm  Tm10  1  0.678453  0.439507  0.331701  1
  Tm  Tm11  1  0.322870  0.567387  0.672537  1
  Os  Os12  1  0.616094  0.750000  0.537076  1
  Os  Os13  1  0.116851  0.750000  0.965320  1
  Os  Os14  1  0.883961  0.250000  0.040411  1
  Rh  Rh15  1  0.385917  0.250000  0.453607  1
