# generated using pymatgen
data_Er5Tm11(In3Rh)2
_symmetry_space_group_name_H-M   'P 1'
_cell_length_a   10.31244503
_cell_length_b   10.31244596
_cell_length_c   6.95070801
_cell_angle_alpha   89.99475346
_cell_angle_beta   90.00524366
_cell_angle_gamma   119.99346789
_symmetry_Int_Tables_number   1
_chemical_formula_structural   Er5Tm11(In3Rh)2
_chemical_formula_sum   'Er5 Tm11 In6 Rh2'
_cell_volume   640.19398352
_cell_formula_units_Z   1
loop_
 _symmetry_equiv_pos_site_id
 _symmetry_equiv_pos_as_xyz
  1  'x, y, z'
loop_
 _atom_site_type_symbol
 _atom_site_label
 _atom_site_symmetry_multiplicity
 _atom_site_fract_x
 _atom_site_fract_y
 _atom_site_fract_z
 _atom_site_occupancy
  Er  Er0  1  0.532254  0.064521  0.515907  1
  Er  Er1  1  0.935479  0.467746  0.515907  1
  Er  Er2  1  0.532223  0.467777  0.515887  1
  Er  Er3  1  0.467743  0.935422  0.015860  1
  Er  Er4  1  0.064578  0.532257  0.015860  1
  Tm  Tm5  1  0.467636  0.532364  0.015864  1
  Tm  Tm6  1  0.176628  0.353116  0.721351  1
  Tm  Tm7  1  0.646884  0.823372  0.721351  1
  Tm  Tm8  1  0.176503  0.823497  0.721258  1
  Tm  Tm9  1  0.823368  0.646913  0.221159  1
  Tm  Tm10  1  0.353087  0.176632  0.221159  1
  Tm  Tm11  1  0.823478  0.176522  0.221252  1
  Tm  Tm12  1  0.666616  0.333384  0.895250  1
  Tm  Tm13  1  0.333383  0.666617  0.395130  1
  Tm  Tm14  1  0.000007  0.999993  0.500546  1
  Tm  Tm15  1  0.000001  0.999999  0.000569  1
  In  In16  1  0.837278  0.674570  0.761008  1
  In  In17  1  0.325430  0.162722  0.761008  1
  In  In18  1  0.837287  0.162713  0.760955  1
  In  In19  1  0.162811  0.325522  0.260872  1
  In  In20  1  0.674478  0.837189  0.260872  1
  In  In21  1  0.162708  0.837292  0.260948  1
  Rh  Rh22  1  0.666675  0.333325  0.288943  1
  Rh  Rh23  1  0.333467  0.666533  0.789085  1
