# generated using pymatgen
data_TmNbB2SbRu5
_symmetry_space_group_name_H-M   'P 1'
_cell_length_a   9.57065271
_cell_length_b   9.57065287
_cell_length_c   3.09263100
_cell_angle_alpha   90.00000000
_cell_angle_beta   90.00000000
_cell_angle_gamma   91.09282267
_symmetry_Int_Tables_number   1
_chemical_formula_structural   TmNbB2SbRu5
_chemical_formula_sum   'Tm2 Nb2 B4 Sb2 Ru10'
_cell_volume   283.22541735
_cell_formula_units_Z   2
loop_
 _symmetry_equiv_pos_site_id
 _symmetry_equiv_pos_as_xyz
  1  'x, y, z'
loop_
 _atom_site_type_symbol
 _atom_site_label
 _atom_site_symmetry_multiplicity
 _atom_site_fract_x
 _atom_site_fract_y
 _atom_site_fract_z
 _atom_site_occupancy
  Tm  Tm0  1  0.824277  0.675723  0.000000  1
  Tm  Tm1  1  0.175723  0.324277  0.000000  1
  Nb  Nb2  1  0.326001  0.826001  0.000000  1
  Nb  Nb3  1  0.673999  0.173999  0.000000  1
  B  B4  1  0.620391  0.879609  0.000000  1
  B  B5  1  0.379609  0.120391  0.000000  1
  B  B6  1  0.121371  0.621371  0.000000  1
  B  B7  1  0.878629  0.378629  0.000000  1
  Sb  Sb8  1  0.500000  0.500000  0.000000  1
  Sb  Sb9  1  0.000000  0.000000  0.000000  1
  Ru  Ru10  1  0.558346  0.725608  0.500000  1
  Ru  Ru11  1  0.441654  0.274392  0.500000  1
  Ru  Ru12  1  0.082937  0.784029  0.500000  1
  Ru  Ru13  1  0.917063  0.215971  0.500000  1
  Ru  Ru14  1  0.284029  0.582937  0.500000  1
  Ru  Ru15  1  0.715971  0.417063  0.500000  1
  Ru  Ru16  1  0.225608  0.058346  0.500000  1
  Ru  Ru17  1  0.774392  0.941654  0.500000  1
  Ru  Ru18  1  0.500000  0.000000  0.500000  1
  Ru  Ru19  1  0.000000  0.500000  0.500000  1
