# generated using pymatgen
data_Y11HoCo6Pb
_symmetry_space_group_name_H-M   'P 1'
_cell_length_a   8.40424998
_cell_length_b   8.40927731
_cell_length_c   8.40927612
_cell_angle_alpha   109.48353770
_cell_angle_beta   109.46621205
_cell_angle_gamma   109.48814012
_symmetry_Int_Tables_number   1
_chemical_formula_structural   Y11HoCo6Pb
_chemical_formula_sum   'Y11 Ho1 Co6 Pb1'
_cell_volume   457.36657253
_cell_formula_units_Z   1
loop_
 _symmetry_equiv_pos_site_id
 _symmetry_equiv_pos_as_xyz
  1  'x, y, z'
loop_
 _atom_site_type_symbol
 _atom_site_label
 _atom_site_symmetry_multiplicity
 _atom_site_fract_x
 _atom_site_fract_y
 _atom_site_fract_z
 _atom_site_occupancy
  Y  Y0  1  0.804799  0.696869  0.501188  1
  Y  Y1  1  0.194686  0.303801  0.499056  1
  Y  Y2  1  0.194686  0.695629  0.890885  1
  Y  Y3  1  0.804799  0.303612  0.107929  1
  Y  Y4  1  0.696707  0.501377  0.804925  1
  Y  Y5  1  0.303124  0.498232  0.194171  1
  Y  Y6  1  0.696707  0.891782  0.195331  1
  Y  Y7  1  0.303124  0.108953  0.804891  1
  Y  Y8  1  0.501017  0.804987  0.696030  1
  Y  Y9  1  0.498665  0.195013  0.303654  1
  Y  Y10  1  0.109287  0.805064  0.304222  1
  Ho  Ho11  1  0.889639  0.195007  0.694633  1
  Co  Co12  1  0.887051  0.386505  0.500546  1
  Co  Co13  1  0.110738  0.611130  0.499607  1
  Co  Co14  1  0.388064  0.500173  0.887891  1
  Co  Co15  1  0.612235  0.500022  0.112213  1
  Co  Co16  1  0.501823  0.888491  0.389011  1
  Co  Co17  1  0.501823  0.112811  0.613332  1
  Pb  Pb18  1  0.001024  0.000542  0.000482  1
