# generated using pymatgen
data_Cs2SrTa6Cl18
_symmetry_space_group_name_H-M   'P 1'
_cell_length_a   10.51772260
_cell_length_b   10.51772303
_cell_length_c   10.51772203
_cell_angle_alpha   54.85891823
_cell_angle_beta   54.85891530
_cell_angle_gamma   54.85891845
_symmetry_Int_Tables_number   1
_chemical_formula_structural   Cs2SrTa6Cl18
_chemical_formula_sum   'Cs2 Sr1 Ta6 Cl18'
_cell_volume   724.24863540
_cell_formula_units_Z   1
loop_
 _symmetry_equiv_pos_site_id
 _symmetry_equiv_pos_as_xyz
  1  'x, y, z'
loop_
 _atom_site_type_symbol
 _atom_site_label
 _atom_site_symmetry_multiplicity
 _atom_site_fract_x
 _atom_site_fract_y
 _atom_site_fract_z
 _atom_site_occupancy
  Cs  Cs0  1  0.276585  0.276585  0.276585  1
  Cs  Cs1  1  0.723415  0.723415  0.723415  1
  Sr  Sr2  1  0.000000  0.000000  0.000000  1
  Ta  Ta3  1  0.420739  0.302825  0.643795  1
  Ta  Ta4  1  0.356205  0.579261  0.697175  1
  Ta  Ta5  1  0.697175  0.356205  0.579261  1
  Ta  Ta6  1  0.643795  0.420739  0.302825  1
  Ta  Ta7  1  0.579261  0.697175  0.356205  1
  Ta  Ta8  1  0.302825  0.643795  0.420739  1
  Cl  Cl9  1  0.639423  0.095195  0.766664  1
  Cl  Cl10  1  0.766664  0.639423  0.095195  1
  Cl  Cl11  1  0.095195  0.766664  0.639423  1
  Cl  Cl12  1  0.824500  0.322551  0.046233  1
  Cl  Cl13  1  0.170006  0.435674  0.577170  1
  Cl  Cl14  1  0.677449  0.953767  0.175500  1
  Cl  Cl15  1  0.904805  0.233336  0.360577  1
  Cl  Cl16  1  0.564326  0.422830  0.829994  1
  Cl  Cl17  1  0.422830  0.829994  0.564326  1
  Cl  Cl18  1  0.953767  0.175500  0.677449  1
  Cl  Cl19  1  0.175500  0.677449  0.953767  1
  Cl  Cl20  1  0.046233  0.824500  0.322551  1
  Cl  Cl21  1  0.322551  0.046233  0.824500  1
  Cl  Cl22  1  0.233336  0.360577  0.904805  1
  Cl  Cl23  1  0.577170  0.170006  0.435674  1
  Cl  Cl24  1  0.435674  0.577170  0.170006  1
  Cl  Cl25  1  0.360577  0.904805  0.233336  1
  Cl  Cl26  1  0.829994  0.564326  0.422830  1
