# generated using pymatgen
data_Ti8Re3Tc4Pt
_symmetry_space_group_name_H-M   'P 1'
_cell_length_a   6.21728600
_cell_length_b   4.41402000
_cell_length_c   8.86394600
_cell_angle_alpha   90.00000000
_cell_angle_beta   89.99877770
_cell_angle_gamma   90.00000000
_symmetry_Int_Tables_number   1
_chemical_formula_structural   Ti8Re3Tc4Pt
_chemical_formula_sum   'Ti8 Re3 Tc4 Pt1'
_cell_volume   243.25526222
_cell_formula_units_Z   1
loop_
 _symmetry_equiv_pos_site_id
 _symmetry_equiv_pos_as_xyz
  1  'x, y, z'
loop_
 _atom_site_type_symbol
 _atom_site_label
 _atom_site_symmetry_multiplicity
 _atom_site_fract_x
 _atom_site_fract_y
 _atom_site_fract_z
 _atom_site_occupancy
  Ti  Ti0  1  0.002783  0.750000  0.128557  1
  Ti  Ti1  1  0.497232  0.750000  0.128559  1
  Ti  Ti2  1  0.998103  0.250001  0.374982  1
  Ti  Ti3  1  0.501878  0.250001  0.374986  1
  Ti  Ti4  1  0.497222  0.750000  0.621430  1
  Ti  Ti5  1  0.002795  0.750000  0.621440  1
  Ti  Ti6  1  0.493638  0.250001  0.875006  1
  Ti  Ti7  1  0.006328  0.250001  0.875009  1
  Re  Re8  1  0.249979  0.250001  0.122583  1
  Re  Re9  1  0.750030  0.750000  0.375030  1
  Re  Re10  1  0.249998  0.250001  0.627396  1
  Tc  Tc11  1  0.750004  0.250001  0.123941  1
  Tc  Tc12  1  0.250003  0.750000  0.374998  1
  Tc  Tc13  1  0.750011  0.250001  0.626092  1
  Tc  Tc14  1  0.249995  0.750000  0.874993  1
  Pt  Pt15  1  0.750005  0.750000  0.874999  1
