# generated using pymatgen
data_DyHo4GaSiB8
_symmetry_space_group_name_H-M   'P 1'
_cell_length_a   7.23114814
_cell_length_b   7.23114859
_cell_length_c   8.11572901
_cell_angle_alpha   90.00423084
_cell_angle_beta   90.00421188
_cell_angle_gamma   89.67643560
_symmetry_Int_Tables_number   1
_chemical_formula_structural   DyHo4GaSiB8
_chemical_formula_sum   'Dy2 Ho8 Ga2 Si2 B16'
_cell_volume   424.36069705
_cell_formula_units_Z   2
loop_
 _symmetry_equiv_pos_site_id
 _symmetry_equiv_pos_as_xyz
  1  'x, y, z'
loop_
 _atom_site_type_symbol
 _atom_site_label
 _atom_site_symmetry_multiplicity
 _atom_site_fract_x
 _atom_site_fract_y
 _atom_site_fract_z
 _atom_site_occupancy
  Dy  Dy0  1  0.320703  0.820704  0.224259  1
  Dy  Dy1  1  0.679297  0.179296  0.775741  1
  Ho  Ho2  1  0.679331  0.179331  0.223641  1
  Ho  Ho3  1  0.320669  0.820669  0.776359  1
  Ho  Ho4  1  0.815667  0.684354  0.218846  1
  Ho  Ho5  1  0.815647  0.684331  0.781154  1
  Ho  Ho6  1  0.184333  0.315646  0.781154  1
  Ho  Ho7  1  0.184353  0.315669  0.218846  1
  Ho  Ho8  1  0.000000  0.000000  0.500000  1
  Ho  Ho9  1  0.500000  0.500000  0.500000  1
  Ga  Ga10  1  0.117449  0.617448  0.500226  1
  Ga  Ga11  1  0.882551  0.382552  0.499774  1
  Si  Si12  1  0.383866  0.116134  0.500000  1
  Si  Si13  1  0.616134  0.883866  0.500000  1
  B  B14  1  0.171922  0.039351  0.999951  1
  B  B15  1  0.828078  0.960649  0.000049  1
  B  B16  1  0.959556  0.172235  0.000028  1
  B  B17  1  0.327765  0.540444  0.999972  1
  B  B18  1  0.040444  0.827765  0.999972  1
  B  B19  1  0.672235  0.459556  0.000028  1
  B  B20  1  0.539351  0.671922  0.999951  1
  B  B21  1  0.460649  0.328078  0.000049  1
  B  B22  1  0.090427  0.590427  0.000012  1
  B  B23  1  0.909573  0.409573  0.999988  1
  B  B24  1  0.408677  0.091323  0.000000  1
  B  B25  1  0.591323  0.908677  0.000000  1
  B  B26  1  0.999764  0.000102  0.162733  1
  B  B27  1  0.000236  0.999898  0.837267  1
  B  B28  1  0.499898  0.500236  0.837267  1
  B  B29  1  0.500102  0.499764  0.162733  1
