# generated using pymatgen
data_Tb8Y2Ag3Ru
_symmetry_space_group_name_H-M   'P 1'
_cell_length_a   9.53598801
_cell_length_b   9.53659788
_cell_length_c   9.69376900
_cell_angle_alpha   90.00000000
_cell_angle_beta   90.00000000
_cell_angle_gamma   120.00211535
_symmetry_Int_Tables_number   1
_chemical_formula_structural   Tb8Y2Ag3Ru
_chemical_formula_sum   'Tb16 Y4 Ag6 Ru2'
_cell_volume   763.43700551
_cell_formula_units_Z   2
loop_
 _symmetry_equiv_pos_site_id
 _symmetry_equiv_pos_as_xyz
  1  'x, y, z'
loop_
 _atom_site_type_symbol
 _atom_site_label
 _atom_site_symmetry_multiplicity
 _atom_site_fract_x
 _atom_site_fract_y
 _atom_site_fract_z
 _atom_site_occupancy
  Tb  Tb0  1  0.999997  0.999999  0.500030  1
  Tb  Tb1  1  0.999997  0.999999  0.999970  1
  Tb  Tb2  1  0.208727  0.791267  0.440875  1
  Tb  Tb3  1  0.208727  0.417460  0.440875  1
  Tb  Tb4  1  0.582530  0.791265  0.440867  1
  Tb  Tb5  1  0.791271  0.208714  0.559119  1
  Tb  Tb6  1  0.791271  0.582556  0.559119  1
  Tb  Tb7  1  0.417462  0.208731  0.559126  1
  Tb  Tb8  1  0.791271  0.208714  0.940881  1
  Tb  Tb9  1  0.791271  0.582556  0.940881  1
  Tb  Tb10  1  0.417462  0.208731  0.940874  1
  Tb  Tb11  1  0.208727  0.791267  0.059125  1
  Tb  Tb12  1  0.208727  0.417460  0.059125  1
  Tb  Tb13  1  0.582530  0.791265  0.059133  1
  Tb  Tb14  1  0.541134  0.458881  0.250000  1
  Tb  Tb15  1  0.541134  0.082252  0.250000  1
  Y  Y16  1  0.917758  0.458878  0.250000  1
  Y  Y17  1  0.458866  0.541108  0.750000  1
  Y  Y18  1  0.458866  0.917759  0.750000  1
  Y  Y19  1  0.082212  0.541107  0.750000  1
  Ag  Ag20  1  0.883979  0.116032  0.250000  1
  Ag  Ag21  1  0.883979  0.767950  0.250000  1
  Ag  Ag22  1  0.232069  0.116035  0.250000  1
  Ag  Ag23  1  0.116034  0.883983  0.750000  1
  Ag  Ag24  1  0.116034  0.232048  0.750000  1
  Ag  Ag25  1  0.767956  0.883977  0.750000  1
  Ru  Ru26  1  0.333354  0.666677  0.250000  1
  Ru  Ru27  1  0.666659  0.333329  0.750000  1
