# generated using pymatgen
data_TbTa6VS12
_symmetry_space_group_name_H-M   'P 1'
_cell_length_a   5.79028800
_cell_length_b   5.79028756
_cell_length_c   13.11090900
_cell_angle_alpha   90.00000000
_cell_angle_beta   90.00000000
_cell_angle_gamma   120.00000249
_symmetry_Int_Tables_number   1
_chemical_formula_structural   TbTa6VS12
_chemical_formula_sum   'Tb1 Ta6 V1 S12'
_cell_volume   380.68320935
_cell_formula_units_Z   1
loop_
 _symmetry_equiv_pos_site_id
 _symmetry_equiv_pos_as_xyz
  1  'x, y, z'
loop_
 _atom_site_type_symbol
 _atom_site_label
 _atom_site_symmetry_multiplicity
 _atom_site_fract_x
 _atom_site_fract_y
 _atom_site_fract_z
 _atom_site_occupancy
  Tb  Tb0  1  0.333333  0.666667  0.250000  1
  Ta  Ta1  1  0.000000  0.000000  0.517934  1
  Ta  Ta2  1  0.000000  0.000000  0.982066  1
  Ta  Ta3  1  0.333333  0.666667  0.982425  1
  Ta  Ta4  1  0.666667  0.333333  0.984112  1
  Ta  Ta5  1  0.666667  0.333333  0.515888  1
  Ta  Ta6  1  0.333333  0.666667  0.517575  1
  V  V7  1  0.666667  0.333333  0.750000  1
  S  S8  1  0.331379  0.329206  0.396192  1
  S  S9  1  0.670794  0.002172  0.396192  1
  S  S10  1  0.997828  0.668621  0.396192  1
  S  S11  1  0.333557  0.332989  0.636494  1
  S  S12  1  0.999432  0.666443  0.636494  1
  S  S13  1  0.667011  0.000568  0.636494  1
  S  S14  1  0.667011  0.666443  0.863506  1
  S  S15  1  0.333557  0.000568  0.863506  1
  S  S16  1  0.999432  0.332989  0.863506  1
  S  S17  1  0.670794  0.668621  0.103808  1
  S  S18  1  0.997828  0.329206  0.103808  1
  S  S19  1  0.331379  0.002172  0.103808  1
