# generated using pymatgen
data_EuFeNi(Sb6Os)2
_symmetry_space_group_name_H-M   'P 1'
_cell_length_a   8.06851002
_cell_length_b   8.13447782
_cell_length_c   8.07467171
_cell_angle_alpha   109.59427690
_cell_angle_beta   109.08800607
_cell_angle_gamma   109.45742744
_symmetry_Int_Tables_number   1
_chemical_formula_structural   EuFeNi(Sb6Os)2
_chemical_formula_sum   'Eu1 Fe1 Ni1 Sb12 Os2'
_cell_volume   409.33499664
_cell_formula_units_Z   1
loop_
 _symmetry_equiv_pos_site_id
 _symmetry_equiv_pos_as_xyz
  1  'x, y, z'
loop_
 _atom_site_type_symbol
 _atom_site_label
 _atom_site_symmetry_multiplicity
 _atom_site_fract_x
 _atom_site_fract_y
 _atom_site_fract_z
 _atom_site_occupancy
  Eu  Eu0  1  0.000000  0.000000  0.000000  1
  Fe  Fe1  1  0.500000  0.500000  0.500000  1
  Ni  Ni2  1  0.000000  0.500000  0.000000  1
  Sb  Sb3  1  0.343127  0.167120  0.496742  1
  Sb  Sb4  1  0.337622  0.840089  0.183014  1
  Sb  Sb5  1  0.662378  0.159911  0.816986  1
  Sb  Sb6  1  0.817352  0.658188  0.155211  1
  Sb  Sb7  1  0.164165  0.496022  0.340771  1
  Sb  Sb8  1  0.503475  0.658539  0.834227  1
  Sb  Sb9  1  0.842972  0.182792  0.340512  1
  Sb  Sb10  1  0.656873  0.832880  0.503258  1
  Sb  Sb11  1  0.182648  0.341812  0.844789  1
  Sb  Sb12  1  0.157028  0.817208  0.659488  1
  Sb  Sb13  1  0.496525  0.341461  0.165773  1
  Sb  Sb14  1  0.835835  0.503978  0.659229  1
  Os  Os15  1  0.500000  0.000000  0.000000  1
  Os  Os16  1  0.000000  0.000000  0.500000  1
