# generated using pymatgen
data_Nb12Si4Os8CN3
_symmetry_space_group_name_H-M   'P 1'
_cell_length_a   8.26415837
_cell_length_b   8.27124949
_cell_length_c   8.26423700
_cell_angle_alpha   60.02750533
_cell_angle_beta   60.00167658
_cell_angle_gamma   60.02730004
_symmetry_Int_Tables_number   1
_chemical_formula_structural   Nb12Si4Os8CN3
_chemical_formula_sum   'Nb12 Si4 Os8 C1 N3'
_cell_volume   399.61592010
_cell_formula_units_Z   1
loop_
 _symmetry_equiv_pos_site_id
 _symmetry_equiv_pos_as_xyz
  1  'x, y, z'
loop_
 _atom_site_type_symbol
 _atom_site_label
 _atom_site_symmetry_multiplicity
 _atom_site_fract_x
 _atom_site_fract_y
 _atom_site_fract_z
 _atom_site_occupancy
  Nb  Nb0  1  0.805505  0.804924  0.194788  1
  Nb  Nb1  1  0.194773  0.194725  0.805247  1
  Nb  Nb2  1  0.805273  0.194724  0.805242  1
  Nb  Nb3  1  0.194774  0.804921  0.194792  1
  Nb  Nb4  1  0.194776  0.804933  0.805520  1
  Nb  Nb5  1  0.805263  0.194708  0.194759  1
  Nb  Nb6  1  0.444495  0.445076  0.055212  1
  Nb  Nb7  1  0.055227  0.055275  0.444753  1
  Nb  Nb8  1  0.444727  0.055276  0.444758  1
  Nb  Nb9  1  0.055226  0.445079  0.055208  1
  Nb  Nb10  1  0.055224  0.445067  0.444480  1
  Nb  Nb11  1  0.444737  0.055292  0.055241  1
  Si  Si12  1  0.125000  0.625000  0.625000  1
  Si  Si13  1  0.625000  0.125000  0.625000  1
  Si  Si14  1  0.625000  0.625000  0.125000  1
  Si  Si15  1  0.625000  0.625000  0.625000  1
  Os  Os16  1  0.749700  0.416351  0.416945  1
  Os  Os17  1  0.416722  0.749779  0.416763  1
  Os  Os18  1  0.416972  0.416355  0.749715  1
  Os  Os19  1  0.416992  0.416334  0.416979  1
  Os  Os20  1  0.500300  0.833649  0.833055  1
  Os  Os21  1  0.833278  0.500221  0.833237  1
  Os  Os22  1  0.833028  0.833645  0.500285  1
  Os  Os23  1  0.833008  0.833666  0.833021  1
  C  C24  1  0.125000  0.625000  0.125000  1
  N  N25  1  0.625000  0.125000  0.125000  1
  N  N26  1  0.125000  0.125000  0.625000  1
  N  N27  1  0.125000  0.125000  0.125000  1
