# generated using pymatgen
data_Hf18Fe2Re5Mo3
_symmetry_space_group_name_H-M   'P 1'
_cell_length_a   8.47800600
_cell_length_b   8.61132838
_cell_length_c   8.60718713
_cell_angle_alpha   120.01616750
_cell_angle_beta   90.00000000
_cell_angle_gamma   90.00000000
_symmetry_Int_Tables_number   1
_chemical_formula_structural   Hf18Fe2Re5Mo3
_chemical_formula_sum   'Hf18 Fe2 Re5 Mo3'
_cell_volume   544.10782449
_cell_formula_units_Z   1
loop_
 _symmetry_equiv_pos_site_id
 _symmetry_equiv_pos_as_xyz
  1  'x, y, z'
loop_
 _atom_site_type_symbol
 _atom_site_label
 _atom_site_symmetry_multiplicity
 _atom_site_fract_x
 _atom_site_fract_y
 _atom_site_fract_z
 _atom_site_occupancy
  Hf  Hf0  1  0.559459  0.799071  0.598167  1
  Hf  Hf1  1  0.558130  0.798073  0.201175  1
  Hf  Hf2  1  0.558101  0.403080  0.201170  1
  Hf  Hf3  1  0.439491  0.201214  0.402402  1
  Hf  Hf4  1  0.440068  0.200743  0.799064  1
  Hf  Hf5  1  0.440075  0.598353  0.799077  1
  Hf  Hf6  1  0.060509  0.201214  0.402402  1
  Hf  Hf7  1  0.059932  0.200743  0.799064  1
  Hf  Hf8  1  0.059925  0.598353  0.799077  1
  Hf  Hf9  1  0.940541  0.799071  0.598167  1
  Hf  Hf10  1  0.941870  0.798073  0.201175  1
  Hf  Hf11  1  0.941899  0.403080  0.201170  1
  Hf  Hf12  1  0.750000  0.459168  0.918366  1
  Hf  Hf13  1  0.750000  0.460836  0.543005  1
  Hf  Hf14  1  0.750000  0.082136  0.543000  1
  Hf  Hf15  1  0.250000  0.540953  0.081877  1
  Hf  Hf16  1  0.250000  0.541918  0.459067  1
  Hf  Hf17  1  0.250000  0.917164  0.459057  1
  Fe  Fe18  1  0.750000  0.666466  0.333015  1
  Fe  Fe19  1  0.250000  0.333346  0.666613  1
  Re  Re20  1  0.750000  0.111913  0.886271  1
  Re  Re21  1  0.750000  0.774344  0.886281  1
  Re  Re22  1  0.250000  0.888455  0.776884  1
  Re  Re23  1  0.250000  0.887705  0.111686  1
  Re  Re24  1  0.250000  0.223998  0.111683  1
  Mo  Mo25  1  0.750000  0.110993  0.222013  1
  Mo  Mo26  1  0.500644  0.999768  0.999536  1
  Mo  Mo27  1  0.999356  0.999768  0.999536  1
