# generated using pymatgen
data_Y4Tm2Al19Si5Os8
_symmetry_space_group_name_H-M   'P 1'
_cell_length_a   8.70122800
_cell_length_b   8.68391802
_cell_length_c   9.58512400
_cell_angle_alpha   90.00000000
_cell_angle_beta   90.00000000
_cell_angle_gamma   120.06596102
_symmetry_Int_Tables_number   1
_chemical_formula_structural   Y4Tm2Al19Si5Os8
_chemical_formula_sum   'Y4 Tm2 Al19 Si5 Os8'
_cell_volume   626.80952238
_cell_formula_units_Z   1
loop_
 _symmetry_equiv_pos_site_id
 _symmetry_equiv_pos_as_xyz
  1  'x, y, z'
loop_
 _atom_site_type_symbol
 _atom_site_label
 _atom_site_symmetry_multiplicity
 _atom_site_fract_x
 _atom_site_fract_y
 _atom_site_fract_z
 _atom_site_occupancy
  Y  Y0  1  0.194525  0.389051  0.250000  1
  Y  Y1  1  0.806250  0.612500  0.750000  1
  Y  Y2  1  0.388896  0.194792  0.750000  1
  Y  Y3  1  0.805896  0.194792  0.750000  1
  Tm  Tm4  1  0.606107  0.805744  0.250000  1
  Tm  Tm5  1  0.199638  0.805744  0.250000  1
  Al  Al6  1  0.164915  0.329829  0.577775  1
  Al  Al7  1  0.834849  0.669698  0.421358  1
  Al  Al8  1  0.669511  0.835174  0.575871  1
  Al  Al9  1  0.834849  0.669698  0.078642  1
  Al  Al10  1  0.329125  0.165206  0.421766  1
  Al  Al11  1  0.164915  0.329829  0.922225  1
  Al  Al12  1  0.165663  0.835174  0.575871  1
  Al  Al13  1  0.329125  0.165206  0.078234  1
  Al  Al14  1  0.836081  0.165206  0.421766  1
  Al  Al15  1  0.669511  0.835174  0.924129  1
  Al  Al16  1  0.836081  0.165206  0.078234  1
  Al  Al17  1  0.165663  0.835174  0.924129  1
  Al  Al18  1  0.437051  0.874103  0.750000  1
  Al  Al19  1  0.872939  0.433984  0.250000  1
  Al  Al20  1  0.128039  0.564833  0.750000  1
  Al  Al21  1  0.561047  0.433984  0.250000  1
  Al  Al22  1  0.436794  0.564833  0.750000  1
  Al  Al23  1  0.998806  0.997613  0.250000  1
  Al  Al24  1  0.000450  0.000901  0.750000  1
  Si  Si25  1  0.332878  0.665756  0.038837  1
  Si  Si26  1  0.667432  0.334862  0.961623  1
  Si  Si27  1  0.667432  0.334862  0.538377  1
  Si  Si28  1  0.332878  0.665756  0.461163  1
  Si  Si29  1  0.563442  0.126883  0.250000  1
  Os  Os30  1  0.500443  0.000884  0.007401  1
  Os  Os31  1  0.999572  0.499592  0.001064  1
  Os  Os32  1  0.500443  0.000884  0.492599  1
  Os  Os33  1  0.500020  0.499592  0.001064  1
  Os  Os34  1  0.999572  0.499592  0.498936  1
  Os  Os35  1  0.500020  0.499592  0.498936  1
  Os  Os36  1  0.999573  0.999145  0.000031  1
  Os  Os37  1  0.999573  0.999145  0.499969  1
