# generated using pymatgen
data_Y7Th(NiAg)2
_symmetry_space_group_name_H-M   'P 1'
_cell_length_a   9.52457778
_cell_length_b   9.52457864
_cell_length_c   9.51164500
_cell_angle_alpha   60.04491304
_cell_angle_beta   60.04491006
_cell_angle_gamma   60.03680026
_symmetry_Int_Tables_number   1
_chemical_formula_structural   Y7Th(NiAg)2
_chemical_formula_sum   'Y14 Th2 Ni4 Ag4'
_cell_volume   610.72742886
_cell_formula_units_Z   2
loop_
 _symmetry_equiv_pos_site_id
 _symmetry_equiv_pos_as_xyz
  1  'x, y, z'
loop_
 _atom_site_type_symbol
 _atom_site_label
 _atom_site_symmetry_multiplicity
 _atom_site_fract_x
 _atom_site_fract_y
 _atom_site_fract_z
 _atom_site_occupancy
  Y  Y0  1  0.602468  0.193443  0.602044  1
  Y  Y1  1  0.193443  0.602468  0.602044  1
  Y  Y2  1  0.060678  0.440946  0.438825  1
  Y  Y3  1  0.440946  0.060678  0.059551  1
  Y  Y4  1  0.440946  0.060678  0.438825  1
  Y  Y5  1  0.060678  0.440946  0.059551  1
  Y  Y6  1  0.436733  0.436733  0.063267  1
  Y  Y7  1  0.060647  0.060647  0.439353  1
  Y  Y8  1  0.185439  0.815912  0.815115  1
  Y  Y9  1  0.815912  0.185439  0.183534  1
  Y  Y10  1  0.815912  0.185439  0.815115  1
  Y  Y11  1  0.185439  0.815912  0.183534  1
  Y  Y12  1  0.814309  0.814309  0.185691  1
  Y  Y13  1  0.186189  0.186189  0.813811  1
  Th  Th14  1  0.596490  0.596490  0.603202  1
  Th  Th15  1  0.596490  0.596490  0.203818  1
  Ni  Ni16  1  0.394209  0.394209  0.391786  1
  Ni  Ni17  1  0.394209  0.394209  0.819797  1
  Ni  Ni18  1  0.398378  0.817511  0.392056  1
  Ni  Ni19  1  0.817511  0.398378  0.392056  1
  Ag  Ag20  1  0.832897  0.832897  0.829640  1
  Ag  Ag21  1  0.832897  0.832897  0.504565  1
  Ag  Ag22  1  0.835015  0.502163  0.831410  1
  Ag  Ag23  1  0.502163  0.835015  0.831410  1
