# generated using pymatgen
data_LuTiGa4Tc
_symmetry_space_group_name_H-M   'P 1'
_cell_length_a   5.38798341
_cell_length_b   5.38798311
_cell_length_c   5.38798421
_cell_angle_alpha   103.94131501
_cell_angle_beta   103.94132291
_cell_angle_gamma   121.20783270
_symmetry_Int_Tables_number   1
_chemical_formula_structural   LuTiGa4Tc
_chemical_formula_sum   'Lu1 Ti1 Ga4 Tc1'
_cell_volume   116.55620944
_cell_formula_units_Z   1
loop_
 _symmetry_equiv_pos_site_id
 _symmetry_equiv_pos_as_xyz
  1  'x, y, z'
loop_
 _atom_site_type_symbol
 _atom_site_label
 _atom_site_symmetry_multiplicity
 _atom_site_fract_x
 _atom_site_fract_y
 _atom_site_fract_z
 _atom_site_occupancy
  Lu  Lu0  1  0.000000  0.000000  0.000000  1
  Ti  Ti1  1  0.750000  0.250000  0.500000  1
  Ga  Ga2  1  0.306622  0.306622  0.613245  1
  Ga  Ga3  1  0.693378  0.693378  0.386755  1
  Ga  Ga4  1  0.693378  0.306622  0.000000  1
  Ga  Ga5  1  0.306622  0.693378  0.000000  1
  Tc  Tc6  1  0.250000  0.750000  0.500000  1
