# generated using pymatgen
data_LiTb4Er4Hf10Si16Ag
_symmetry_space_group_name_H-M   'P 1'
_cell_length_a   7.29316092
_cell_length_b   7.29426100
_cell_length_c   13.18548217
_cell_angle_alpha   90.03217813
_cell_angle_beta   89.94578277
_cell_angle_gamma   89.72701048
_symmetry_Int_Tables_number   1
_chemical_formula_structural   LiTb4Er4Hf10Si16Ag
_chemical_formula_sum   'Li1 Tb4 Er4 Hf10 Si16 Ag1'
_cell_volume   701.43578325
_cell_formula_units_Z   1
loop_
 _symmetry_equiv_pos_site_id
 _symmetry_equiv_pos_as_xyz
  1  'x, y, z'
loop_
 _atom_site_type_symbol
 _atom_site_label
 _atom_site_symmetry_multiplicity
 _atom_site_fract_x
 _atom_site_fract_y
 _atom_site_fract_z
 _atom_site_occupancy
  Li  Li0  1  0.180591  0.180229  0.000157  1
  Tb  Tb1  1  0.850289  0.497256  0.966267  1
  Tb  Tb2  1  0.503216  0.148883  0.533727  1
  Tb  Tb3  1  0.347639  0.995524  0.787178  1
  Tb  Tb4  1  0.651620  0.003606  0.288479  1
  Er  Er5  1  0.995910  0.348074  0.213181  1
  Er  Er6  1  0.004075  0.650730  0.712369  1
  Er  Er7  1  0.149222  0.503504  0.465663  1
  Er  Er8  1  0.497344  0.850330  0.034609  1
  Hf  Hf9  1  0.319714  0.680138  0.250143  1
  Hf  Hf10  1  0.680390  0.320602  0.749576  1
  Hf  Hf11  1  0.139807  0.999506  0.379208  1
  Hf  Hf12  1  0.859844  0.000666  0.879441  1
  Hf  Hf13  1  0.508192  0.643564  0.624716  1
  Hf  Hf14  1  0.356386  0.490906  0.875604  1
  Hf  Hf15  1  0.490744  0.356507  0.124483  1
  Hf  Hf16  1  0.642345  0.508911  0.374997  1
  Hf  Hf17  1  0.999492  0.141812  0.619887  1
  Hf  Hf18  1  0.001020  0.860193  0.120851  1
  Si  Si19  1  0.354828  0.298579  0.318971  1
  Si  Si20  1  0.643722  0.702542  0.818903  1
  Si  Si21  1  0.224125  0.864383  0.574151  1
  Si  Si22  1  0.135780  0.776364  0.927315  1
  Si  Si23  1  0.775995  0.134752  0.073798  1
  Si  Si24  1  0.867455  0.229783  0.424969  1
  Si  Si25  1  0.296886  0.357502  0.680784  1
  Si  Si26  1  0.703107  0.642363  0.180259  1
  Si  Si27  1  0.291400  0.054262  0.189386  1
  Si  Si28  1  0.709077  0.946031  0.690762  1
  Si  Si29  1  0.431673  0.788493  0.436259  1
  Si  Si30  1  0.209457  0.563116  0.064302  1
  Si  Si31  1  0.562511  0.207846  0.936175  1
  Si  Si32  1  0.791474  0.436500  0.563676  1
  Si  Si33  1  0.053290  0.292435  0.809761  1
  Si  Si34  1  0.947355  0.706140  0.309136  1
  Ag  Ag35  1  0.824030  0.817971  0.500858  1
