# generated using pymatgen
data_Pr2Nd3(SnSb)2
_symmetry_space_group_name_H-M   'P 1'
_cell_length_a   8.44922600
_cell_length_b   8.50592000
_cell_length_c   16.20435300
_cell_angle_alpha   90.00000000
_cell_angle_beta   90.00000000
_cell_angle_gamma   90.00000000
_symmetry_Int_Tables_number   1
_chemical_formula_structural   Pr2Nd3(SnSb)2
_chemical_formula_sum   'Pr8 Nd12 Sn8 Sb8'
_cell_volume   1164.58157809
_cell_formula_units_Z   4
loop_
 _symmetry_equiv_pos_site_id
 _symmetry_equiv_pos_as_xyz
  1  'x, y, z'
loop_
 _atom_site_type_symbol
 _atom_site_label
 _atom_site_symmetry_multiplicity
 _atom_site_fract_x
 _atom_site_fract_y
 _atom_site_fract_z
 _atom_site_occupancy
  Pr  Pr0  1  0.548600  0.326138  0.893340  1
  Pr  Pr1  1  0.048600  0.173862  0.606660  1
  Pr  Pr2  1  0.451400  0.673862  0.393340  1
  Pr  Pr3  1  0.951400  0.826138  0.106660  1
  Pr  Pr4  1  0.451400  0.673862  0.106660  1
  Pr  Pr5  1  0.951400  0.826138  0.393340  1
  Pr  Pr6  1  0.548600  0.326138  0.606660  1
  Pr  Pr7  1  0.048600  0.173862  0.893340  1
  Nd  Nd8  1  0.391170  0.834892  0.882339  1
  Nd  Nd9  1  0.891170  0.665108  0.617661  1
  Nd  Nd10  1  0.608830  0.165108  0.382339  1
  Nd  Nd11  1  0.108830  0.334892  0.117661  1
  Nd  Nd12  1  0.608830  0.165108  0.117661  1
  Nd  Nd13  1  0.108830  0.334892  0.382339  1
  Nd  Nd14  1  0.391170  0.834892  0.617661  1
  Nd  Nd15  1  0.891170  0.665108  0.882339  1
  Nd  Nd16  1  0.217841  0.496895  0.750000  1
  Nd  Nd17  1  0.717841  0.003105  0.750000  1
  Nd  Nd18  1  0.782159  0.503105  0.250000  1
  Nd  Nd19  1  0.282159  0.996895  0.250000  1
  Sn  Sn20  1  0.590053  0.623497  0.750000  1
  Sn  Sn21  1  0.090053  0.876503  0.750000  1
  Sn  Sn22  1  0.409947  0.376503  0.250000  1
  Sn  Sn23  1  0.909947  0.123497  0.250000  1
  Sn  Sn24  1  0.350164  0.135926  0.750000  1
  Sn  Sn25  1  0.850164  0.364074  0.750000  1
  Sn  Sn26  1  0.649836  0.864074  0.250000  1
  Sn  Sn27  1  0.149836  0.635926  0.250000  1
  Sb  Sb28  1  0.268921  0.020493  0.046715  1
  Sb  Sb29  1  0.768921  0.479507  0.453285  1
  Sb  Sb30  1  0.731079  0.979507  0.546715  1
  Sb  Sb31  1  0.231079  0.520493  0.953285  1
  Sb  Sb32  1  0.731079  0.979507  0.953285  1
  Sb  Sb33  1  0.231079  0.520493  0.546715  1
  Sb  Sb34  1  0.268921  0.020493  0.453285  1
  Sb  Sb35  1  0.768921  0.479507  0.046715  1
