# generated using pymatgen
data_Li8Ac7NdSi8
_symmetry_space_group_name_H-M   'P 1'
_cell_length_a   9.27500600
_cell_length_b   9.27500703
_cell_length_c   7.93469900
_cell_angle_alpha   90.00000000
_cell_angle_beta   90.00000000
_cell_angle_gamma   119.99999634
_symmetry_Int_Tables_number   1
_chemical_formula_structural   Li8Ac7NdSi8
_chemical_formula_sum   'Li8 Ac7 Nd1 Si8'
_cell_volume   591.13891585
_cell_formula_units_Z   1
loop_
 _symmetry_equiv_pos_site_id
 _symmetry_equiv_pos_as_xyz
  1  'x, y, z'
loop_
 _atom_site_type_symbol
 _atom_site_label
 _atom_site_symmetry_multiplicity
 _atom_site_fract_x
 _atom_site_fract_y
 _atom_site_fract_z
 _atom_site_occupancy
  Li  Li0  1  0.165711  0.331422  0.280246  1
  Li  Li1  1  0.165711  0.834289  0.280246  1
  Li  Li2  1  0.668578  0.834289  0.280246  1
  Li  Li3  1  0.835253  0.670505  0.793569  1
  Li  Li4  1  0.835253  0.164747  0.793569  1
  Li  Li5  1  0.329495  0.164747  0.793569  1
  Li  Li6  1  0.333333  0.666667  0.669637  1
  Li  Li7  1  0.666667  0.333333  0.163928  1
  Ac  Ac8  1  0.512949  0.025900  0.496727  1
  Ac  Ac9  1  0.512949  0.487051  0.496727  1
  Ac  Ac10  1  0.974100  0.487051  0.496727  1
  Ac  Ac11  1  0.486586  0.973172  0.995883  1
  Ac  Ac12  1  0.486586  0.513414  0.995883  1
  Ac  Ac13  1  0.026828  0.513414  0.995883  1
  Ac  Ac14  1  0.000000  0.000000  0.505336  1
  Nd  Nd15  1  0.000000  0.000000  0.009149  1
  Si  Si16  1  0.165698  0.331396  0.727983  1
  Si  Si17  1  0.165698  0.834302  0.727983  1
  Si  Si18  1  0.668604  0.834302  0.727983  1
  Si  Si19  1  0.836163  0.672324  0.216053  1
  Si  Si20  1  0.836163  0.163837  0.216053  1
  Si  Si21  1  0.327676  0.163837  0.216053  1
  Si  Si22  1  0.333333  0.666667  0.284246  1
  Si  Si23  1  0.666667  0.333333  0.778299  1
