# generated using pymatgen
data_Ta4VSiB2
_symmetry_space_group_name_H-M   'P 1'
_cell_length_a   7.22215697
_cell_length_b   7.22215736
_cell_length_c   7.22215712
_cell_angle_alpha   129.85554861
_cell_angle_beta   129.85555328
_cell_angle_gamma   73.63779153
_symmetry_Int_Tables_number   1
_chemical_formula_structural   Ta4VSiB2
_chemical_formula_sum   'Ta8 V2 Si2 B4'
_cell_volume   216.61131845
_cell_formula_units_Z   2
loop_
 _symmetry_equiv_pos_site_id
 _symmetry_equiv_pos_as_xyz
  1  'x, y, z'
loop_
 _atom_site_type_symbol
 _atom_site_label
 _atom_site_symmetry_multiplicity
 _atom_site_fract_x
 _atom_site_fract_y
 _atom_site_fract_z
 _atom_site_occupancy
  Ta  Ta0  1  0.533126  0.694489  0.500000  1
  Ta  Ta1  1  0.033126  0.533126  0.838637  1
  Ta  Ta2  1  0.694489  0.194489  0.161363  1
  Ta  Ta3  1  0.966874  0.466874  0.161363  1
  Ta  Ta4  1  0.194489  0.033126  0.500000  1
  Ta  Ta5  1  0.466874  0.305511  0.500000  1
  Ta  Ta6  1  0.805511  0.966874  0.500000  1
  Ta  Ta7  1  0.305511  0.805511  0.838637  1
  V  V8  1  0.000000  0.000000  0.000000  1
  V  V9  1  0.500000  0.500000  0.000000  1
  Si  Si10  1  0.250000  0.250000  0.000000  1
  Si  Si11  1  0.750000  0.750000  0.000000  1
  B  B12  1  0.620667  0.120667  0.741333  1
  B  B13  1  0.120667  0.379333  0.500000  1
  B  B14  1  0.879333  0.620667  0.500000  1
  B  B15  1  0.379333  0.879333  0.258667  1
