# generated using pymatgen
data_Ho12GaFe2Co2Sn
_symmetry_space_group_name_H-M   'P 1'
_cell_length_a   8.28425115
_cell_length_b   8.28134616
_cell_length_c   8.28425035
_cell_angle_alpha   111.63864783
_cell_angle_beta   109.41035120
_cell_angle_gamma   107.40662230
_symmetry_Int_Tables_number   1
_chemical_formula_structural   Ho12GaFe2Co2Sn
_chemical_formula_sum   'Ho12 Ga1 Fe2 Co2 Sn1'
_cell_volume   436.83271759
_cell_formula_units_Z   1
loop_
 _symmetry_equiv_pos_site_id
 _symmetry_equiv_pos_as_xyz
  1  'x, y, z'
loop_
 _atom_site_type_symbol
 _atom_site_label
 _atom_site_symmetry_multiplicity
 _atom_site_fract_x
 _atom_site_fract_y
 _atom_site_fract_z
 _atom_site_occupancy
  Ho  Ho0  1  0.969707  0.266912  0.702930  1
  Ho  Ho1  1  0.030293  0.733088  0.297070  1
  Ho  Ho2  1  0.675621  0.864353  0.188732  1
  Ho  Ho3  1  0.324342  0.513306  0.188963  1
  Ho  Ho4  1  0.324379  0.135647  0.811268  1
  Ho  Ho5  1  0.675658  0.486694  0.811037  1
  Ho  Ho6  1  0.563982  0.266912  0.297205  1
  Ho  Ho7  1  0.436018  0.733088  0.702795  1
  Ho  Ho8  1  0.180923  0.780203  0.960951  1
  Ho  Ho9  1  0.819252  0.780203  0.599281  1
  Ho  Ho10  1  0.180748  0.219797  0.400719  1
  Ho  Ho11  1  0.819077  0.219797  0.039049  1
  Ga  Ga12  1  0.000000  0.500000  0.500000  1
  Fe  Fe13  1  0.110175  0.110729  0.000555  1
  Fe  Fe14  1  0.889825  0.889271  0.999445  1
  Co  Co15  1  0.655045  0.500000  0.155045  1
  Co  Co16  1  0.344955  0.500000  0.844955  1
  Sn  Sn17  1  0.500000  0.000000  0.500000  1
