# generated using pymatgen
data_Ta3P6RhO24
_symmetry_space_group_name_H-M   'P 1'
_cell_length_a   8.71395131
_cell_length_b   9.00365453
_cell_length_c   8.71397000
_cell_angle_alpha   89.99749041
_cell_angle_beta   59.99947790
_cell_angle_gamma   118.93919802
_symmetry_Int_Tables_number   1
_chemical_formula_structural   Ta3P6RhO24
_chemical_formula_sum   'Ta3 P6 Rh1 O24'
_cell_volume   491.02461591
_cell_formula_units_Z   1
loop_
 _symmetry_equiv_pos_site_id
 _symmetry_equiv_pos_as_xyz
  1  'x, y, z'
loop_
 _atom_site_type_symbol
 _atom_site_label
 _atom_site_symmetry_multiplicity
 _atom_site_fract_x
 _atom_site_fract_y
 _atom_site_fract_z
 _atom_site_occupancy
  Ta  Ta0  1  0.283706  0.925442  0.358130  1
  Ta  Ta1  1  0.281079  0.421505  0.859452  1
  Ta  Ta2  1  0.713671  0.570432  0.143115  1
  P  P3  1  0.780885  0.754449  0.750992  1
  P  P4  1  0.503206  0.246110  0.534704  1
  P  P5  1  0.505643  0.754512  0.468023  1
  P  P6  1  0.208297  0.246197  0.256989  1
  P  P7  1  0.780940  0.246158  0.962021  1
  P  P8  1  0.222672  0.754484  0.026261  1
  Rh  Rh9  1  0.710987  0.066398  0.644447  1
  O  O10  1  0.669764  0.919059  0.475302  1
  O  O11  1  0.005092  0.716360  0.080114  1
  O  O12  1  0.221687  0.583974  0.000105  1
  O  O13  1  0.229430  0.780854  0.200226  1
  O  O14  1  0.986097  0.273429  0.933004  1
  O  O15  1  0.784617  0.414659  0.004985  1
  O  O16  1  0.777072  0.234496  0.791747  1
  O  O17  1  0.796723  0.716490  0.914697  1
  O  O18  1  0.981166  0.780735  0.570261  1
  O  O19  1  0.665832  0.234640  0.542440  1
  O  O20  1  0.773807  0.918885  0.750635  1
  O  O21  1  0.584175  0.583864  0.778288  1
  O  O22  1  0.588395  0.082091  0.140952  1
  O  O23  1  0.624900  0.414560  0.369882  1
  O  O24  1  0.206424  0.273295  0.080891  1
  O  O25  1  0.354289  0.273333  0.712607  1
  O  O26  1  0.631354  0.716460  0.288551  1
  O  O27  1  0.352836  0.081954  0.506280  1
  O  O28  1  0.394428  0.918930  0.854729  1
  O  O29  1  0.362422  0.584026  0.637538  1
  O  O30  1  0.223179  0.082159  0.270723  1
  O  O31  1  0.419800  0.414776  0.210187  1
  O  O32  1  0.351146  0.780688  0.448450  1
  O  O33  1  0.026410  0.234598  0.431142  1
