# generated using pymatgen
data_Yb11Pr8HoSn16
_symmetry_space_group_name_H-M   'P 1'
_cell_length_a   7.97345900
_cell_length_b   8.51449598
_cell_length_c   16.02952446
_cell_angle_alpha   90.06387405
_cell_angle_beta   90.06912568
_cell_angle_gamma   89.92815696
_symmetry_Int_Tables_number   1
_chemical_formula_structural   Yb11Pr8HoSn16
_chemical_formula_sum   'Yb11 Pr8 Ho1 Sn16'
_cell_volume   1088.24184706
_cell_formula_units_Z   1
loop_
 _symmetry_equiv_pos_site_id
 _symmetry_equiv_pos_as_xyz
  1  'x, y, z'
loop_
 _atom_site_type_symbol
 _atom_site_label
 _atom_site_symmetry_multiplicity
 _atom_site_fract_x
 _atom_site_fract_y
 _atom_site_fract_z
 _atom_site_occupancy
  Yb  Yb0  1  0.833305  0.672523  0.623411  1
  Yb  Yb1  1  0.666334  0.172742  0.376281  1
  Yb  Yb2  1  0.165853  0.327570  0.123491  1
  Yb  Yb3  1  0.667002  0.172933  0.123655  1
  Yb  Yb4  1  0.166244  0.327219  0.376340  1
  Yb  Yb5  1  0.334086  0.827375  0.623499  1
  Yb  Yb6  1  0.833650  0.673115  0.876924  1
  Yb  Yb7  1  0.161323  0.504150  0.749553  1
  Yb  Yb8  1  0.662804  0.996203  0.749572  1
  Yb  Yb9  1  0.838015  0.495248  0.250111  1
  Yb  Yb10  1  0.338138  0.004411  0.250023  1
  Pr  Pr11  1  0.494200  0.316469  0.903988  1
  Pr  Pr12  1  0.993522  0.184960  0.595301  1
  Pr  Pr13  1  0.506005  0.685030  0.403742  1
  Pr  Pr14  1  0.005482  0.814895  0.096486  1
  Pr  Pr15  1  0.506752  0.684386  0.096494  1
  Pr  Pr16  1  0.005847  0.815045  0.403913  1
  Pr  Pr17  1  0.494079  0.315703  0.595822  1
  Pr  Pr18  1  0.993864  0.185320  0.904893  1
  Ho  Ho19  1  0.333925  0.826264  0.876060  1
  Sn  Sn20  1  0.328768  0.034122  0.037416  1
  Sn  Sn21  1  0.829650  0.464576  0.461244  1
  Sn  Sn22  1  0.669820  0.964876  0.538929  1
  Sn  Sn23  1  0.172984  0.537659  0.960398  1
  Sn  Sn24  1  0.667375  0.963540  0.960005  1
  Sn  Sn25  1  0.170274  0.535378  0.539042  1
  Sn  Sn26  1  0.330152  0.035253  0.461221  1
  Sn  Sn27  1  0.829300  0.464424  0.038672  1
  Sn  Sn28  1  0.533330  0.605075  0.750737  1
  Sn  Sn29  1  0.037218  0.895099  0.751919  1
  Sn  Sn30  1  0.465204  0.396867  0.249849  1
  Sn  Sn31  1  0.965092  0.102748  0.249992  1
  Sn  Sn32  1  0.289871  0.140276  0.751203  1
  Sn  Sn33  1  0.789247  0.358708  0.750411  1
  Sn  Sn34  1  0.710849  0.858378  0.249711  1
  Sn  Sn35  1  0.210436  0.641462  0.249693  1
