# generated using pymatgen
data_Sr2LiPt6
_symmetry_space_group_name_H-M   'P 1'
_cell_length_a   13.64441636
_cell_length_b   13.64441655
_cell_length_c   13.64441812
_cell_angle_alpha   23.24753460
_cell_angle_beta   23.24753291
_cell_angle_gamma   23.24753351
_symmetry_Int_Tables_number   1
_chemical_formula_structural   Sr2LiPt6
_chemical_formula_sum   'Sr4 Li2 Pt12'
_cell_volume   347.41931419
_cell_formula_units_Z   2
loop_
 _symmetry_equiv_pos_site_id
 _symmetry_equiv_pos_as_xyz
  1  'x, y, z'
loop_
 _atom_site_type_symbol
 _atom_site_label
 _atom_site_symmetry_multiplicity
 _atom_site_fract_x
 _atom_site_fract_y
 _atom_site_fract_z
 _atom_site_occupancy
  Sr  Sr0  1  0.949168  0.949168  0.949168  1
  Sr  Sr1  1  0.050832  0.050832  0.050832  1
  Sr  Sr2  1  0.851660  0.851660  0.851660  1
  Sr  Sr3  1  0.148340  0.148340  0.148340  1
  Li  Li4  1  0.720920  0.720920  0.720920  1
  Li  Li5  1  0.279080  0.279080  0.279080  1
  Pt  Pt6  1  0.500000  0.500000  0.500000  1
  Pt  Pt7  1  0.612543  0.612543  0.612543  1
  Pt  Pt8  1  0.387457  0.387457  0.387457  1
  Pt  Pt9  1  0.500000  0.500000  0.000000  1
  Pt  Pt10  1  0.000000  0.500000  0.500000  1
  Pt  Pt11  1  0.500000  0.000000  0.500000  1
  Pt  Pt12  1  0.389022  0.894456  0.389022  1
  Pt  Pt13  1  0.389022  0.389022  0.894456  1
  Pt  Pt14  1  0.894456  0.389022  0.389022  1
  Pt  Pt15  1  0.610978  0.105544  0.610978  1
  Pt  Pt16  1  0.610978  0.610978  0.105544  1
  Pt  Pt17  1  0.105544  0.610978  0.610978  1
