# generated using pymatgen
data_Eu20RhAu15
_symmetry_space_group_name_H-M   'P 1'
_cell_length_a   8.13255200
_cell_length_b   8.23862333
_cell_length_c   15.74934600
_cell_angle_alpha   90.00000000
_cell_angle_beta   90.00000000
_cell_angle_gamma   89.29632264
_symmetry_Int_Tables_number   1
_chemical_formula_structural   Eu20RhAu15
_chemical_formula_sum   'Eu20 Rh1 Au15'
_cell_volume   1055.14286398
_cell_formula_units_Z   1
loop_
 _symmetry_equiv_pos_site_id
 _symmetry_equiv_pos_as_xyz
  1  'x, y, z'
loop_
 _atom_site_type_symbol
 _atom_site_label
 _atom_site_symmetry_multiplicity
 _atom_site_fract_x
 _atom_site_fract_y
 _atom_site_fract_z
 _atom_site_occupancy
  Eu  Eu0  1  0.014425  0.186700  0.395198  1
  Eu  Eu1  1  0.862764  0.653369  0.375575  1
  Eu  Eu2  1  0.533845  0.327839  0.105421  1
  Eu  Eu3  1  0.135794  0.336419  0.619319  1
  Eu  Eu4  1  0.364650  0.837956  0.377955  1
  Eu  Eu5  1  0.135794  0.336419  0.880681  1
  Eu  Eu6  1  0.364650  0.837956  0.122045  1
  Eu  Eu7  1  0.193473  0.493642  0.250000  1
  Eu  Eu8  1  0.533845  0.327839  0.394579  1
  Eu  Eu9  1  0.798757  0.504898  0.750000  1
  Eu  Eu10  1  0.977784  0.822658  0.903310  1
  Eu  Eu11  1  0.977784  0.822658  0.596690  1
  Eu  Eu12  1  0.476765  0.675401  0.598853  1
  Eu  Eu13  1  0.634566  0.162850  0.619011  1
  Eu  Eu14  1  0.298464  0.992865  0.750000  1
  Eu  Eu15  1  0.634566  0.162850  0.880989  1
  Eu  Eu16  1  0.704544  0.018020  0.250000  1
  Eu  Eu17  1  0.862764  0.653369  0.124425  1
  Eu  Eu18  1  0.476765  0.675401  0.901147  1
  Eu  Eu19  1  0.014425  0.186700  0.104802  1
  Rh  Rh20  1  0.830714  0.363786  0.250000  1
  Au  Au21  1  0.431177  0.378739  0.750000  1
  Au  Au22  1  0.672163  0.863394  0.750000  1
  Au  Au23  1  0.799649  0.473129  0.545308  1
  Au  Au24  1  0.700180  0.968695  0.046442  1
  Au  Au25  1  0.799649  0.473129  0.954692  1
  Au  Au26  1  0.204618  0.528413  0.454460  1
  Au  Au27  1  0.204618  0.528413  0.045540  1
  Au  Au28  1  0.169754  0.636889  0.750000  1
  Au  Au29  1  0.326106  0.138143  0.250000  1
  Au  Au30  1  0.567039  0.612294  0.250000  1
  Au  Au31  1  0.066195  0.880468  0.250000  1
  Au  Au32  1  0.300117  0.024817  0.954597  1
  Au  Au33  1  0.931297  0.120372  0.750000  1
  Au  Au34  1  0.700180  0.968695  0.453558  1
  Au  Au35  1  0.300117  0.024817  0.545403  1
