# generated using pymatgen
data_Gd12Ni6Sn
_symmetry_space_group_name_H-M   'P 1'
_cell_length_a   8.47427265
_cell_length_b   8.47427235
_cell_length_c   8.47427300
_cell_angle_alpha   108.94816381
_cell_angle_beta   110.26732332
_cell_angle_gamma   109.20121991
_symmetry_Int_Tables_number   1
_chemical_formula_structural   Gd12Ni6Sn
_chemical_formula_sum   'Gd12 Ni6 Sn1'
_cell_volume   468.40369901
_cell_formula_units_Z   1
loop_
 _symmetry_equiv_pos_site_id
 _symmetry_equiv_pos_as_xyz
  1  'x, y, z'
loop_
 _atom_site_type_symbol
 _atom_site_label
 _atom_site_symmetry_multiplicity
 _atom_site_fract_x
 _atom_site_fract_y
 _atom_site_fract_z
 _atom_site_occupancy
  Gd  Gd0  1  0.883290  0.696378  0.186912  1
  Gd  Gd1  1  0.509465  0.696378  0.813087  1
  Gd  Gd2  1  0.116709  0.303622  0.813087  1
  Gd  Gd3  1  0.490533  0.303621  0.186912  1
  Gd  Gd4  1  0.188462  0.883338  0.694876  1
  Gd  Gd5  1  0.697295  0.188368  0.885663  1
  Gd  Gd6  1  0.188462  0.493585  0.305123  1
  Gd  Gd7  1  0.697295  0.811631  0.508926  1
  Gd  Gd8  1  0.811537  0.506413  0.694876  1
  Gd  Gd9  1  0.302705  0.811631  0.114336  1
  Gd  Gd10  1  0.811537  0.116661  0.305124  1
  Gd  Gd11  1  0.302704  0.188368  0.491072  1
  Ni  Ni12  1  0.123466  0.500000  0.623466  1
  Ni  Ni13  1  0.622374  0.122374  0.500000  1
  Ni  Ni14  1  0.876534  0.500000  0.376533  1
  Ni  Ni15  1  0.377625  0.877626  0.500000  1
  Ni  Ni16  1  0.500000  0.623124  0.123124  1
  Ni  Ni17  1  0.500000  0.376875  0.876876  1
  Sn  Sn18  1  0.000000  0.000000  0.000000  1
