# generated using pymatgen
data_Pr4Mn4NiAg3O20
_symmetry_space_group_name_H-M   'P 1'
_cell_length_a   5.84674800
_cell_length_b   7.87347306
_cell_length_c   8.89632348
_cell_angle_alpha   89.03327018
_cell_angle_beta   90.00000000
_cell_angle_gamma   90.00000000
_symmetry_Int_Tables_number   1
_chemical_formula_structural   Pr4Mn4NiAg3O20
_chemical_formula_sum   'Pr4 Mn4 Ni1 Ag3 O20'
_cell_volume   409.47695593
_cell_formula_units_Z   1
loop_
 _symmetry_equiv_pos_site_id
 _symmetry_equiv_pos_as_xyz
  1  'x, y, z'
loop_
 _atom_site_type_symbol
 _atom_site_label
 _atom_site_symmetry_multiplicity
 _atom_site_fract_x
 _atom_site_fract_y
 _atom_site_fract_z
 _atom_site_occupancy
  Pr  Pr0  1  0.000000  0.356744  0.675009  1
  Pr  Pr1  1  0.000000  0.643639  0.326736  1
  Pr  Pr2  1  0.000000  0.849086  0.825451  1
  Pr  Pr3  1  0.000000  0.153365  0.173696  1
  Mn  Mn4  1  0.258547  0.498276  0.004316  1
  Mn  Mn5  1  0.743567  0.005799  0.497889  1
  Mn  Mn6  1  0.741453  0.498276  0.004316  1
  Mn  Mn7  1  0.256433  0.005799  0.497889  1
  Ni  Ni8  1  0.500000  0.402381  0.351016  1
  Ag  Ag9  1  0.500000  0.067711  0.841587  1
  Ag  Ag10  1  0.500000  0.933929  0.156875  1
  Ag  Ag11  1  0.500000  0.564634  0.652699  1
  O  O12  1  0.233992  0.908923  0.299469  1
  O  O13  1  0.234495  0.096357  0.699122  1
  O  O14  1  0.755691  0.404725  0.207087  1
  O  O15  1  0.764531  0.593606  0.798465  1
  O  O16  1  0.765505  0.096357  0.699122  1
  O  O17  1  0.766008  0.908923  0.299469  1
  O  O18  1  0.235469  0.593606  0.798465  1
  O  O19  1  0.244309  0.404725  0.207087  1
  O  O20  1  0.500000  0.357685  0.943398  1
  O  O21  1  0.500000  0.641909  0.059813  1
  O  O22  1  0.500000  0.865640  0.558242  1
  O  O23  1  0.500000  0.154705  0.433043  1
  O  O24  1  0.256287  0.999840  0.998970  1
  O  O25  1  0.733632  0.493531  0.494711  1
  O  O26  1  0.743713  0.999840  0.998970  1
  O  O27  1  0.266368  0.493531  0.494711  1
  O  O28  1  0.000000  0.159638  0.448785  1
  O  O29  1  0.000000  0.849022  0.548972  1
  O  O30  1  0.000000  0.652971  0.052702  1
  O  O31  1  0.000000  0.344830  0.951912  1
