# generated using pymatgen
data_LiEu4Pt
_symmetry_space_group_name_H-M   'P 1'
_cell_length_a   10.47717773
_cell_length_b   10.47717724
_cell_length_c   10.47717700
_cell_angle_alpha   59.99999759
_cell_angle_beta   59.99999916
_cell_angle_gamma   59.99999605
_symmetry_Int_Tables_number   1
_chemical_formula_structural   LiEu4Pt
_chemical_formula_sum   'Li4 Eu16 Pt4'
_cell_volume   813.23837047
_cell_formula_units_Z   4
loop_
 _symmetry_equiv_pos_site_id
 _symmetry_equiv_pos_as_xyz
  1  'x, y, z'
loop_
 _atom_site_type_symbol
 _atom_site_label
 _atom_site_symmetry_multiplicity
 _atom_site_fract_x
 _atom_site_fract_y
 _atom_site_fract_z
 _atom_site_occupancy
  Li  Li0  1  0.576840  0.576840  0.576840  1
  Li  Li1  1  0.576840  0.576840  0.269480  1
  Li  Li2  1  0.576840  0.269480  0.576840  1
  Li  Li3  1  0.269480  0.576840  0.576840  1
  Eu  Eu4  1  0.343086  0.343086  0.343086  1
  Eu  Eu5  1  0.343086  0.343086  0.970742  1
  Eu  Eu6  1  0.343086  0.970742  0.343086  1
  Eu  Eu7  1  0.970742  0.343086  0.343086  1
  Eu  Eu8  1  0.811447  0.188553  0.188553  1
  Eu  Eu9  1  0.188553  0.811447  0.811447  1
  Eu  Eu10  1  0.188553  0.811447  0.188553  1
  Eu  Eu11  1  0.811447  0.188553  0.811447  1
  Eu  Eu12  1  0.188553  0.188553  0.811447  1
  Eu  Eu13  1  0.811447  0.811447  0.188553  1
  Eu  Eu14  1  0.942968  0.557032  0.557032  1
  Eu  Eu15  1  0.557032  0.942968  0.942968  1
  Eu  Eu16  1  0.557032  0.942968  0.557032  1
  Eu  Eu17  1  0.942968  0.557032  0.942968  1
  Eu  Eu18  1  0.557032  0.557032  0.942968  1
  Eu  Eu19  1  0.942968  0.942968  0.557032  1
  Pt  Pt20  1  0.140711  0.140711  0.140711  1
  Pt  Pt21  1  0.140711  0.140711  0.577866  1
  Pt  Pt22  1  0.140711  0.577866  0.140711  1
  Pt  Pt23  1  0.577866  0.140711  0.140711  1
