# generated using pymatgen
data_Sm6Hg7Ir
_symmetry_space_group_name_H-M   'P 1'
_cell_length_a   8.28087928
_cell_length_b   8.33667642
_cell_length_c   8.47085700
_cell_angle_alpha   115.39368983
_cell_angle_beta   114.14248962
_cell_angle_gamma   111.84793127
_symmetry_Int_Tables_number   1
_chemical_formula_structural   Sm6Hg7Ir
_chemical_formula_sum   'Sm6 Hg7 Ir1'
_cell_volume   360.37965559
_cell_formula_units_Z   1
loop_
 _symmetry_equiv_pos_site_id
 _symmetry_equiv_pos_as_xyz
  1  'x, y, z'
loop_
 _atom_site_type_symbol
 _atom_site_label
 _atom_site_symmetry_multiplicity
 _atom_site_fract_x
 _atom_site_fract_y
 _atom_site_fract_z
 _atom_site_occupancy
  Sm  Sm0  1  0.366476  0.006648  0.286780  1
  Sm  Sm1  1  0.035336  0.244673  0.410918  1
  Sm  Sm2  1  0.249370  0.366775  0.953260  1
  Sm  Sm3  1  0.595998  0.023110  0.750171  1
  Sm  Sm4  1  0.027530  0.753557  0.605630  1
  Sm  Sm5  1  0.725525  0.588613  0.985003  1
  Hg  Hg6  1  0.986178  0.997768  0.974157  1
  Hg  Hg7  1  0.507041  0.518780  0.483705  1
  Hg  Hg8  1  0.095349  0.545532  0.239580  1
  Hg  Hg9  1  0.569141  0.251453  0.125953  1
  Hg  Hg10  1  0.723536  0.893821  0.424479  1
  Hg  Hg11  1  0.915491  0.444646  0.741776  1
  Hg  Hg12  1  0.447038  0.775540  0.930087  1
  Ir  Ir13  1  0.255990  0.089083  0.588502  1
