# generated using pymatgen
data_Nd2ThAlCd2Pt3
_symmetry_space_group_name_H-M   'P 1'
_cell_length_a   7.75517412
_cell_length_b   7.68700117
_cell_length_c   3.96398700
_cell_angle_alpha   90.00000000
_cell_angle_beta   90.00000000
_cell_angle_gamma   119.70962983
_symmetry_Int_Tables_number   1
_chemical_formula_structural   Nd2ThAlCd2Pt3
_chemical_formula_sum   'Nd2 Th1 Al1 Cd2 Pt3'
_cell_volume   205.24598082
_cell_formula_units_Z   1
loop_
 _symmetry_equiv_pos_site_id
 _symmetry_equiv_pos_as_xyz
  1  'x, y, z'
loop_
 _atom_site_type_symbol
 _atom_site_label
 _atom_site_symmetry_multiplicity
 _atom_site_fract_x
 _atom_site_fract_y
 _atom_site_fract_z
 _atom_site_occupancy
  Nd  Nd0  1  0.408043  0.408900  0.500000  1
  Nd  Nd1  1  0.591957  0.000857  0.500000  1
  Th  Th2  1  0.000000  0.580616  0.500000  1
  Al  Al3  1  0.000000  0.241334  0.000000  1
  Cd  Cd4  1  0.747049  0.750033  0.000000  1
  Cd  Cd5  1  0.252951  0.002982  0.000000  1
  Pt  Pt6  1  0.696092  0.339005  0.000000  1
  Pt  Pt7  1  0.303908  0.642914  0.000000  1
  Pt  Pt8  1  0.000000  0.033359  0.500000  1
