# generated using pymatgen
data_Y2LuFe8CoP6
_symmetry_space_group_name_H-M   'P 1'
_cell_length_a   3.70158400
_cell_length_b   10.47588000
_cell_length_c   12.17268700
_cell_angle_alpha   90.00000000
_cell_angle_beta   90.00000000
_cell_angle_gamma   90.00000000
_symmetry_Int_Tables_number   1
_chemical_formula_structural   Y2LuFe8CoP6
_chemical_formula_sum   'Y4 Lu2 Fe16 Co2 P12'
_cell_volume   472.02454173
_cell_formula_units_Z   2
loop_
 _symmetry_equiv_pos_site_id
 _symmetry_equiv_pos_as_xyz
  1  'x, y, z'
loop_
 _atom_site_type_symbol
 _atom_site_label
 _atom_site_symmetry_multiplicity
 _atom_site_fract_x
 _atom_site_fract_y
 _atom_site_fract_z
 _atom_site_occupancy
  Y  Y0  1  0.000000  0.500000  0.526366  1
  Y  Y1  1  0.500000  0.000000  0.475027  1
  Y  Y2  1  0.500000  0.819667  0.206560  1
  Y  Y3  1  0.500000  0.180333  0.206560  1
  Lu  Lu4  1  0.000000  0.679583  0.793185  1
  Lu  Lu5  1  0.000000  0.320417  0.793185  1
  Fe  Fe6  1  0.500000  0.500000  0.152121  1
  Fe  Fe7  1  0.000000  0.000000  0.847126  1
  Fe  Fe8  1  0.000000  0.500000  0.987435  1
  Fe  Fe9  1  0.500000  0.000000  0.009458  1
  Fe  Fe10  1  0.500000  0.328437  0.995056  1
  Fe  Fe11  1  0.500000  0.671563  0.995056  1
  Fe  Fe12  1  0.000000  0.173130  0.001857  1
  Fe  Fe13  1  0.000000  0.826870  0.001857  1
  Fe  Fe14  1  0.500000  0.299459  0.431033  1
  Fe  Fe15  1  0.500000  0.700541  0.431033  1
  Fe  Fe16  1  0.000000  0.201900  0.571704  1
  Fe  Fe17  1  0.000000  0.798100  0.571704  1
  Fe  Fe18  1  0.500000  0.881583  0.709756  1
  Fe  Fe19  1  0.500000  0.118417  0.709756  1
  Fe  Fe20  1  0.000000  0.617394  0.290929  1
  Fe  Fe21  1  0.000000  0.382606  0.290929  1
  Co  Co22  1  0.500000  0.500000  0.702147  1
  Co  Co23  1  0.000000  0.000000  0.299512  1
  P  P24  1  0.500000  0.500000  0.882663  1
  P  P25  1  0.000000  0.000000  0.114022  1
  P  P26  1  0.500000  0.500000  0.340482  1
  P  P27  1  0.000000  0.000000  0.660138  1
  P  P28  1  0.500000  0.306690  0.616483  1
  P  P29  1  0.500000  0.693310  0.616483  1
  P  P30  1  0.000000  0.194575  0.386720  1
  P  P31  1  0.000000  0.805425  0.386720  1
  P  P32  1  0.500000  0.849656  0.887685  1
  P  P33  1  0.500000  0.150344  0.887685  1
  P  P34  1  0.000000  0.648294  0.110784  1
  P  P35  1  0.000000  0.351706  0.110784  1
