# generated using pymatgen
data_Er4Al24PdPt7Rh
_symmetry_space_group_name_H-M   'P 1'
_cell_length_a   7.51209271
_cell_length_b   7.51309410
_cell_length_c   13.15538302
_cell_angle_alpha   84.55939738
_cell_angle_beta   100.89185658
_cell_angle_gamma   119.80625908
_symmetry_Int_Tables_number   1
_chemical_formula_structural   Er4Al24PdPt7Rh
_chemical_formula_sum   'Er4 Al24 Pd1 Pt7 Rh1'
_cell_volume   632.64971946
_cell_formula_units_Z   1
loop_
 _symmetry_equiv_pos_site_id
 _symmetry_equiv_pos_as_xyz
  1  'x, y, z'
loop_
 _atom_site_type_symbol
 _atom_site_label
 _atom_site_symmetry_multiplicity
 _atom_site_fract_x
 _atom_site_fract_y
 _atom_site_fract_z
 _atom_site_occupancy
  Er  Er0  1  0.732022  0.998550  0.191241  1
  Er  Er1  1  0.268142  0.001373  0.808670  1
  Er  Er2  1  0.062234  0.667887  0.191342  1
  Er  Er3  1  0.937827  0.331860  0.808650  1
  Al  Al4  1  0.810691  0.871605  0.817997  1
  Al  Al5  1  0.189141  0.128549  0.182025  1
  Al  Al6  1  0.982657  0.669508  0.945231  1
  Al  Al7  1  0.017757  0.330637  0.054793  1
  Al  Al8  1  0.397717  0.663835  0.817275  1
  Al  Al9  1  0.601472  0.336346  0.182937  1
  Al  Al10  1  0.882768  0.665220  0.672049  1
  Al  Al11  1  0.117523  0.334783  0.327992  1
  Al  Al12  1  0.602671  0.458434  0.816718  1
  Al  Al13  1  0.397063  0.542454  0.183076  1
  Al  Al14  1  0.230109  0.339530  0.669930  1
  Al  Al15  1  0.769916  0.660504  0.330085  1
  Al  Al16  1  0.853031  0.333258  0.558990  1
  Al  Al17  1  0.185764  0.999262  0.558964  1
  Al  Al18  1  0.814142  0.000677  0.441045  1
  Al  Al19  1  0.348747  0.998715  0.054818  1
  Al  Al20  1  0.651125  0.000794  0.945215  1
  Al  Al21  1  0.556501  0.992851  0.672028  1
  Al  Al22  1  0.443482  0.006841  0.327945  1
  Al  Al23  1  0.521194  0.667858  0.561807  1
  Al  Al24  1  0.478804  0.332181  0.438230  1
  Al  Al25  1  0.687323  0.672160  0.045820  1
  Al  Al26  1  0.312577  0.328043  0.954181  1
  Al  Al27  1  0.147031  0.666823  0.440949  1
  Pd  Pd28  1  0.328401  0.671694  0.000079  1
  Pt  Pt29  1  0.546161  0.324620  0.637546  1
  Pt  Pt30  1  0.454095  0.675082  0.362830  1
  Pt  Pt31  1  0.887797  0.007754  0.638849  1
  Pt  Pt32  1  0.112303  0.992144  0.361172  1
  Pt  Pt33  1  0.671510  0.328388  0.999897  1
  Pt  Pt34  1  0.204217  0.666624  0.638406  1
  Pt  Pt35  1  0.795921  0.333211  0.361238  1
  Rh  Rh36  1  0.000165  0.999946  0.999981  1
