# generated using pymatgen
data_K7Lu(US5)2
_symmetry_space_group_name_H-M   'P 1'
_cell_length_a   7.62141164
_cell_length_b   11.41833493
_cell_length_c   7.22136700
_cell_angle_alpha   102.18052145
_cell_angle_beta   99.51299817
_cell_angle_gamma   110.38744254
_symmetry_Int_Tables_number   1
_chemical_formula_structural   K7Lu(US5)2
_chemical_formula_sum   'K7 Lu1 U2 S10'
_cell_volume   555.90840755
_cell_formula_units_Z   1
loop_
 _symmetry_equiv_pos_site_id
 _symmetry_equiv_pos_as_xyz
  1  'x, y, z'
loop_
 _atom_site_type_symbol
 _atom_site_label
 _atom_site_symmetry_multiplicity
 _atom_site_fract_x
 _atom_site_fract_y
 _atom_site_fract_z
 _atom_site_occupancy
  K  K0  1  0.000052  0.500005  0.999982  1
  K  K1  1  0.415613  0.906164  0.204775  1
  K  K2  1  0.595876  0.594316  0.294640  1
  K  K3  1  0.789179  0.299060  0.422391  1
  K  K4  1  0.210757  0.700931  0.577669  1
  K  K5  1  0.404118  0.405668  0.705364  1
  K  K6  1  0.584568  0.094032  0.795119  1
  Lu  Lu7  1  0.000037  0.000021  0.500071  1
  U  U8  1  0.190131  0.195790  0.100066  1
  U  U9  1  0.809821  0.804162  0.899929  1
  S  S10  1  0.526025  0.313290  0.062858  1
  S  S11  1  0.845291  0.037525  0.154180  1
  S  S12  1  0.987165  0.784334  0.235239  1
  S  S13  1  0.177612  0.402017  0.305300  1
  S  S14  1  0.331757  0.138340  0.416378  1
  S  S15  1  0.668245  0.861699  0.583666  1
  S  S16  1  0.822266  0.597854  0.694672  1
  S  S17  1  0.012900  0.215713  0.764745  1
  S  S18  1  0.154699  0.962414  0.845769  1
  S  S19  1  0.473894  0.686665  0.937186  1
