# generated using pymatgen
data_Be6Co2Re3Mo
_symmetry_space_group_name_H-M   'P 1'
_cell_length_a   4.46670760
_cell_length_b   4.43151050
_cell_length_c   7.28435202
_cell_angle_alpha   89.89979010
_cell_angle_beta   90.07488932
_cell_angle_gamma   119.70816120
_symmetry_Int_Tables_number   1
_chemical_formula_structural   Be6Co2Re3Mo
_chemical_formula_sum   'Be6 Co2 Re3 Mo1'
_cell_volume   125.23617709
_cell_formula_units_Z   1
loop_
 _symmetry_equiv_pos_site_id
 _symmetry_equiv_pos_as_xyz
  1  'x, y, z'
loop_
 _atom_site_type_symbol
 _atom_site_label
 _atom_site_symmetry_multiplicity
 _atom_site_fract_x
 _atom_site_fract_y
 _atom_site_fract_z
 _atom_site_occupancy
  Be  Be0  1  0.000118  0.001391  0.999288  1
  Be  Be1  1  0.999753  0.000293  0.499883  1
  Be  Be2  1  0.661988  0.827473  0.749258  1
  Be  Be3  1  0.339196  0.166073  0.250922  1
  Be  Be4  1  0.827354  0.165302  0.250863  1
  Be  Be5  1  0.172123  0.336568  0.749255  1
  Co  Co6  1  0.837159  0.666969  0.250542  1
  Co  Co7  1  0.163772  0.829909  0.749161  1
  Re  Re8  1  0.660563  0.332608  0.561274  1
  Re  Re9  1  0.660282  0.331351  0.936828  1
  Re  Re10  1  0.339620  0.670942  0.440402  1
  Mo  Mo11  1  0.338073  0.671121  0.062323  1
