# generated using pymatgen
data_Yb12GdTm7Sn16
_symmetry_space_group_name_H-M   'P 1'
_cell_length_a   7.79752568
_cell_length_b   8.39123080
_cell_length_c   15.93249900
_cell_angle_alpha   90.00961390
_cell_angle_beta   90.02393225
_cell_angle_gamma   90.12408913
_symmetry_Int_Tables_number   1
_chemical_formula_structural   Yb12GdTm7Sn16
_chemical_formula_sum   'Yb12 Gd1 Tm7 Sn16'
_cell_volume   1042.47420468
_cell_formula_units_Z   1
loop_
 _symmetry_equiv_pos_site_id
 _symmetry_equiv_pos_as_xyz
  1  'x, y, z'
loop_
 _atom_site_type_symbol
 _atom_site_label
 _atom_site_symmetry_multiplicity
 _atom_site_fract_x
 _atom_site_fract_y
 _atom_site_fract_z
 _atom_site_occupancy
  Yb  Yb0  1  0.177095  0.334219  0.620657  1
  Yb  Yb1  1  0.501082  0.686487  0.593377  1
  Yb  Yb2  1  0.002289  0.814874  0.909364  1
  Yb  Yb3  1  0.495016  0.312602  0.092407  1
  Yb  Yb4  1  0.998199  0.188272  0.406943  1
  Yb  Yb5  1  0.495859  0.312591  0.407666  1
  Yb  Yb6  1  0.996592  0.187128  0.092522  1
  Yb  Yb7  1  0.501346  0.686899  0.907619  1
  Yb  Yb8  1  0.003919  0.814009  0.591614  1
  Yb  Yb9  1  0.335167  0.990668  0.749530  1
  Yb  Yb10  1  0.164134  0.488485  0.249552  1
  Yb  Yb11  1  0.665242  0.010180  0.250147  1
  Gd  Gd12  1  0.673484  0.163647  0.621737  1
  Tm  Tm13  1  0.173397  0.333910  0.879252  1
  Tm  Tm14  1  0.326667  0.834019  0.121862  1
  Tm  Tm15  1  0.828530  0.663630  0.377061  1
  Tm  Tm16  1  0.326119  0.834294  0.376690  1
  Tm  Tm17  1  0.826678  0.664590  0.121266  1
  Tm  Tm18  1  0.671967  0.164002  0.879335  1
  Tm  Tm19  1  0.838892  0.509260  0.749074  1
  Sn  Sn20  1  0.674167  0.960287  0.458233  1
  Sn  Sn21  1  0.171061  0.536401  0.040276  1
  Sn  Sn22  1  0.328115  0.036673  0.959977  1
  Sn  Sn23  1  0.826312  0.468990  0.542395  1
  Sn  Sn24  1  0.332827  0.033171  0.539042  1
  Sn  Sn25  1  0.827033  0.466280  0.956035  1
  Sn  Sn26  1  0.671699  0.963016  0.040757  1
  Sn  Sn27  1  0.169566  0.538975  0.457299  1
  Sn  Sn28  1  0.476040  0.381631  0.754437  1
  Sn  Sn29  1  0.969058  0.128165  0.752202  1
  Sn  Sn30  1  0.528969  0.628520  0.249293  1
  Sn  Sn31  1  0.028561  0.870836  0.248408  1
  Sn  Sn32  1  0.720880  0.864912  0.752299  1
  Sn  Sn33  1  0.210269  0.629094  0.753416  1
  Sn  Sn34  1  0.282857  0.126430  0.249201  1
  Sn  Sn35  1  0.780912  0.372855  0.249057  1
