# generated using pymatgen
data_Ho5In4CuNi
_symmetry_space_group_name_H-M   'P 1'
_cell_length_a   7.99619404
_cell_length_b   17.99522690
_cell_length_c   3.61592800
_cell_angle_alpha   90.00000000
_cell_angle_beta   90.00000000
_cell_angle_gamma   89.89989824
_symmetry_Int_Tables_number   1
_chemical_formula_structural   Ho5In4CuNi
_chemical_formula_sum   'Ho10 In8 Cu2 Ni2'
_cell_volume   520.30711245
_cell_formula_units_Z   2
loop_
 _symmetry_equiv_pos_site_id
 _symmetry_equiv_pos_as_xyz
  1  'x, y, z'
loop_
 _atom_site_type_symbol
 _atom_site_label
 _atom_site_symmetry_multiplicity
 _atom_site_fract_x
 _atom_site_fract_y
 _atom_site_fract_z
 _atom_site_occupancy
  Ho  Ho0  1  0.500000  0.500000  0.000000  1
  Ho  Ho1  1  0.000000  0.000000  0.000000  1
  Ho  Ho2  1  0.766544  0.280563  0.000000  1
  Ho  Ho3  1  0.233456  0.719437  0.000000  1
  Ho  Ho4  1  0.752471  0.777585  0.000000  1
  Ho  Ho5  1  0.247529  0.222415  0.000000  1
  Ho  Ho6  1  0.626789  0.084332  0.000000  1
  Ho  Ho7  1  0.373211  0.915668  0.000000  1
  Ho  Ho8  1  0.876461  0.587700  0.000000  1
  Ho  Ho9  1  0.123539  0.412300  0.000000  1
  In  In10  1  0.701829  0.931291  0.500000  1
  In  In11  1  0.298171  0.068709  0.500000  1
  In  In12  1  0.799494  0.431277  0.500000  1
  In  In13  1  0.200506  0.568723  0.500000  1
  In  In14  1  0.563469  0.651279  0.500000  1
  In  In15  1  0.436531  0.348721  0.500000  1
  In  In16  1  0.936944  0.151319  0.500000  1
  In  In17  1  0.063056  0.848681  0.500000  1
  Cu  Cu18  1  0.539043  0.197865  0.500000  1
  Cu  Cu19  1  0.460957  0.802135  0.500000  1
  Ni  Ni20  1  0.961164  0.696645  0.500000  1
  Ni  Ni21  1  0.038836  0.303355  0.500000  1
