# generated using pymatgen
data_Li3PrNd2Si3
_symmetry_space_group_name_H-M   'P 1'
_cell_length_a   7.25238300
_cell_length_b   7.26414365
_cell_length_c   4.36348600
_cell_angle_alpha   90.00000000
_cell_angle_beta   90.00000000
_cell_angle_gamma   119.94646287
_symmetry_Int_Tables_number   1
_chemical_formula_structural   Li3PrNd2Si3
_chemical_formula_sum   'Li3 Pr1 Nd2 Si3'
_cell_volume   199.18811080
_cell_formula_units_Z   1
loop_
 _symmetry_equiv_pos_site_id
 _symmetry_equiv_pos_as_xyz
  1  'x, y, z'
loop_
 _atom_site_type_symbol
 _atom_site_label
 _atom_site_symmetry_multiplicity
 _atom_site_fract_x
 _atom_site_fract_y
 _atom_site_fract_z
 _atom_site_occupancy
  Li  Li0  1  0.768198  0.000000  0.500000  1
  Li  Li1  1  0.231881  0.232095  0.500000  1
  Li  Li2  1  0.999786  0.767905  0.500000  1
  Pr  Pr3  1  0.420358  0.000000  0.000000  1
  Nd  Nd4  1  0.000107  0.420145  0.000000  1
  Nd  Nd5  1  0.579962  0.579855  0.000000  1
  Si  Si6  1  0.999278  0.000000  0.000000  1
  Si  Si7  1  0.667411  0.334390  0.500000  1
  Si  Si8  1  0.333021  0.665610  0.500000  1
