# generated using pymatgen
data_NdErPa2(Al3Co)6
_symmetry_space_group_name_H-M   'P 1'
_cell_length_a   7.43793954
_cell_length_b   7.42871526
_cell_length_c   9.23833500
_cell_angle_alpha   90.00000000
_cell_angle_beta   90.00000000
_cell_angle_gamma   119.14918850
_symmetry_Int_Tables_number   1
_chemical_formula_structural   NdErPa2(Al3Co)6
_chemical_formula_sum   'Nd1 Er1 Pa2 Al18 Co6'
_cell_volume   445.81078010
_cell_formula_units_Z   1
loop_
 _symmetry_equiv_pos_site_id
 _symmetry_equiv_pos_as_xyz
  1  'x, y, z'
loop_
 _atom_site_type_symbol
 _atom_site_label
 _atom_site_symmetry_multiplicity
 _atom_site_fract_x
 _atom_site_fract_y
 _atom_site_fract_z
 _atom_site_occupancy
  Nd  Nd0  1  0.672361  0.993669  0.250000  1
  Er  Er1  1  0.993669  0.672581  0.250000  1
  Pa  Pa2  1  0.007101  0.322732  0.750000  1
  Pa  Pa3  1  0.322823  0.007013  0.750000  1
  Al  Al4  1  0.661530  0.998227  0.925854  1
  Al  Al5  1  0.999085  0.662151  0.571995  1
  Al  Al6  1  0.126021  0.123999  0.250000  1
  Al  Al7  1  0.670434  0.668199  0.043953  1
  Al  Al8  1  0.337314  0.337304  0.541408  1
  Al  Al9  1  0.337314  0.337304  0.958592  1
  Al  Al10  1  0.670434  0.668199  0.456047  1
  Al  Al11  1  0.332797  0.996976  0.073555  1
  Al  Al12  1  0.999898  0.338243  0.426414  1
  Al  Al13  1  0.338443  0.555138  0.250000  1
  Al  Al14  1  0.999898  0.338243  0.073586  1
  Al  Al15  1  0.557834  0.344972  0.250000  1
  Al  Al16  1  0.659074  0.446580  0.750000  1
  Al  Al17  1  0.866773  0.865780  0.750000  1
  Al  Al18  1  0.999085  0.662151  0.928005  1
  Al  Al19  1  0.661530  0.998227  0.574146  1
  Al  Al20  1  0.332797  0.996976  0.426445  1
  Al  Al21  1  0.446042  0.657658  0.750000  1
  Co  Co22  1  0.670995  0.326462  0.506075  1
  Co  Co23  1  0.670995  0.326462  0.993925  1
  Co  Co24  1  0.325028  0.670248  0.506121  1
  Co  Co25  1  0.007850  0.007131  0.988822  1
  Co  Co26  1  0.007850  0.007131  0.511178  1
  Co  Co27  1  0.325028  0.670248  0.993879  1
