# generated using pymatgen
data_RbMgRhF6
_symmetry_space_group_name_H-M   'P 1'
_cell_length_a   7.40951985
_cell_length_b   7.40951944
_cell_length_c   7.40952051
_cell_angle_alpha   120.41454051
_cell_angle_beta   120.64423398
_cell_angle_gamma   89.08561699
_symmetry_Int_Tables_number   1
_chemical_formula_structural   RbMgRhF6
_chemical_formula_sum   'Rb2 Mg2 Rh2 F12'
_cell_volume   285.30142183
_cell_formula_units_Z   2
loop_
 _symmetry_equiv_pos_site_id
 _symmetry_equiv_pos_as_xyz
  1  'x, y, z'
loop_
 _atom_site_type_symbol
 _atom_site_label
 _atom_site_symmetry_multiplicity
 _atom_site_fract_x
 _atom_site_fract_y
 _atom_site_fract_z
 _atom_site_occupancy
  Rb  Rb0  1  0.360574  0.610574  0.750000  1
  Rb  Rb1  1  0.639426  0.389426  0.250000  1
  Mg  Mg2  1  0.000000  0.000000  0.500000  1
  Mg  Mg3  1  0.000000  0.500000  0.000000  1
  Rh  Rh4  1  0.000000  0.000000  0.000000  1
  Rh  Rh5  1  0.500000  0.000000  0.500000  1
  F  F6  1  0.329567  0.079567  0.250000  1
  F  F7  1  0.938639  0.688639  0.250000  1
  F  F8  1  0.328517  0.675429  0.248653  1
  F  F9  1  0.926777  0.079864  0.251347  1
  F  F10  1  0.328517  0.079864  0.653088  1
  F  F11  1  0.926777  0.675429  0.846912  1
  F  F12  1  0.670433  0.920433  0.750000  1
  F  F13  1  0.061361  0.311361  0.750000  1
  F  F14  1  0.671483  0.324571  0.751347  1
  F  F15  1  0.073223  0.920136  0.748653  1
  F  F16  1  0.671483  0.920136  0.346912  1
  F  F17  1  0.073223  0.324571  0.153088  1
