# generated using pymatgen
data_Dy(LuSe2)2
_symmetry_space_group_name_H-M   'P 1'
_cell_length_a   3.99530300
_cell_length_b   6.90406374
_cell_length_c   6.96185896
_cell_angle_alpha   71.75853322
_cell_angle_beta   90.00000000
_cell_angle_gamma   90.00000000
_symmetry_Int_Tables_number   1
_chemical_formula_structural   Dy(LuSe2)2
_chemical_formula_sum   'Dy1 Lu2 Se4'
_cell_volume   182.38415123
_cell_formula_units_Z   1
loop_
 _symmetry_equiv_pos_site_id
 _symmetry_equiv_pos_as_xyz
  1  'x, y, z'
loop_
 _atom_site_type_symbol
 _atom_site_label
 _atom_site_symmetry_multiplicity
 _atom_site_fract_x
 _atom_site_fract_y
 _atom_site_fract_z
 _atom_site_occupancy
  Dy  Dy0  1  0.000000  0.500000  0.500000  1
  Lu  Lu1  1  0.000000  0.000000  0.000000  1
  Lu  Lu2  1  0.500000  0.500000  0.000000  1
  Se  Se3  1  0.500000  0.757937  0.248744  1
  Se  Se4  1  0.000000  0.254157  0.241189  1
  Se  Se5  1  0.500000  0.242063  0.751256  1
  Se  Se6  1  0.000000  0.745843  0.758811  1
