# generated using pymatgen
data_ErPaInRh2
_symmetry_space_group_name_H-M   'P 1'
_cell_length_a   7.76644800
_cell_length_b   7.59562900
_cell_length_c   3.62608400
_cell_angle_alpha   90.00000000
_cell_angle_beta   90.00000000
_cell_angle_gamma   90.00000000
_symmetry_Int_Tables_number   1
_chemical_formula_structural   ErPaInRh2
_chemical_formula_sum   'Er2 Pa2 In2 Rh4'
_cell_volume   213.90653031
_cell_formula_units_Z   2
loop_
 _symmetry_equiv_pos_site_id
 _symmetry_equiv_pos_as_xyz
  1  'x, y, z'
loop_
 _atom_site_type_symbol
 _atom_site_label
 _atom_site_symmetry_multiplicity
 _atom_site_fract_x
 _atom_site_fract_y
 _atom_site_fract_z
 _atom_site_occupancy
  Er  Er0  1  0.170229  0.331515  0.500000  1
  Er  Er1  1  0.670229  0.168485  0.500000  1
  Pa  Pa2  1  0.324522  0.839004  0.500000  1
  Pa  Pa3  1  0.824522  0.660996  0.500000  1
  In  In4  1  0.491091  0.487629  0.000000  1
  In  In5  1  0.991091  0.012371  0.000000  1
  Rh  Rh6  1  0.370659  0.100376  0.000000  1
  Rh  Rh7  1  0.643498  0.844595  0.000000  1
  Rh  Rh8  1  0.870659  0.399624  0.000000  1
  Rh  Rh9  1  0.143498  0.655405  0.000000  1
