# generated using pymatgen
data_Tb4Al6ReOs
_symmetry_space_group_name_H-M   'P 1'
_cell_length_a   5.52719100
_cell_length_b   5.52719141
_cell_length_c   8.87457800
_cell_angle_alpha   90.00000000
_cell_angle_beta   90.00000000
_cell_angle_gamma   120.00000354
_symmetry_Int_Tables_number   1
_chemical_formula_structural   Tb4Al6ReOs
_chemical_formula_sum   'Tb4 Al6 Re1 Os1'
_cell_volume   234.79416732
_cell_formula_units_Z   1
loop_
 _symmetry_equiv_pos_site_id
 _symmetry_equiv_pos_as_xyz
  1  'x, y, z'
loop_
 _atom_site_type_symbol
 _atom_site_label
 _atom_site_symmetry_multiplicity
 _atom_site_fract_x
 _atom_site_fract_y
 _atom_site_fract_z
 _atom_site_occupancy
  Tb  Tb0  1  0.666667  0.333333  0.050710  1
  Tb  Tb1  1  0.666667  0.333333  0.449664  1
  Tb  Tb2  1  0.333333  0.666666  0.550336  1
  Tb  Tb3  1  0.333333  0.666666  0.949291  1
  Al  Al4  1  0.161313  0.322625  0.252001  1
  Al  Al5  1  0.161313  0.838687  0.252001  1
  Al  Al6  1  0.677374  0.838687  0.252001  1
  Al  Al7  1  0.322625  0.161313  0.747999  1
  Al  Al8  1  0.838687  0.161313  0.747999  1
  Al  Al9  1  0.838687  0.677374  0.747999  1
  Re  Re10  1  0.000000  0.000000  0.000000  1
  Os  Os11  1  0.000000  0.000000  0.500000  1
