# generated using pymatgen
data_Ho4ErBe3P9Ir19
_symmetry_space_group_name_H-M   'P 1'
_cell_length_a   12.62150900
_cell_length_b   12.62150888
_cell_length_c   3.94541900
_cell_angle_alpha   90.00000000
_cell_angle_beta   90.00000000
_cell_angle_gamma   120.00000294
_symmetry_Int_Tables_number   1
_chemical_formula_structural   Ho4ErBe3P9Ir19
_chemical_formula_sum   'Ho4 Er1 Be3 P9 Ir19'
_cell_volume   544.30999473
_cell_formula_units_Z   1
loop_
 _symmetry_equiv_pos_site_id
 _symmetry_equiv_pos_as_xyz
  1  'x, y, z'
loop_
 _atom_site_type_symbol
 _atom_site_label
 _atom_site_symmetry_multiplicity
 _atom_site_fract_x
 _atom_site_fract_y
 _atom_site_fract_z
 _atom_site_occupancy
  Ho  Ho0  1  0.666667  0.333333  0.000000  1
  Ho  Ho1  1  0.815608  0.809239  0.500000  1
  Ho  Ho2  1  0.190761  0.006369  0.500000  1
  Ho  Ho3  1  0.993631  0.184392  0.500000  1
  Er  Er4  1  0.333333  0.666667  0.000000  1
  Be  Be5  1  0.683180  0.162450  0.500000  1
  Be  Be6  1  0.837550  0.520730  0.500000  1
  Be  Be7  1  0.479270  0.316820  0.500000  1
  P  P8  1  0.178089  0.696441  0.500000  1
  P  P9  1  0.518352  0.821911  0.500000  1
  P  P10  1  0.303559  0.481648  0.500000  1
  P  P11  1  0.639779  0.626885  0.000000  1
  P  P12  1  0.373115  0.012893  0.000000  1
  P  P13  1  0.987107  0.360221  0.000000  1
  P  P14  1  0.178645  0.181328  0.000000  1
  P  P15  1  0.818672  0.997318  0.000000  1
  P  P16  1  0.002682  0.821355  0.000000  1
  Ir  Ir17  1  0.801687  0.175421  0.000000  1
  Ir  Ir18  1  0.824579  0.626266  0.000000  1
  Ir  Ir19  1  0.373734  0.198313  0.000000  1
  Ir  Ir20  1  0.190360  0.812939  0.000000  1
  Ir  Ir21  1  0.622579  0.809640  0.000000  1
  Ir  Ir22  1  0.187061  0.377421  0.000000  1
  Ir  Ir23  1  0.455140  0.446441  0.000000  1
  Ir  Ir24  1  0.553559  0.008700  0.000000  1
  Ir  Ir25  1  0.991300  0.544860  0.000000  1
  Ir  Ir26  1  0.280695  0.287813  0.500000  1
  Ir  Ir27  1  0.712187  0.992882  0.500000  1
  Ir  Ir28  1  0.007118  0.719305  0.500000  1
  Ir  Ir29  1  0.870773  0.354450  0.500000  1
  Ir  Ir30  1  0.645550  0.516324  0.500000  1
  Ir  Ir31  1  0.483676  0.129227  0.500000  1
  Ir  Ir32  1  0.369362  0.870465  0.500000  1
  Ir  Ir33  1  0.501105  0.630638  0.500000  1
  Ir  Ir34  1  0.129535  0.498895  0.500000  1
  Ir  Ir35  1  0.000000  0.000000  0.000000  1
