# generated using pymatgen
data_Zr10Al3Sb5
_symmetry_space_group_name_H-M   'P 1'
_cell_length_a   8.68089833
_cell_length_b   8.68089747
_cell_length_c   5.85878000
_cell_angle_alpha   90.00000000
_cell_angle_beta   90.00000000
_cell_angle_gamma   120.22225696
_symmetry_Int_Tables_number   1
_chemical_formula_structural   Zr10Al3Sb5
_chemical_formula_sum   'Zr10 Al3 Sb5'
_cell_volume   381.49610265
_cell_formula_units_Z   1
loop_
 _symmetry_equiv_pos_site_id
 _symmetry_equiv_pos_as_xyz
  1  'x, y, z'
loop_
 _atom_site_type_symbol
 _atom_site_label
 _atom_site_symmetry_multiplicity
 _atom_site_fract_x
 _atom_site_fract_y
 _atom_site_fract_z
 _atom_site_occupancy
  Zr  Zr0  1  0.276962  0.276962  0.750000  1
  Zr  Zr1  1  0.731694  0.731694  0.250000  1
  Zr  Zr2  1  0.723326  0.992802  0.750000  1
  Zr  Zr3  1  0.001341  0.268775  0.250000  1
  Zr  Zr4  1  0.335324  0.666439  0.502779  1
  Zr  Zr5  1  0.666439  0.335324  0.502779  1
  Zr  Zr6  1  0.992802  0.723326  0.750000  1
  Zr  Zr7  1  0.335324  0.666439  0.997221  1
  Zr  Zr8  1  0.268775  0.001341  0.250000  1
  Zr  Zr9  1  0.666439  0.335324  0.997221  1
  Al  Al10  1  0.999266  0.999266  0.506377  1
  Al  Al11  1  0.614800  0.614800  0.750000  1
  Al  Al12  1  0.999266  0.999266  0.993623  1
  Sb  Sb13  1  0.383374  0.998753  0.750000  1
  Sb  Sb14  1  0.612080  0.000460  0.250000  1
  Sb  Sb15  1  0.393575  0.393575  0.250000  1
  Sb  Sb16  1  0.998753  0.383374  0.750000  1
  Sb  Sb17  1  0.000460  0.612080  0.250000  1
