# generated using pymatgen
data_Ta6Be5SiRu6
_symmetry_space_group_name_H-M   'P 1'
_cell_length_a   7.34644401
_cell_length_b   7.34489905
_cell_length_c   7.34618034
_cell_angle_alpha   126.24251358
_cell_angle_beta   129.44765007
_cell_angle_gamma   76.90535960
_symmetry_Int_Tables_number   1
_chemical_formula_structural   Ta6Be5SiRu6
_chemical_formula_sum   'Ta6 Be5 Si1 Ru6'
_cell_volume   239.69647340
_cell_formula_units_Z   1
loop_
 _symmetry_equiv_pos_site_id
 _symmetry_equiv_pos_as_xyz
  1  'x, y, z'
loop_
 _atom_site_type_symbol
 _atom_site_label
 _atom_site_symmetry_multiplicity
 _atom_site_fract_x
 _atom_site_fract_y
 _atom_site_fract_z
 _atom_site_occupancy
  Ta  Ta0  1  0.556793  0.089345  0.042933  1
  Ta  Ta1  1  0.459131  0.507142  0.558846  1
  Ta  Ta2  1  0.948343  0.506570  0.047319  1
  Ta  Ta3  1  0.045946  0.089059  0.532711  1
  Ta  Ta4  1  0.738961  0.894636  0.643220  1
  Ta  Ta5  1  0.250527  0.893673  0.155350  1
  Be  Be6  1  0.750067  0.497141  0.246828  1
  Be  Be7  1  0.250193  0.496759  0.747242  1
  Be  Be8  1  0.331763  0.829705  0.498703  1
  Be  Be9  1  0.665463  0.163551  0.495642  1
  Be  Be10  1  0.834792  0.830312  0.994666  1
  Si  Si11  1  0.167419  0.163210  0.997373  1
  Ru  Ru12  1  0.499779  0.245085  0.745348  1
  Ru  Ru13  1  0.999725  0.246433  0.246982  1
  Ru  Ru14  1  0.125494  0.747082  0.621990  1
  Ru  Ru15  1  0.874251  0.496106  0.621674  1
  Ru  Ru16  1  0.625920  0.747539  0.121525  1
  Ru  Ru17  1  0.375434  0.498852  0.123852  1
