# generated using pymatgen
data_YLuBe2(Os2C)2
_symmetry_space_group_name_H-M   'P 1'
_cell_length_a   5.62386461
_cell_length_b   5.62386351
_cell_length_c   7.02569300
_cell_angle_alpha   90.00000000
_cell_angle_beta   90.00000000
_cell_angle_gamma   140.34220318
_symmetry_Int_Tables_number   1
_chemical_formula_structural   YLuBe2(Os2C)2
_chemical_formula_sum   'Y1 Lu1 Be2 Os4 C2'
_cell_volume   141.81305775
_cell_formula_units_Z   1
loop_
 _symmetry_equiv_pos_site_id
 _symmetry_equiv_pos_as_xyz
  1  'x, y, z'
loop_
 _atom_site_type_symbol
 _atom_site_label
 _atom_site_symmetry_multiplicity
 _atom_site_fract_x
 _atom_site_fract_y
 _atom_site_fract_z
 _atom_site_occupancy
  Y  Y0  1  0.455756  0.544244  0.750000  1
  Lu  Lu1  1  0.545039  0.454961  0.250000  1
  Be  Be2  1  0.269223  0.730777  0.250000  1
  Be  Be3  1  0.730628  0.269372  0.750000  1
  Os  Os4  1  0.823803  0.176197  0.060288  1
  Os  Os5  1  0.175594  0.824406  0.942596  1
  Os  Os6  1  0.175594  0.824406  0.557404  1
  Os  Os7  1  0.823803  0.176197  0.439712  1
  C  C8  1  0.000280  0.999720  0.004956  1
  C  C9  1  0.000280  0.999720  0.495044  1
