# generated using pymatgen
data_NdSmRe6(Si2W)2
_symmetry_space_group_name_H-M   'P 1'
_cell_length_a   7.89878578
_cell_length_b   7.09315457
_cell_length_c   4.20577700
_cell_angle_alpha   90.00000000
_cell_angle_beta   90.00000000
_cell_angle_gamma   89.67393725
_symmetry_Int_Tables_number   1
_chemical_formula_structural   NdSmRe6(Si2W)2
_chemical_formula_sum   'Nd1 Sm1 Re6 Si4 W2'
_cell_volume   235.63454942
_cell_formula_units_Z   1
loop_
 _symmetry_equiv_pos_site_id
 _symmetry_equiv_pos_as_xyz
  1  'x, y, z'
loop_
 _atom_site_type_symbol
 _atom_site_label
 _atom_site_symmetry_multiplicity
 _atom_site_fract_x
 _atom_site_fract_y
 _atom_site_fract_z
 _atom_site_occupancy
  Nd  Nd0  1  0.500000  0.500000  0.000000  1
  Sm  Sm1  1  0.000000  0.000000  0.500000  1
  Re  Re2  1  0.109264  0.345016  0.000000  1
  Re  Re3  1  0.890736  0.654984  0.000000  1
  Re  Re4  1  0.157284  0.574306  0.500000  1
  Re  Re5  1  0.842716  0.425694  0.500000  1
  Re  Re6  1  0.333829  0.074097  0.000000  1
  Re  Re7  1  0.666171  0.925903  0.000000  1
  Si  Si8  1  0.690650  0.729495  0.500000  1
  Si  Si9  1  0.309350  0.270505  0.500000  1
  Si  Si10  1  0.186393  0.768164  0.000000  1
  Si  Si11  1  0.813607  0.231836  0.000000  1
  W  W12  1  0.613135  0.151556  0.500000  1
  W  W13  1  0.386865  0.848444  0.500000  1
