# generated using pymatgen
data_Tb7Ho3(IrRu)2
_symmetry_space_group_name_H-M   'P 1'
_cell_length_a   6.42072627
_cell_length_b   7.27763758
_cell_length_c   8.55167163
_cell_angle_alpha   96.61760369
_cell_angle_beta   112.03069062
_cell_angle_gamma   90.17052823
_symmetry_Int_Tables_number   1
_chemical_formula_structural   Tb7Ho3(IrRu)2
_chemical_formula_sum   'Tb7 Ho3 Ir2 Ru2'
_cell_volume   367.49104414
_cell_formula_units_Z   1
loop_
 _symmetry_equiv_pos_site_id
 _symmetry_equiv_pos_as_xyz
  1  'x, y, z'
loop_
 _atom_site_type_symbol
 _atom_site_label
 _atom_site_symmetry_multiplicity
 _atom_site_fract_x
 _atom_site_fract_y
 _atom_site_fract_z
 _atom_site_occupancy
  Tb  Tb0  1  0.978338  0.917889  0.185959  1
  Tb  Tb1  1  0.792909  0.582206  0.814036  1
  Tb  Tb2  1  0.023555  0.084836  0.814864  1
  Tb  Tb3  1  0.209550  0.414900  0.184938  1
  Tb  Tb4  1  0.643201  0.816172  0.434317  1
  Tb  Tb5  1  0.207978  0.683987  0.565018  1
  Tb  Tb6  1  0.355011  0.186586  0.563965  1
  Ho  Ho7  1  0.791404  0.314158  0.435902  1
  Ho  Ho8  1  0.425250  0.750027  0.999836  1
  Ho  Ho9  1  0.574928  0.249684  0.000291  1
  Ir  Ir10  1  0.821745  0.574817  0.221087  1
  Ir  Ir11  1  0.602282  0.924162  0.780657  1
  Ru  Ru12  1  0.176425  0.425715  0.779369  1
  Ru  Ru13  1  0.397424  0.074862  0.219762  1
