# generated using pymatgen
data_Ce3Er7(SiB4)4
_symmetry_space_group_name_H-M   'P 1'
_cell_length_a   7.22572926
_cell_length_b   7.22572964
_cell_length_c   8.11569203
_cell_angle_alpha   89.99633095
_cell_angle_beta   89.99632979
_cell_angle_gamma   90.12896316
_symmetry_Int_Tables_number   1
_chemical_formula_structural   Ce3Er7(SiB4)4
_chemical_formula_sum   'Ce3 Er7 Si4 B16'
_cell_volume   423.72866977
_cell_formula_units_Z   1
loop_
 _symmetry_equiv_pos_site_id
 _symmetry_equiv_pos_as_xyz
  1  'x, y, z'
loop_
 _atom_site_type_symbol
 _atom_site_label
 _atom_site_symmetry_multiplicity
 _atom_site_fract_x
 _atom_site_fract_y
 _atom_site_fract_z
 _atom_site_occupancy
  Ce  Ce0  1  0.681838  0.181838  0.229584  1
  Ce  Ce1  1  0.317611  0.817611  0.770066  1
  Ce  Ce2  1  0.318405  0.818405  0.230432  1
  Er  Er3  1  0.820000  0.679813  0.220176  1
  Er  Er4  1  0.819789  0.680272  0.779630  1
  Er  Er5  1  0.681609  0.181609  0.779064  1
  Er  Er6  1  0.180272  0.319789  0.779630  1
  Er  Er7  1  0.179813  0.320000  0.220176  1
  Er  Er8  1  0.998935  0.001142  0.500681  1
  Er  Er9  1  0.501142  0.498935  0.500681  1
  Si  Si10  1  0.113966  0.613966  0.500770  1
  Si  Si11  1  0.883915  0.383915  0.501601  1
  Si  Si12  1  0.384412  0.116437  0.501890  1
  Si  Si13  1  0.616437  0.884412  0.501890  1
  B  B14  1  0.172485  0.039175  0.998575  1
  B  B15  1  0.826902  0.961517  0.999078  1
  B  B16  1  0.959824  0.172869  0.998929  1
  B  B17  1  0.328228  0.539121  0.998732  1
  B  B18  1  0.039121  0.828228  0.998732  1
  B  B19  1  0.672869  0.459824  0.998929  1
  B  B20  1  0.539175  0.672485  0.998575  1
  B  B21  1  0.461517  0.326902  0.999078  1
  B  B22  1  0.091009  0.591009  0.998897  1
  B  B23  1  0.909267  0.409267  0.000647  1
  B  B24  1  0.410006  0.090495  0.999129  1
  B  B25  1  0.590495  0.910006  0.999129  1
  B  B26  1  0.999799  0.000215  0.161043  1
  B  B27  1  0.000151  0.000792  0.836609  1
  B  B28  1  0.500792  0.500151  0.836609  1
  B  B29  1  0.500215  0.499799  0.161043  1
