# generated using pymatgen
data_Y2Er3(In2Ir)2
_symmetry_space_group_name_H-M   'P 1'
_cell_length_a   3.65162400
_cell_length_b   7.99535476
_cell_length_c   18.21769002
_cell_angle_alpha   89.71184680
_cell_angle_beta   90.00000000
_cell_angle_gamma   90.00000000
_symmetry_Int_Tables_number   1
_chemical_formula_structural   Y2Er3(In2Ir)2
_chemical_formula_sum   'Y4 Er6 In8 Ir4'
_cell_volume   531.87748535
_cell_formula_units_Z   2
loop_
 _symmetry_equiv_pos_site_id
 _symmetry_equiv_pos_as_xyz
  1  'x, y, z'
loop_
 _atom_site_type_symbol
 _atom_site_label
 _atom_site_symmetry_multiplicity
 _atom_site_fract_x
 _atom_site_fract_y
 _atom_site_fract_z
 _atom_site_occupancy
  Y  Y0  1  0.000000  0.500000  0.500000  1
  Y  Y1  1  0.000000  0.000000  0.000000  1
  Y  Y2  1  0.000000  0.740827  0.279074  1
  Y  Y3  1  0.000000  0.259173  0.720926  1
  Er  Er4  1  0.000000  0.758641  0.778472  1
  Er  Er5  1  0.000000  0.241359  0.221528  1
  Er  Er6  1  0.000000  0.613225  0.088825  1
  Er  Er7  1  0.000000  0.386775  0.911175  1
  Er  Er8  1  0.000000  0.885796  0.588579  1
  Er  Er9  1  0.000000  0.114204  0.411421  1
  In  In10  1  0.500000  0.708136  0.932247  1
  In  In11  1  0.500000  0.291864  0.067753  1
  In  In12  1  0.500000  0.793170  0.432310  1
  In  In13  1  0.500000  0.206830  0.567690  1
  In  In14  1  0.500000  0.579306  0.650287  1
  In  In15  1  0.500000  0.420694  0.349713  1
  In  In16  1  0.500000  0.922880  0.150387  1
  In  In17  1  0.500000  0.077120  0.849613  1
  Ir  Ir18  1  0.500000  0.515525  0.194210  1
  Ir  Ir19  1  0.500000  0.484475  0.805790  1
  Ir  Ir20  1  0.500000  0.975852  0.695112  1
  Ir  Ir21  1  0.500000  0.024148  0.304888  1
