# generated using pymatgen
data_CsCu3F9
_symmetry_space_group_name_H-M   'P 1'
_cell_length_a   7.27893413
_cell_length_b   7.31845144
_cell_length_c   7.52428000
_cell_angle_alpha   89.93558340
_cell_angle_beta   90.25683059
_cell_angle_gamma   60.03515364
_symmetry_Int_Tables_number   1
_chemical_formula_structural   CsCu3F9
_chemical_formula_sum   'Cs2 Cu6 F18'
_cell_volume   347.23913115
_cell_formula_units_Z   2
loop_
 _symmetry_equiv_pos_site_id
 _symmetry_equiv_pos_as_xyz
  1  'x, y, z'
loop_
 _atom_site_type_symbol
 _atom_site_label
 _atom_site_symmetry_multiplicity
 _atom_site_fract_x
 _atom_site_fract_y
 _atom_site_fract_z
 _atom_site_occupancy
  Cs  Cs0  1  0.022845  0.487786  0.249607  1
  Cs  Cs1  1  0.975750  0.512566  0.749527  1
  Cu  Cu2  1  0.499228  0.000148  0.999563  1
  Cu  Cu3  1  0.498956  0.500344  0.999537  1
  Cu  Cu4  1  0.999589  0.999932  0.499682  1
  Cu  Cu5  1  0.999296  0.000159  0.999758  1
  Cu  Cu6  1  0.498950  0.500260  0.499393  1
  Cu  Cu7  1  0.499396  0.999965  0.499554  1
  F  F8  1  0.545687  0.512236  0.749830  1
  F  F9  1  0.451954  0.058182  0.249654  1
  F  F10  1  0.797219  0.298459  0.471637  1
  F  F11  1  0.204459  0.090184  0.529273  1
  F  F12  1  0.797595  0.297936  0.027629  1
  F  F13  1  0.204422  0.089909  0.969493  1
  F  F14  1  0.417426  0.290923  0.539162  1
  F  F15  1  0.581137  0.709197  0.460062  1
  F  F16  1  0.052022  0.974985  0.249805  1
  F  F17  1  0.946479  0.025491  0.749650  1
  F  F18  1  0.416871  0.291258  0.959170  1
  F  F19  1  0.581635  0.708921  0.039843  1
  F  F20  1  0.793919  0.910247  0.469976  1
  F  F21  1  0.201424  0.701879  0.527486  1
  F  F22  1  0.793971  0.910602  0.029674  1
  F  F23  1  0.201104  0.702206  0.971448  1
  F  F24  1  0.546734  0.942048  0.749561  1
  F  F25  1  0.453061  0.487962  0.249416  1
