# generated using pymatgen
data_Zr10SiAgBiPb5
_symmetry_space_group_name_H-M   'P 1'
_cell_length_a   8.85404455
_cell_length_b   8.85404504
_cell_length_c   5.98237715
_cell_angle_alpha   89.98716750
_cell_angle_beta   89.98716963
_cell_angle_gamma   119.96185732
_symmetry_Int_Tables_number   1
_chemical_formula_structural   Zr10SiAgBiPb5
_chemical_formula_sum   'Zr10 Si1 Ag1 Bi1 Pb5'
_cell_volume   406.30727638
_cell_formula_units_Z   1
loop_
 _symmetry_equiv_pos_site_id
 _symmetry_equiv_pos_as_xyz
  1  'x, y, z'
loop_
 _atom_site_type_symbol
 _atom_site_label
 _atom_site_symmetry_multiplicity
 _atom_site_fract_x
 _atom_site_fract_y
 _atom_site_fract_z
 _atom_site_occupancy
  Zr  Zr0  1  0.667043  0.333454  0.500218  1
  Zr  Zr1  1  0.333454  0.667043  0.500218  1
  Zr  Zr2  1  0.333564  0.667130  0.999754  1
  Zr  Zr3  1  0.667130  0.333564  0.999754  1
  Zr  Zr4  1  0.734030  0.734030  0.230623  1
  Zr  Zr5  1  0.265323  0.998529  0.230374  1
  Zr  Zr6  1  0.998529  0.265323  0.230374  1
  Zr  Zr7  1  0.266687  0.266687  0.769313  1
  Zr  Zr8  1  0.733374  0.000163  0.769350  1
  Zr  Zr9  1  0.000163  0.733374  0.769350  1
  Si  Si10  1  0.999886  0.999886  0.999440  1
  Ag  Ag11  1  0.999477  0.999477  0.500669  1
  Bi  Bi12  1  0.386713  0.386713  0.258216  1
  Pb  Pb13  1  0.613667  0.000042  0.257948  1
  Pb  Pb14  1  0.000042  0.613667  0.257948  1
  Pb  Pb15  1  0.614835  0.614835  0.742455  1
  Pb  Pb16  1  0.386312  0.999771  0.741998  1
  Pb  Pb17  1  0.999771  0.386312  0.741998  1
