# generated using pymatgen
data_Dy9Tm(SiSn3)2
_symmetry_space_group_name_H-M   'P 1'
_cell_length_a   9.22538200
_cell_length_b   9.22538408
_cell_length_c   6.44770600
_cell_angle_alpha   90.00000000
_cell_angle_beta   90.00000000
_cell_angle_gamma   119.99999970
_symmetry_Int_Tables_number   1
_chemical_formula_structural   Dy9Tm(SiSn3)2
_chemical_formula_sum   'Dy9 Tm1 Si2 Sn6'
_cell_volume   475.23090315
_cell_formula_units_Z   1
loop_
 _symmetry_equiv_pos_site_id
 _symmetry_equiv_pos_as_xyz
  1  'x, y, z'
loop_
 _atom_site_type_symbol
 _atom_site_label
 _atom_site_symmetry_multiplicity
 _atom_site_fract_x
 _atom_site_fract_y
 _atom_site_fract_z
 _atom_site_occupancy
  Dy  Dy0  1  0.666667  0.333333  0.000000  1
  Dy  Dy1  1  0.333333  0.666667  0.000000  1
  Dy  Dy2  1  0.333333  0.666667  0.500000  1
  Dy  Dy3  1  0.747211  0.747093  0.750133  1
  Dy  Dy4  1  0.252907  0.000117  0.750133  1
  Dy  Dy5  1  0.999883  0.252789  0.750133  1
  Dy  Dy6  1  0.252907  0.252789  0.249867  1
  Dy  Dy7  1  0.747211  0.000117  0.249867  1
  Dy  Dy8  1  0.999883  0.747093  0.249867  1
  Tm  Tm9  1  0.666667  0.333333  0.500000  1
  Si  Si10  1  0.000000  0.000000  0.000000  1
  Si  Si11  1  0.000000  0.000000  0.500000  1
  Sn  Sn12  1  0.392509  0.392194  0.749876  1
  Sn  Sn13  1  0.607806  0.000315  0.749876  1
  Sn  Sn14  1  0.999685  0.607491  0.749876  1
  Sn  Sn15  1  0.607806  0.607491  0.250124  1
  Sn  Sn16  1  0.392509  0.000315  0.250124  1
  Sn  Sn17  1  0.999685  0.392194  0.250124  1
