# generated using pymatgen
data_Ho2PaFe3(CoP)6
_symmetry_space_group_name_H-M   'P 1'
_cell_length_a   3.71473600
_cell_length_b   10.61199000
_cell_length_c   12.10491700
_cell_angle_alpha   90.00000000
_cell_angle_beta   90.00000000
_cell_angle_gamma   90.00000000
_symmetry_Int_Tables_number   1
_chemical_formula_structural   Ho2PaFe3(CoP)6
_chemical_formula_sum   'Ho4 Pa2 Fe6 Co12 P12'
_cell_volume   477.18480133
_cell_formula_units_Z   2
loop_
 _symmetry_equiv_pos_site_id
 _symmetry_equiv_pos_as_xyz
  1  'x, y, z'
loop_
 _atom_site_type_symbol
 _atom_site_label
 _atom_site_symmetry_multiplicity
 _atom_site_fract_x
 _atom_site_fract_y
 _atom_site_fract_z
 _atom_site_occupancy
  Ho  Ho0  1  0.500000  0.816953  0.204373  1
  Ho  Ho1  1  0.500000  0.183047  0.204373  1
  Ho  Ho2  1  0.000000  0.683172  0.795829  1
  Ho  Ho3  1  0.000000  0.316828  0.795829  1
  Pa  Pa4  1  0.000000  0.500000  0.528038  1
  Pa  Pa5  1  0.500000  0.000000  0.471728  1
  Fe  Fe6  1  0.000000  0.500000  0.987656  1
  Fe  Fe7  1  0.500000  0.000000  0.013092  1
  Fe  Fe8  1  0.500000  0.301430  0.430221  1
  Fe  Fe9  1  0.500000  0.698570  0.430221  1
  Fe  Fe10  1  0.500000  0.500000  0.155328  1
  Fe  Fe11  1  0.000000  0.000000  0.846049  1
  Co  Co12  1  0.000000  0.198647  0.568960  1
  Co  Co13  1  0.000000  0.801353  0.568960  1
  Co  Co14  1  0.500000  0.879621  0.710627  1
  Co  Co15  1  0.500000  0.120379  0.710627  1
  Co  Co16  1  0.000000  0.619265  0.288248  1
  Co  Co17  1  0.000000  0.380735  0.288248  1
  Co  Co18  1  0.500000  0.333110  0.994259  1
  Co  Co19  1  0.500000  0.666890  0.994259  1
  Co  Co20  1  0.000000  0.167999  0.005882  1
  Co  Co21  1  0.000000  0.832001  0.005882  1
  Co  Co22  1  0.500000  0.500000  0.697214  1
  Co  Co23  1  0.000000  0.000000  0.303552  1
  P  P24  1  0.500000  0.306053  0.615803  1
  P  P25  1  0.500000  0.693947  0.615803  1
  P  P26  1  0.000000  0.195452  0.383460  1
  P  P27  1  0.000000  0.804548  0.383460  1
  P  P28  1  0.500000  0.500000  0.882848  1
  P  P29  1  0.000000  0.000000  0.117232  1
  P  P30  1  0.500000  0.847402  0.894561  1
  P  P31  1  0.500000  0.152598  0.894561  1
  P  P32  1  0.000000  0.652235  0.105482  1
  P  P33  1  0.000000  0.347765  0.105482  1
  P  P34  1  0.500000  0.500000  0.342231  1
  P  P35  1  0.000000  0.000000  0.659626  1
