# generated using pymatgen
data_CaTh(SeO4)3
_symmetry_space_group_name_H-M   'P 1'
_cell_length_a   9.52921300
_cell_length_b   9.52918700
_cell_length_c   6.37134500
_cell_angle_alpha   90.00000000
_cell_angle_beta   90.00000000
_cell_angle_gamma   119.99997018
_symmetry_Int_Tables_number   1
_chemical_formula_structural   CaTh(SeO4)3
_chemical_formula_sum   'Ca2 Th2 Se6 O24'
_cell_volume   501.04273411
_cell_formula_units_Z   2
loop_
 _symmetry_equiv_pos_site_id
 _symmetry_equiv_pos_as_xyz
  1  'x, y, z'
loop_
 _atom_site_type_symbol
 _atom_site_label
 _atom_site_symmetry_multiplicity
 _atom_site_fract_x
 _atom_site_fract_y
 _atom_site_fract_z
 _atom_site_occupancy
  Ca  Ca0  1  0.000000  0.000000  0.000000  1
  Ca  Ca1  1  0.000000  0.000000  0.500001  1
  Th  Th2  1  0.333333  0.666666  0.250000  1
  Th  Th3  1  0.666667  0.333334  0.749999  1
  Se  Se4  1  0.706625  0.100003  0.250000  1
  Se  Se5  1  0.393376  0.293374  0.250000  1
  Se  Se6  1  0.899998  0.606623  0.250000  1
  Se  Se7  1  0.100002  0.393378  0.749999  1
  Se  Se8  1  0.606623  0.706626  0.749999  1
  Se  Se9  1  0.293375  0.899997  0.749999  1
  O  O10  1  0.786763  0.539919  0.034648  1
  O  O11  1  0.753158  0.213239  0.034648  1
  O  O12  1  0.460079  0.246841  0.034647  1
  O  O13  1  0.828305  0.018145  0.250000  1
  O  O14  1  0.189839  0.171696  0.250000  1
  O  O15  1  0.444203  0.487883  0.250000  1
  O  O16  1  0.043680  0.555797  0.250000  1
  O  O17  1  0.981855  0.810160  0.250000  1
  O  O18  1  0.512116  0.956319  0.250000  1
  O  O19  1  0.460079  0.246841  0.465352  1
  O  O20  1  0.753158  0.213239  0.465351  1
  O  O21  1  0.786763  0.539919  0.465352  1
  O  O22  1  0.213238  0.460080  0.534649  1
  O  O23  1  0.246842  0.786761  0.534649  1
  O  O24  1  0.539920  0.753158  0.534648  1
  O  O25  1  0.487884  0.043681  0.749999  1
  O  O26  1  0.018146  0.189839  0.749999  1
  O  O27  1  0.956320  0.444204  0.749999  1
  O  O28  1  0.555797  0.512117  0.749999  1
  O  O29  1  0.810161  0.828304  0.749999  1
  O  O30  1  0.171694  0.981854  0.749999  1
  O  O31  1  0.539920  0.753158  0.965353  1
  O  O32  1  0.246842  0.786761  0.965351  1
  O  O33  1  0.213238  0.460080  0.965352  1
