# generated using pymatgen
data_HfZr9Ga2Sn5Bi
_symmetry_space_group_name_H-M   'P 1'
_cell_length_a   8.75374536
_cell_length_b   8.74871066
_cell_length_c   5.89700116
_cell_angle_alpha   89.97656736
_cell_angle_beta   90.02328234
_cell_angle_gamma   119.91015688
_symmetry_Int_Tables_number   1
_chemical_formula_structural   HfZr9Ga2Sn5Bi
_chemical_formula_sum   'Hf1 Zr9 Ga2 Sn5 Bi1'
_cell_volume   391.46435517
_cell_formula_units_Z   1
loop_
 _symmetry_equiv_pos_site_id
 _symmetry_equiv_pos_as_xyz
  1  'x, y, z'
loop_
 _atom_site_type_symbol
 _atom_site_label
 _atom_site_symmetry_multiplicity
 _atom_site_fract_x
 _atom_site_fract_y
 _atom_site_fract_z
 _atom_site_occupancy
  Hf  Hf0  1  0.669740  0.332442  0.498163  1
  Zr  Zr1  1  0.736605  0.736156  0.750426  1
  Zr  Zr2  1  0.264802  0.995197  0.750292  1
  Zr  Zr3  1  0.994018  0.264319  0.750256  1
  Zr  Zr4  1  0.266811  0.266350  0.249758  1
  Zr  Zr5  1  0.732962  0.000488  0.249738  1
  Zr  Zr6  1  0.999481  0.732510  0.249699  1
  Zr  Zr7  1  0.669040  0.332553  0.001448  1
  Zr  Zr8  1  0.332488  0.669248  0.001581  1
  Zr  Zr9  1  0.332521  0.669163  0.498487  1
  Ga  Ga10  1  0.000462  0.000467  0.001174  1
  Ga  Ga11  1  0.000452  0.000463  0.498836  1
  Sn  Sn12  1  0.610683  0.999509  0.749705  1
  Sn  Sn13  1  0.998697  0.610359  0.749706  1
  Sn  Sn14  1  0.612541  0.612068  0.250410  1
  Sn  Sn15  1  0.388825  0.001518  0.250370  1
  Sn  Sn16  1  0.000688  0.388405  0.250284  1
  Bi  Bi17  1  0.389183  0.388783  0.749669  1
