# generated using pymatgen
data_Er12Al(FePd)2
_symmetry_space_group_name_H-M   'P 1'
_cell_length_a   8.20102507
_cell_length_b   8.20102446
_cell_length_c   8.20102492
_cell_angle_alpha   111.23280122
_cell_angle_beta   107.23360787
_cell_angle_gamma   109.97276304
_symmetry_Int_Tables_number   1
_chemical_formula_structural   Er12Al(FePd)2
_chemical_formula_sum   'Er12 Al1 Fe2 Pd2'
_cell_volume   424.06563102
_cell_formula_units_Z   1
loop_
 _symmetry_equiv_pos_site_id
 _symmetry_equiv_pos_as_xyz
  1  'x, y, z'
loop_
 _atom_site_type_symbol
 _atom_site_label
 _atom_site_symmetry_multiplicity
 _atom_site_fract_x
 _atom_site_fract_y
 _atom_site_fract_z
 _atom_site_occupancy
  Er  Er0  1  0.308249  0.307578  0.615824  1
  Er  Er1  1  0.691751  0.692422  0.384176  1
  Er  Er2  1  0.308249  0.692422  0.000671  1
  Er  Er3  1  0.691751  0.307578  0.999329  1
  Er  Er4  1  0.419001  0.193226  0.225775  1
  Er  Er5  1  0.580999  0.806774  0.774225  1
  Er  Er6  1  0.967451  0.193226  0.774225  1
  Er  Er7  1  0.199023  0.923185  0.724163  1
  Er  Er8  1  0.032549  0.806774  0.225775  1
  Er  Er9  1  0.800977  0.076815  0.275837  1
  Er  Er10  1  0.199023  0.474859  0.275837  1
  Er  Er11  1  0.800977  0.525141  0.724163  1
  Al  Al12  1  0.500000  0.000000  0.500000  1
  Fe  Fe13  1  0.383567  0.383567  0.000000  1
  Fe  Fe14  1  0.616433  0.616433  0.000000  1
  Pd  Pd15  1  0.000000  0.000000  0.000000  1
  Pd  Pd16  1  0.000000  0.500000  0.500000  1
