# generated using pymatgen
data_Ac3SbTe3
_symmetry_space_group_name_H-M   'P 1'
_cell_length_a   8.65755417
_cell_length_b   8.66127873
_cell_length_c   8.65568632
_cell_angle_alpha   109.49859047
_cell_angle_beta   109.48114930
_cell_angle_gamma   109.45138584
_symmetry_Int_Tables_number   1
_chemical_formula_structural   Ac3SbTe3
_chemical_formula_sum   'Ac6 Sb2 Te6'
_cell_volume   499.53181929
_cell_formula_units_Z   2
loop_
 _symmetry_equiv_pos_site_id
 _symmetry_equiv_pos_as_xyz
  1  'x, y, z'
loop_
 _atom_site_type_symbol
 _atom_site_label
 _atom_site_symmetry_multiplicity
 _atom_site_fract_x
 _atom_site_fract_y
 _atom_site_fract_z
 _atom_site_occupancy
  Ac  Ac0  1  0.863938  0.115738  0.740411  1
  Ac  Ac1  1  0.382361  0.252474  0.620273  1
  Ac  Ac2  1  0.123318  0.751145  0.878197  1
  Ac  Ac3  1  0.745121  0.872948  0.121803  1
  Ac  Ac4  1  0.262088  0.632201  0.379727  1
  Ac  Ac5  1  0.623528  0.375328  0.259589  1
  Sb  Sb6  1  0.658115  0.657721  0.660068  1
  Sb  Sb7  1  0.498047  0.997652  0.339932  1
  Te  Te8  1  0.002721  0.349267  0.501178  1
  Te  Te9  1  0.344831  0.494370  0.996975  1
  Te  Te10  1  0.001542  0.848089  0.498822  1
  Te  Te11  1  0.847856  0.497395  0.003025  1
  Te  Te12  1  0.149262  0.153830  0.151991  1
  Te  Te13  1  0.497272  0.001840  0.848009  1
