# generated using pymatgen
data_TbY(ZrIr)2
_symmetry_space_group_name_H-M   'P 1'
_cell_length_a   4.56277100
_cell_length_b   7.14791900
_cell_length_c   8.35059900
_cell_angle_alpha   90.00000000
_cell_angle_beta   90.00000000
_cell_angle_gamma   90.00000000
_symmetry_Int_Tables_number   1
_chemical_formula_structural   TbY(ZrIr)2
_chemical_formula_sum   'Tb2 Y2 Zr4 Ir4'
_cell_volume   272.34908730
_cell_formula_units_Z   2
loop_
 _symmetry_equiv_pos_site_id
 _symmetry_equiv_pos_as_xyz
  1  'x, y, z'
loop_
 _atom_site_type_symbol
 _atom_site_label
 _atom_site_symmetry_multiplicity
 _atom_site_fract_x
 _atom_site_fract_y
 _atom_site_fract_z
 _atom_site_occupancy
  Tb  Tb0  1  0.250000  0.984321  0.323984  1
  Tb  Tb1  1  0.250000  0.484321  0.176016  1
  Y  Y2  1  0.750000  0.015495  0.677037  1
  Y  Y3  1  0.750000  0.515495  0.822963  1
  Zr  Zr4  1  0.250000  0.357398  0.575017  1
  Zr  Zr5  1  0.250000  0.857398  0.924983  1
  Zr  Zr6  1  0.750000  0.642413  0.425524  1
  Zr  Zr7  1  0.750000  0.142413  0.074476  1
  Ir  Ir8  1  0.250000  0.231362  0.908051  1
  Ir  Ir9  1  0.250000  0.731362  0.591949  1
  Ir  Ir10  1  0.750000  0.769009  0.092422  1
  Ir  Ir11  1  0.750000  0.269009  0.407578  1
