# generated using pymatgen
data_Dy6Er10Cd4Ir3Ru
_symmetry_space_group_name_H-M   'P 1'
_cell_length_a   9.58625657
_cell_length_b   9.58625692
_cell_length_c   9.58625597
_cell_angle_alpha   59.77168804
_cell_angle_beta   59.77168555
_cell_angle_gamma   59.77169304
_symmetry_Int_Tables_number   1
_chemical_formula_structural   Dy6Er10Cd4Ir3Ru
_chemical_formula_sum   'Dy6 Er10 Cd4 Ir3 Ru1'
_cell_volume   619.69072919
_cell_formula_units_Z   1
loop_
 _symmetry_equiv_pos_site_id
 _symmetry_equiv_pos_as_xyz
  1  'x, y, z'
loop_
 _atom_site_type_symbol
 _atom_site_label
 _atom_site_symmetry_multiplicity
 _atom_site_fract_x
 _atom_site_fract_y
 _atom_site_fract_z
 _atom_site_occupancy
  Dy  Dy0  1  0.188957  0.811440  0.811440  1
  Dy  Dy1  1  0.809776  0.188674  0.188674  1
  Dy  Dy2  1  0.811440  0.188957  0.811440  1
  Dy  Dy3  1  0.188674  0.809776  0.188674  1
  Dy  Dy4  1  0.811440  0.811440  0.188957  1
  Dy  Dy5  1  0.188674  0.188674  0.809776  1
  Er  Er6  1  0.598609  0.598609  0.598609  1
  Er  Er7  1  0.598451  0.598451  0.205873  1
  Er  Er8  1  0.598451  0.205873  0.598451  1
  Er  Er9  1  0.205873  0.598451  0.598451  1
  Er  Er10  1  0.062062  0.438453  0.438453  1
  Er  Er11  1  0.438021  0.060698  0.060698  1
  Er  Er12  1  0.438453  0.062062  0.438453  1
  Er  Er13  1  0.060698  0.438021  0.060698  1
  Er  Er14  1  0.438453  0.438453  0.062062  1
  Er  Er15  1  0.060698  0.060698  0.438021  1
  Cd  Cd16  1  0.830019  0.830019  0.830019  1
  Cd  Cd17  1  0.830640  0.830640  0.507180  1
  Cd  Cd18  1  0.830640  0.507180  0.830640  1
  Cd  Cd19  1  0.507180  0.830640  0.830640  1
  Ir  Ir20  1  0.392828  0.392828  0.826031  1
  Ir  Ir21  1  0.392828  0.826031  0.392828  1
  Ir  Ir22  1  0.826031  0.392828  0.392828  1
  Ru  Ru23  1  0.391102  0.391102  0.391102  1
