# generated using pymatgen
data_Li(Np5Se8)2
_symmetry_space_group_name_H-M   'P 1'
_cell_length_a   8.71367000
_cell_length_b   8.71367000
_cell_length_c   8.71513100
_cell_angle_alpha   90.00000000
_cell_angle_beta   90.00000000
_cell_angle_gamma   90.00000000
_symmetry_Int_Tables_number   1
_chemical_formula_structural   Li(Np5Se8)2
_chemical_formula_sum   'Li1 Np10 Se16'
_cell_volume   661.72285761
_cell_formula_units_Z   1
loop_
 _symmetry_equiv_pos_site_id
 _symmetry_equiv_pos_as_xyz
  1  'x, y, z'
loop_
 _atom_site_type_symbol
 _atom_site_label
 _atom_site_symmetry_multiplicity
 _atom_site_fract_x
 _atom_site_fract_y
 _atom_site_fract_z
 _atom_site_occupancy
  Li  Li0  1  0.000000  0.000000  0.500000  1
  Np  Np1  1  0.250673  0.627532  0.366195  1
  Np  Np2  1  0.000000  0.500000  0.747844  1
  Np  Np3  1  0.372468  0.250673  0.633805  1
  Np  Np4  1  0.749327  0.372468  0.366195  1
  Np  Np5  1  0.128127  0.254862  0.126029  1
  Np  Np6  1  0.745138  0.128127  0.873971  1
  Np  Np7  1  0.500000  0.000000  0.252156  1
  Np  Np8  1  0.871873  0.745138  0.126029  1
  Np  Np9  1  0.254862  0.871873  0.873971  1
  Np  Np10  1  0.627532  0.749327  0.633805  1
  Se  Se11  1  0.578774  0.679600  0.311453  1
  Se  Se12  1  0.172711  0.577560  0.045556  1
  Se  Se13  1  0.927479  0.675408  0.450613  1
  Se  Se14  1  0.072521  0.324592  0.450613  1
  Se  Se15  1  0.421226  0.320400  0.311453  1
  Se  Se16  1  0.320400  0.578774  0.688547  1
  Se  Se17  1  0.827289  0.422440  0.045556  1
  Se  Se18  1  0.074484  0.177509  0.806700  1
  Se  Se19  1  0.679600  0.421226  0.688547  1
  Se  Se20  1  0.675408  0.072521  0.549387  1
  Se  Se21  1  0.422440  0.172711  0.954444  1
  Se  Se22  1  0.577560  0.827289  0.954444  1
  Se  Se23  1  0.925516  0.822491  0.806700  1
  Se  Se24  1  0.822491  0.074484  0.193300  1
  Se  Se25  1  0.324592  0.927479  0.549387  1
  Se  Se26  1  0.177509  0.925516  0.193300  1
