# generated using pymatgen
data_Li2Y3Ho3(Co4P3)4
_symmetry_space_group_name_H-M   'P 1'
_cell_length_a   3.71920500
_cell_length_b   10.58280202
_cell_length_c   12.20113002
_cell_angle_alpha   90.00697103
_cell_angle_beta   90.00000000
_cell_angle_gamma   90.00000000
_symmetry_Int_Tables_number   1
_chemical_formula_structural   Li2Y3Ho3(Co4P3)4
_chemical_formula_sum   'Li2 Y3 Ho3 Co16 P12'
_cell_volume   480.23171795
_cell_formula_units_Z   1
loop_
 _symmetry_equiv_pos_site_id
 _symmetry_equiv_pos_as_xyz
  1  'x, y, z'
loop_
 _atom_site_type_symbol
 _atom_site_label
 _atom_site_symmetry_multiplicity
 _atom_site_fract_x
 _atom_site_fract_y
 _atom_site_fract_z
 _atom_site_occupancy
  Li  Li0  1  0.500000  0.499975  0.152714  1
  Li  Li1  1  0.000000  0.999961  0.847380  1
  Y  Y2  1  0.000000  0.499939  0.522539  1
  Y  Y3  1  0.500000  0.000069  0.477183  1
  Y  Y4  1  0.000000  0.319502  0.793958  1
  Ho  Ho5  1  0.500000  0.819635  0.206128  1
  Ho  Ho6  1  0.500000  0.180428  0.206147  1
  Ho  Ho7  1  0.000000  0.680423  0.793908  1
  Co  Co8  1  0.500000  0.500703  0.704702  1
  Co  Co9  1  0.000000  0.999983  0.295029  1
  Co  Co10  1  0.000000  0.500185  0.987361  1
  Co  Co11  1  0.500000  0.999761  0.013077  1
  Co  Co12  1  0.500000  0.332952  0.997118  1
  Co  Co13  1  0.500000  0.667291  0.996960  1
  Co  Co14  1  0.000000  0.166891  0.003470  1
  Co  Co15  1  0.000000  0.832899  0.003191  1
  Co  Co16  1  0.500000  0.296475  0.430809  1
  Co  Co17  1  0.500000  0.703559  0.430962  1
  Co  Co18  1  0.000000  0.203399  0.568683  1
  Co  Co19  1  0.000000  0.796443  0.569010  1
  Co  Co20  1  0.500000  0.878359  0.707048  1
  Co  Co21  1  0.500000  0.121152  0.706760  1
  Co  Co22  1  0.000000  0.621534  0.292951  1
  Co  Co23  1  0.000000  0.378422  0.292915  1
  P  P24  1  0.500000  0.500519  0.885270  1
  P  P25  1  0.000000  0.999945  0.115033  1
  P  P26  1  0.500000  0.499993  0.345498  1
  P  P27  1  0.000000  0.999990  0.654399  1
  P  P28  1  0.500000  0.309598  0.615764  1
  P  P29  1  0.500000  0.690499  0.616229  1
  P  P30  1  0.000000  0.190400  0.383583  1
  P  P31  1  0.000000  0.809587  0.383687  1
  P  P32  1  0.500000  0.843034  0.893430  1
  P  P33  1  0.500000  0.156420  0.893816  1
  P  P34  1  0.000000  0.657032  0.106675  1
  P  P35  1  0.000000  0.343042  0.106612  1
