# generated using pymatgen
data_PrDyHo4Ta2O14
_symmetry_space_group_name_H-M   'P 1'
_cell_length_a   6.50118844
_cell_length_b   6.50118876
_cell_length_c   7.53310603
_cell_angle_alpha   89.87740966
_cell_angle_beta   90.12259198
_cell_angle_gamma   108.74111654
_symmetry_Int_Tables_number   1
_chemical_formula_structural   PrDyHo4Ta2O14
_chemical_formula_sum   'Pr1 Dy1 Ho4 Ta2 O14'
_cell_volume   301.50803606
_cell_formula_units_Z   1
loop_
 _symmetry_equiv_pos_site_id
 _symmetry_equiv_pos_as_xyz
  1  'x, y, z'
loop_
 _atom_site_type_symbol
 _atom_site_label
 _atom_site_symmetry_multiplicity
 _atom_site_fract_x
 _atom_site_fract_y
 _atom_site_fract_z
 _atom_site_occupancy
  Pr  Pr0  1  0.515332  0.515332  0.500000  1
  Dy  Dy1  1  0.460639  0.460639  0.000000  1
  Ho  Ho2  1  0.999892  0.534671  0.239572  1
  Ho  Ho3  1  0.998401  0.466019  0.746093  1
  Ho  Ho4  1  0.534671  0.999892  0.760428  1
  Ho  Ho5  1  0.466019  0.998401  0.253907  1
  Ta  Ta6  1  0.001426  0.001426  0.500000  1
  Ta  Ta7  1  0.997086  0.997086  0.000000  1
  O  O8  1  0.932688  0.067554  0.749598  1
  O  O9  1  0.067554  0.932688  0.250402  1
  O  O10  1  0.357383  0.642839  0.238994  1
  O  O11  1  0.642839  0.357383  0.761006  1
  O  O12  1  0.365872  0.632970  0.760727  1
  O  O13  1  0.632970  0.365872  0.239273  1
  O  O14  1  0.327133  0.080720  0.974517  1
  O  O15  1  0.674666  0.926063  0.473095  1
  O  O16  1  0.314329  0.060124  0.542116  1
  O  O17  1  0.692272  0.951919  0.042945  1
  O  O18  1  0.060124  0.314329  0.457884  1
  O  O19  1  0.951919  0.692272  0.957055  1
  O  O20  1  0.926063  0.674666  0.526905  1
  O  O21  1  0.080720  0.327133  0.025483  1
