# generated using pymatgen
data_Ba6ErLu3(ReO9)2
_symmetry_space_group_name_H-M   'P 1'
_cell_length_a   5.99744194
_cell_length_b   8.51711867
_cell_length_c   10.39773621
_cell_angle_alpha   65.82079255
_cell_angle_beta   73.23756091
_cell_angle_gamma   90.00083893
_symmetry_Int_Tables_number   1
_chemical_formula_structural   Ba6ErLu3(ReO9)2
_chemical_formula_sum   'Ba6 Er1 Lu3 Re2 O18'
_cell_volume   459.67840665
_cell_formula_units_Z   1
loop_
 _symmetry_equiv_pos_site_id
 _symmetry_equiv_pos_as_xyz
  1  'x, y, z'
loop_
 _atom_site_type_symbol
 _atom_site_label
 _atom_site_symmetry_multiplicity
 _atom_site_fract_x
 _atom_site_fract_y
 _atom_site_fract_z
 _atom_site_occupancy
  Ba  Ba0  1  0.500003  0.265430  0.999953  1
  Ba  Ba1  1  0.838967  0.579820  0.322062  1
  Ba  Ba2  1  0.161000  0.901955  0.678020  1
  Ba  Ba3  1  0.500047  0.734638  0.999930  1
  Ba  Ba4  1  0.838981  0.098103  0.322033  1
  Ba  Ba5  1  0.160981  0.420039  0.678015  1
  Er  Er6  1  0.000021  0.000027  0.999948  1
  Lu  Lu7  1  0.330119  0.330090  0.339786  1
  Lu  Lu8  1  0.669853  0.669884  0.660256  1
  Lu  Lu9  1  0.000000  0.500007  0.999990  1
  Re  Re10  1  0.333287  0.833273  0.333383  1
  Re  Re11  1  0.666717  0.166730  0.666613  1
  O  O12  1  0.000005  0.248682  0.000016  1
  O  O13  1  0.330696  0.598815  0.338628  1
  O  O14  1  0.669297  0.937284  0.661374  1
  O  O15  1  0.162378  0.411417  0.177127  1
  O  O16  1  0.491161  0.758580  0.482783  1
  O  O17  1  0.818849  0.089790  0.820466  1
  O  O18  1  0.339460  0.588573  0.822886  1
  O  O19  1  0.639123  0.910173  0.179618  1
  O  O20  1  0.974105  0.241457  0.517140  1
  O  O21  1  0.000004  0.751303  0.000017  1
  O  O22  1  0.330717  0.062545  0.338599  1
  O  O23  1  0.669311  0.401386  0.661359  1
  O  O24  1  0.837616  0.588568  0.822889  1
  O  O25  1  0.181276  0.910178  0.179612  1
  O  O26  1  0.508754  0.241453  0.517138  1
  O  O27  1  0.660510  0.411420  0.177123  1
  O  O28  1  0.026024  0.758576  0.482792  1
  O  O29  1  0.360740  0.089802  0.820444  1
