# generated using pymatgen
data_Ba4Pr7SmV8O28
_symmetry_space_group_name_H-M   'P 1'
_cell_length_a   5.69345675
_cell_length_b   5.69345695
_cell_length_c   20.40604067
_cell_angle_alpha   89.84396004
_cell_angle_beta   89.84395961
_cell_angle_gamma   89.74283499
_symmetry_Int_Tables_number   1
_chemical_formula_structural   Ba4Pr7SmV8O28
_chemical_formula_sum   'Ba4 Pr7 Sm1 V8 O28'
_cell_volume   661.45946297
_cell_formula_units_Z   1
loop_
 _symmetry_equiv_pos_site_id
 _symmetry_equiv_pos_as_xyz
  1  'x, y, z'
loop_
 _atom_site_type_symbol
 _atom_site_label
 _atom_site_symmetry_multiplicity
 _atom_site_fract_x
 _atom_site_fract_y
 _atom_site_fract_z
 _atom_site_occupancy
  Ba  Ba0  1  0.253064  0.253064  0.000832  1
  Ba  Ba1  1  0.745720  0.745720  0.000640  1
  Ba  Ba2  1  0.752983  0.247765  0.499421  1
  Ba  Ba3  1  0.247765  0.752983  0.499421  1
  Pr  Pr4  1  0.733153  0.733153  0.182392  1
  Pr  Pr5  1  0.768790  0.232321  0.316386  1
  Pr  Pr6  1  0.232321  0.768790  0.316386  1
  Pr  Pr7  1  0.768115  0.231471  0.682525  1
  Pr  Pr8  1  0.231471  0.768115  0.682525  1
  Pr  Pr9  1  0.266934  0.266934  0.817915  1
  Pr  Pr10  1  0.730133  0.730133  0.817742  1
  Sm  Sm11  1  0.275254  0.275254  0.181645  1
  V  V12  1  0.754134  0.248803  0.101699  1
  V  V13  1  0.248803  0.754134  0.101699  1
  V  V14  1  0.252261  0.252261  0.397790  1
  V  V15  1  0.748186  0.748186  0.398839  1
  V  V16  1  0.252344  0.252344  0.600274  1
  V  V17  1  0.748176  0.748176  0.600986  1
  V  V18  1  0.751147  0.246269  0.899775  1
  V  V19  1  0.246269  0.751147  0.899775  1
  O  O20  1  0.770563  0.228072  0.000887  1
  O  O21  1  0.228072  0.770563  0.000887  1
  O  O22  1  0.500452  0.500452  0.096863  1
  O  O23  1  0.498914  0.002829  0.110664  1
  O  O24  1  0.002829  0.498914  0.110664  1
  O  O25  1  0.005137  0.005137  0.124476  1
  O  O26  1  0.694820  0.295197  0.205846  1
  O  O27  1  0.295197  0.694820  0.205846  1
  O  O28  1  0.204771  0.204771  0.290472  1
  O  O29  1  0.794400  0.794400  0.293735  1
  O  O30  1  0.498470  0.498470  0.377575  1
  O  O31  1  0.500358  0.000166  0.389951  1
  O  O32  1  0.000166  0.500358  0.389951  1
  O  O33  1  0.002495  0.002495  0.402197  1
  O  O34  1  0.270479  0.270479  0.500439  1
  O  O35  1  0.730501  0.730501  0.498553  1
  O  O36  1  0.998694  0.998694  0.596804  1
  O  O37  1  0.500083  0.000465  0.609064  1
  O  O38  1  0.000465  0.500083  0.609064  1
  O  O39  1  0.501493  0.501493  0.621645  1
  O  O40  1  0.205320  0.205320  0.706172  1
  O  O41  1  0.794374  0.794374  0.706407  1
  O  O42  1  0.705254  0.294163  0.794234  1
  O  O43  1  0.294163  0.705254  0.794234  1
  O  O44  1  0.998527  0.998527  0.878420  1
  O  O45  1  0.499522  0.998530  0.891298  1
  O  O46  1  0.998530  0.499522  0.891298  1
  O  O47  1  0.498918  0.498918  0.903691  1
