# generated using pymatgen
data_Tb2HoNbIn2Ir3
_symmetry_space_group_name_H-M   'P 1'
_cell_length_a   7.34152795
_cell_length_b   7.06099736
_cell_length_c   4.26249200
_cell_angle_alpha   90.00000000
_cell_angle_beta   90.00000000
_cell_angle_gamma   118.74380590
_symmetry_Int_Tables_number   1
_chemical_formula_structural   Tb2HoNbIn2Ir3
_chemical_formula_sum   'Tb2 Ho1 Nb1 In2 Ir3'
_cell_volume   193.73411260
_cell_formula_units_Z   1
loop_
 _symmetry_equiv_pos_site_id
 _symmetry_equiv_pos_as_xyz
  1  'x, y, z'
loop_
 _atom_site_type_symbol
 _atom_site_label
 _atom_site_symmetry_multiplicity
 _atom_site_fract_x
 _atom_site_fract_y
 _atom_site_fract_z
 _atom_site_occupancy
  Tb  Tb0  1  0.587880  0.586168  0.000000  1
  Tb  Tb1  1  0.412120  0.998288  0.000000  1
  Ho  Ho2  1  0.000000  0.403285  0.000000  1
  Nb  Nb3  1  0.000000  0.752745  0.500000  1
  In  In4  1  0.249226  0.251063  0.500000  1
  In  In5  1  0.750774  0.001837  0.500000  1
  Ir  Ir6  1  0.000000  0.963349  0.000000  1
  Ir  Ir7  1  0.686813  0.365039  0.500000  1
  Ir  Ir8  1  0.313187  0.678227  0.500000  1
