# generated using pymatgen
data_Pr18Nd2Si15Tc
_symmetry_space_group_name_H-M   'P 1'
_cell_length_a   7.94029983
_cell_length_b   7.93940870
_cell_length_c   15.28849169
_cell_angle_alpha   90.22079765
_cell_angle_beta   89.92753830
_cell_angle_gamma   90.06928004
_symmetry_Int_Tables_number   1
_chemical_formula_structural   Pr18Nd2Si15Tc
_chemical_formula_sum   'Pr18 Nd2 Si15 Tc1'
_cell_volume   963.79754406
_cell_formula_units_Z   1
loop_
 _symmetry_equiv_pos_site_id
 _symmetry_equiv_pos_as_xyz
  1  'x, y, z'
loop_
 _atom_site_type_symbol
 _atom_site_label
 _atom_site_symmetry_multiplicity
 _atom_site_fract_x
 _atom_site_fract_y
 _atom_site_fract_z
 _atom_site_occupancy
  Pr  Pr0  1  0.822780  0.190122  0.748743  1
  Pr  Pr1  1  0.695492  0.689845  0.502414  1
  Pr  Pr2  1  0.371061  0.011764  0.451114  1
  Pr  Pr3  1  0.483903  0.882248  0.696168  1
  Pr  Pr4  1  0.510619  0.123585  0.199077  1
  Pr  Pr5  1  0.876187  0.488891  0.300661  1
  Pr  Pr6  1  0.128181  0.503405  0.798363  1
  Pr  Pr7  1  0.626019  0.988355  0.949182  1
  Pr  Pr8  1  0.008152  0.377273  0.551251  1
  Pr  Pr9  1  0.988704  0.625484  0.050689  1
  Pr  Pr10  1  0.131595  0.983124  0.872499  1
  Pr  Pr11  1  0.516544  0.629476  0.126376  1
  Pr  Pr12  1  0.472088  0.360914  0.628521  1
  Pr  Pr13  1  0.627682  0.515757  0.875130  1
  Pr  Pr14  1  0.374802  0.483656  0.373739  1
  Pr  Pr15  1  0.873185  0.019740  0.376229  1
  Pr  Pr16  1  0.982698  0.127081  0.124634  1
  Pr  Pr17  1  0.025312  0.881047  0.627374  1
  Nd  Nd18  1  0.307090  0.305883  0.997864  1
  Nd  Nd19  1  0.191749  0.809762  0.250070  1
  Si  Si20  1  0.332903  0.694241  0.951649  1
  Si  Si21  1  0.664783  0.301590  0.450730  1
  Si  Si22  1  0.696568  0.333659  0.050355  1
  Si  Si23  1  0.303294  0.668509  0.547083  1
  Si  Si24  1  0.805995  0.831873  0.202709  1
  Si  Si25  1  0.168259  0.197095  0.298239  1
  Si  Si26  1  0.831182  0.801741  0.800189  1
  Si  Si27  1  0.288412  0.922563  0.058962  1
  Si  Si28  1  0.579013  0.787644  0.310373  1
  Si  Si29  1  0.421136  0.211219  0.812567  1
  Si  Si30  1  0.779196  0.582909  0.691962  1
  Si  Si31  1  0.212032  0.422417  0.189969  1
  Si  Si32  1  0.705342  0.075407  0.558250  1
  Si  Si33  1  0.921024  0.287826  0.941874  1
  Si  Si34  1  0.079445  0.714804  0.440060  1
  Tc  Tc35  1  0.197572  0.169087  0.694929  1
