# generated using pymatgen
data_Sm4Ga18(PdRh)3
_symmetry_space_group_name_H-M   'P 1'
_cell_length_a   7.66969295
_cell_length_b   7.66969292
_cell_length_c   9.61355617
_cell_angle_alpha   89.97168102
_cell_angle_beta   89.97168060
_cell_angle_gamma   119.92250239
_symmetry_Int_Tables_number   1
_chemical_formula_structural   Sm4Ga18(PdRh)3
_chemical_formula_sum   'Sm4 Ga18 Pd3 Rh3'
_cell_volume   490.12748878
_cell_formula_units_Z   1
loop_
 _symmetry_equiv_pos_site_id
 _symmetry_equiv_pos_as_xyz
  1  'x, y, z'
loop_
 _atom_site_type_symbol
 _atom_site_label
 _atom_site_symmetry_multiplicity
 _atom_site_fract_x
 _atom_site_fract_y
 _atom_site_fract_z
 _atom_site_occupancy
  Sm  Sm0  1  0.998462  0.667635  0.249398  1
  Sm  Sm1  1  0.004082  0.334328  0.750818  1
  Sm  Sm2  1  0.665672  0.995918  0.249182  1
  Sm  Sm3  1  0.332365  0.001538  0.750602  1
  Ga  Ga4  1  0.125191  0.126317  0.250237  1
  Ga  Ga5  1  0.873683  0.874809  0.749763  1
  Ga  Ga6  1  0.001042  0.330614  0.078898  1
  Ga  Ga7  1  0.998686  0.669287  0.920712  1
  Ga  Ga8  1  0.996004  0.665842  0.577397  1
  Ga  Ga9  1  0.334158  0.003996  0.422603  1
  Ga  Ga10  1  0.996284  0.330370  0.423090  1
  Ga  Ga11  1  0.669630  0.003716  0.576910  1
  Ga  Ga12  1  0.669386  0.998958  0.921102  1
  Ga  Ga13  1  0.330713  0.001314  0.079288  1
  Ga  Ga14  1  0.332690  0.329618  0.561720  1
  Ga  Ga15  1  0.670382  0.667310  0.438280  1
  Ga  Ga16  1  0.669181  0.669018  0.064281  1
  Ga  Ga17  1  0.330982  0.330819  0.935719  1
  Ga  Ga18  1  0.339552  0.542668  0.250557  1
  Ga  Ga19  1  0.659972  0.454782  0.746833  1
  Ga  Ga20  1  0.545218  0.340028  0.253167  1
  Ga  Ga21  1  0.457332  0.660448  0.749443  1
  Pd  Pd22  1  0.670920  0.329080  0.000000  1
  Pd  Pd23  1  0.329111  0.670889  0.000000  1
  Pd  Pd24  1  0.328564  0.671436  0.500000  1
  Rh  Rh25  1  0.670453  0.329547  0.500000  1
  Rh  Rh26  1  0.000280  0.999720  0.000000  1
  Rh  Rh27  1  0.000007  0.999993  0.500000  1
