# generated using pymatgen
data_CeErSi2PtRh3
_symmetry_space_group_name_H-M   'P 1'
_cell_length_a   9.25858022
_cell_length_b   9.25857991
_cell_length_c   4.06288500
_cell_angle_alpha   90.00000000
_cell_angle_beta   90.00000000
_cell_angle_gamma   155.21241714
_symmetry_Int_Tables_number   1
_chemical_formula_structural   CeErSi2PtRh3
_chemical_formula_sum   'Ce1 Er1 Si2 Pt1 Rh3'
_cell_volume   146.01649017
_cell_formula_units_Z   1
loop_
 _symmetry_equiv_pos_site_id
 _symmetry_equiv_pos_as_xyz
  1  'x, y, z'
loop_
 _atom_site_type_symbol
 _atom_site_label
 _atom_site_symmetry_multiplicity
 _atom_site_fract_x
 _atom_site_fract_y
 _atom_site_fract_z
 _atom_site_occupancy
  Ce  Ce0  1  0.902294  0.097706  0.250000  1
  Er  Er1  1  0.103906  0.896094  0.750000  1
  Si  Si2  1  0.320193  0.679807  0.750000  1
  Si  Si3  1  0.678342  0.321658  0.250000  1
  Pt  Pt4  1  0.548306  0.451694  0.250000  1
  Rh  Rh5  1  0.450778  0.549222  0.750000  1
  Rh  Rh6  1  0.248646  0.751354  0.250000  1
  Rh  Rh7  1  0.747536  0.252464  0.750000  1
