# generated using pymatgen
data_LaPr3As3O4
_symmetry_space_group_name_H-M   'P 1'
_cell_length_a   7.23032284
_cell_length_b   7.23032335
_cell_length_c   8.18425300
_cell_angle_alpha   90.00000000
_cell_angle_beta   90.00000000
_cell_angle_gamma   146.94994384
_symmetry_Int_Tables_number   1
_chemical_formula_structural   LaPr3As3O4
_chemical_formula_sum   'La1 Pr3 As3 O4'
_cell_volume   233.33877636
_cell_formula_units_Z   1
loop_
 _symmetry_equiv_pos_site_id
 _symmetry_equiv_pos_as_xyz
  1  'x, y, z'
loop_
 _atom_site_type_symbol
 _atom_site_label
 _atom_site_symmetry_multiplicity
 _atom_site_fract_x
 _atom_site_fract_y
 _atom_site_fract_z
 _atom_site_occupancy
  La  La0  1  0.998196  0.001804  0.000000  1
  Pr  Pr1  1  0.320271  0.679729  0.758379  1
  Pr  Pr2  1  0.320271  0.679729  0.241621  1
  Pr  Pr3  1  0.985934  0.014066  0.500000  1
  As  As4  1  0.629896  0.370104  0.273187  1
  As  As5  1  0.629896  0.370104  0.726813  1
  As  As6  1  0.699709  0.300291  0.000000  1
  O  O7  1  0.395070  0.604930  0.500000  1
  O  O8  1  0.413037  0.586963  0.000000  1
  O  O9  1  0.904466  0.095534  0.751218  1
  O  O10  1  0.904466  0.095534  0.248782  1
