# generated using pymatgen
data_Tb2FeCo16
_symmetry_space_group_name_H-M   'P 1'
_cell_length_a   6.27626269
_cell_length_b   6.27626330
_cell_length_c   6.27626316
_cell_angle_alpha   83.07423479
_cell_angle_beta   83.07423188
_cell_angle_gamma   83.07423645
_symmetry_Int_Tables_number   1
_chemical_formula_structural   Tb2FeCo16
_chemical_formula_sum   'Tb2 Fe1 Co16'
_cell_volume   242.22176584
_cell_formula_units_Z   1
loop_
 _symmetry_equiv_pos_site_id
 _symmetry_equiv_pos_as_xyz
  1  'x, y, z'
loop_
 _atom_site_type_symbol
 _atom_site_label
 _atom_site_symmetry_multiplicity
 _atom_site_fract_x
 _atom_site_fract_y
 _atom_site_fract_z
 _atom_site_occupancy
  Tb  Tb0  1  0.655931  0.655931  0.655931  1
  Tb  Tb1  1  0.345959  0.345960  0.345960  1
  Fe  Fe2  1  0.096043  0.096043  0.096043  1
  Co  Co3  1  0.346603  0.346603  0.849685  1
  Co  Co4  1  0.849685  0.346603  0.346603  1
  Co  Co5  1  0.346603  0.849685  0.346603  1
  Co  Co6  1  0.654457  0.654457  0.150931  1
  Co  Co7  1  0.150931  0.654457  0.654457  1
  Co  Co8  1  0.654457  0.150931  0.654457  1
  Co  Co9  1  0.710543  0.289090  0.999204  1
  Co  Co10  1  0.999204  0.710543  0.289090  1
  Co  Co11  1  0.289090  0.999204  0.710543  1
  Co  Co12  1  0.999204  0.289090  0.710543  1
  Co  Co13  1  0.710543  0.999204  0.289090  1
  Co  Co14  1  0.289090  0.710543  0.999204  1
  Co  Co15  1  0.998869  0.998869  0.501759  1
  Co  Co16  1  0.501759  0.998869  0.998869  1
  Co  Co17  1  0.998869  0.501759  0.998869  1
  Co  Co18  1  0.902157  0.902157  0.902157  1
