# generated using pymatgen
data_DyHo6CoI12
_symmetry_space_group_name_H-M   'P 1'
_cell_length_a   9.72871890
_cell_length_b   9.72768128
_cell_length_c   9.72339222
_cell_angle_alpha   106.76706095
_cell_angle_beta   106.88613268
_cell_angle_gamma   106.81840851
_symmetry_Int_Tables_number   1
_chemical_formula_structural   DyHo6CoI12
_chemical_formula_sum   'Dy1 Ho6 Co1 I12'
_cell_volume   770.00413406
_cell_formula_units_Z   1
loop_
 _symmetry_equiv_pos_site_id
 _symmetry_equiv_pos_as_xyz
  1  'x, y, z'
loop_
 _atom_site_type_symbol
 _atom_site_label
 _atom_site_symmetry_multiplicity
 _atom_site_fract_x
 _atom_site_fract_y
 _atom_site_fract_z
 _atom_site_occupancy
  Dy  Dy0  1  0.711697  0.979044  0.908127  1
  Ho  Ho1  1  0.500342  0.500009  0.500170  1
  Ho  Ho2  1  0.021193  0.091078  0.285723  1
  Ho  Ho3  1  0.091566  0.285748  0.020975  1
  Ho  Ho4  1  0.285464  0.020962  0.091293  1
  Ho  Ho5  1  0.978567  0.908854  0.714154  1
  Ho  Ho6  1  0.909188  0.714345  0.979137  1
  Co  Co7  1  0.999243  0.000000  0.999726  1
  I  I8  1  0.161730  0.462446  0.385775  1
  I  I9  1  0.462851  0.385770  0.161497  1
  I  I10  1  0.386018  0.161451  0.462809  1
  I  I11  1  0.838931  0.537591  0.614259  1
  I  I12  1  0.537447  0.612514  0.838659  1
  I  I13  1  0.614195  0.837778  0.535352  1
  I  I14  1  0.677134  0.071363  0.226059  1
  I  I15  1  0.070719  0.223632  0.676514  1
  I  I16  1  0.224068  0.676500  0.070608  1
  I  I17  1  0.322196  0.928860  0.775675  1
  I  I18  1  0.929577  0.776381  0.323522  1
  I  I19  1  0.777873  0.325675  0.929966  1
