# generated using pymatgen
data_Sc8Nb7Si16W5
_symmetry_space_group_name_H-M   'P 1'
_cell_length_a   6.60718495
_cell_length_b   6.85318066
_cell_length_c   13.04226844
_cell_angle_alpha   89.93875396
_cell_angle_beta   90.03565998
_cell_angle_gamma   89.91995706
_symmetry_Int_Tables_number   1
_chemical_formula_structural   Sc8Nb7Si16W5
_chemical_formula_sum   'Sc8 Nb7 Si16 W5'
_cell_volume   590.55591396
_cell_formula_units_Z   1
loop_
 _symmetry_equiv_pos_site_id
 _symmetry_equiv_pos_as_xyz
  1  'x, y, z'
loop_
 _atom_site_type_symbol
 _atom_site_label
 _atom_site_symmetry_multiplicity
 _atom_site_fract_x
 _atom_site_fract_y
 _atom_site_fract_z
 _atom_site_occupancy
  Sc  Sc0  1  0.498062  0.673215  0.592295  1
  Sc  Sc1  1  0.998578  0.826398  0.906517  1
  Sc  Sc2  1  0.500923  0.325975  0.093429  1
  Sc  Sc3  1  0.001206  0.174418  0.408085  1
  Sc  Sc4  1  0.502269  0.325632  0.406979  1
  Sc  Sc5  1  0.000848  0.174008  0.093120  1
  Sc  Sc6  1  0.498176  0.673267  0.906525  1
  Sc  Sc7  1  0.998381  0.825669  0.592856  1
  Nb  Nb8  1  0.666500  0.167953  0.624629  1
  Nb  Nb9  1  0.167161  0.332626  0.873587  1
  Nb  Nb10  1  0.332834  0.831759  0.125777  1
  Nb  Nb11  1  0.833983  0.665767  0.375362  1
  Nb  Nb12  1  0.331531  0.832194  0.376233  1
  Nb  Nb13  1  0.832665  0.667397  0.125553  1
  Nb  Nb14  1  0.667454  0.168503  0.873513  1
  Si  Si15  1  0.669444  0.964169  0.458081  1
  Si  Si16  1  0.169611  0.535034  0.041335  1
  Si  Si17  1  0.330823  0.034893  0.957999  1
  Si  Si18  1  0.834995  0.464036  0.542980  1
  Si  Si19  1  0.327446  0.039464  0.542714  1
  Si  Si20  1  0.830351  0.465165  0.958367  1
  Si  Si21  1  0.669265  0.965411  0.041260  1
  Si  Si22  1  0.170707  0.534730  0.460916  1
  Si  Si23  1  0.465515  0.388158  0.748619  1
  Si  Si24  1  0.968794  0.112779  0.748120  1
  Si  Si25  1  0.532939  0.611201  0.250771  1
  Si  Si26  1  0.032588  0.888761  0.250678  1
  Si  Si27  1  0.702814  0.854854  0.749367  1
  Si  Si28  1  0.202088  0.644618  0.749533  1
  Si  Si29  1  0.296633  0.144888  0.250330  1
  Si  Si30  1  0.797173  0.354121  0.250109  1
  W  W31  1  0.168430  0.334701  0.625825  1
  W  W32  1  0.840359  0.495337  0.748891  1
  W  W33  1  0.339697  0.003904  0.748681  1
  W  W34  1  0.160033  0.503628  0.250732  1
  W  W35  1  0.659722  0.995368  0.250232  1
