# generated using pymatgen
data_Nd9Hg4
_symmetry_space_group_name_H-M   'P 1'
_cell_length_a   9.15731372
_cell_length_b   9.15731373
_cell_length_c   9.15731418
_cell_angle_alpha   94.86920923
_cell_angle_beta   94.86919983
_cell_angle_gamma   146.12310397
_symmetry_Int_Tables_number   1
_chemical_formula_structural   Nd9Hg4
_chemical_formula_sum   'Nd9 Hg4'
_cell_volume   409.46619091
_cell_formula_units_Z   1
loop_
 _symmetry_equiv_pos_site_id
 _symmetry_equiv_pos_as_xyz
  1  'x, y, z'
loop_
 _atom_site_type_symbol
 _atom_site_label
 _atom_site_symmetry_multiplicity
 _atom_site_fract_x
 _atom_site_fract_y
 _atom_site_fract_z
 _atom_site_occupancy
  Nd  Nd0  1  0.904243  0.387066  0.291310  1
  Nd  Nd1  1  0.095757  0.612934  0.708690  1
  Nd  Nd2  1  0.387066  0.095757  0.482823  1
  Nd  Nd3  1  0.612934  0.904243  0.517177  1
  Nd  Nd4  1  0.000000  0.000000  0.000000  1
  Nd  Nd5  1  0.618812  0.316170  0.934983  1
  Nd  Nd6  1  0.381188  0.683830  0.065017  1
  Nd  Nd7  1  0.316170  0.381188  0.697358  1
  Nd  Nd8  1  0.683830  0.618812  0.302642  1
  Hg  Hg9  1  0.765307  0.101641  0.866950  1
  Hg  Hg10  1  0.234693  0.898359  0.133050  1
  Hg  Hg11  1  0.101641  0.234693  0.336334  1
  Hg  Hg12  1  0.898359  0.765307  0.663666  1
