# generated using pymatgen
data_Ho5TmIr2
_symmetry_space_group_name_H-M   'P 1'
_cell_length_a   6.37720054
_cell_length_b   7.21698300
_cell_length_c   9.14255041
_cell_angle_alpha   90.00000000
_cell_angle_beta   90.24633036
_cell_angle_gamma   90.00000000
_symmetry_Int_Tables_number   1
_chemical_formula_structural   Ho5TmIr2
_chemical_formula_sum   'Ho10 Tm2 Ir4'
_cell_volume   420.77420307
_cell_formula_units_Z   2
loop_
 _symmetry_equiv_pos_site_id
 _symmetry_equiv_pos_as_xyz
  1  'x, y, z'
loop_
 _atom_site_type_symbol
 _atom_site_label
 _atom_site_symmetry_multiplicity
 _atom_site_fract_x
 _atom_site_fract_y
 _atom_site_fract_z
 _atom_site_occupancy
  Ho  Ho0  1  0.327839  0.677498  0.062831  1
  Ho  Ho1  1  0.172161  0.177498  0.437169  1
  Ho  Ho2  1  0.671525  0.322855  0.562024  1
  Ho  Ho3  1  0.828475  0.822855  0.937976  1
  Ho  Ho4  1  0.671778  0.322259  0.938138  1
  Ho  Ho5  1  0.828222  0.822259  0.561862  1
  Ho  Ho6  1  0.870797  0.534247  0.250296  1
  Ho  Ho7  1  0.629203  0.034247  0.249704  1
  Ho  Ho8  1  0.130539  0.466076  0.749905  1
  Ho  Ho9  1  0.369461  0.966076  0.750095  1
  Tm  Tm10  1  0.328828  0.676791  0.437103  1
  Tm  Tm11  1  0.171172  0.176791  0.062897  1
  Ir  Ir12  1  0.046318  0.883098  0.250354  1
  Ir  Ir13  1  0.453682  0.383098  0.249646  1
  Ir  Ir14  1  0.955706  0.117176  0.751356  1
  Ir  Ir15  1  0.544294  0.617176  0.748644  1
