# generated using pymatgen
data_Nb3Co2OsN
_symmetry_space_group_name_H-M   'P 1'
_cell_length_a   8.10313856
_cell_length_b   8.10313859
_cell_length_c   8.10313900
_cell_angle_alpha   60.00000241
_cell_angle_beta   60.00000227
_cell_angle_gamma   59.99999929
_symmetry_Int_Tables_number   1
_chemical_formula_structural   Nb3Co2OsN
_chemical_formula_sum   'Nb12 Co8 Os4 N4'
_cell_volume   376.22256129
_cell_formula_units_Z   4
loop_
 _symmetry_equiv_pos_site_id
 _symmetry_equiv_pos_as_xyz
  1  'x, y, z'
loop_
 _atom_site_type_symbol
 _atom_site_label
 _atom_site_symmetry_multiplicity
 _atom_site_fract_x
 _atom_site_fract_y
 _atom_site_fract_z
 _atom_site_occupancy
  Nb  Nb0  1  0.805562  0.805562  0.194438  1
  Nb  Nb1  1  0.194438  0.194438  0.805562  1
  Nb  Nb2  1  0.805562  0.194438  0.805562  1
  Nb  Nb3  1  0.194438  0.805562  0.194438  1
  Nb  Nb4  1  0.194438  0.805562  0.805562  1
  Nb  Nb5  1  0.805562  0.194438  0.194438  1
  Nb  Nb6  1  0.444438  0.444438  0.055562  1
  Nb  Nb7  1  0.055562  0.055562  0.444438  1
  Nb  Nb8  1  0.444438  0.055562  0.444438  1
  Nb  Nb9  1  0.055562  0.444438  0.055562  1
  Nb  Nb10  1  0.055562  0.444438  0.444438  1
  Nb  Nb11  1  0.444438  0.055562  0.055562  1
  Co  Co12  1  0.734185  0.421939  0.421939  1
  Co  Co13  1  0.421939  0.734185  0.421939  1
  Co  Co14  1  0.421939  0.421939  0.734185  1
  Co  Co15  1  0.421939  0.421939  0.421939  1
  Co  Co16  1  0.515815  0.828061  0.828061  1
  Co  Co17  1  0.828061  0.515815  0.828061  1
  Co  Co18  1  0.828061  0.828061  0.515815  1
  Co  Co19  1  0.828061  0.828061  0.828061  1
  Os  Os20  1  0.125000  0.625000  0.625000  1
  Os  Os21  1  0.625000  0.125000  0.625000  1
  Os  Os22  1  0.625000  0.625000  0.125000  1
  Os  Os23  1  0.625000  0.625000  0.625000  1
  N  N24  1  0.625000  0.125000  0.125000  1
  N  N25  1  0.125000  0.625000  0.125000  1
  N  N26  1  0.125000  0.125000  0.625000  1
  N  N27  1  0.125000  0.125000  0.125000  1
