# generated using pymatgen
data_InSn7B6(Ir6Rh)2
_symmetry_space_group_name_H-M   'P 1'
_cell_length_a   9.39322631
_cell_length_b   9.34618875
_cell_length_c   5.69480430
_cell_angle_alpha   90.06092172
_cell_angle_beta   90.06219474
_cell_angle_gamma   119.98902125
_symmetry_Int_Tables_number   1
_chemical_formula_structural   InSn7B6(Ir6Rh)2
_chemical_formula_sum   'In1 Sn7 B6 Ir12 Rh2'
_cell_volume   433.01785220
_cell_formula_units_Z   1
loop_
 _symmetry_equiv_pos_site_id
 _symmetry_equiv_pos_as_xyz
  1  'x, y, z'
loop_
 _atom_site_type_symbol
 _atom_site_label
 _atom_site_symmetry_multiplicity
 _atom_site_fract_x
 _atom_site_fract_y
 _atom_site_fract_z
 _atom_site_occupancy
  In  In0  1  0.507768  0.093321  0.750419  1
  Sn  Sn1  1  0.091540  0.589251  0.251141  1
  Sn  Sn2  1  0.905729  0.407073  0.750072  1
  Sn  Sn3  1  0.587474  0.495363  0.749974  1
  Sn  Sn4  1  0.499394  0.913104  0.249953  1
  Sn  Sn5  1  0.332254  0.668732  0.747956  1
  Sn  Sn6  1  0.410557  0.503021  0.250047  1
  Sn  Sn7  1  0.664813  0.330833  0.248049  1
  B  B8  1  0.826904  0.790533  0.250467  1
  B  B9  1  0.965519  0.173303  0.250264  1
  B  B10  1  0.209848  0.036897  0.249434  1
  B  B11  1  0.790825  0.962800  0.750786  1
  B  B12  1  0.037176  0.826841  0.750071  1
  B  B13  1  0.172402  0.208606  0.749480  1
  Ir  Ir14  1  0.774565  0.123449  0.003830  1
  Ir  Ir15  1  0.647122  0.771433  0.501548  1
  Ir  Ir16  1  0.123822  0.353460  0.501288  1
  Ir  Ir17  1  0.875347  0.645555  0.001209  1
  Ir  Ir18  1  0.349755  0.229208  0.001292  1
  Ir  Ir19  1  0.227992  0.876151  0.501309  1
  Ir  Ir20  1  0.875257  0.646154  0.499032  1
  Ir  Ir21  1  0.350928  0.229443  0.498104  1
  Ir  Ir22  1  0.227691  0.875473  0.999161  1
  Ir  Ir23  1  0.000129  0.999823  0.499679  1
  Ir  Ir24  1  0.000416  0.000099  0.999881  1
  Ir  Ir25  1  0.646898  0.770532  0.999522  1
  Rh  Rh26  1  0.124883  0.356061  0.998569  1
  Rh  Rh27  1  0.772996  0.123482  0.497464  1
