# generated using pymatgen
data_Nd8Zn8PdPtRh6
_symmetry_space_group_name_H-M   'P 1'
_cell_length_a   4.01833700
_cell_length_b   7.40136252
_cell_length_c   16.69190307
_cell_angle_alpha   90.08440776
_cell_angle_beta   90.00000000
_cell_angle_gamma   90.00000000
_symmetry_Int_Tables_number   1
_chemical_formula_structural   Nd8Zn8PdPtRh6
_chemical_formula_sum   'Nd8 Zn8 Pd1 Pt1 Rh6'
_cell_volume   496.43616926
_cell_formula_units_Z   1
loop_
 _symmetry_equiv_pos_site_id
 _symmetry_equiv_pos_as_xyz
  1  'x, y, z'
loop_
 _atom_site_type_symbol
 _atom_site_label
 _atom_site_symmetry_multiplicity
 _atom_site_fract_x
 _atom_site_fract_y
 _atom_site_fract_z
 _atom_site_occupancy
  Nd  Nd0  1  0.250000  0.168883  0.941878  1
  Nd  Nd1  1  0.250000  0.667198  0.564821  1
  Nd  Nd2  1  0.750000  0.327685  0.439066  1
  Nd  Nd3  1  0.750000  0.954250  0.280661  1
  Nd  Nd4  1  0.750000  0.829008  0.061112  1
  Nd  Nd5  1  0.750000  0.449494  0.214933  1
  Nd  Nd6  1  0.250000  0.047451  0.714443  1
  Nd  Nd7  1  0.250000  0.554107  0.785514  1
  Zn  Zn8  1  0.750000  0.004463  0.562208  1
  Zn  Zn9  1  0.250000  0.619381  0.345363  1
  Zn  Zn10  1  0.750000  0.378806  0.651249  1
  Zn  Zn11  1  0.250000  0.499061  0.060103  1
  Zn  Zn12  1  0.750000  0.503112  0.941199  1
  Zn  Zn13  1  0.250000  0.000407  0.439855  1
  Zn  Zn14  1  0.250000  0.121920  0.149733  1
  Zn  Zn15  1  0.750000  0.875906  0.849047  1
  Pd  Pd16  1  0.750000  0.754903  0.433646  1
  Pt  Pt17  1  0.750000  0.254442  0.813422  1
  Rh  Rh18  1  0.250000  0.244336  0.314346  1
  Rh  Rh19  1  0.750000  0.754636  0.685278  1
  Rh  Rh20  1  0.250000  0.245645  0.564988  1
  Rh  Rh21  1  0.250000  0.745752  0.187049  1
  Rh  Rh22  1  0.750000  0.254261  0.065210  1
  Rh  Rh23  1  0.250000  0.744893  0.934876  1
