# generated using pymatgen
data_PrY3(WF7)4
_symmetry_space_group_name_H-M   'P 1'
_cell_length_a   5.79215442
_cell_length_b   9.18332318
_cell_length_c   12.36354800
_cell_angle_alpha   62.76174847
_cell_angle_beta   89.92922298
_cell_angle_gamma   89.85844016
_symmetry_Int_Tables_number   1
_chemical_formula_structural   PrY3(WF7)4
_chemical_formula_sum   'Pr1 Y3 W4 F28'
_cell_volume   584.70630765
_cell_formula_units_Z   1
loop_
 _symmetry_equiv_pos_site_id
 _symmetry_equiv_pos_as_xyz
  1  'x, y, z'
loop_
 _atom_site_type_symbol
 _atom_site_label
 _atom_site_symmetry_multiplicity
 _atom_site_fract_x
 _atom_site_fract_y
 _atom_site_fract_z
 _atom_site_occupancy
  Pr  Pr0  1  0.258566  0.813862  0.266702  1
  Y  Y1  1  0.738860  0.186798  0.734152  1
  Y  Y2  1  0.762253  0.192056  0.233551  1
  Y  Y3  1  0.242162  0.815492  0.765770  1
  W  W4  1  0.753734  0.725451  0.038612  1
  W  W5  1  0.241973  0.276700  0.953762  1
  W  W6  1  0.255366  0.269035  0.458310  1
  W  W7  1  0.746111  0.726288  0.548631  1
  F  F8  1  0.965601  0.706321  0.426760  1
  F  F9  1  0.036754  0.290017  0.576004  1
  F  F10  1  0.461520  0.292366  0.073404  1
  F  F11  1  0.537087  0.706189  0.919821  1
  F  F12  1  0.479109  0.731428  0.141063  1
  F  F13  1  0.513443  0.265278  0.849592  1
  F  F14  1  0.980578  0.266890  0.352759  1
  F  F15  1  0.017627  0.736545  0.647352  1
  F  F16  1  0.962254  0.744387  0.161279  1
  F  F17  1  0.025379  0.252806  0.834537  1
  F  F18  1  0.469643  0.249380  0.336387  1
  F  F19  1  0.528461  0.748735  0.671221  1
  F  F20  1  0.757465  0.481171  0.139566  1
  F  F21  1  0.237794  0.520116  0.854393  1
  F  F22  1  0.265760  0.511967  0.359958  1
  F  F23  1  0.744212  0.481077  0.644797  1
  F  F24  1  0.957982  0.283719  0.052745  1
  F  F25  1  0.042767  0.717519  0.943218  1
  F  F26  1  0.465467  0.714461  0.456221  1
  F  F27  1  0.539935  0.278445  0.556316  1
  F  F28  1  0.738747  0.969106  0.450674  1
  F  F29  1  0.255488  0.026058  0.555156  1
  F  F30  1  0.239037  0.033486  0.051427  1
  F  F31  1  0.757019  0.968952  0.942920  1
  F  F32  1  0.578261  0.983297  0.235719  1
  F  F33  1  0.438858  0.019557  0.765266  1
  F  F34  1  0.064837  0.032803  0.266942  1
  F  F35  1  0.939889  0.982241  0.735014  1
