# generated using pymatgen
data_La2BeGa8Cu17
_symmetry_space_group_name_H-M   'P 1'
_cell_length_a   8.23810924
_cell_length_b   8.23810743
_cell_length_c   8.28078000
_cell_angle_alpha   120.38275741
_cell_angle_beta   120.38275810
_cell_angle_gamma   89.03807980
_symmetry_Int_Tables_number   1
_chemical_formula_structural   La2BeGa8Cu17
_chemical_formula_sum   'La2 Be1 Ga8 Cu17'
_cell_volume   396.06808747
_cell_formula_units_Z   1
loop_
 _symmetry_equiv_pos_site_id
 _symmetry_equiv_pos_as_xyz
  1  'x, y, z'
loop_
 _atom_site_type_symbol
 _atom_site_label
 _atom_site_symmetry_multiplicity
 _atom_site_fract_x
 _atom_site_fract_y
 _atom_site_fract_z
 _atom_site_occupancy
  La  La0  1  0.750000  0.750000  0.000000  1
  La  La1  1  0.250000  0.250000  0.000000  1
  Be  Be2  1  0.000000  0.500000  0.500000  1
  Ga  Ga3  1  0.060609  0.560609  0.862551  1
  Ga  Ga4  1  0.698058  0.198058  0.137449  1
  Ga  Ga5  1  0.556863  0.694707  0.500000  1
  Ga  Ga6  1  0.194707  0.056863  0.500000  1
  Ga  Ga7  1  0.939391  0.439391  0.137449  1
  Ga  Ga8  1  0.301942  0.801942  0.862551  1
  Ga  Ga9  1  0.443137  0.305293  0.500000  1
  Ga  Ga10  1  0.805293  0.943137  0.500000  1
  Cu  Cu11  1  0.060407  0.213314  0.273721  1
  Cu  Cu12  1  0.939593  0.786686  0.726279  1
  Cu  Cu13  1  0.557015  0.301900  0.858914  1
  Cu  Cu14  1  0.442985  0.698100  0.141086  1
  Cu  Cu15  1  0.801900  0.057015  0.858914  1
  Cu  Cu16  1  0.198100  0.942985  0.141086  1
  Cu  Cu17  1  0.713314  0.560407  0.273721  1
  Cu  Cu18  1  0.286686  0.439593  0.726279  1
  Cu  Cu19  1  0.439543  0.939543  0.735162  1
  Cu  Cu20  1  0.204381  0.704381  0.264838  1
  Cu  Cu21  1  0.936311  0.212480  0.500000  1
  Cu  Cu22  1  0.712480  0.436311  0.500000  1
  Cu  Cu23  1  0.560457  0.060457  0.264838  1
  Cu  Cu24  1  0.795619  0.295619  0.735162  1
  Cu  Cu25  1  0.063689  0.787520  0.500000  1
  Cu  Cu26  1  0.287520  0.563689  0.500000  1
  Cu  Cu27  1  0.500000  0.000000  0.500000  1
