# generated using pymatgen
data_PrNd8(BiO)5
_symmetry_space_group_name_H-M   'P 1'
_cell_length_a   10.36729600
_cell_length_b   10.36729600
_cell_length_c   9.33157800
_cell_angle_alpha   90.00000000
_cell_angle_beta   90.00000000
_cell_angle_gamma   90.00000000
_symmetry_Int_Tables_number   1
_chemical_formula_structural   PrNd8(BiO)5
_chemical_formula_sum   'Pr2 Nd16 Bi10 O10'
_cell_volume   1002.96571460
_cell_formula_units_Z   2
loop_
 _symmetry_equiv_pos_site_id
 _symmetry_equiv_pos_as_xyz
  1  'x, y, z'
loop_
 _atom_site_type_symbol
 _atom_site_label
 _atom_site_symmetry_multiplicity
 _atom_site_fract_x
 _atom_site_fract_y
 _atom_site_fract_z
 _atom_site_occupancy
  Pr  Pr0  1  0.500000  0.000000  0.671029  1
  Pr  Pr1  1  0.000000  0.500000  0.328971  1
  Nd  Nd2  1  0.104424  0.205132  0.660184  1
  Nd  Nd3  1  0.895576  0.794868  0.660184  1
  Nd  Nd4  1  0.294868  0.604424  0.660184  1
  Nd  Nd5  1  0.705132  0.395576  0.660184  1
  Nd  Nd6  1  0.395576  0.294868  0.339816  1
  Nd  Nd7  1  0.604424  0.705132  0.339816  1
  Nd  Nd8  1  0.205132  0.895576  0.339816  1
  Nd  Nd9  1  0.794868  0.104424  0.339816  1
  Nd  Nd10  1  0.725738  0.917688  0.001481  1
  Nd  Nd11  1  0.274262  0.082312  0.001481  1
  Nd  Nd12  1  0.582312  0.225738  0.001481  1
  Nd  Nd13  1  0.417688  0.774262  0.001481  1
  Nd  Nd14  1  0.774262  0.582312  0.998519  1
  Nd  Nd15  1  0.225738  0.417688  0.998519  1
  Nd  Nd16  1  0.917688  0.274262  0.998519  1
  Nd  Nd17  1  0.082312  0.725738  0.998519  1
  Bi  Bi18  1  0.500000  0.000000  0.312182  1
  Bi  Bi19  1  0.000000  0.500000  0.687818  1
  Bi  Bi20  1  0.403641  0.304434  0.699093  1
  Bi  Bi21  1  0.596359  0.695566  0.699093  1
  Bi  Bi22  1  0.195566  0.903641  0.699093  1
  Bi  Bi23  1  0.804434  0.096359  0.699093  1
  Bi  Bi24  1  0.096359  0.195566  0.300907  1
  Bi  Bi25  1  0.903641  0.804434  0.300907  1
  Bi  Bi26  1  0.304434  0.596359  0.300907  1
  Bi  Bi27  1  0.695566  0.403641  0.300907  1
  O  O28  1  0.500000  0.000000  0.934622  1
  O  O29  1  0.000000  0.500000  0.065378  1
  O  O30  1  0.774735  0.120768  0.086807  1
  O  O31  1  0.225265  0.879232  0.086807  1
  O  O32  1  0.379232  0.274735  0.086807  1
  O  O33  1  0.620768  0.725265  0.086807  1
  O  O34  1  0.725265  0.379232  0.913193  1
  O  O35  1  0.274735  0.620768  0.913193  1
  O  O36  1  0.120768  0.225265  0.913193  1
  O  O37  1  0.879232  0.774735  0.913193  1
