# generated using pymatgen
data_Rb8LaTb3Br20
_symmetry_space_group_name_H-M   'P 1'
_cell_length_a   8.85275447
_cell_length_b   9.29965400
_cell_length_c   14.17211020
_cell_angle_alpha   90.00000000
_cell_angle_beta   90.71625837
_cell_angle_gamma   90.00000000
_symmetry_Int_Tables_number   1
_chemical_formula_structural   Rb8LaTb3Br20
_chemical_formula_sum   'Rb8 La1 Tb3 Br20'
_cell_volume   1166.66399380
_cell_formula_units_Z   1
loop_
 _symmetry_equiv_pos_site_id
 _symmetry_equiv_pos_as_xyz
  1  'x, y, z'
loop_
 _atom_site_type_symbol
 _atom_site_label
 _atom_site_symmetry_multiplicity
 _atom_site_fract_x
 _atom_site_fract_y
 _atom_site_fract_z
 _atom_site_occupancy
  Rb  Rb0  1  0.945249  0.004661  0.825526  1
  Rb  Rb1  1  0.055061  0.998365  0.174519  1
  Rb  Rb2  1  0.443970  0.997585  0.670261  1
  Rb  Rb3  1  0.055061  0.501635  0.174519  1
  Rb  Rb4  1  0.555950  0.004194  0.329626  1
  Rb  Rb5  1  0.945249  0.495339  0.825526  1
  Rb  Rb6  1  0.555950  0.495806  0.329626  1
  Rb  Rb7  1  0.443970  0.502415  0.670261  1
  La  La8  1  0.573295  0.750000  0.005001  1
  Tb  Tb9  1  0.929057  0.750000  0.503038  1
  Tb  Tb10  1  0.070243  0.250000  0.497083  1
  Tb  Tb11  1  0.426316  0.250000  0.996758  1
  Br  Br12  1  0.113158  0.750000  0.669713  1
  Br  Br13  1  0.887120  0.250000  0.330284  1
  Br  Br14  1  0.611651  0.250000  0.831901  1
  Br  Br15  1  0.377927  0.750000  0.176353  1
  Br  Br16  1  0.841885  0.043788  0.568267  1
  Br  Br17  1  0.157178  0.956436  0.432152  1
  Br  Br18  1  0.338950  0.963726  0.926320  1
  Br  Br19  1  0.157178  0.543564  0.432152  1
  Br  Br20  1  0.660452  0.050639  0.072992  1
  Br  Br21  1  0.841885  0.456212  0.568267  1
  Br  Br22  1  0.660452  0.449361  0.072992  1
  Br  Br23  1  0.338950  0.536274  0.926320  1
  Br  Br24  1  0.602002  0.750000  0.513240  1
  Br  Br25  1  0.397666  0.250000  0.485535  1
  Br  Br26  1  0.096700  0.250000  0.987746  1
  Br  Br27  1  0.913874  0.750000  0.011413  1
  Br  Br28  1  0.655424  0.750000  0.801271  1
  Br  Br29  1  0.348762  0.250000  0.192206  1
  Br  Br30  1  0.152278  0.250000  0.692123  1
  Br  Br31  1  0.847136  0.750000  0.307009  1
