# generated using pymatgen
data_Rb3As2Br9
_symmetry_space_group_name_H-M   'P 1'
_cell_length_a   7.68633300
_cell_length_b   7.68633356
_cell_length_c   19.70216700
_cell_angle_alpha   90.00000000
_cell_angle_beta   90.00000000
_cell_angle_gamma   120.00000189
_symmetry_Int_Tables_number   1
_chemical_formula_structural   Rb3As2Br9
_chemical_formula_sum   'Rb6 As4 Br18'
_cell_volume   1008.05224840
_cell_formula_units_Z   2
loop_
 _symmetry_equiv_pos_site_id
 _symmetry_equiv_pos_as_xyz
  1  'x, y, z'
loop_
 _atom_site_type_symbol
 _atom_site_label
 _atom_site_symmetry_multiplicity
 _atom_site_fract_x
 _atom_site_fract_y
 _atom_site_fract_z
 _atom_site_occupancy
  Rb  Rb0  1  0.333333  0.666667  0.071268  1
  Rb  Rb1  1  0.666667  0.333333  0.928732  1
  Rb  Rb2  1  0.666667  0.333333  0.571268  1
  Rb  Rb3  1  0.333333  0.666667  0.428732  1
  Rb  Rb4  1  0.000000  0.000000  0.250000  1
  Rb  Rb5  1  0.000000  0.000000  0.750000  1
  As  As6  1  0.333333  0.666667  0.658182  1
  As  As7  1  0.666667  0.333333  0.341818  1
  As  As8  1  0.666667  0.333333  0.158182  1
  As  As9  1  0.333333  0.666667  0.841818  1
  Br  Br10  1  0.172464  0.344929  0.587861  1
  Br  Br11  1  0.827536  0.655071  0.412139  1
  Br  Br12  1  0.655071  0.827536  0.587861  1
  Br  Br13  1  0.827536  0.655071  0.087861  1
  Br  Br14  1  0.344929  0.172464  0.412139  1
  Br  Br15  1  0.172464  0.344929  0.912139  1
  Br  Br16  1  0.172464  0.827536  0.587861  1
  Br  Br17  1  0.344929  0.172464  0.087861  1
  Br  Br18  1  0.827536  0.172464  0.412139  1
  Br  Br19  1  0.655071  0.827536  0.912139  1
  Br  Br20  1  0.827536  0.172464  0.087861  1
  Br  Br21  1  0.172464  0.827536  0.912139  1
  Br  Br22  1  0.501592  0.003185  0.250000  1
  Br  Br23  1  0.498408  0.996815  0.750000  1
  Br  Br24  1  0.996815  0.498408  0.250000  1
  Br  Br25  1  0.003185  0.501592  0.750000  1
  Br  Br26  1  0.501592  0.498408  0.250000  1
  Br  Br27  1  0.498408  0.501592  0.750000  1
