# generated using pymatgen
data_La2Th2P7Ir8
_symmetry_space_group_name_H-M   'P 1'
_cell_length_a   4.02002700
_cell_length_b   12.87301380
_cell_length_c   13.34928103
_cell_angle_alpha   99.07008228
_cell_angle_beta   90.00000000
_cell_angle_gamma   90.00000000
_symmetry_Int_Tables_number   1
_chemical_formula_structural   La2Th2P7Ir8
_chemical_formula_sum   'La4 Th4 P14 Ir16'
_cell_volume   682.18558559
_cell_formula_units_Z   2
loop_
 _symmetry_equiv_pos_site_id
 _symmetry_equiv_pos_as_xyz
  1  'x, y, z'
loop_
 _atom_site_type_symbol
 _atom_site_label
 _atom_site_symmetry_multiplicity
 _atom_site_fract_x
 _atom_site_fract_y
 _atom_site_fract_z
 _atom_site_occupancy
  La  La0  1  0.750000  0.282537  0.901145  1
  La  La1  1  0.250000  0.717463  0.098855  1
  La  La2  1  0.750000  0.103843  0.209484  1
  La  La3  1  0.250000  0.896157  0.790516  1
  Th  Th4  1  0.750000  0.207456  0.559289  1
  Th  Th5  1  0.250000  0.792544  0.440711  1
  Th  Th6  1  0.750000  0.517952  0.708728  1
  Th  Th7  1  0.250000  0.482048  0.291272  1
  P  P8  1  0.750000  0.743216  0.917620  1
  P  P9  1  0.250000  0.256784  0.082380  1
  P  P10  1  0.750000  0.909835  0.593403  1
  P  P11  1  0.250000  0.090165  0.406597  1
  P  P12  1  0.750000  0.529849  0.126156  1
  P  P13  1  0.250000  0.470151  0.873844  1
  P  P14  1  0.750000  0.843198  0.281007  1
  P  P15  1  0.250000  0.156802  0.718993  1
  P  P16  1  0.750000  0.606946  0.438288  1
  P  P17  1  0.250000  0.393054  0.561712  1
  P  P18  1  0.750000  0.313806  0.312327  1
  P  P19  1  0.250000  0.686194  0.687673  1
  P  P20  1  0.750000  0.053713  0.902197  1
  P  P21  1  0.250000  0.946287  0.097803  1
  Ir  Ir22  1  0.750000  0.342206  0.142620  1
  Ir  Ir23  1  0.250000  0.657794  0.857380  1
  Ir  Ir24  1  0.750000  0.727598  0.601949  1
  Ir  Ir25  1  0.250000  0.272402  0.398051  1
  Ir  Ir26  1  0.750000  0.917416  0.003642  1
  Ir  Ir27  1  0.250000  0.082584  0.996358  1
  Ir  Ir28  1  0.750000  0.424379  0.472601  1
  Ir  Ir29  1  0.250000  0.575621  0.527399  1
  Ir  Ir30  1  0.750000  0.063546  0.726480  1
  Ir  Ir31  1  0.250000  0.936454  0.273520  1
  Ir  Ir32  1  0.750000  0.549391  0.949808  1
  Ir  Ir33  1  0.250000  0.450609  0.050192  1
  Ir  Ir34  1  0.750000  0.661570  0.275484  1
  Ir  Ir35  1  0.250000  0.338430  0.724516  1
  Ir  Ir36  1  0.750000  0.988480  0.423952  1
  Ir  Ir37  1  0.250000  0.011520  0.576048  1
