# generated using pymatgen
data_Tm6Lu6IrOs3
_symmetry_space_group_name_H-M   'P 1'
_cell_length_a   7.30608209
_cell_length_b   8.85141592
_cell_length_c   6.22413832
_cell_angle_alpha   90.07483732
_cell_angle_beta   89.99177914
_cell_angle_gamma   89.99124690
_symmetry_Int_Tables_number   1
_chemical_formula_structural   Tm6Lu6IrOs3
_chemical_formula_sum   'Tm6 Lu6 Ir1 Os3'
_cell_volume   402.50951531
_cell_formula_units_Z   1
loop_
 _symmetry_equiv_pos_site_id
 _symmetry_equiv_pos_as_xyz
  1  'x, y, z'
loop_
 _atom_site_type_symbol
 _atom_site_label
 _atom_site_symmetry_multiplicity
 _atom_site_fract_x
 _atom_site_fract_y
 _atom_site_fract_z
 _atom_site_occupancy
  Tm  Tm0  1  0.674420  0.061148  0.334205  1
  Tm  Tm1  1  0.177203  0.439017  0.167420  1
  Tm  Tm2  1  0.537598  0.250101  0.873030  1
  Tm  Tm3  1  0.038948  0.249898  0.627063  1
  Tm  Tm4  1  0.461420  0.749966  0.126651  1
  Tm  Tm5  1  0.961534  0.750037  0.373120  1
  Lu  Lu6  1  0.325030  0.562420  0.667225  1
  Lu  Lu7  1  0.824172  0.935936  0.831013  1
  Lu  Lu8  1  0.324781  0.937608  0.667301  1
  Lu  Lu9  1  0.823898  0.564028  0.830982  1
  Lu  Lu10  1  0.674164  0.438882  0.334162  1
  Lu  Lu11  1  0.176872  0.060990  0.167342  1
  Ir  Ir12  1  0.883742  0.249949  0.039451  1
  Os  Os13  1  0.383351  0.250013  0.460796  1
  Os  Os14  1  0.115944  0.750323  0.961495  1
  Os  Os15  1  0.616923  0.749684  0.538743  1
