# generated using pymatgen
data_Tb5Dy11Cd4TcNi3
_symmetry_space_group_name_H-M   'P 1'
_cell_length_a   9.60239688
_cell_length_b   9.60202911
_cell_length_c   9.60172309
_cell_angle_alpha   59.44003616
_cell_angle_beta   59.43430885
_cell_angle_gamma   59.43536046
_symmetry_Int_Tables_number   1
_chemical_formula_structural   Tb5Dy11Cd4TcNi3
_chemical_formula_sum   'Tb5 Dy11 Cd4 Tc1 Ni3'
_cell_volume   617.97896732
_cell_formula_units_Z   1
loop_
 _symmetry_equiv_pos_site_id
 _symmetry_equiv_pos_as_xyz
  1  'x, y, z'
loop_
 _atom_site_type_symbol
 _atom_site_label
 _atom_site_symmetry_multiplicity
 _atom_site_fract_x
 _atom_site_fract_y
 _atom_site_fract_z
 _atom_site_occupancy
  Tb  Tb0  1  0.555214  0.939394  0.939398  1
  Tb  Tb1  1  0.565239  0.936123  0.565016  1
  Tb  Tb2  1  0.939358  0.555330  0.939096  1
  Tb  Tb3  1  0.565232  0.565015  0.936132  1
  Tb  Tb4  1  0.939355  0.939091  0.555331  1
  Dy  Dy5  1  0.347279  0.347421  0.347483  1
  Dy  Dy6  1  0.351413  0.351496  0.954291  1
  Dy  Dy7  1  0.351379  0.954321  0.351526  1
  Dy  Dy8  1  0.954162  0.351502  0.351565  1
  Dy  Dy9  1  0.810928  0.187641  0.187633  1
  Dy  Dy10  1  0.187133  0.810977  0.810934  1
  Dy  Dy11  1  0.187534  0.810825  0.187808  1
  Dy  Dy12  1  0.811063  0.187241  0.810846  1
  Dy  Dy13  1  0.187527  0.187809  0.810802  1
  Dy  Dy14  1  0.811035  0.810864  0.187239  1
  Dy  Dy15  1  0.936414  0.564881  0.564875  1
  Cd  Cd16  1  0.580018  0.579838  0.579835  1
  Cd  Cd17  1  0.579651  0.579651  0.256201  1
  Cd  Cd18  1  0.579649  0.256203  0.579651  1
  Cd  Cd19  1  0.255947  0.579692  0.579694  1
  Tc  Tc20  1  0.143548  0.143461  0.143473  1
  Ni  Ni21  1  0.142700  0.142941  0.575485  1
  Ni  Ni22  1  0.142692  0.575517  0.142928  1
  Ni  Ni23  1  0.575531  0.142767  0.142759  1
