# generated using pymatgen
data_Hf2ThCo9
_symmetry_space_group_name_H-M   'P 1'
_cell_length_a   4.85975899
_cell_length_b   4.85975850
_cell_length_c   8.44805771
_cell_angle_alpha   73.28412628
_cell_angle_beta   73.28412569
_cell_angle_gamma   60.00000339
_symmetry_Int_Tables_number   1
_chemical_formula_structural   Hf2ThCo9
_chemical_formula_sum   'Hf2 Th1 Co9'
_cell_volume   162.98121310
_cell_formula_units_Z   1
loop_
 _symmetry_equiv_pos_site_id
 _symmetry_equiv_pos_as_xyz
  1  'x, y, z'
loop_
 _atom_site_type_symbol
 _atom_site_label
 _atom_site_symmetry_multiplicity
 _atom_site_fract_x
 _atom_site_fract_y
 _atom_site_fract_z
 _atom_site_occupancy
  Hf  Hf0  1  0.858664  0.858664  0.424008  1
  Hf  Hf1  1  0.141336  0.141336  0.575992  1
  Th  Th2  1  0.000000  0.000000  0.000000  1
  Co  Co3  1  0.413045  0.413045  0.256722  1
  Co  Co4  1  0.917187  0.413045  0.256722  1
  Co  Co5  1  0.413045  0.917187  0.256722  1
  Co  Co6  1  0.586955  0.586955  0.743278  1
  Co  Co7  1  0.082813  0.586955  0.743278  1
  Co  Co8  1  0.586955  0.082813  0.743278  1
  Co  Co9  1  0.665743  0.665743  0.002768  1
  Co  Co10  1  0.334257  0.334257  0.997232  1
  Co  Co11  1  0.500000  0.500000  0.500000  1
