# generated using pymatgen
data_Zr2TaB2IrRu4
_symmetry_space_group_name_H-M   'P 1'
_cell_length_a   9.56018243
_cell_length_b   9.54493343
_cell_length_c   3.10407600
_cell_angle_alpha   90.00000000
_cell_angle_beta   90.00000000
_cell_angle_gamma   90.03427231
_symmetry_Int_Tables_number   1
_chemical_formula_structural   Zr2TaB2IrRu4
_chemical_formula_sum   'Zr4 Ta2 B4 Ir2 Ru8'
_cell_volume   283.25093459
_cell_formula_units_Z   2
loop_
 _symmetry_equiv_pos_site_id
 _symmetry_equiv_pos_as_xyz
  1  'x, y, z'
loop_
 _atom_site_type_symbol
 _atom_site_label
 _atom_site_symmetry_multiplicity
 _atom_site_fract_x
 _atom_site_fract_y
 _atom_site_fract_z
 _atom_site_occupancy
  Zr  Zr0  1  0.829282  0.675771  0.000000  1
  Zr  Zr1  1  0.170718  0.324229  0.000000  1
  Zr  Zr2  1  0.319921  0.826257  0.000000  1
  Zr  Zr3  1  0.680079  0.173743  0.000000  1
  Ta  Ta4  1  0.500000  0.500000  0.000000  1
  Ta  Ta5  1  0.000000  0.000000  0.000000  1
  B  B6  1  0.624001  0.884576  0.000000  1
  B  B7  1  0.375999  0.115424  0.000000  1
  B  B8  1  0.120849  0.621197  0.000000  1
  B  B9  1  0.879151  0.378803  0.000000  1
  Ir  Ir10  1  0.570281  0.719700  0.500000  1
  Ir  Ir11  1  0.429719  0.280300  0.500000  1
  Ru  Ru12  1  0.072286  0.781825  0.500000  1
  Ru  Ru13  1  0.927714  0.218175  0.500000  1
  Ru  Ru14  1  0.282416  0.569792  0.500000  1
  Ru  Ru15  1  0.717584  0.430208  0.500000  1
  Ru  Ru16  1  0.218215  0.072826  0.500000  1
  Ru  Ru17  1  0.781785  0.927174  0.500000  1
  Ru  Ru18  1  0.500000  0.000000  0.500000  1
  Ru  Ru19  1  0.000000  0.500000  0.500000  1
