# generated using pymatgen
data_Zr6Nb3Al13Ir7
_symmetry_space_group_name_H-M   'P 1'
_cell_length_a   8.84482398
_cell_length_b   8.84482516
_cell_length_c   8.84482401
_cell_angle_alpha   59.86504190
_cell_angle_beta   59.86503785
_cell_angle_gamma   59.86504789
_symmetry_Int_Tables_number   1
_chemical_formula_structural   Zr6Nb3Al13Ir7
_chemical_formula_sum   'Zr6 Nb3 Al13 Ir7'
_cell_volume   487.77621149
_cell_formula_units_Z   1
loop_
 _symmetry_equiv_pos_site_id
 _symmetry_equiv_pos_as_xyz
  1  'x, y, z'
loop_
 _atom_site_type_symbol
 _atom_site_label
 _atom_site_symmetry_multiplicity
 _atom_site_fract_x
 _atom_site_fract_y
 _atom_site_fract_z
 _atom_site_occupancy
  Zr  Zr0  1  0.690131  0.690131  0.307055  1
  Zr  Zr1  1  0.312614  0.686040  0.312614  1
  Zr  Zr2  1  0.686040  0.312614  0.312614  1
  Zr  Zr3  1  0.312614  0.312614  0.686040  1
  Zr  Zr4  1  0.690131  0.307055  0.690131  1
  Zr  Zr5  1  0.307055  0.690131  0.690131  1
  Nb  Nb6  1  0.878363  0.878363  0.362170  1
  Nb  Nb7  1  0.878363  0.362170  0.878363  1
  Nb  Nb8  1  0.362170  0.878363  0.878363  1
  Al  Al9  1  0.880885  0.880885  0.880885  1
  Al  Al10  1  0.119323  0.119323  0.636439  1
  Al  Al11  1  0.119323  0.636439  0.119323  1
  Al  Al12  1  0.636439  0.119323  0.119323  1
  Al  Al13  1  0.122411  0.122411  0.122411  1
  Al  Al14  1  0.664489  0.664489  0.014725  1
  Al  Al15  1  0.664489  0.014725  0.664489  1
  Al  Al16  1  0.014725  0.664489  0.664489  1
  Al  Al17  1  0.657908  0.657908  0.657908  1
  Al  Al18  1  0.338400  0.338400  0.987008  1
  Al  Al19  1  0.338400  0.987008  0.338400  1
  Al  Al20  1  0.987008  0.338400  0.338400  1
  Al  Al21  1  0.337147  0.337147  0.337147  1
  Ir  Ir22  1  0.001997  0.001997  0.001997  1
  Ir  Ir23  1  0.999470  0.999470  0.496824  1
  Ir  Ir24  1  0.502892  0.998027  0.502892  1
  Ir  Ir25  1  0.998027  0.502892  0.502892  1
  Ir  Ir26  1  0.502892  0.502892  0.998027  1
  Ir  Ir27  1  0.999470  0.496824  0.999470  1
  Ir  Ir28  1  0.496824  0.999470  0.999470  1
