# generated using pymatgen
data_CaYb2Ga9Ag2
_symmetry_space_group_name_H-M   'P 1'
_cell_length_a   8.34118552
_cell_length_b   8.34118456
_cell_length_c   8.34118424
_cell_angle_alpha   149.06696255
_cell_angle_beta   109.96270424
_cell_angle_gamma   78.51115843
_symmetry_Int_Tables_number   1
_chemical_formula_structural   CaYb2Ga9Ag2
_chemical_formula_sum   'Ca1 Yb2 Ga9 Ag2'
_cell_volume   275.07153331
_cell_formula_units_Z   1
loop_
 _symmetry_equiv_pos_site_id
 _symmetry_equiv_pos_as_xyz
  1  'x, y, z'
loop_
 _atom_site_type_symbol
 _atom_site_label
 _atom_site_symmetry_multiplicity
 _atom_site_fract_x
 _atom_site_fract_y
 _atom_site_fract_z
 _atom_site_occupancy
  Ca  Ca0  1  0.000000  0.000000  0.000000  1
  Yb  Yb1  1  0.297912  0.297912  0.000000  1
  Yb  Yb2  1  0.702088  0.702088  0.000000  1
  Ga  Ga3  1  0.707940  0.340855  0.367086  1
  Ga  Ga4  1  0.292060  0.659145  0.632914  1
  Ga  Ga5  1  0.973770  0.340855  0.632914  1
  Ga  Ga6  1  0.026230  0.659145  0.367086  1
  Ga  Ga7  1  0.429741  0.146896  0.282846  1
  Ga  Ga8  1  0.570259  0.853104  0.717154  1
  Ga  Ga9  1  0.864050  0.146896  0.717154  1
  Ga  Ga10  1  0.135950  0.853104  0.282846  1
  Ga  Ga11  1  0.500000  0.000000  0.500000  1
  Ag  Ag12  1  0.681248  0.500000  0.181248  1
  Ag  Ag13  1  0.318752  0.500000  0.818752  1
