# generated using pymatgen
data_Li(ZrPd4)3
_symmetry_space_group_name_H-M   'P 1'
_cell_length_a   5.69430400
_cell_length_b   5.69430407
_cell_length_c   9.25101400
_cell_angle_alpha   90.00000000
_cell_angle_beta   90.00000000
_cell_angle_gamma   119.99999960
_symmetry_Int_Tables_number   1
_chemical_formula_structural   Li(ZrPd4)3
_chemical_formula_sum   'Li1 Zr3 Pd12'
_cell_volume   259.77734556
_cell_formula_units_Z   1
loop_
 _symmetry_equiv_pos_site_id
 _symmetry_equiv_pos_as_xyz
  1  'x, y, z'
loop_
 _atom_site_type_symbol
 _atom_site_label
 _atom_site_symmetry_multiplicity
 _atom_site_fract_x
 _atom_site_fract_y
 _atom_site_fract_z
 _atom_site_occupancy
  Li  Li0  1  0.333333  0.666667  0.250000  1
  Zr  Zr1  1  0.000000  0.000000  0.495512  1
  Zr  Zr2  1  0.000000  0.000000  0.004488  1
  Zr  Zr3  1  0.666667  0.333333  0.750000  1
  Pd  Pd4  1  0.499536  0.500464  0.499133  1
  Pd  Pd5  1  0.499536  0.999071  0.499133  1
  Pd  Pd6  1  0.000929  0.500464  0.499133  1
  Pd  Pd7  1  0.499536  0.500464  0.000867  1
  Pd  Pd8  1  0.499536  0.999071  0.000867  1
  Pd  Pd9  1  0.000929  0.500464  0.000867  1
  Pd  Pd10  1  0.830718  0.169282  0.250000  1
  Pd  Pd11  1  0.830718  0.661435  0.250000  1
  Pd  Pd12  1  0.338565  0.169282  0.250000  1
  Pd  Pd13  1  0.169003  0.830997  0.750000  1
  Pd  Pd14  1  0.169003  0.338007  0.750000  1
  Pd  Pd15  1  0.661993  0.830997  0.750000  1
