# generated using pymatgen
data_TbY3Ga18(Ir2Pd)2
_symmetry_space_group_name_H-M   'P 1'
_cell_length_a   7.62339503
_cell_length_b   7.62346823
_cell_length_c   9.51050600
_cell_angle_alpha   90.00000000
_cell_angle_beta   90.00000000
_cell_angle_gamma   119.79792744
_symmetry_Int_Tables_number   1
_chemical_formula_structural   TbY3Ga18(Ir2Pd)2
_chemical_formula_sum   'Tb1 Y3 Ga18 Ir4 Pd2'
_cell_volume   479.64066496
_cell_formula_units_Z   1
loop_
 _symmetry_equiv_pos_site_id
 _symmetry_equiv_pos_as_xyz
  1  'x, y, z'
loop_
 _atom_site_type_symbol
 _atom_site_label
 _atom_site_symmetry_multiplicity
 _atom_site_fract_x
 _atom_site_fract_y
 _atom_site_fract_z
 _atom_site_occupancy
  Tb  Tb0  1  0.996633  0.669396  0.250000  1
  Y  Y1  1  0.003377  0.330606  0.750000  1
  Y  Y2  1  0.669399  0.996626  0.250000  1
  Y  Y3  1  0.330602  0.003376  0.750000  1
  Ga  Ga4  1  0.128690  0.128680  0.250000  1
  Ga  Ga5  1  0.871320  0.871321  0.750000  1
  Ga  Ga6  1  0.999209  0.337331  0.080990  1
  Ga  Ga7  1  0.000790  0.662665  0.919005  1
  Ga  Ga8  1  0.000790  0.662665  0.580995  1
  Ga  Ga9  1  0.337343  0.999215  0.419011  1
  Ga  Ga10  1  0.999209  0.337331  0.419010  1
  Ga  Ga11  1  0.662664  0.000794  0.580994  1
  Ga  Ga12  1  0.662664  0.000794  0.919006  1
  Ga  Ga13  1  0.337343  0.999215  0.080989  1
  Ga  Ga14  1  0.335345  0.335346  0.566935  1
  Ga  Ga15  1  0.664652  0.664656  0.433070  1
  Ga  Ga16  1  0.664652  0.664656  0.066930  1
  Ga  Ga17  1  0.335345  0.335346  0.933065  1
  Ga  Ga18  1  0.337702  0.545994  0.250000  1
  Ga  Ga19  1  0.662283  0.453988  0.750000  1
  Ga  Ga20  1  0.546005  0.337724  0.250000  1
  Ga  Ga21  1  0.453991  0.662284  0.750000  1
  Ir  Ir22  1  0.671401  0.328601  0.999997  1
  Ir  Ir23  1  0.328594  0.671397  0.999999  1
  Ir  Ir24  1  0.328594  0.671397  0.500001  1
  Ir  Ir25  1  0.671401  0.328601  0.500003  1
  Pd  Pd26  1  0.000002  0.999997  0.999998  1
  Pd  Pd27  1  0.000002  0.999997  0.500002  1
