# generated using pymatgen
data_Hf6Ti3Al13Fe7
_symmetry_space_group_name_H-M   'P 1'
_cell_length_a   8.58286109
_cell_length_b   8.58286151
_cell_length_c   8.58286270
_cell_angle_alpha   59.71135022
_cell_angle_beta   59.71135451
_cell_angle_gamma   59.71135543
_symmetry_Int_Tables_number   1
_chemical_formula_structural   Hf6Ti3Al13Fe7
_chemical_formula_sum   'Hf6 Ti3 Al13 Fe7'
_cell_volume   444.14491588
_cell_formula_units_Z   1
loop_
 _symmetry_equiv_pos_site_id
 _symmetry_equiv_pos_as_xyz
  1  'x, y, z'
loop_
 _atom_site_type_symbol
 _atom_site_label
 _atom_site_symmetry_multiplicity
 _atom_site_fract_x
 _atom_site_fract_y
 _atom_site_fract_z
 _atom_site_occupancy
  Hf  Hf0  1  0.704843  0.704843  0.290258  1
  Hf  Hf1  1  0.299675  0.699759  0.299675  1
  Hf  Hf2  1  0.699759  0.299675  0.299675  1
  Hf  Hf3  1  0.299675  0.299675  0.699759  1
  Hf  Hf4  1  0.704843  0.290258  0.704843  1
  Hf  Hf5  1  0.290258  0.704843  0.704843  1
  Ti  Ti6  1  0.881149  0.881149  0.356020  1
  Ti  Ti7  1  0.881149  0.356020  0.881149  1
  Ti  Ti8  1  0.356020  0.881149  0.881149  1
  Al  Al9  1  0.881996  0.881996  0.881996  1
  Al  Al10  1  0.119881  0.119881  0.644414  1
  Al  Al11  1  0.119881  0.644414  0.119881  1
  Al  Al12  1  0.644414  0.119881  0.119881  1
  Al  Al13  1  0.119045  0.119045  0.119045  1
  Al  Al14  1  0.665193  0.665193  0.002389  1
  Al  Al15  1  0.665193  0.002389  0.665193  1
  Al  Al16  1  0.002389  0.665193  0.665193  1
  Al  Al17  1  0.664705  0.664705  0.664705  1
  Al  Al18  1  0.333848  0.333848  0.998925  1
  Al  Al19  1  0.333848  0.998925  0.333848  1
  Al  Al20  1  0.998925  0.333848  0.333848  1
  Al  Al21  1  0.334150  0.334150  0.334150  1
  Fe  Fe22  1  0.001447  0.001447  0.001447  1
  Fe  Fe23  1  0.998340  0.998340  0.501759  1
  Fe  Fe24  1  0.501350  0.996577  0.501350  1
  Fe  Fe25  1  0.996577  0.501350  0.501350  1
  Fe  Fe26  1  0.501350  0.501350  0.996577  1
  Fe  Fe27  1  0.998340  0.501759  0.998340  1
  Fe  Fe28  1  0.501759  0.998340  0.998340  1
