# generated using pymatgen
data_Pr4AgPdAu2
_symmetry_space_group_name_H-M   'P 1'
_cell_length_a   4.82288600
_cell_length_b   5.90887744
_cell_length_c   7.50614100
_cell_angle_alpha   90.88095741
_cell_angle_beta   90.00000000
_cell_angle_gamma   90.00000000
_symmetry_Int_Tables_number   1
_chemical_formula_structural   Pr4AgPdAu2
_chemical_formula_sum   'Pr4 Ag1 Pd1 Au2'
_cell_volume   213.88353795
_cell_formula_units_Z   1
loop_
 _symmetry_equiv_pos_site_id
 _symmetry_equiv_pos_as_xyz
  1  'x, y, z'
loop_
 _atom_site_type_symbol
 _atom_site_label
 _atom_site_symmetry_multiplicity
 _atom_site_fract_x
 _atom_site_fract_y
 _atom_site_fract_z
 _atom_site_occupancy
  Pr  Pr0  1  0.250000  0.859894  0.691665  1
  Pr  Pr1  1  0.250000  0.647471  0.174974  1
  Pr  Pr2  1  0.750000  0.141140  0.311834  1
  Pr  Pr3  1  0.750000  0.354373  0.821370  1
  Ag  Ag4  1  0.750000  0.643329  0.462205  1
  Pd  Pd5  1  0.750000  0.848260  0.958568  1
  Au  Au6  1  0.250000  0.358236  0.537419  1
  Au  Au7  1  0.250000  0.147298  0.041962  1
