# generated using pymatgen
data_YbGe2(PO4)2
_symmetry_space_group_name_H-M   'P 1'
_cell_length_a   6.80258392
_cell_length_b   6.80279362
_cell_length_c   9.72346800
_cell_angle_alpha   66.70347018
_cell_angle_beta   113.29117389
_cell_angle_gamma   108.58533107
_symmetry_Int_Tables_number   1
_chemical_formula_structural   YbGe2(PO4)2
_chemical_formula_sum   'Yb2 Ge4 P4 O16'
_cell_volume   372.50889853
_cell_formula_units_Z   2
loop_
 _symmetry_equiv_pos_site_id
 _symmetry_equiv_pos_as_xyz
  1  'x, y, z'
loop_
 _atom_site_type_symbol
 _atom_site_label
 _atom_site_symmetry_multiplicity
 _atom_site_fract_x
 _atom_site_fract_y
 _atom_site_fract_z
 _atom_site_occupancy
  Yb  Yb0  1  0.897101  0.897101  0.750010  1
  Yb  Yb1  1  0.102902  0.102902  0.249989  1
  Ge  Ge2  1  0.265736  0.622943  0.483292  1
  Ge  Ge3  1  0.622928  0.265744  0.016735  1
  Ge  Ge4  1  0.377060  0.734242  0.983272  1
  Ge  Ge5  1  0.734275  0.377054  0.516727  1
  P  P6  1  0.972603  0.386279  0.844089  1
  P  P7  1  0.613707  0.027419  0.344091  1
  P  P8  1  0.386313  0.972570  0.655917  1
  P  P9  1  0.027378  0.613745  0.155902  1
  O  O10  1  0.255927  0.949848  0.764654  1
  O  O11  1  0.223889  0.893383  0.511840  1
  O  O12  1  0.050142  0.744071  0.264653  1
  O  O13  1  0.556958  0.830247  0.754976  1
  O  O14  1  0.106635  0.776095  0.011845  1
  O  O15  1  0.218628  0.481961  0.910553  1
  O  O16  1  0.169745  0.442943  0.255023  1
  O  O17  1  0.518021  0.781385  0.410560  1
  O  O18  1  0.481986  0.218616  0.589440  1
  O  O19  1  0.830262  0.557037  0.744982  1
  O  O20  1  0.781379  0.518044  0.089444  1
  O  O21  1  0.893364  0.223904  0.988150  1
  O  O22  1  0.443020  0.169772  0.245012  1
  O  O23  1  0.949850  0.255938  0.735338  1
  O  O24  1  0.776113  0.106614  0.488160  1
  O  O25  1  0.744076  0.050145  0.235348  1
