# generated using pymatgen
data_ZrTi5BI12
_symmetry_space_group_name_H-M   'P 1'
_cell_length_a   9.38517383
_cell_length_b   9.04854012
_cell_length_c   9.41325298
_cell_angle_alpha   107.00299484
_cell_angle_beta   107.17557337
_cell_angle_gamma   106.23166678
_symmetry_Int_Tables_number   1
_chemical_formula_structural   ZrTi5BI12
_chemical_formula_sum   'Zr1 Ti5 B1 I12'
_cell_volume   669.24071243
_cell_formula_units_Z   1
loop_
 _symmetry_equiv_pos_site_id
 _symmetry_equiv_pos_as_xyz
  1  'x, y, z'
loop_
 _atom_site_type_symbol
 _atom_site_label
 _atom_site_symmetry_multiplicity
 _atom_site_fract_x
 _atom_site_fract_y
 _atom_site_fract_z
 _atom_site_occupancy
  Zr  Zr0  1  0.028924  0.281492  0.089438  1
  Ti  Ti1  1  0.973146  0.742442  0.916121  1
  Ti  Ti2  1  0.250274  0.080002  0.025988  1
  Ti  Ti3  1  0.080995  0.023041  0.249018  1
  Ti  Ti4  1  0.918844  0.974862  0.750151  1
  Ti  Ti5  1  0.750698  0.917997  0.974092  1
  B  B6  1  0.000973  0.004767  0.001482  1
  I  I7  1  0.923246  0.294386  0.771263  1
  I  I8  1  0.700920  0.217119  0.072820  1
  I  I9  1  0.414831  0.127861  0.347319  1
  I  I10  1  0.864791  0.644282  0.580722  1
  I  I11  1  0.212993  0.071777  0.715309  1
  I  I12  1  0.651518  0.572890  0.862932  1
  I  I13  1  0.364141  0.430523  0.138309  1
  I  I14  1  0.787795  0.923714  0.284017  1
  I  I15  1  0.139549  0.356369  0.432555  1
  I  I16  1  0.583715  0.867665  0.653240  1
  I  I17  1  0.283023  0.775292  0.925786  1
  I  I18  1  0.069622  0.693519  0.209437  1
