# generated using pymatgen
data_Ho3In4PdRh
_symmetry_space_group_name_H-M   'P 1'
_cell_length_a   7.96294000
_cell_length_b   7.96293972
_cell_length_c   3.73127000
_cell_angle_alpha   90.00000000
_cell_angle_beta   90.00000000
_cell_angle_gamma   120.00000838
_symmetry_Int_Tables_number   1
_chemical_formula_structural   Ho3In4PdRh
_chemical_formula_sum   'Ho3 In4 Pd1 Rh1'
_cell_volume   204.89631253
_cell_formula_units_Z   1
loop_
 _symmetry_equiv_pos_site_id
 _symmetry_equiv_pos_as_xyz
  1  'x, y, z'
loop_
 _atom_site_type_symbol
 _atom_site_label
 _atom_site_symmetry_multiplicity
 _atom_site_fract_x
 _atom_site_fract_y
 _atom_site_fract_z
 _atom_site_occupancy
  Ho  Ho0  1  0.384650  0.418716  0.000000  1
  Ho  Ho1  1  0.034067  0.615349  0.000000  1
  Ho  Ho2  1  0.581284  0.965934  0.000000  1
  In  In3  1  0.001666  0.260498  0.500000  1
  In  In4  1  0.666666  0.333334  0.500000  1
  In  In5  1  0.739503  0.741167  0.500000  1
  In  In6  1  0.258833  0.998335  0.500000  1
  Pd  Pd7  1  0.000000  0.000000  0.000000  1
  Rh  Rh8  1  0.333333  0.666666  0.500000  1
