# generated using pymatgen
data_Tb6Tm4Si5P
_symmetry_space_group_name_H-M   'P 1'
_cell_length_a   8.40837600
_cell_length_b   8.41321909
_cell_length_c   6.25884000
_cell_angle_alpha   90.00000000
_cell_angle_beta   90.00000000
_cell_angle_gamma   119.98095941
_symmetry_Int_Tables_number   1
_chemical_formula_structural   Tb6Tm4Si5P
_chemical_formula_sum   'Tb6 Tm4 Si5 P1'
_cell_volume   383.51477313
_cell_formula_units_Z   1
loop_
 _symmetry_equiv_pos_site_id
 _symmetry_equiv_pos_as_xyz
  1  'x, y, z'
loop_
 _atom_site_type_symbol
 _atom_site_label
 _atom_site_symmetry_multiplicity
 _atom_site_fract_x
 _atom_site_fract_y
 _atom_site_fract_z
 _atom_site_occupancy
  Tb  Tb0  1  0.000924  0.755656  0.750000  1
  Tb  Tb1  1  0.000976  0.245460  0.250000  1
  Tb  Tb2  1  0.755516  0.754540  0.250000  1
  Tb  Tb3  1  0.753671  0.000000  0.750000  1
  Tb  Tb4  1  0.245268  0.244344  0.750000  1
  Tb  Tb5  1  0.245093  0.000000  0.250000  1
  Tm  Tm6  1  0.333705  0.667485  0.499894  1
  Tm  Tm7  1  0.666221  0.332515  0.000106  1
  Tm  Tm8  1  0.666221  0.332515  0.499894  1
  Tm  Tm9  1  0.333705  0.667485  0.000106  1
  Si  Si10  1  0.395010  0.394535  0.250000  1
  Si  Si11  1  0.000475  0.605465  0.250000  1
  Si  Si12  1  0.000101  0.394214  0.750000  1
  Si  Si13  1  0.605887  0.605786  0.750000  1
  Si  Si14  1  0.606375  0.000000  0.250000  1
  P  P15  1  0.390851  0.000000  0.750000  1
