# generated using pymatgen
data_Tb5Pr3Cd2CoPt
_symmetry_space_group_name_H-M   'P 1'
_cell_length_a   9.74133393
_cell_length_b   9.74133423
_cell_length_c   9.72291200
_cell_angle_alpha   60.06253871
_cell_angle_beta   60.06253769
_cell_angle_gamma   60.33589777
_symmetry_Int_Tables_number   1
_chemical_formula_structural   Tb5Pr3Cd2CoPt
_chemical_formula_sum   'Tb10 Pr6 Cd4 Co2 Pt2'
_cell_volume   654.66717239
_cell_formula_units_Z   2
loop_
 _symmetry_equiv_pos_site_id
 _symmetry_equiv_pos_as_xyz
  1  'x, y, z'
loop_
 _atom_site_type_symbol
 _atom_site_label
 _atom_site_symmetry_multiplicity
 _atom_site_fract_x
 _atom_site_fract_y
 _atom_site_fract_z
 _atom_site_occupancy
  Tb  Tb0  1  0.344589  0.344589  0.357188  1
  Tb  Tb1  1  0.344589  0.344589  0.953635  1
  Tb  Tb2  1  0.339640  0.960053  0.350153  1
  Tb  Tb3  1  0.960053  0.339640  0.350153  1
  Tb  Tb4  1  0.821360  0.186644  0.187657  1
  Tb  Tb5  1  0.186644  0.821360  0.804339  1
  Tb  Tb6  1  0.186644  0.821360  0.187657  1
  Tb  Tb7  1  0.821360  0.186644  0.804339  1
  Tb  Tb8  1  0.186695  0.186695  0.813305  1
  Tb  Tb9  1  0.811447  0.811447  0.188553  1
  Pr  Pr10  1  0.939474  0.559015  0.561174  1
  Pr  Pr11  1  0.559015  0.939474  0.940337  1
  Pr  Pr12  1  0.559015  0.939474  0.561174  1
  Pr  Pr13  1  0.939474  0.559015  0.940337  1
  Pr  Pr14  1  0.558210  0.558210  0.941790  1
  Pr  Pr15  1  0.938356  0.938356  0.561644  1
  Cd  Cd16  1  0.579361  0.579361  0.578423  1
  Cd  Cd17  1  0.579361  0.579361  0.262852  1
  Cd  Cd18  1  0.580574  0.261177  0.579124  1
  Cd  Cd19  1  0.261177  0.580574  0.579124  1
  Co  Co20  1  0.142378  0.142378  0.140747  1
  Co  Co21  1  0.142378  0.142378  0.574497  1
  Pt  Pt22  1  0.144501  0.573705  0.140897  1
  Pt  Pt23  1  0.573705  0.144501  0.140897  1
