# generated using pymatgen
data_Ti12V7Si16Ir
_symmetry_space_group_name_H-M   'P 1'
_cell_length_a   6.54760933
_cell_length_b   6.56173842
_cell_length_c   12.02076006
_cell_angle_alpha   89.76905867
_cell_angle_beta   90.17751559
_cell_angle_gamma   89.79685163
_symmetry_Int_Tables_number   1
_chemical_formula_structural   Ti12V7Si16Ir
_chemical_formula_sum   'Ti12 V7 Si16 Ir1'
_cell_volume   516.44638274
_cell_formula_units_Z   1
loop_
 _symmetry_equiv_pos_site_id
 _symmetry_equiv_pos_as_xyz
  1  'x, y, z'
loop_
 _atom_site_type_symbol
 _atom_site_label
 _atom_site_symmetry_multiplicity
 _atom_site_fract_x
 _atom_site_fract_y
 _atom_site_fract_z
 _atom_site_occupancy
  Ti  Ti0  1  0.842066  0.002263  0.880692  1
  Ti  Ti1  1  0.003334  0.343407  0.221434  1
  Ti  Ti2  1  0.159704  0.502816  0.468964  1
  Ti  Ti3  1  0.834859  0.498046  0.969062  1
  Ti  Ti4  1  0.501719  0.160251  0.529541  1
  Ti  Ti5  1  0.496358  0.835985  0.031129  1
  Ti  Ti6  1  0.997320  0.661909  0.720362  1
  Ti  Ti7  1  0.343781  0.004130  0.779342  1
  Ti  Ti8  1  0.658630  0.997223  0.280291  1
  Ti  Ti9  1  0.331921  0.667466  0.247712  1
  Ti  Ti10  1  0.666620  0.331307  0.751525  1
  Ti  Ti11  1  0.833577  0.834073  0.499315  1
  V  V12  1  0.994450  0.154376  0.623178  1
  V  V13  1  0.348510  0.497455  0.869148  1
  V  V14  1  0.653753  0.506335  0.371369  1
  V  V15  1  0.500782  0.349472  0.131935  1
  V  V16  1  0.503677  0.653023  0.627438  1
  V  V17  1  0.005208  0.834789  0.120157  1
  V  V18  1  0.153392  0.995889  0.376958  1
  Si  Si19  1  0.045886  0.300635  0.814985  1
  Si  Si20  1  0.206104  0.536726  0.059823  1
  Si  Si21  1  0.798228  0.457859  0.563084  1
  Si  Si22  1  0.537389  0.206532  0.941585  1
  Si  Si23  1  0.456384  0.798299  0.436362  1
  Si  Si24  1  0.957713  0.703257  0.312800  1
  Si  Si25  1  0.294623  0.044991  0.184089  1
  Si  Si26  1  0.700546  0.957139  0.685256  1
  Si  Si27  1  0.290948  0.364869  0.672517  1
  Si  Si28  1  0.137909  0.787485  0.923612  1
  Si  Si29  1  0.866039  0.209513  0.423061  1
  Si  Si30  1  0.791503  0.130871  0.080976  1
  Si  Si31  1  0.208286  0.867207  0.576700  1
  Si  Si32  1  0.709914  0.635065  0.173204  1
  Si  Si33  1  0.365766  0.290837  0.326836  1
  Si  Si34  1  0.632937  0.705831  0.824937  1
  Ir  Ir35  1  0.170165  0.172670  0.000622  1
