# generated using pymatgen
data_GdHf2TcF15
_symmetry_space_group_name_H-M   'P 1'
_cell_length_a   8.11751744
_cell_length_b   8.11751859
_cell_length_c   8.08267800
_cell_angle_alpha   79.69313669
_cell_angle_beta   79.69313523
_cell_angle_gamma   99.86749840
_symmetry_Int_Tables_number   1
_chemical_formula_structural   GdHf2TcF15
_chemical_formula_sum   'Gd2 Hf4 Tc2 F30'
_cell_volume   504.04283841
_cell_formula_units_Z   2
loop_
 _symmetry_equiv_pos_site_id
 _symmetry_equiv_pos_as_xyz
  1  'x, y, z'
loop_
 _atom_site_type_symbol
 _atom_site_label
 _atom_site_symmetry_multiplicity
 _atom_site_fract_x
 _atom_site_fract_y
 _atom_site_fract_z
 _atom_site_occupancy
  Gd  Gd0  1  0.177101  0.822899  0.250000  1
  Gd  Gd1  1  0.822899  0.177101  0.750000  1
  Hf  Hf2  1  0.741930  0.677184  0.673250  1
  Hf  Hf3  1  0.322816  0.258070  0.826750  1
  Hf  Hf4  1  0.258070  0.322816  0.326750  1
  Hf  Hf5  1  0.677184  0.741930  0.173250  1
  Tc  Tc6  1  0.750728  0.249272  0.250000  1
  Tc  Tc7  1  0.249272  0.750728  0.750000  1
  F  F8  1  0.314818  0.350782  0.055645  1
  F  F9  1  0.930677  0.809564  0.150843  1
  F  F10  1  0.841299  0.465936  0.684608  1
  F  F11  1  0.465936  0.841299  0.184608  1
  F  F12  1  0.809564  0.930677  0.650843  1
  F  F13  1  0.350782  0.314818  0.555644  1
  F  F14  1  0.685182  0.649218  0.944355  1
  F  F15  1  0.069323  0.190436  0.849157  1
  F  F16  1  0.158701  0.534064  0.315392  1
  F  F17  1  0.534064  0.158701  0.815392  1
  F  F18  1  0.190436  0.069323  0.349157  1
  F  F19  1  0.649218  0.685182  0.444355  1
  F  F20  1  0.772916  0.284101  0.001877  1
  F  F21  1  0.999368  0.273794  0.216384  1
  F  F22  1  0.778635  0.502389  0.223812  1
  F  F23  1  0.502389  0.778635  0.723812  1
  F  F24  1  0.273794  0.999368  0.716384  1
  F  F25  1  0.284101  0.772916  0.501877  1
  F  F26  1  0.227084  0.715899  0.998123  1
  F  F27  1  0.000632  0.726206  0.783616  1
  F  F28  1  0.221365  0.497611  0.776188  1
  F  F29  1  0.497611  0.221365  0.276188  1
  F  F30  1  0.726206  0.000632  0.283616  1
  F  F31  1  0.715899  0.227084  0.498123  1
  F  F32  1  0.470042  0.529958  0.250000  1
  F  F33  1  0.745898  0.950169  0.975867  1
  F  F34  1  0.049831  0.254102  0.524133  1
  F  F35  1  0.254102  0.049831  0.024133  1
  F  F36  1  0.950169  0.745898  0.475867  1
  F  F37  1  0.529958  0.470042  0.750000  1
