# generated using pymatgen
data_Zr3Ni4(BiSb)2
_symmetry_space_group_name_H-M   'P 1'
_cell_length_a   6.17149929
_cell_length_b   6.17149891
_cell_length_c   7.53850495
_cell_angle_alpha   65.83713040
_cell_angle_beta   65.83713234
_cell_angle_gamma   89.99999046
_symmetry_Int_Tables_number   1
_chemical_formula_structural   Zr3Ni4(BiSb)2
_chemical_formula_sum   'Zr3 Ni4 Bi2 Sb2'
_cell_volume   234.12246214
_cell_formula_units_Z   1
loop_
 _symmetry_equiv_pos_site_id
 _symmetry_equiv_pos_as_xyz
  1  'x, y, z'
loop_
 _atom_site_type_symbol
 _atom_site_label
 _atom_site_symmetry_multiplicity
 _atom_site_fract_x
 _atom_site_fract_y
 _atom_site_fract_z
 _atom_site_occupancy
  Zr  Zr0  1  0.500000  0.500000  0.000000  1
  Zr  Zr1  1  0.749999  0.250000  0.499999  1
  Zr  Zr2  1  0.250000  0.749999  0.499999  1
  Ni  Ni3  1  0.604709  0.128213  0.267077  1
  Ni  Ni4  1  0.128213  0.604709  0.267077  1
  Ni  Ni5  1  0.395292  0.395292  0.732922  1
  Ni  Ni6  1  0.871788  0.871788  0.732922  1
  Bi  Bi7  1  0.500000  0.000000  0.000000  1
  Bi  Bi8  1  0.000000  0.500000  0.000000  1
  Sb  Sb9  1  0.761760  0.761760  0.476478  1
  Sb  Sb10  1  0.238239  0.238239  0.523523  1
