# generated using pymatgen
data_ErLu3BCl6
_symmetry_space_group_name_H-M   'P 1'
_cell_length_a   3.77453400
_cell_length_b   12.39091081
_cell_length_c   12.84559348
_cell_angle_alpha   90.19432773
_cell_angle_beta   90.00000000
_cell_angle_gamma   90.00000000
_symmetry_Int_Tables_number   1
_chemical_formula_structural   ErLu3BCl6
_chemical_formula_sum   'Er2 Lu6 B2 Cl12'
_cell_volume   600.78384857
_cell_formula_units_Z   2
loop_
 _symmetry_equiv_pos_site_id
 _symmetry_equiv_pos_as_xyz
  1  'x, y, z'
loop_
 _atom_site_type_symbol
 _atom_site_label
 _atom_site_symmetry_multiplicity
 _atom_site_fract_x
 _atom_site_fract_y
 _atom_site_fract_z
 _atom_site_occupancy
  Er  Er0  1  0.500000  0.126412  0.851335  1
  Er  Er1  1  0.500000  0.873588  0.148665  1
  Lu  Lu2  1  0.000000  0.104673  0.082979  1
  Lu  Lu3  1  0.000000  0.895327  0.917021  1
  Lu  Lu4  1  0.000000  0.604747  0.417047  1
  Lu  Lu5  1  0.000000  0.395253  0.582953  1
  Lu  Lu6  1  0.500000  0.625621  0.647730  1
  Lu  Lu7  1  0.500000  0.374379  0.352270  1
  B  B8  1  0.500000  0.000000  0.000000  1
  B  B9  1  0.500000  0.500000  0.500000  1
  Cl  Cl10  1  0.500000  0.269021  0.681226  1
  Cl  Cl11  1  0.500000  0.730979  0.318774  1
  Cl  Cl12  1  0.500000  0.767498  0.817005  1
  Cl  Cl13  1  0.500000  0.232502  0.182995  1
  Cl  Cl14  1  0.000000  0.259383  0.931255  1
  Cl  Cl15  1  0.000000  0.740617  0.068745  1
  Cl  Cl16  1  0.000000  0.478179  0.242675  1
  Cl  Cl17  1  0.000000  0.521821  0.757325  1
  Cl  Cl18  1  0.000000  0.980550  0.258896  1
  Cl  Cl19  1  0.000000  0.019450  0.741104  1
  Cl  Cl20  1  0.000000  0.242697  0.429303  1
  Cl  Cl21  1  0.000000  0.757303  0.570697  1
