# generated using pymatgen
data_YbSc3ReB12Ru
_symmetry_space_group_name_H-M   'P 1'
_cell_length_a   3.52170300
_cell_length_b   8.95378780
_cell_length_c   11.28763601
_cell_angle_alpha   90.14858925
_cell_angle_beta   90.00000000
_cell_angle_gamma   90.00000000
_symmetry_Int_Tables_number   1
_chemical_formula_structural   YbSc3ReB12Ru
_chemical_formula_sum   'Yb2 Sc6 Re2 B24 Ru2'
_cell_volume   355.92710393
_cell_formula_units_Z   2
loop_
 _symmetry_equiv_pos_site_id
 _symmetry_equiv_pos_as_xyz
  1  'x, y, z'
loop_
 _atom_site_type_symbol
 _atom_site_label
 _atom_site_symmetry_multiplicity
 _atom_site_fract_x
 _atom_site_fract_y
 _atom_site_fract_z
 _atom_site_occupancy
  Yb  Yb0  1  0.000000  0.323335  0.414740  1
  Yb  Yb1  1  0.000000  0.676665  0.585260  1
  Sc  Sc2  1  0.000000  0.822641  0.084560  1
  Sc  Sc3  1  0.000000  0.177359  0.915440  1
  Sc  Sc4  1  0.000000  0.942332  0.368982  1
  Sc  Sc5  1  0.000000  0.057668  0.631018  1
  Sc  Sc6  1  0.000000  0.444188  0.128476  1
  Sc  Sc7  1  0.000000  0.555812  0.871524  1
  Re  Re8  1  0.000000  0.138015  0.179188  1
  Re  Re9  1  0.000000  0.861985  0.820812  1
  B  B10  1  0.500000  0.554426  0.431799  1
  B  B11  1  0.500000  0.445574  0.568201  1
  B  B12  1  0.500000  0.052684  0.064489  1
  B  B13  1  0.500000  0.947316  0.935511  1
  B  B14  1  0.500000  0.752883  0.417412  1
  B  B15  1  0.500000  0.247117  0.582588  1
  B  B16  1  0.500000  0.252800  0.077742  1
  B  B17  1  0.500000  0.747200  0.922258  1
  B  B18  1  0.500000  0.794237  0.262315  1
  B  B19  1  0.500000  0.205763  0.737685  1
  B  B20  1  0.500000  0.294758  0.234187  1
  B  B21  1  0.500000  0.705242  0.765813  1
  B  B22  1  0.500000  0.630255  0.181699  1
  B  B23  1  0.500000  0.369745  0.818301  1
  B  B24  1  0.500000  0.128475  0.316346  1
  B  B25  1  0.500000  0.871525  0.683654  1
  B  B26  1  0.500000  0.977801  0.210764  1
  B  B27  1  0.500000  0.022199  0.789236  1
  B  B28  1  0.500000  0.482089  0.285655  1
  B  B29  1  0.500000  0.517911  0.714345  1
  B  B30  1  0.500000  0.598801  0.027121  1
  B  B31  1  0.500000  0.401199  0.972879  1
  B  B32  1  0.500000  0.094138  0.474194  1
  B  B33  1  0.500000  0.905862  0.525806  1
  Ru  Ru34  1  0.000000  0.641998  0.316577  1
  Ru  Ru35  1  0.000000  0.358002  0.683423  1
