# generated using pymatgen
data_ErTmLu3Sn4
_symmetry_space_group_name_H-M   'P 1'
_cell_length_a   7.93294000
_cell_length_b   8.06010300
_cell_length_c   15.22997300
_cell_angle_alpha   90.00000000
_cell_angle_beta   90.00000000
_cell_angle_gamma   90.00000000
_symmetry_Int_Tables_number   1
_chemical_formula_structural   ErTmLu3Sn4
_chemical_formula_sum   'Er4 Tm4 Lu12 Sn16'
_cell_volume   973.80924811
_cell_formula_units_Z   4
loop_
 _symmetry_equiv_pos_site_id
 _symmetry_equiv_pos_as_xyz
  1  'x, y, z'
loop_
 _atom_site_type_symbol
 _atom_site_label
 _atom_site_symmetry_multiplicity
 _atom_site_fract_x
 _atom_site_fract_y
 _atom_site_fract_z
 _atom_site_occupancy
  Er  Er0  1  0.478021  0.679159  0.096663  1
  Er  Er1  1  0.978021  0.820841  0.403337  1
  Er  Er2  1  0.521979  0.320841  0.596663  1
  Er  Er3  1  0.021979  0.179159  0.903337  1
  Tm  Tm4  1  0.522331  0.320914  0.903056  1
  Tm  Tm5  1  0.022331  0.179086  0.596944  1
  Tm  Tm6  1  0.477669  0.679086  0.403056  1
  Tm  Tm7  1  0.977669  0.820914  0.096944  1
  Lu  Lu8  1  0.367454  0.837039  0.876976  1
  Lu  Lu9  1  0.867454  0.662961  0.623024  1
  Lu  Lu10  1  0.632546  0.162961  0.376976  1
  Lu  Lu11  1  0.132546  0.337039  0.123024  1
  Lu  Lu12  1  0.632483  0.163029  0.122984  1
  Lu  Lu13  1  0.132483  0.336971  0.377016  1
  Lu  Lu14  1  0.367517  0.836971  0.622984  1
  Lu  Lu15  1  0.867517  0.663029  0.877016  1
  Lu  Lu16  1  0.197758  0.504393  0.750042  1
  Lu  Lu17  1  0.697758  0.995607  0.749958  1
  Lu  Lu18  1  0.802242  0.495607  0.250042  1
  Lu  Lu19  1  0.302242  0.004393  0.249958  1
  Sn  Sn20  1  0.293349  0.037393  0.041385  1
  Sn  Sn21  1  0.793349  0.462607  0.458615  1
  Sn  Sn22  1  0.706651  0.962607  0.541385  1
  Sn  Sn23  1  0.206651  0.537393  0.958615  1
  Sn  Sn24  1  0.706116  0.962198  0.958923  1
  Sn  Sn25  1  0.206116  0.537802  0.541077  1
  Sn  Sn26  1  0.293884  0.037802  0.458923  1
  Sn  Sn27  1  0.793884  0.462198  0.041077  1
  Sn  Sn28  1  0.563689  0.620151  0.749975  1
  Sn  Sn29  1  0.063689  0.879849  0.750025  1
  Sn  Sn30  1  0.436311  0.379849  0.249975  1
  Sn  Sn31  1  0.936311  0.120151  0.250025  1
  Sn  Sn32  1  0.331757  0.149542  0.750095  1
  Sn  Sn33  1  0.831757  0.350458  0.749905  1
  Sn  Sn34  1  0.668243  0.850458  0.250095  1
  Sn  Sn35  1  0.168243  0.649542  0.249905  1
