# generated using pymatgen
data_Th3Al2CoNi2Au
_symmetry_space_group_name_H-M   'P 1'
_cell_length_a   7.00600828
_cell_length_b   7.18530351
_cell_length_c   4.05201500
_cell_angle_alpha   90.00000000
_cell_angle_beta   90.00000000
_cell_angle_gamma   120.64187389
_symmetry_Int_Tables_number   1
_chemical_formula_structural   Th3Al2CoNi2Au
_chemical_formula_sum   'Th3 Al2 Co1 Ni2 Au1'
_cell_volume   175.49791084
_cell_formula_units_Z   1
loop_
 _symmetry_equiv_pos_site_id
 _symmetry_equiv_pos_as_xyz
  1  'x, y, z'
loop_
 _atom_site_type_symbol
 _atom_site_label
 _atom_site_symmetry_multiplicity
 _atom_site_fract_x
 _atom_site_fract_y
 _atom_site_fract_z
 _atom_site_occupancy
  Th  Th0  1  0.003256  0.422669  0.500000  1
  Th  Th1  1  0.584213  0.584914  0.500000  1
  Th  Th2  1  0.411377  0.989363  0.500000  1
  Al  Al3  1  0.230675  0.230330  0.000000  1
  Al  Al4  1  0.768586  0.997105  0.000000  1
  Co  Co5  1  0.356089  0.662121  0.000000  1
  Ni  Ni6  1  0.646361  0.308954  0.000000  1
  Ni  Ni7  1  0.001040  0.039144  0.500000  1
  Au  Au8  1  0.998404  0.765400  0.000000  1
