# generated using pymatgen
data_Nd4Pd2RhAu
_symmetry_space_group_name_H-M   'P 1'
_cell_length_a   4.70992900
_cell_length_b   5.74046029
_cell_length_c   7.30896110
_cell_angle_alpha   89.15063686
_cell_angle_beta   90.00000000
_cell_angle_gamma   90.00000000
_symmetry_Int_Tables_number   1
_chemical_formula_structural   Nd4Pd2RhAu
_chemical_formula_sum   'Nd4 Pd2 Rh1 Au1'
_cell_volume   197.59184069
_cell_formula_units_Z   1
loop_
 _symmetry_equiv_pos_site_id
 _symmetry_equiv_pos_as_xyz
  1  'x, y, z'
loop_
 _atom_site_type_symbol
 _atom_site_label
 _atom_site_symmetry_multiplicity
 _atom_site_fract_x
 _atom_site_fract_y
 _atom_site_fract_z
 _atom_site_occupancy
  Nd  Nd0  1  0.250000  0.363775  0.674542  1
  Nd  Nd1  1  0.250000  0.136316  0.192564  1
  Nd  Nd2  1  0.750000  0.648671  0.325108  1
  Nd  Nd3  1  0.750000  0.856850  0.805343  1
  Pd  Pd4  1  0.250000  0.651849  0.040430  1
  Pd  Pd5  1  0.750000  0.153391  0.457194  1
  Rh  Rh6  1  0.250000  0.836522  0.543042  1
  Au  Au7  1  0.750000  0.352627  0.961777  1
