# generated using pymatgen
data_Y10IrPt5
_symmetry_space_group_name_H-M   'P 1'
_cell_length_a   11.09434800
_cell_length_b   11.09434800
_cell_length_c   6.44765000
_cell_angle_alpha   90.00000000
_cell_angle_beta   90.00000000
_cell_angle_gamma   90.00000000
_symmetry_Int_Tables_number   1
_chemical_formula_structural   Y10IrPt5
_chemical_formula_sum   'Y20 Ir2 Pt10'
_cell_volume   793.60614746
_cell_formula_units_Z   2
loop_
 _symmetry_equiv_pos_site_id
 _symmetry_equiv_pos_as_xyz
  1  'x, y, z'
loop_
 _atom_site_type_symbol
 _atom_site_label
 _atom_site_symmetry_multiplicity
 _atom_site_fract_x
 _atom_site_fract_y
 _atom_site_fract_z
 _atom_site_occupancy
  Y  Y0  1  0.292472  0.088455  0.376991  1
  Y  Y1  1  0.292472  0.911545  0.876991  1
  Y  Y2  1  0.707528  0.088455  0.876991  1
  Y  Y3  1  0.707528  0.911545  0.376991  1
  Y  Y4  1  0.588455  0.792472  0.876991  1
  Y  Y5  1  0.588455  0.207528  0.376991  1
  Y  Y6  1  0.411545  0.792472  0.376991  1
  Y  Y7  1  0.411545  0.207528  0.876991  1
  Y  Y8  1  0.205274  0.412097  0.623666  1
  Y  Y9  1  0.205274  0.587903  0.123666  1
  Y  Y10  1  0.794726  0.412097  0.123666  1
  Y  Y11  1  0.794726  0.587903  0.623666  1
  Y  Y12  1  0.912097  0.705274  0.123666  1
  Y  Y13  1  0.912097  0.294726  0.623666  1
  Y  Y14  1  0.087903  0.705274  0.623666  1
  Y  Y15  1  0.087903  0.294726  0.123666  1
  Y  Y16  1  0.000000  0.000000  0.500557  1
  Y  Y17  1  0.000000  0.000000  0.000557  1
  Y  Y18  1  0.500000  0.500000  0.000557  1
  Y  Y19  1  0.500000  0.500000  0.500557  1
  Ir  Ir20  1  0.000000  0.500000  0.877751  1
  Ir  Ir21  1  0.000000  0.500000  0.377751  1
  Pt  Pt22  1  0.845663  0.153047  0.249912  1
  Pt  Pt23  1  0.845663  0.846953  0.749912  1
  Pt  Pt24  1  0.154337  0.153047  0.749912  1
  Pt  Pt25  1  0.154337  0.846953  0.249912  1
  Pt  Pt26  1  0.653047  0.345663  0.749912  1
  Pt  Pt27  1  0.653047  0.654337  0.249912  1
  Pt  Pt28  1  0.346953  0.345663  0.249912  1
  Pt  Pt29  1  0.346953  0.654337  0.749912  1
  Pt  Pt30  1  0.500000  0.000000  0.118862  1
  Pt  Pt31  1  0.500000  0.000000  0.618862  1
