# generated using pymatgen
data_Ca7La(NdIr2)2
_symmetry_space_group_name_H-M   'P 1'
_cell_length_a   8.71267100
_cell_length_b   8.78151836
_cell_length_c   7.55170095
_cell_angle_alpha   83.40844338
_cell_angle_beta   82.73183584
_cell_angle_gamma   45.05225256
_symmetry_Int_Tables_number   1
_chemical_formula_structural   Ca7La(NdIr2)2
_chemical_formula_sum   'Ca7 La1 Nd2 Ir4'
_cell_volume   405.37596664
_cell_formula_units_Z   1
loop_
 _symmetry_equiv_pos_site_id
 _symmetry_equiv_pos_as_xyz
  1  'x, y, z'
loop_
 _atom_site_type_symbol
 _atom_site_label
 _atom_site_symmetry_multiplicity
 _atom_site_fract_x
 _atom_site_fract_y
 _atom_site_fract_z
 _atom_site_occupancy
  Ca  Ca0  1  0.196477  0.984683  0.579598  1
  Ca  Ca1  1  0.984219  0.197847  0.084599  1
  Ca  Ca2  1  0.806431  0.018285  0.416502  1
  Ca  Ca3  1  0.361181  0.202364  0.820970  1
  Ca  Ca4  1  0.795738  0.638822  0.678127  1
  Ca  Ca5  1  0.636640  0.795927  0.181045  1
  Ca  Ca6  1  0.201672  0.362380  0.319812  1
  La  La7  1  0.014946  0.808900  0.913847  1
  Nd  Nd8  1  0.572657  0.432463  0.746821  1
  Nd  Nd9  1  0.433915  0.564489  0.251744  1
  Ir  Ir10  1  0.178313  0.607412  0.590267  1
  Ir  Ir11  1  0.389914  0.811036  0.923776  1
  Ir  Ir12  1  0.812405  0.402417  0.420984  1
  Ir  Ir13  1  0.615492  0.172976  0.071906  1
