# generated using pymatgen
data_Er6Co16MoP12W
_symmetry_space_group_name_H-M   'P 1'
_cell_length_a   3.70828200
_cell_length_b   10.53206800
_cell_length_c   12.21140000
_cell_angle_alpha   90.00000000
_cell_angle_beta   90.00000000
_cell_angle_gamma   90.00000000
_symmetry_Int_Tables_number   1
_chemical_formula_structural   Er6Co16MoP12W
_chemical_formula_sum   'Er6 Co16 Mo1 P12 W1'
_cell_volume   476.92695089
_cell_formula_units_Z   1
loop_
 _symmetry_equiv_pos_site_id
 _symmetry_equiv_pos_as_xyz
  1  'x, y, z'
loop_
 _atom_site_type_symbol
 _atom_site_label
 _atom_site_symmetry_multiplicity
 _atom_site_fract_x
 _atom_site_fract_y
 _atom_site_fract_z
 _atom_site_occupancy
  Er  Er0  1  0.750000  0.250000  0.475251  1
  Er  Er1  1  0.250000  0.750000  0.524497  1
  Er  Er2  1  0.250000  0.930518  0.794784  1
  Er  Er3  1  0.250000  0.569482  0.794784  1
  Er  Er4  1  0.750000  0.069237  0.205095  1
  Er  Er5  1  0.750000  0.430763  0.205095  1
  Co  Co6  1  0.250000  0.250000  0.299144  1
  Co  Co7  1  0.750000  0.750000  0.701085  1
  Co  Co8  1  0.750000  0.250000  0.013159  1
  Co  Co9  1  0.250000  0.750000  0.986286  1
  Co  Co10  1  0.250000  0.417128  0.009936  1
  Co  Co11  1  0.250000  0.082872  0.009936  1
  Co  Co12  1  0.750000  0.582362  0.989824  1
  Co  Co13  1  0.750000  0.917638  0.989824  1
  Co  Co14  1  0.250000  0.454077  0.568455  1
  Co  Co15  1  0.250000  0.045923  0.568455  1
  Co  Co16  1  0.750000  0.546085  0.431552  1
  Co  Co17  1  0.750000  0.953915  0.431552  1
  Co  Co18  1  0.250000  0.872327  0.293678  1
  Co  Co19  1  0.250000  0.627673  0.293678  1
  Co  Co20  1  0.750000  0.127721  0.707238  1
  Co  Co21  1  0.750000  0.372279  0.707238  1
  Mo  Mo22  1  0.750000  0.750000  0.156791  1
  P  P23  1  0.250000  0.250000  0.120524  1
  P  P24  1  0.750000  0.750000  0.880044  1
  P  P25  1  0.250000  0.250000  0.648803  1
  P  P26  1  0.750000  0.750000  0.350321  1
  P  P27  1  0.250000  0.437773  0.383782  1
  P  P28  1  0.250000  0.062227  0.383782  1
  P  P29  1  0.750000  0.562176  0.616161  1
  P  P30  1  0.750000  0.937824  0.616161  1
  P  P31  1  0.250000  0.905880  0.107680  1
  P  P32  1  0.250000  0.594120  0.107680  1
  P  P33  1  0.750000  0.093848  0.892294  1
  P  P34  1  0.750000  0.406152  0.892294  1
  W  W35  1  0.250000  0.250000  0.843139  1
