# generated using pymatgen
data_MnAl2H7
_symmetry_space_group_name_H-M   'P 1'
_cell_length_a   4.23411674
_cell_length_b   4.18128171
_cell_length_c   5.46884802
_cell_angle_alpha   111.68222328
_cell_angle_beta   111.32478933
_cell_angle_gamma   60.29799587
_symmetry_Int_Tables_number   1
_chemical_formula_structural   MnAl2H7
_chemical_formula_sum   'Mn1 Al2 H7'
_cell_volume   76.16837820
_cell_formula_units_Z   1
loop_
 _symmetry_equiv_pos_site_id
 _symmetry_equiv_pos_as_xyz
  1  'x, y, z'
loop_
 _atom_site_type_symbol
 _atom_site_label
 _atom_site_symmetry_multiplicity
 _atom_site_fract_x
 _atom_site_fract_y
 _atom_site_fract_z
 _atom_site_occupancy
  Mn  Mn0  1  0.825713  0.344069  0.881314  1
  Al  Al1  1  0.206769  0.728230  0.037252  1
  Al  Al2  1  0.446009  0.959985  0.725640  1
  H  H3  1  0.469856  0.351760  0.641311  1
  H  H4  1  0.323597  0.843717  0.381375  1
  H  H5  1  0.668304  0.742060  0.084656  1
  H  H6  1  0.189248  0.326920  0.115542  1
  H  H7  1  0.771326  0.210973  0.094827  1
  H  H8  1  0.989388  0.942979  0.682725  1
  H  H9  1  0.881349  0.477236  0.668280  1
