# generated using pymatgen
data_Dy8HoLu(SiB4)4
_symmetry_space_group_name_H-M   'P 1'
_cell_length_a   7.21399100
_cell_length_b   7.21399100
_cell_length_c   8.06995600
_cell_angle_alpha   90.00000000
_cell_angle_beta   90.00000000
_cell_angle_gamma   90.00000000
_symmetry_Int_Tables_number   1
_chemical_formula_structural   Dy8HoLu(SiB4)4
_chemical_formula_sum   'Dy8 Ho1 Lu1 Si4 B16'
_cell_volume   419.97395598
_cell_formula_units_Z   1
loop_
 _symmetry_equiv_pos_site_id
 _symmetry_equiv_pos_as_xyz
  1  'x, y, z'
loop_
 _atom_site_type_symbol
 _atom_site_label
 _atom_site_symmetry_multiplicity
 _atom_site_fract_x
 _atom_site_fract_y
 _atom_site_fract_z
 _atom_site_occupancy
  Dy  Dy0  1  0.680021  0.180578  0.224649  1
  Dy  Dy1  1  0.319979  0.819422  0.775351  1
  Dy  Dy2  1  0.319979  0.819422  0.224649  1
  Dy  Dy3  1  0.819422  0.680021  0.224649  1
  Dy  Dy4  1  0.819422  0.680021  0.775351  1
  Dy  Dy5  1  0.680021  0.180578  0.775351  1
  Dy  Dy6  1  0.180578  0.319979  0.775351  1
  Dy  Dy7  1  0.180578  0.319979  0.224649  1
  Ho  Ho8  1  0.000000  0.000000  0.500000  1
  Lu  Lu9  1  0.500000  0.500000  0.500000  1
  Si  Si10  1  0.117007  0.614209  0.500000  1
  Si  Si11  1  0.882993  0.385791  0.500000  1
  Si  Si12  1  0.385791  0.117007  0.500000  1
  Si  Si13  1  0.614209  0.882993  0.500000  1
  B  B14  1  0.172372  0.039146  0.000000  1
  B  B15  1  0.827628  0.960854  0.000000  1
  B  B16  1  0.960854  0.172372  0.000000  1
  B  B17  1  0.327660  0.539050  0.000000  1
  B  B18  1  0.039146  0.827628  0.000000  1
  B  B19  1  0.672340  0.460950  0.000000  1
  B  B20  1  0.539050  0.672340  0.000000  1
  B  B21  1  0.460950  0.327660  0.000000  1
  B  B22  1  0.089993  0.590115  0.000000  1
  B  B23  1  0.910007  0.409885  0.000000  1
  B  B24  1  0.409885  0.089993  0.000000  1
  B  B25  1  0.590115  0.910007  0.000000  1
  B  B26  1  0.000000  0.000000  0.162279  1
  B  B27  1  0.000000  0.000000  0.837721  1
  B  B28  1  0.500000  0.500000  0.836927  1
  B  B29  1  0.500000  0.500000  0.163073  1
