# generated using pymatgen
data_Ho20TlSn7Ru4
_symmetry_space_group_name_H-M   'P 1'
_cell_length_a   7.76716580
_cell_length_b   9.07301379
_cell_length_c   12.14655000
_cell_angle_alpha   90.02674388
_cell_angle_beta   90.19889004
_cell_angle_gamma   89.94098887
_symmetry_Int_Tables_number   1
_chemical_formula_structural   Ho20TlSn7Ru4
_chemical_formula_sum   'Ho20 Tl1 Sn7 Ru4'
_cell_volume   855.98113840
_cell_formula_units_Z   1
loop_
 _symmetry_equiv_pos_site_id
 _symmetry_equiv_pos_as_xyz
  1  'x, y, z'
loop_
 _atom_site_type_symbol
 _atom_site_label
 _atom_site_symmetry_multiplicity
 _atom_site_fract_x
 _atom_site_fract_y
 _atom_site_fract_z
 _atom_site_occupancy
  Ho  Ho0  1  0.848380  0.749967  0.785985  1
  Ho  Ho1  1  0.151900  0.249428  0.214574  1
  Ho  Ho2  1  0.348621  0.252044  0.715122  1
  Ho  Ho3  1  0.651472  0.749691  0.284592  1
  Ho  Ho4  1  0.378899  0.749353  0.697153  1
  Ho  Ho5  1  0.622009  0.250277  0.302524  1
  Ho  Ho6  1  0.878014  0.251466  0.803772  1
  Ho  Ho7  1  0.122375  0.749627  0.196653  1
  Ho  Ho8  1  0.957992  0.749291  0.502930  1
  Ho  Ho9  1  0.041082  0.249738  0.497332  1
  Ho  Ho10  1  0.459310  0.249213  0.997563  1
  Ho  Ho11  1  0.541661  0.750166  0.002690  1
  Ho  Ho12  1  0.676418  0.034651  0.570598  1
  Ho  Ho13  1  0.321591  0.964460  0.427425  1
  Ho  Ho14  1  0.178388  0.964831  0.930076  1
  Ho  Ho15  1  0.321033  0.534469  0.428937  1
  Ho  Ho16  1  0.821216  0.035642  0.070889  1
  Ho  Ho17  1  0.678101  0.465455  0.569958  1
  Ho  Ho18  1  0.821549  0.464855  0.070708  1
  Ho  Ho19  1  0.177955  0.535858  0.929903  1
  Tl  Tl20  1  0.080381  0.995661  0.668907  1
  Sn  Sn21  1  0.577466  0.495411  0.832220  1
  Sn  Sn22  1  0.422220  0.504263  0.167936  1
  Sn  Sn23  1  0.077134  0.504828  0.668841  1
  Sn  Sn24  1  0.422601  0.995348  0.168434  1
  Sn  Sn25  1  0.923522  0.495350  0.330847  1
  Sn  Sn26  1  0.577599  0.004475  0.831728  1
  Sn  Sn27  1  0.922694  0.004235  0.331232  1
  Ru  Ru28  1  0.574784  0.749532  0.507894  1
  Ru  Ru29  1  0.424727  0.249429  0.491868  1
  Ru  Ru30  1  0.073843  0.250458  0.992126  1
  Ru  Ru31  1  0.925066  0.750527  0.008583  1
