# generated using pymatgen
data_Sm4ReTc4Os3
_symmetry_space_group_name_H-M   'P 1'
_cell_length_a   5.32157732
_cell_length_b   5.42256783
_cell_length_c   9.25945500
_cell_angle_alpha   90.00000000
_cell_angle_beta   90.00000000
_cell_angle_gamma   121.51263848
_symmetry_Int_Tables_number   1
_chemical_formula_structural   Sm4ReTc4Os3
_chemical_formula_sum   'Sm4 Re1 Tc4 Os3'
_cell_volume   227.79168273
_cell_formula_units_Z   1
loop_
 _symmetry_equiv_pos_site_id
 _symmetry_equiv_pos_as_xyz
  1  'x, y, z'
loop_
 _atom_site_type_symbol
 _atom_site_label
 _atom_site_symmetry_multiplicity
 _atom_site_fract_x
 _atom_site_fract_y
 _atom_site_fract_z
 _atom_site_occupancy
  Sm  Sm0  1  0.336075  0.668417  0.436601  1
  Sm  Sm1  1  0.666885  0.333590  0.561716  1
  Sm  Sm2  1  0.666885  0.333590  0.938284  1
  Sm  Sm3  1  0.336075  0.668417  0.063399  1
  Re  Re4  1  0.323057  0.164315  0.250000  1
  Tc  Tc5  1  0.168901  0.336896  0.750000  1
  Tc  Tc6  1  0.172759  0.828725  0.750000  1
  Tc  Tc7  1  0.824044  0.657087  0.250000  1
  Tc  Tc8  1  0.666756  0.833199  0.750000  1
  Os  Os9  1  0.008393  0.001668  0.001510  1
  Os  Os10  1  0.821777  0.172428  0.250000  1
  Os  Os11  1  0.008393  0.001668  0.498490  1
