# generated using pymatgen
data_LiNd17(YIr6)2
_symmetry_space_group_name_H-M   'P 1'
_cell_length_a   11.21797100
_cell_length_b   11.21797100
_cell_length_c   6.45232700
_cell_angle_alpha   90.00000000
_cell_angle_beta   90.00000000
_cell_angle_gamma   90.00000000
_symmetry_Int_Tables_number   1
_chemical_formula_structural   LiNd17(YIr6)2
_chemical_formula_sum   'Li1 Nd17 Y2 Ir12'
_cell_volume   811.97936952
_cell_formula_units_Z   1
loop_
 _symmetry_equiv_pos_site_id
 _symmetry_equiv_pos_as_xyz
  1  'x, y, z'
loop_
 _atom_site_type_symbol
 _atom_site_label
 _atom_site_symmetry_multiplicity
 _atom_site_fract_x
 _atom_site_fract_y
 _atom_site_fract_z
 _atom_site_occupancy
  Li  Li0  1  0.000000  0.000000  0.000000  1
  Nd  Nd1  1  0.083535  0.277989  0.114555  1
  Nd  Nd2  1  0.790464  0.414732  0.117745  1
  Nd  Nd3  1  0.209536  0.585268  0.117745  1
  Nd  Nd4  1  0.916465  0.722011  0.114555  1
  Nd  Nd5  1  0.409480  0.789781  0.384821  1
  Nd  Nd6  1  0.590520  0.210219  0.384821  1
  Nd  Nd7  1  0.292037  0.088678  0.383829  1
  Nd  Nd8  1  0.707963  0.911322  0.383829  1
  Nd  Nd9  1  0.414732  0.209536  0.882255  1
  Nd  Nd10  1  0.722011  0.083535  0.885445  1
  Nd  Nd11  1  0.277989  0.916465  0.885445  1
  Nd  Nd12  1  0.585268  0.790464  0.882255  1
  Nd  Nd13  1  0.088678  0.707963  0.616171  1
  Nd  Nd14  1  0.911322  0.292037  0.616171  1
  Nd  Nd15  1  0.210219  0.409480  0.615179  1
  Nd  Nd16  1  0.789781  0.590520  0.615179  1
  Nd  Nd17  1  0.000000  0.000000  0.500000  1
  Y  Y18  1  0.500000  0.500000  0.000000  1
  Y  Y19  1  0.500000  0.500000  0.500000  1
  Ir  Ir20  1  0.155924  0.845759  0.257233  1
  Ir  Ir21  1  0.349688  0.349552  0.247010  1
  Ir  Ir22  1  0.650312  0.650448  0.247010  1
  Ir  Ir23  1  0.844076  0.154241  0.257233  1
  Ir  Ir24  1  0.349552  0.650312  0.752990  1
  Ir  Ir25  1  0.154241  0.155924  0.742767  1
  Ir  Ir26  1  0.845759  0.844076  0.742767  1
  Ir  Ir27  1  0.650448  0.349688  0.752990  1
  Ir  Ir28  1  0.000000  0.500000  0.377785  1
  Ir  Ir29  1  0.500000  0.000000  0.114003  1
  Ir  Ir30  1  0.500000  0.000000  0.622215  1
  Ir  Ir31  1  0.000000  0.500000  0.885997  1
