# generated using pymatgen
data_Gd20Ir7Rh4Au
_symmetry_space_group_name_H-M   'P 1'
_cell_length_a   11.00794200
_cell_length_b   11.00794274
_cell_length_c   6.40997600
_cell_angle_alpha   90.00144698
_cell_angle_beta   90.00144698
_cell_angle_gamma   89.55384285
_symmetry_Int_Tables_number   1
_chemical_formula_structural   Gd20Ir7Rh4Au
_chemical_formula_sum   'Gd20 Ir7 Rh4 Au1'
_cell_volume   776.70398026
_cell_formula_units_Z   1
loop_
 _symmetry_equiv_pos_site_id
 _symmetry_equiv_pos_as_xyz
  1  'x, y, z'
loop_
 _atom_site_type_symbol
 _atom_site_label
 _atom_site_symmetry_multiplicity
 _atom_site_fract_x
 _atom_site_fract_y
 _atom_site_fract_z
 _atom_site_occupancy
  Gd  Gd0  1  0.289056  0.089435  0.379363  1
  Gd  Gd1  1  0.291937  0.909754  0.879027  1
  Gd  Gd2  1  0.704639  0.085775  0.866467  1
  Gd  Gd3  1  0.706258  0.903624  0.382280  1
  Gd  Gd4  1  0.589526  0.789601  0.881712  1
  Gd  Gd5  1  0.580517  0.211358  0.380648  1
  Gd  Gd6  1  0.409334  0.789813  0.380958  1
  Gd  Gd7  1  0.408544  0.209277  0.880900  1
  Gd  Gd8  1  0.210318  0.410333  0.618250  1
  Gd  Gd9  1  0.210121  0.590503  0.119010  1
  Gd  Gd10  1  0.788797  0.419409  0.119351  1
  Gd  Gd11  1  0.790895  0.591182  0.619123  1
  Gd  Gd12  1  0.910795  0.710798  0.120603  1
  Gd  Gd13  1  0.914392  0.295371  0.633502  1
  Gd  Gd14  1  0.090288  0.707946  0.620960  1
  Gd  Gd15  1  0.096462  0.293767  0.117765  1
  Gd  Gd16  1  0.002938  0.995724  0.501825  1
  Gd  Gd17  1  0.004380  0.997181  0.998163  1
  Gd  Gd18  1  0.498898  0.498949  0.998682  1
  Gd  Gd19  1  0.500934  0.501021  0.501351  1
  Ir  Ir20  1  0.845942  0.847580  0.749772  1
  Ir  Ir21  1  0.152400  0.154206  0.750266  1
  Ir  Ir22  1  0.155373  0.844586  0.250004  1
  Ir  Ir23  1  0.656074  0.343961  0.750004  1
  Ir  Ir24  1  0.654711  0.652778  0.248340  1
  Ir  Ir25  1  0.347071  0.345287  0.251629  1
  Ir  Ir26  1  0.345621  0.654256  0.750033  1
  Rh  Rh27  1  0.501006  0.000158  0.125129  1
  Rh  Rh28  1  0.499897  0.000633  0.621881  1
  Rh  Rh29  1  0.999542  0.499948  0.878145  1
  Rh  Rh30  1  0.000096  0.498879  0.374834  1
  Au  Au31  1  0.843238  0.156909  0.250021  1
