# generated using pymatgen
data_Tm20GaFe2Bi9
_symmetry_space_group_name_H-M   'P 1'
_cell_length_a   7.88988836
_cell_length_b   9.29399900
_cell_length_c   12.05376371
_cell_angle_alpha   90.00000000
_cell_angle_beta   89.95225093
_cell_angle_gamma   90.00000000
_symmetry_Int_Tables_number   1
_chemical_formula_structural   Tm20GaFe2Bi9
_chemical_formula_sum   'Tm20 Ga1 Fe2 Bi9'
_cell_volume   883.88548539
_cell_formula_units_Z   1
loop_
 _symmetry_equiv_pos_site_id
 _symmetry_equiv_pos_as_xyz
  1  'x, y, z'
loop_
 _atom_site_type_symbol
 _atom_site_label
 _atom_site_symmetry_multiplicity
 _atom_site_fract_x
 _atom_site_fract_y
 _atom_site_fract_z
 _atom_site_occupancy
  Tm  Tm0  1  0.679752  0.927521  0.436147  1
  Tm  Tm1  1  0.820260  0.562582  0.937453  1
  Tm  Tm2  1  0.323292  0.481365  0.566874  1
  Tm  Tm3  1  0.169833  0.026796  0.060609  1
  Tm  Tm4  1  0.323292  0.018635  0.566874  1
  Tm  Tm5  1  0.169833  0.473204  0.060609  1
  Tm  Tm6  1  0.679752  0.572479  0.436147  1
  Tm  Tm7  1  0.820260  0.937418  0.937453  1
  Tm  Tm8  1  0.341965  0.750000  0.298292  1
  Tm  Tm9  1  0.157066  0.750000  0.798916  1
  Tm  Tm10  1  0.684805  0.250000  0.734260  1
  Tm  Tm11  1  0.836087  0.250000  0.213398  1
  Tm  Tm12  1  0.057609  0.750000  0.504734  1
  Tm  Tm13  1  0.438838  0.750000  0.007431  1
  Tm  Tm14  1  0.989735  0.250000  0.506570  1
  Tm  Tm15  1  0.530304  0.250000  0.005627  1
  Tm  Tm16  1  0.887542  0.750000  0.188343  1
  Tm  Tm17  1  0.612632  0.750000  0.689791  1
  Tm  Tm18  1  0.142586  0.250000  0.788652  1
  Tm  Tm19  1  0.344559  0.250000  0.279363  1
  Ga  Ga20  1  0.904480  0.250000  0.970743  1
  Fe  Fe21  1  0.074690  0.750000  0.009791  1
  Fe  Fe22  1  0.422886  0.750000  0.510741  1
  Bi  Bi23  1  0.593626  0.250000  0.475352  1
  Bi  Bi24  1  0.570923  0.991819  0.175207  1
  Bi  Bi25  1  0.927474  0.510830  0.672721  1
  Bi  Bi26  1  0.432655  0.488700  0.830293  1
  Bi  Bi27  1  0.066107  0.010470  0.329694  1
  Bi  Bi28  1  0.432655  0.011300  0.830293  1
  Bi  Bi29  1  0.066107  0.489530  0.329694  1
  Bi  Bi30  1  0.570923  0.508181  0.175207  1
  Bi  Bi31  1  0.927474  0.989170  0.672721  1
