# generated using pymatgen
data_Lu16MgCd3Co4
_symmetry_space_group_name_H-M   'P 1'
_cell_length_a   9.26779729
_cell_length_b   9.26740313
_cell_length_c   9.26740400
_cell_angle_alpha   60.00000403
_cell_angle_beta   60.00141091
_cell_angle_gamma   60.00141112
_symmetry_Int_Tables_number   1
_chemical_formula_structural   Lu16MgCd3Co4
_chemical_formula_sum   'Lu16 Mg1 Cd3 Co4'
_cell_volume   562.84259256
_cell_formula_units_Z   1
loop_
 _symmetry_equiv_pos_site_id
 _symmetry_equiv_pos_as_xyz
  1  'x, y, z'
loop_
 _atom_site_type_symbol
 _atom_site_label
 _atom_site_symmetry_multiplicity
 _atom_site_fract_x
 _atom_site_fract_y
 _atom_site_fract_z
 _atom_site_occupancy
  Lu  Lu0  1  0.811123  0.188646  0.188646  1
  Lu  Lu1  1  0.186437  0.813236  0.813236  1
  Lu  Lu2  1  0.186437  0.813236  0.187092  1
  Lu  Lu3  1  0.811123  0.188646  0.811587  1
  Lu  Lu4  1  0.186437  0.187092  0.813236  1
  Lu  Lu5  1  0.811123  0.811587  0.188646  1
  Lu  Lu6  1  0.937339  0.561975  0.561975  1
  Lu  Lu7  1  0.561641  0.937792  0.937792  1
  Lu  Lu8  1  0.561641  0.937792  0.562774  1
  Lu  Lu9  1  0.937339  0.561975  0.938712  1
  Lu  Lu10  1  0.561641  0.562774  0.937792  1
  Lu  Lu11  1  0.937339  0.938712  0.561975  1
  Lu  Lu12  1  0.346436  0.345056  0.345056  1
  Lu  Lu13  1  0.346436  0.345056  0.963450  1
  Lu  Lu14  1  0.346436  0.963450  0.345056  1
  Lu  Lu15  1  0.957707  0.347431  0.347431  1
  Mg  Mg16  1  0.273394  0.575535  0.575535  1
  Cd  Cd17  1  0.581243  0.581585  0.581585  1
  Cd  Cd18  1  0.581243  0.581585  0.255587  1
  Cd  Cd19  1  0.581243  0.255587  0.581585  1
  Co  Co20  1  0.139439  0.141741  0.141741  1
  Co  Co21  1  0.139439  0.141741  0.577078  1
  Co  Co22  1  0.139439  0.577078  0.141741  1
  Co  Co23  1  0.577924  0.140692  0.140692  1
