# generated using pymatgen
data_YbV(GaBr4)4
_symmetry_space_group_name_H-M   'P 1'
_cell_length_a   10.70693588
_cell_length_b   10.70693663
_cell_length_c   12.71327310
_cell_angle_alpha   55.32834646
_cell_angle_beta   55.32834278
_cell_angle_gamma   49.89338755
_symmetry_Int_Tables_number   1
_chemical_formula_structural   YbV(GaBr4)4
_chemical_formula_sum   'Yb1 V1 Ga4 Br16'
_cell_volume   868.01381589
_cell_formula_units_Z   1
loop_
 _symmetry_equiv_pos_site_id
 _symmetry_equiv_pos_as_xyz
  1  'x, y, z'
loop_
 _atom_site_type_symbol
 _atom_site_label
 _atom_site_symmetry_multiplicity
 _atom_site_fract_x
 _atom_site_fract_y
 _atom_site_fract_z
 _atom_site_occupancy
  Yb  Yb0  1  0.000181  0.999819  0.750000  1
  V  V1  1  0.006279  0.993721  0.250000  1
  Ga  Ga2  1  0.675669  0.159047  0.038569  1
  Ga  Ga3  1  0.329700  0.840202  0.974328  1
  Ga  Ga4  1  0.840953  0.324331  0.461431  1
  Ga  Ga5  1  0.159798  0.670300  0.525672  1
  Br  Br6  1  0.877142  0.833710  0.505427  1
  Br  Br7  1  0.123353  0.185757  0.470170  1
  Br  Br8  1  0.695304  0.611645  0.439588  1
  Br  Br9  1  0.613780  0.699517  0.958133  1
  Br  Br10  1  0.814243  0.876647  0.029830  1
  Br  Br11  1  0.861505  0.297130  0.276089  1
  Br  Br12  1  0.149890  0.724050  0.182707  1
  Br  Br13  1  0.275950  0.850110  0.317293  1
  Br  Br14  1  0.149282  0.675538  0.717281  1
  Br  Br15  1  0.300483  0.386220  0.541867  1
  Br  Br16  1  0.702870  0.138495  0.223911  1
  Br  Br17  1  0.166290  0.122858  0.994573  1
  Br  Br18  1  0.388355  0.304696  0.060412  1
  Br  Br19  1  0.324462  0.850718  0.782719  1
  Br  Br20  1  0.707532  0.163021  0.670719  1
  Br  Br21  1  0.836979  0.292468  0.829281  1
