# generated using pymatgen
data_Tb3ThAlRu
_symmetry_space_group_name_H-M   'P 1'
_cell_length_a   9.65099092
_cell_length_b   9.65099109
_cell_length_c   9.65099000
_cell_angle_alpha   59.99999687
_cell_angle_beta   59.99999631
_cell_angle_gamma   59.99999810
_symmetry_Int_Tables_number   1
_chemical_formula_structural   Tb3ThAlRu
_chemical_formula_sum   'Tb12 Th4 Al4 Ru4'
_cell_volume   635.62454724
_cell_formula_units_Z   4
loop_
 _symmetry_equiv_pos_site_id
 _symmetry_equiv_pos_as_xyz
  1  'x, y, z'
loop_
 _atom_site_type_symbol
 _atom_site_label
 _atom_site_symmetry_multiplicity
 _atom_site_fract_x
 _atom_site_fract_y
 _atom_site_fract_z
 _atom_site_occupancy
  Tb  Tb0  1  0.058252  0.441748  0.441748  1
  Tb  Tb1  1  0.441748  0.058252  0.058252  1
  Tb  Tb2  1  0.441748  0.058252  0.441748  1
  Tb  Tb3  1  0.058252  0.441748  0.058252  1
  Tb  Tb4  1  0.441748  0.441748  0.058252  1
  Tb  Tb5  1  0.058252  0.058252  0.441748  1
  Tb  Tb6  1  0.187109  0.812891  0.812891  1
  Tb  Tb7  1  0.812891  0.187109  0.187109  1
  Tb  Tb8  1  0.812891  0.187109  0.812891  1
  Tb  Tb9  1  0.187109  0.812891  0.187109  1
  Tb  Tb10  1  0.812891  0.812891  0.187109  1
  Tb  Tb11  1  0.187109  0.187109  0.812891  1
  Th  Th12  1  0.599459  0.599459  0.599459  1
  Th  Th13  1  0.599459  0.599459  0.201624  1
  Th  Th14  1  0.599459  0.201624  0.599459  1
  Th  Th15  1  0.201624  0.599459  0.599459  1
  Al  Al16  1  0.827904  0.827904  0.827904  1
  Al  Al17  1  0.827904  0.827904  0.516288  1
  Al  Al18  1  0.827904  0.516288  0.827904  1
  Al  Al19  1  0.516288  0.827904  0.827904  1
  Ru  Ru20  1  0.393715  0.393715  0.393715  1
  Ru  Ru21  1  0.393715  0.393715  0.818854  1
  Ru  Ru22  1  0.393715  0.818854  0.393715  1
  Ru  Ru23  1  0.818854  0.393715  0.393715  1
