# generated using pymatgen
data_Ho7Tm3(InBi2)2
_symmetry_space_group_name_H-M   'P 1'
_cell_length_a   6.49552050
_cell_length_b   9.04654393
_cell_length_c   9.02790652
_cell_angle_alpha   120.06470356
_cell_angle_beta   89.96055425
_cell_angle_gamma   90.00080735
_symmetry_Int_Tables_number   1
_chemical_formula_structural   Ho7Tm3(InBi2)2
_chemical_formula_sum   'Ho7 Tm3 In2 Bi4'
_cell_volume   459.12472083
_cell_formula_units_Z   1
loop_
 _symmetry_equiv_pos_site_id
 _symmetry_equiv_pos_as_xyz
  1  'x, y, z'
loop_
 _atom_site_type_symbol
 _atom_site_label
 _atom_site_symmetry_multiplicity
 _atom_site_fract_x
 _atom_site_fract_y
 _atom_site_fract_z
 _atom_site_occupancy
  Ho  Ho0  1  0.497774  0.331857  0.660415  1
  Ho  Ho1  1  0.750034  0.236860  0.999832  1
  Ho  Ho2  1  0.750134  0.764346  0.762316  1
  Ho  Ho3  1  0.750210  0.002126  0.237678  1
  Ho  Ho4  1  0.249930  0.766395  0.000019  1
  Ho  Ho5  1  0.249871  0.234108  0.243085  1
  Ho  Ho6  1  0.249995  0.990879  0.756749  1
  Tm  Tm7  1  0.496835  0.671778  0.340204  1
  Tm  Tm8  1  0.003045  0.671725  0.339973  1
  Tm  Tm9  1  0.002837  0.331565  0.659869  1
  In  In10  1  0.249200  0.603945  0.605245  1
  In  In11  1  0.249306  0.997197  0.394005  1
  Bi  Bi12  1  0.750278  0.606433  0.000580  1
  Bi  Bi13  1  0.750371  0.397155  0.393068  1
  Bi  Bi14  1  0.750580  0.002827  0.606414  1
  Bi  Bi15  1  0.249600  0.390805  0.000547  1
