# generated using pymatgen
data_Ca8Cu3Si12Hg
_symmetry_space_group_name_H-M   'P 1'
_cell_length_a   11.29296202
_cell_length_b   9.73669668
_cell_length_c   8.08050000
_cell_angle_alpha   78.05552224
_cell_angle_beta   57.55125756
_cell_angle_gamma   44.43035577
_symmetry_Int_Tables_number   1
_chemical_formula_structural   Ca8Cu3Si12Hg
_chemical_formula_sum   'Ca8 Cu3 Si12 Hg1'
_cell_volume   500.99103144
_cell_formula_units_Z   1
loop_
 _symmetry_equiv_pos_site_id
 _symmetry_equiv_pos_as_xyz
  1  'x, y, z'
loop_
 _atom_site_type_symbol
 _atom_site_label
 _atom_site_symmetry_multiplicity
 _atom_site_fract_x
 _atom_site_fract_y
 _atom_site_fract_z
 _atom_site_occupancy
  Ca  Ca0  1  0.118264  0.124033  0.883558  1
  Ca  Ca1  1  0.883559  0.874145  0.118263  1
  Ca  Ca2  1  0.120005  0.125707  0.375092  1
  Ca  Ca3  1  0.375093  0.379198  0.120004  1
  Ca  Ca4  1  0.624981  0.615534  0.377478  1
  Ca  Ca5  1  0.377478  0.382009  0.624981  1
  Ca  Ca6  1  0.623362  0.624120  0.877021  1
  Ca  Ca7  1  0.877022  0.875498  0.623361  1
  Cu  Cu8  1  0.083268  0.416732  0.083268  1
  Cu  Cu9  1  0.833499  0.166501  0.833499  1
  Cu  Cu10  1  0.166492  0.833508  0.166492  1
  Si  Si11  1  0.921566  0.581140  0.407884  1
  Si  Si12  1  0.063700  0.432436  0.594392  1
  Si  Si13  1  0.407884  0.089409  0.921566  1
  Si  Si14  1  0.594392  0.909472  0.063700  1
  Si  Si15  1  0.332676  0.668046  0.835501  1
  Si  Si16  1  0.665829  0.330922  0.165395  1
  Si  Si17  1  0.835501  0.163777  0.332676  1
  Si  Si18  1  0.165395  0.837853  0.665829  1
  Si  Si19  1  0.920891  0.579110  0.920890  1
  Si  Si20  1  0.591929  0.908072  0.591928  1
  Si  Si21  1  0.331288  0.668713  0.331288  1
  Si  Si22  1  0.668972  0.331028  0.668972  1
  Hg  Hg23  1  0.416958  0.083042  0.416958  1
