# generated using pymatgen
data_La7Nd3(SnSb)4
_symmetry_space_group_name_H-M   'P 1'
_cell_length_a   8.53151479
_cell_length_b   8.59442796
_cell_length_c   16.30918200
_cell_angle_alpha   89.91314725
_cell_angle_beta   90.52326730
_cell_angle_gamma   90.15976564
_symmetry_Int_Tables_number   1
_chemical_formula_structural   La7Nd3(SnSb)4
_chemical_formula_sum   'La14 Nd6 Sn8 Sb8'
_cell_volume   1195.79028339
_cell_formula_units_Z   2
loop_
 _symmetry_equiv_pos_site_id
 _symmetry_equiv_pos_as_xyz
  1  'x, y, z'
loop_
 _atom_site_type_symbol
 _atom_site_label
 _atom_site_symmetry_multiplicity
 _atom_site_fract_x
 _atom_site_fract_y
 _atom_site_fract_z
 _atom_site_occupancy
  La  La0  1  0.105864  0.337126  0.615419  1
  La  La1  1  0.456968  0.677369  0.896396  1
  La  La2  1  0.888855  0.662646  0.117182  1
  La  La3  1  0.112397  0.336930  0.884008  1
  La  La4  1  0.447751  0.673768  0.606344  1
  La  La5  1  0.607730  0.163739  0.616001  1
  La  La6  1  0.892468  0.662936  0.383773  1
  La  La7  1  0.044120  0.174081  0.104717  1
  La  La8  1  0.955354  0.823946  0.895441  1
  La  La9  1  0.611402  0.162862  0.882830  1
  La  La10  1  0.543988  0.323383  0.105054  1
  La  La11  1  0.393949  0.836155  0.383939  1
  La  La12  1  0.949911  0.828455  0.606324  1
  La  La13  1  0.549844  0.326204  0.393263  1
  Nd  Nd14  1  0.053810  0.169401  0.390154  1
  Nd  Nd15  1  0.386604  0.837919  0.119339  1
  Nd  Nd16  1  0.218526  0.495956  0.249424  1
  Nd  Nd17  1  0.717991  0.002984  0.249558  1
  Nd  Nd18  1  0.281456  0.996744  0.750619  1
  Nd  Nd19  1  0.781540  0.503907  0.750405  1
  Sn  Sn20  1  0.649765  0.862356  0.750099  1
  Sn  Sn21  1  0.851198  0.360817  0.250211  1
  Sn  Sn22  1  0.587160  0.623546  0.249420  1
  Sn  Sn23  1  0.411626  0.377265  0.749946  1
  Sn  Sn24  1  0.150114  0.637779  0.750347  1
  Sn  Sn25  1  0.912563  0.123684  0.750284  1
  Sn  Sn26  1  0.349317  0.136289  0.249464  1
  Sn  Sn27  1  0.088736  0.876707  0.250014  1
  Sb  Sb28  1  0.764111  0.486977  0.549842  1
  Sb  Sb29  1  0.738082  0.987340  0.450050  1
  Sb  Sb30  1  0.231835  0.513233  0.449788  1
  Sb  Sb31  1  0.270629  0.019437  0.953726  1
  Sb  Sb32  1  0.770767  0.478557  0.952001  1
  Sb  Sb33  1  0.231916  0.524147  0.048472  1
  Sb  Sb34  1  0.265837  0.018780  0.547663  1
  Sb  Sb35  1  0.725812  0.976577  0.048483  1
