# generated using pymatgen
data_Ba2NpAg2Se5
_symmetry_space_group_name_H-M   'P 1'
_cell_length_a   4.39171020
_cell_length_b   7.50558879
_cell_length_c   9.75402800
_cell_angle_alpha   101.42438555
_cell_angle_beta   103.01008466
_cell_angle_gamma   107.01143995
_symmetry_Int_Tables_number   1
_chemical_formula_structural   Ba2NpAg2Se5
_chemical_formula_sum   'Ba2 Np1 Ag2 Se5'
_cell_volume   287.28520861
_cell_formula_units_Z   1
loop_
 _symmetry_equiv_pos_site_id
 _symmetry_equiv_pos_as_xyz
  1  'x, y, z'
loop_
 _atom_site_type_symbol
 _atom_site_label
 _atom_site_symmetry_multiplicity
 _atom_site_fract_x
 _atom_site_fract_y
 _atom_site_fract_z
 _atom_site_occupancy
  Ba  Ba0  1  0.452830  0.619316  0.286343  1
  Ba  Ba1  1  0.547170  0.380684  0.713657  1
  Np  Np2  1  0.000000  0.000000  0.000000  1
  Ag  Ag3  1  0.730967  0.167170  0.294764  1
  Ag  Ag4  1  0.269033  0.832830  0.705236  1
  Se  Se5  1  0.667068  0.282783  0.051354  1
  Se  Se6  1  0.125738  0.963268  0.288206  1
  Se  Se7  1  0.000001  0.500001  0.500000  1
  Se  Se8  1  0.874262  0.036732  0.711795  1
  Se  Se9  1  0.332933  0.717219  0.948646  1
