# generated using pymatgen
data_Hf9Zr(CoAs3)2
_symmetry_space_group_name_H-M   'P 1'
_cell_length_a   3.69524500
_cell_length_b   10.45785213
_cell_length_c   17.43722821
_cell_angle_alpha   90.01771662
_cell_angle_beta   90.00000000
_cell_angle_gamma   90.00000000
_symmetry_Int_Tables_number   1
_chemical_formula_structural   Hf9Zr(CoAs3)2
_chemical_formula_sum   'Hf18 Zr2 Co4 As12'
_cell_volume   673.84989529
_cell_formula_units_Z   2
loop_
 _symmetry_equiv_pos_site_id
 _symmetry_equiv_pos_as_xyz
  1  'x, y, z'
loop_
 _atom_site_type_symbol
 _atom_site_label
 _atom_site_symmetry_multiplicity
 _atom_site_fract_x
 _atom_site_fract_y
 _atom_site_fract_z
 _atom_site_occupancy
  Hf  Hf0  1  0.750000  0.684720  0.131785  1
  Hf  Hf1  1  0.250000  0.315280  0.868215  1
  Hf  Hf2  1  0.250000  0.878943  0.477466  1
  Hf  Hf3  1  0.750000  0.121057  0.522534  1
  Hf  Hf4  1  0.750000  0.379386  0.022273  1
  Hf  Hf5  1  0.250000  0.620614  0.977727  1
  Hf  Hf6  1  0.250000  0.943073  0.077046  1
  Hf  Hf7  1  0.750000  0.056927  0.922954  1
  Hf  Hf8  1  0.750000  0.443626  0.422923  1
  Hf  Hf9  1  0.250000  0.556374  0.577077  1
  Hf  Hf10  1  0.250000  0.242359  0.166463  1
  Hf  Hf11  1  0.750000  0.757641  0.833537  1
  Hf  Hf12  1  0.750000  0.742051  0.333061  1
  Hf  Hf13  1  0.250000  0.257949  0.666939  1
  Hf  Hf14  1  0.250000  0.516059  0.275953  1
  Hf  Hf15  1  0.750000  0.483941  0.724047  1
  Hf  Hf16  1  0.750000  0.015457  0.223445  1
  Hf  Hf17  1  0.250000  0.984543  0.776555  1
  Zr  Zr18  1  0.250000  0.184435  0.367861  1
  Zr  Zr19  1  0.750000  0.815565  0.632139  1
  Co  Co20  1  0.250000  0.630914  0.407855  1
  Co  Co21  1  0.750000  0.369086  0.592145  1
  Co  Co22  1  0.750000  0.131374  0.091752  1
  Co  Co23  1  0.250000  0.868626  0.908248  1
  As  As24  1  0.250000  0.491779  0.118701  1
  As  As25  1  0.750000  0.508221  0.881299  1
  As  As26  1  0.750000  0.990120  0.381450  1
  As  As27  1  0.250000  0.009880  0.618550  1
  As  As28  1  0.250000  0.814424  0.219056  1
  As  As29  1  0.750000  0.185576  0.780944  1
  As  As30  1  0.750000  0.316010  0.280168  1
  As  As31  1  0.250000  0.683990  0.719832  1
  As  As32  1  0.250000  0.188952  0.007608  1
  As  As33  1  0.750000  0.811048  0.992392  1
  As  As34  1  0.750000  0.688374  0.491891  1
  As  As35  1  0.250000  0.311626  0.508109  1
