# generated using pymatgen
data_SrY6PdI12
_symmetry_space_group_name_H-M   'P 1'
_cell_length_a   9.85311588
_cell_length_b   9.85311502
_cell_length_c   9.85311577
_cell_angle_alpha   106.37857896
_cell_angle_beta   106.37857604
_cell_angle_gamma   106.37856810
_symmetry_Int_Tables_number   1
_chemical_formula_structural   SrY6PdI12
_chemical_formula_sum   'Sr1 Y6 Pd1 I12'
_cell_volume   809.77313982
_cell_formula_units_Z   1
loop_
 _symmetry_equiv_pos_site_id
 _symmetry_equiv_pos_as_xyz
  1  'x, y, z'
loop_
 _atom_site_type_symbol
 _atom_site_label
 _atom_site_symmetry_multiplicity
 _atom_site_fract_x
 _atom_site_fract_y
 _atom_site_fract_z
 _atom_site_occupancy
  Sr  Sr0  1  0.500000  0.500000  0.500000  1
  Y  Y1  1  0.700844  0.977937  0.904601  1
  Y  Y2  1  0.977937  0.904601  0.700844  1
  Y  Y3  1  0.095399  0.299156  0.022063  1
  Y  Y4  1  0.299156  0.022063  0.095399  1
  Y  Y5  1  0.904601  0.700844  0.977937  1
  Y  Y6  1  0.022063  0.095399  0.299156  1
  Pd  Pd7  1  0.000000  0.000000  0.000000  1
  I  I8  1  0.073767  0.223003  0.675352  1
  I  I9  1  0.368693  0.136356  0.448529  1
  I  I10  1  0.631307  0.863644  0.551471  1
  I  I11  1  0.223003  0.675352  0.073767  1
  I  I12  1  0.776997  0.324648  0.926233  1
  I  I13  1  0.675352  0.073767  0.223003  1
  I  I14  1  0.551471  0.631307  0.863644  1
  I  I15  1  0.863644  0.551471  0.631307  1
  I  I16  1  0.926233  0.776997  0.324648  1
  I  I17  1  0.324648  0.926233  0.776997  1
  I  I18  1  0.448529  0.368693  0.136356  1
  I  I19  1  0.136356  0.448529  0.368693  1
