# generated using pymatgen
data_Ho6Tm5Th5(MgRu)4
_symmetry_space_group_name_H-M   'P 1'
_cell_length_a   9.69292380
_cell_length_b   9.73801399
_cell_length_c   9.73801489
_cell_angle_alpha   59.77328590
_cell_angle_beta   60.15305542
_cell_angle_gamma   60.15305746
_symmetry_Int_Tables_number   1
_chemical_formula_structural   Ho6Tm5Th5(MgRu)4
_chemical_formula_sum   'Ho6 Tm5 Th5 Mg4 Ru4'
_cell_volume   650.32197671
_cell_formula_units_Z   1
loop_
 _symmetry_equiv_pos_site_id
 _symmetry_equiv_pos_as_xyz
  1  'x, y, z'
loop_
 _atom_site_type_symbol
 _atom_site_label
 _atom_site_symmetry_multiplicity
 _atom_site_fract_x
 _atom_site_fract_y
 _atom_site_fract_z
 _atom_site_occupancy
  Ho  Ho0  1  0.932601  0.567399  0.567399  1
  Ho  Ho1  1  0.564620  0.935380  0.935380  1
  Ho  Ho2  1  0.562672  0.935670  0.564850  1
  Ho  Ho3  1  0.936808  0.564850  0.935670  1
  Ho  Ho4  1  0.562672  0.564850  0.935670  1
  Ho  Ho5  1  0.936808  0.935670  0.564850  1
  Tm  Tm6  1  0.185516  0.814484  0.814484  1
  Tm  Tm7  1  0.190946  0.810277  0.184069  1
  Tm  Tm8  1  0.814708  0.184069  0.810277  1
  Tm  Tm9  1  0.190946  0.184069  0.810277  1
  Tm  Tm10  1  0.814708  0.810277  0.184069  1
  Th  Th11  1  0.341849  0.349263  0.349263  1
  Th  Th12  1  0.346862  0.347794  0.958481  1
  Th  Th13  1  0.346862  0.958481  0.347794  1
  Th  Th14  1  0.959624  0.349263  0.349263  1
  Th  Th15  1  0.816917  0.183083  0.183083  1
  Mg  Mg16  1  0.581269  0.579611  0.579611  1
  Mg  Mg17  1  0.579435  0.582187  0.258945  1
  Mg  Mg18  1  0.579435  0.258945  0.582187  1
  Mg  Mg19  1  0.259512  0.579611  0.579611  1
  Ru  Ru20  1  0.129636  0.146599  0.146599  1
  Ru  Ru21  1  0.144215  0.141834  0.569736  1
  Ru  Ru22  1  0.144215  0.569736  0.141834  1
  Ru  Ru23  1  0.577165  0.146599  0.146599  1
