# generated using pymatgen
data_Sr8Mg7Si16Au
_symmetry_space_group_name_H-M   'P 1'
_cell_length_a   4.39543800
_cell_length_b   11.41433346
_cell_length_c   14.42109058
_cell_angle_alpha   89.96746882
_cell_angle_beta   90.00000000
_cell_angle_gamma   90.00000000
_symmetry_Int_Tables_number   1
_chemical_formula_structural   Sr8Mg7Si16Au
_chemical_formula_sum   'Sr8 Mg7 Si16 Au1'
_cell_volume   723.52034732
_cell_formula_units_Z   1
loop_
 _symmetry_equiv_pos_site_id
 _symmetry_equiv_pos_as_xyz
  1  'x, y, z'
loop_
 _atom_site_type_symbol
 _atom_site_label
 _atom_site_symmetry_multiplicity
 _atom_site_fract_x
 _atom_site_fract_y
 _atom_site_fract_z
 _atom_site_occupancy
  Sr  Sr0  1  0.250000  0.522365  0.199972  1
  Sr  Sr1  1  0.250000  0.740375  0.938548  1
  Sr  Sr2  1  0.750000  0.259951  0.062152  1
  Sr  Sr3  1  0.750000  0.245820  0.559233  1
  Sr  Sr4  1  0.250000  0.754758  0.438790  1
  Sr  Sr5  1  0.250000  0.976771  0.696072  1
  Sr  Sr6  1  0.750000  0.024655  0.303767  1
  Sr  Sr7  1  0.750000  0.476132  0.802200  1
  Mg  Mg8  1  0.750000  0.553109  0.555382  1
  Mg  Mg9  1  0.750000  0.941582  0.059689  1
  Mg  Mg10  1  0.250000  0.058333  0.940599  1
  Mg  Mg11  1  0.250000  0.677971  0.689889  1
  Mg  Mg12  1  0.750000  0.324019  0.313491  1
  Mg  Mg13  1  0.750000  0.179190  0.809362  1
  Mg  Mg14  1  0.250000  0.820055  0.190376  1
  Si  Si15  1  0.750000  0.952127  0.867536  1
  Si  Si16  1  0.250000  0.451822  0.631029  1
  Si  Si17  1  0.750000  0.545954  0.368268  1
  Si  Si18  1  0.250000  0.031638  0.465686  1
  Si  Si19  1  0.250000  0.047910  0.132528  1
  Si  Si20  1  0.250000  0.274459  0.722432  1
  Si  Si21  1  0.750000  0.724111  0.278122  1
  Si  Si22  1  0.750000  0.774034  0.777503  1
  Si  Si23  1  0.250000  0.217258  0.393227  1
  Si  Si24  1  0.750000  0.970721  0.533176  1
  Si  Si25  1  0.750000  0.529420  0.033877  1
  Si  Si26  1  0.250000  0.470707  0.965972  1
  Si  Si27  1  0.250000  0.287354  0.893171  1
  Si  Si28  1  0.750000  0.785885  0.606760  1
  Si  Si29  1  0.750000  0.712586  0.106590  1
  Si  Si30  1  0.250000  0.225029  0.223294  1
  Au  Au31  1  0.250000  0.443898  0.441306  1
