# generated using pymatgen
data_SmTh2SnRh3Pb2
_symmetry_space_group_name_H-M   'P 1'
_cell_length_a   7.75650127
_cell_length_b   7.62832960
_cell_length_c   4.07240600
_cell_angle_alpha   90.00000000
_cell_angle_beta   90.00000000
_cell_angle_gamma   119.45486564
_symmetry_Int_Tables_number   1
_chemical_formula_structural   SmTh2SnRh3Pb2
_chemical_formula_sum   'Sm1 Th2 Sn1 Rh3 Pb2'
_cell_volume   209.81500421
_cell_formula_units_Z   1
loop_
 _symmetry_equiv_pos_site_id
 _symmetry_equiv_pos_as_xyz
  1  'x, y, z'
loop_
 _atom_site_type_symbol
 _atom_site_label
 _atom_site_symmetry_multiplicity
 _atom_site_fract_x
 _atom_site_fract_y
 _atom_site_fract_z
 _atom_site_occupancy
  Sm  Sm0  1  0.000000  0.588827  0.500000  1
  Th  Th1  1  0.407605  0.411833  0.500000  1
  Th  Th2  1  0.592395  0.004228  0.500000  1
  Sn  Sn3  1  0.000000  0.264758  0.000000  1
  Rh  Rh4  1  0.657879  0.315728  0.000000  1
  Rh  Rh5  1  0.342121  0.657850  0.000000  1
  Rh  Rh6  1  0.000000  0.023250  0.500000  1
  Pb  Pb7  1  0.753577  0.743552  0.000000  1
  Pb  Pb8  1  0.246423  0.989974  0.000000  1
