# generated using pymatgen
data_Zr4Ti2NbVP4
_symmetry_space_group_name_H-M   'P 1'
_cell_length_a   3.54774600
_cell_length_b   6.78237434
_cell_length_c   8.18818617
_cell_angle_alpha   89.89332447
_cell_angle_beta   90.00000000
_cell_angle_gamma   90.00000000
_symmetry_Int_Tables_number   1
_chemical_formula_structural   Zr4Ti2NbVP4
_chemical_formula_sum   'Zr4 Ti2 Nb1 V1 P4'
_cell_volume   197.02495218
_cell_formula_units_Z   1
loop_
 _symmetry_equiv_pos_site_id
 _symmetry_equiv_pos_as_xyz
  1  'x, y, z'
loop_
 _atom_site_type_symbol
 _atom_site_label
 _atom_site_symmetry_multiplicity
 _atom_site_fract_x
 _atom_site_fract_y
 _atom_site_fract_z
 _atom_site_occupancy
  Zr  Zr0  1  0.250000  0.038314  0.827445  1
  Zr  Zr1  1  0.750000  0.963957  0.172571  1
  Zr  Zr2  1  0.250000  0.536324  0.666627  1
  Zr  Zr3  1  0.750000  0.459524  0.334906  1
  Ti  Ti4  1  0.250000  0.634321  0.060614  1
  Ti  Ti5  1  0.750000  0.871339  0.557478  1
  Nb  Nb6  1  0.750000  0.361444  0.940801  1
  V  V7  1  0.250000  0.134058  0.440273  1
  P  P8  1  0.250000  0.763315  0.362796  1
  P  P9  1  0.750000  0.236763  0.628878  1
  P  P10  1  0.250000  0.259946  0.147265  1
  P  P11  1  0.750000  0.740696  0.860347  1
