# generated using pymatgen
data_Ho6Ni17MoP12
_symmetry_space_group_name_H-M   'P 1'
_cell_length_a   3.75506700
_cell_length_b   10.53082200
_cell_length_c   12.28934400
_cell_angle_alpha   90.00000000
_cell_angle_beta   90.00000000
_cell_angle_gamma   90.00000000
_symmetry_Int_Tables_number   1
_chemical_formula_structural   Ho6Ni17MoP12
_chemical_formula_sum   'Ho6 Ni17 Mo1 P12'
_cell_volume   485.96910851
_cell_formula_units_Z   1
loop_
 _symmetry_equiv_pos_site_id
 _symmetry_equiv_pos_as_xyz
  1  'x, y, z'
loop_
 _atom_site_type_symbol
 _atom_site_label
 _atom_site_symmetry_multiplicity
 _atom_site_fract_x
 _atom_site_fract_y
 _atom_site_fract_z
 _atom_site_occupancy
  Ho  Ho0  1  0.000000  0.500000  0.524634  1
  Ho  Ho1  1  0.500000  0.000000  0.479959  1
  Ho  Ho2  1  0.500000  0.817842  0.206676  1
  Ho  Ho3  1  0.500000  0.182158  0.206676  1
  Ho  Ho4  1  0.000000  0.683810  0.793688  1
  Ho  Ho5  1  0.000000  0.316190  0.793688  1
  Ni  Ni6  1  0.000000  0.000000  0.839409  1
  Ni  Ni7  1  0.500000  0.500000  0.701494  1
  Ni  Ni8  1  0.000000  0.000000  0.300980  1
  Ni  Ni9  1  0.000000  0.500000  0.984592  1
  Ni  Ni10  1  0.500000  0.000000  0.017027  1
  Ni  Ni11  1  0.500000  0.328473  0.989376  1
  Ni  Ni12  1  0.500000  0.671527  0.989376  1
  Ni  Ni13  1  0.000000  0.162649  0.005107  1
  Ni  Ni14  1  0.000000  0.837351  0.005107  1
  Ni  Ni15  1  0.500000  0.301771  0.428938  1
  Ni  Ni16  1  0.500000  0.698229  0.428938  1
  Ni  Ni17  1  0.000000  0.198473  0.571876  1
  Ni  Ni18  1  0.000000  0.801527  0.571876  1
  Ni  Ni19  1  0.500000  0.878783  0.710770  1
  Ni  Ni20  1  0.500000  0.121217  0.710770  1
  Ni  Ni21  1  0.000000  0.620601  0.290217  1
  Ni  Ni22  1  0.000000  0.379399  0.290217  1
  Mo  Mo23  1  0.500000  0.500000  0.153134  1
  P  P24  1  0.500000  0.500000  0.879134  1
  P  P25  1  0.000000  0.000000  0.124832  1
  P  P26  1  0.500000  0.500000  0.349101  1
  P  P27  1  0.000000  0.000000  0.654365  1
  P  P28  1  0.500000  0.313618  0.615299  1
  P  P29  1  0.500000  0.686382  0.615299  1
  P  P30  1  0.000000  0.185601  0.386540  1
  P  P31  1  0.000000  0.814399  0.386540  1
  P  P32  1  0.500000  0.850139  0.891431  1
  P  P33  1  0.500000  0.149861  0.891431  1
  P  P34  1  0.000000  0.657467  0.105752  1
  P  P35  1  0.000000  0.342533  0.105752  1
