# generated using pymatgen
data_Y6Ho7Th3(MgCo)4
_symmetry_space_group_name_H-M   'P 1'
_cell_length_a   9.65120315
_cell_length_b   9.66957072
_cell_length_c   9.66772291
_cell_angle_alpha   59.74440088
_cell_angle_beta   59.71135776
_cell_angle_gamma   59.73882568
_symmetry_Int_Tables_number   1
_chemical_formula_structural   Y6Ho7Th3(MgCo)4
_chemical_formula_sum   'Y6 Ho7 Th3 Mg4 Co4'
_cell_volume   634.07657779
_cell_formula_units_Z   1
loop_
 _symmetry_equiv_pos_site_id
 _symmetry_equiv_pos_as_xyz
  1  'x, y, z'
loop_
 _atom_site_type_symbol
 _atom_site_label
 _atom_site_symmetry_multiplicity
 _atom_site_fract_x
 _atom_site_fract_y
 _atom_site_fract_z
 _atom_site_occupancy
  Y  Y0  1  0.937524  0.564317  0.564259  1
  Y  Y1  1  0.562182  0.937553  0.937492  1
  Y  Y2  1  0.563495  0.937511  0.563934  1
  Y  Y3  1  0.936940  0.562830  0.936868  1
  Y  Y4  1  0.563546  0.563943  0.937465  1
  Y  Y5  1  0.936940  0.936892  0.562770  1
  Ho  Ho6  1  0.960972  0.346822  0.346893  1
  Ho  Ho7  1  0.812601  0.186836  0.186830  1
  Ho  Ho8  1  0.186492  0.814647  0.814526  1
  Ho  Ho9  1  0.187231  0.813594  0.185349  1
  Ho  Ho10  1  0.814814  0.185102  0.814809  1
  Ho  Ho11  1  0.187154  0.185385  0.813567  1
  Ho  Ho12  1  0.814746  0.814902  0.185085  1
  Th  Th13  1  0.340852  0.343517  0.343787  1
  Th  Th14  1  0.340789  0.345075  0.969052  1
  Th  Th15  1  0.340693  0.969135  0.345207  1
  Mg  Mg16  1  0.579698  0.578885  0.578870  1
  Mg  Mg17  1  0.578852  0.578914  0.261512  1
  Mg  Mg18  1  0.578885  0.261539  0.578886  1
  Mg  Mg19  1  0.259053  0.579541  0.579513  1
  Co  Co20  1  0.150877  0.140227  0.140271  1
  Co  Co21  1  0.150229  0.140012  0.568677  1
  Co  Co22  1  0.150183  0.568608  0.140092  1
  Co  Co23  1  0.565246  0.144217  0.144289  1
