# generated using pymatgen
data_Nd2MnCoSi2C
_symmetry_space_group_name_H-M   'P 1'
_cell_length_a   5.78130020
_cell_length_b   5.78129931
_cell_length_c   6.99349634
_cell_angle_alpha   126.30827086
_cell_angle_beta   126.30826528
_cell_angle_gamma   40.64206435
_symmetry_Int_Tables_number   1
_chemical_formula_structural   Nd2MnCoSi2C
_chemical_formula_sum   'Nd2 Mn1 Co1 Si2 C1'
_cell_volume   118.05713154
_cell_formula_units_Z   1
loop_
 _symmetry_equiv_pos_site_id
 _symmetry_equiv_pos_as_xyz
  1  'x, y, z'
loop_
 _atom_site_type_symbol
 _atom_site_label
 _atom_site_symmetry_multiplicity
 _atom_site_fract_x
 _atom_site_fract_y
 _atom_site_fract_z
 _atom_site_occupancy
  Nd  Nd0  1  0.560501  0.560501  0.297338  1
  Nd  Nd1  1  0.440811  0.440811  0.701092  1
  Mn  Mn2  1  0.803926  0.803926  0.912433  1
  Co  Co3  1  0.199073  0.199073  0.091627  1
  Si  Si4  1  0.828547  0.828547  0.268747  1
  Si  Si5  1  0.171292  0.171292  0.734092  1
  C  C6  1  0.995853  0.995853  0.994672  1
