# generated using pymatgen
data_DyHo5(BO3)6
_symmetry_space_group_name_H-M   'P 1'
_cell_length_a   6.56434939
_cell_length_b   6.56050817
_cell_length_c   9.60606442
_cell_angle_alpha   70.41971010
_cell_angle_beta   70.40663129
_cell_angle_gamma   60.09694771
_symmetry_Int_Tables_number   1
_chemical_formula_structural   DyHo5(BO3)6
_chemical_formula_sum   'Dy1 Ho5 B6 O18'
_cell_volume   330.62885509
_cell_formula_units_Z   1
loop_
 _symmetry_equiv_pos_site_id
 _symmetry_equiv_pos_as_xyz
  1  'x, y, z'
loop_
 _atom_site_type_symbol
 _atom_site_label
 _atom_site_symmetry_multiplicity
 _atom_site_fract_x
 _atom_site_fract_y
 _atom_site_fract_z
 _atom_site_occupancy
  Dy  Dy0  1  0.658164  0.170504  0.499317  1
  Ho  Ho1  1  0.000042  0.499987  0.499992  1
  Ho  Ho2  1  0.499982  0.999964  0.000190  1
  Ho  Ho3  1  0.170643  0.657736  0.999340  1
  Ho  Ho4  1  0.342062  0.829358  0.500656  1
  Ho  Ho5  1  0.829371  0.342314  0.000421  1
  B  B6  1  0.918265  0.841462  0.746979  1
  B  B7  1  0.157305  0.082035  0.753599  1
  B  B8  1  0.082741  0.158065  0.253020  1
  B  B9  1  0.842112  0.917468  0.246445  1
  B  B10  1  0.675617  0.324646  0.750253  1
  B  B11  1  0.323747  0.676429  0.249701  1
  O  O12  1  0.967146  0.781042  0.602748  1
  O  O13  1  0.217795  0.033753  0.897680  1
  O  O14  1  0.034966  0.217894  0.397268  1
  O  O15  1  0.781914  0.966229  0.102271  1
  O  O16  1  0.869981  0.684338  0.889069  1
  O  O17  1  0.314155  0.130034  0.611082  1
  O  O18  1  0.130061  0.315692  0.110947  1
  O  O19  1  0.684882  0.869093  0.388601  1
  O  O20  1  0.517342  0.385591  0.892487  1
  O  O21  1  0.614681  0.483036  0.607998  1
  O  O22  1  0.482254  0.614720  0.107578  1
  O  O23  1  0.384069  0.518975  0.392360  1
  O  O24  1  0.916459  0.300685  0.752203  1
  O  O25  1  0.699761  0.082890  0.748868  1
  O  O26  1  0.083118  0.699534  0.247763  1
  O  O27  1  0.300535  0.917041  0.251918  1
  O  O28  1  0.135541  0.864084  0.750157  1
  O  O29  1  0.865285  0.135400  0.249091  1
