# generated using pymatgen
data_Tb3Er9Os3Rh
_symmetry_space_group_name_H-M   'P 1'
_cell_length_a   6.34046023
_cell_length_b   7.34490754
_cell_length_c   9.00892500
_cell_angle_alpha   90.00000000
_cell_angle_beta   90.00000000
_cell_angle_gamma   90.18928297
_symmetry_Int_Tables_number   1
_chemical_formula_structural   Tb3Er9Os3Rh
_chemical_formula_sum   'Tb3 Er9 Os3 Rh1'
_cell_volume   419.54419604
_cell_formula_units_Z   1
loop_
 _symmetry_equiv_pos_site_id
 _symmetry_equiv_pos_as_xyz
  1  'x, y, z'
loop_
 _atom_site_type_symbol
 _atom_site_label
 _atom_site_symmetry_multiplicity
 _atom_site_fract_x
 _atom_site_fract_y
 _atom_site_fract_z
 _atom_site_occupancy
  Tb  Tb0  1  0.871225  0.538497  0.250000  1
  Tb  Tb1  1  0.628949  0.039581  0.250000  1
  Tb  Tb2  1  0.128866  0.462268  0.750000  1
  Er  Er3  1  0.335504  0.672771  0.061643  1
  Er  Er4  1  0.168990  0.176005  0.438390  1
  Er  Er5  1  0.667617  0.324522  0.563810  1
  Er  Er6  1  0.827226  0.824837  0.932923  1
  Er  Er7  1  0.667617  0.324522  0.936190  1
  Er  Er8  1  0.827226  0.824837  0.567077  1
  Er  Er9  1  0.335504  0.672771  0.438357  1
  Er  Er10  1  0.168990  0.176005  0.061610  1
  Er  Er11  1  0.368776  0.961880  0.750000  1
  Os  Os12  1  0.458113  0.382784  0.250000  1
  Os  Os13  1  0.961660  0.115870  0.750000  1
  Os  Os14  1  0.539723  0.618801  0.750000  1
  Rh  Rh15  1  0.044012  0.884050  0.250000  1
