# generated using pymatgen
data_Tb3Er5(Si4Mo3)4
_symmetry_space_group_name_H-M   'P 1'
_cell_length_a   6.75737021
_cell_length_b   6.94040103
_cell_length_c   12.91598531
_cell_angle_alpha   90.02880943
_cell_angle_beta   89.99357214
_cell_angle_gamma   90.01797827
_symmetry_Int_Tables_number   1
_chemical_formula_structural   Tb3Er5(Si4Mo3)4
_chemical_formula_sum   'Tb3 Er5 Si16 Mo12'
_cell_volume   605.74486587
_cell_formula_units_Z   1
loop_
 _symmetry_equiv_pos_site_id
 _symmetry_equiv_pos_as_xyz
  1  'x, y, z'
loop_
 _atom_site_type_symbol
 _atom_site_label
 _atom_site_symmetry_multiplicity
 _atom_site_fract_x
 _atom_site_fract_y
 _atom_site_fract_z
 _atom_site_occupancy
  Tb  Tb0  1  0.002727  0.832985  0.593692  1
  Tb  Tb1  1  0.497219  0.333113  0.406406  1
  Tb  Tb2  1  0.997305  0.166999  0.093587  1
  Er  Er3  1  0.496831  0.332781  0.094131  1
  Er  Er4  1  0.996820  0.167355  0.405896  1
  Er  Er5  1  0.503199  0.667350  0.594206  1
  Er  Er6  1  0.003150  0.832437  0.905758  1
  Er  Er7  1  0.502932  0.667516  0.905889  1
  Si  Si8  1  0.658753  0.041311  0.547258  1
  Si  Si9  1  0.159795  0.459297  0.952604  1
  Si  Si10  1  0.341496  0.958192  0.047051  1
  Si  Si11  1  0.841208  0.541282  0.452701  1
  Si  Si12  1  0.340564  0.957878  0.452740  1
  Si  Si13  1  0.840034  0.542226  0.047050  1
  Si  Si14  1  0.659051  0.041102  0.952586  1
  Si  Si15  1  0.159471  0.457860  0.547304  1
  Si  Si16  1  0.534847  0.366840  0.749962  1
  Si  Si17  1  0.034791  0.133756  0.750320  1
  Si  Si18  1  0.465126  0.633757  0.249697  1
  Si  Si19  1  0.965107  0.866192  0.250257  1
  Si  Si20  1  0.801877  0.629774  0.750422  1
  Si  Si21  1  0.303164  0.869693  0.750384  1
  Si  Si22  1  0.197342  0.370498  0.250053  1
  Si  Si23  1  0.697310  0.129554  0.249948  1
  Mo  Mo24  1  0.830547  0.334746  0.625116  1
  Mo  Mo25  1  0.330686  0.165397  0.875023  1
  Mo  Mo26  1  0.169683  0.665240  0.124811  1
  Mo  Mo27  1  0.669534  0.834632  0.374940  1
  Mo  Mo28  1  0.169319  0.665568  0.374497  1
  Mo  Mo29  1  0.669142  0.834263  0.125140  1
  Mo  Mo30  1  0.830095  0.334935  0.874790  1
  Mo  Mo31  1  0.330676  0.165429  0.625524  1
  Mo  Mo32  1  0.665799  0.998570  0.750182  1
  Mo  Mo33  1  0.166323  0.501496  0.750176  1
  Mo  Mo34  1  0.334041  0.001088  0.249991  1
  Mo  Mo35  1  0.834033  0.498890  0.249908  1
