# generated using pymatgen
data_Tm2Sc2MnB12Ir
_symmetry_space_group_name_H-M   'P 1'
_cell_length_a   3.49331500
_cell_length_b   8.92367601
_cell_length_c   11.28772902
_cell_angle_alpha   90.00647818
_cell_angle_beta   90.00000000
_cell_angle_gamma   90.00000000
_symmetry_Int_Tables_number   1
_chemical_formula_structural   Tm2Sc2MnB12Ir
_chemical_formula_sum   'Tm4 Sc4 Mn2 B24 Ir2'
_cell_volume   351.87475925
_cell_formula_units_Z   2
loop_
 _symmetry_equiv_pos_site_id
 _symmetry_equiv_pos_as_xyz
  1  'x, y, z'
loop_
 _atom_site_type_symbol
 _atom_site_label
 _atom_site_symmetry_multiplicity
 _atom_site_fract_x
 _atom_site_fract_y
 _atom_site_fract_z
 _atom_site_occupancy
  Tm  Tm0  1  0.500000  0.315080  0.410324  1
  Tm  Tm1  1  0.500000  0.684920  0.589676  1
  Tm  Tm2  1  0.500000  0.174015  0.917733  1
  Tm  Tm3  1  0.500000  0.825985  0.082267  1
  Sc  Sc4  1  0.500000  0.439520  0.124893  1
  Sc  Sc5  1  0.500000  0.560480  0.875107  1
  Sc  Sc6  1  0.500000  0.050014  0.628614  1
  Sc  Sc7  1  0.500000  0.949986  0.371386  1
  Mn  Mn8  1  0.500000  0.140658  0.181882  1
  Mn  Mn9  1  0.500000  0.859342  0.818118  1
  B  B10  1  0.000000  0.100706  0.472773  1
  B  B11  1  0.000000  0.899294  0.527227  1
  B  B12  1  0.000000  0.398751  0.972773  1
  B  B13  1  0.000000  0.601249  0.027227  1
  B  B14  1  0.000000  0.129812  0.315312  1
  B  B15  1  0.000000  0.870188  0.684688  1
  B  B16  1  0.000000  0.370115  0.819255  1
  B  B17  1  0.000000  0.629885  0.180745  1
  B  B18  1  0.000000  0.054705  0.068009  1
  B  B19  1  0.000000  0.945295  0.931991  1
  B  B20  1  0.000000  0.445570  0.565959  1
  B  B21  1  0.000000  0.554430  0.434041  1
  B  B22  1  0.000000  0.480070  0.285001  1
  B  B23  1  0.000000  0.519930  0.714999  1
  B  B24  1  0.000000  0.015890  0.787002  1
  B  B25  1  0.000000  0.984110  0.212998  1
  B  B26  1  0.000000  0.249839  0.081895  1
  B  B27  1  0.000000  0.750161  0.918105  1
  B  B28  1  0.000000  0.245300  0.579680  1
  B  B29  1  0.000000  0.754700  0.420320  1
  B  B30  1  0.000000  0.292104  0.233741  1
  B  B31  1  0.000000  0.707896  0.766259  1
  B  B32  1  0.000000  0.204652  0.736091  1
  B  B33  1  0.000000  0.795348  0.263909  1
  Ir  Ir34  1  0.500000  0.360193  0.680572  1
  Ir  Ir35  1  0.500000  0.639807  0.319428  1
