# generated using pymatgen
data_YbErGa3Ru
_symmetry_space_group_name_H-M   'P 1'
_cell_length_a   5.44171700
_cell_length_b   5.44171711
_cell_length_c   8.70130700
_cell_angle_alpha   90.00000000
_cell_angle_beta   90.00000000
_cell_angle_gamma   120.00000541
_symmetry_Int_Tables_number   1
_chemical_formula_structural   YbErGa3Ru
_chemical_formula_sum   'Yb2 Er2 Ga6 Ru2'
_cell_volume   223.14492444
_cell_formula_units_Z   2
loop_
 _symmetry_equiv_pos_site_id
 _symmetry_equiv_pos_as_xyz
  1  'x, y, z'
loop_
 _atom_site_type_symbol
 _atom_site_label
 _atom_site_symmetry_multiplicity
 _atom_site_fract_x
 _atom_site_fract_y
 _atom_site_fract_z
 _atom_site_occupancy
  Yb  Yb0  1  0.666666  0.333333  0.055190  1
  Yb  Yb1  1  0.666666  0.333333  0.444811  1
  Er  Er2  1  0.333333  0.666667  0.550098  1
  Er  Er3  1  0.333333  0.666667  0.949903  1
  Ga  Ga4  1  0.164013  0.328027  0.249999  1
  Ga  Ga5  1  0.164014  0.835986  0.249999  1
  Ga  Ga6  1  0.671973  0.835986  0.249999  1
  Ga  Ga7  1  0.328570  0.164284  0.750000  1
  Ga  Ga8  1  0.835716  0.164284  0.750000  1
  Ga  Ga9  1  0.835715  0.671430  0.750000  1
  Ru  Ru10  1  0.000000  0.000000  0.001457  1
  Ru  Ru11  1  0.000000  0.000000  0.498543  1
