# generated using pymatgen
data_AcLaCuSn4
_symmetry_space_group_name_H-M   'P 1'
_cell_length_a   4.58896800
_cell_length_b   4.69553797
_cell_length_c   9.34936766
_cell_angle_alpha   75.45647606
_cell_angle_beta   90.00000000
_cell_angle_gamma   90.00000000
_symmetry_Int_Tables_number   1
_chemical_formula_structural   AcLaCuSn4
_chemical_formula_sum   'Ac1 La1 Cu1 Sn4'
_cell_volume   195.00186399
_cell_formula_units_Z   1
loop_
 _symmetry_equiv_pos_site_id
 _symmetry_equiv_pos_as_xyz
  1  'x, y, z'
loop_
 _atom_site_type_symbol
 _atom_site_label
 _atom_site_symmetry_multiplicity
 _atom_site_fract_x
 _atom_site_fract_y
 _atom_site_fract_z
 _atom_site_occupancy
  Ac  Ac0  1  0.750000  0.112014  0.775972  1
  La  La1  1  0.250000  0.905172  0.189655  1
  Cu  Cu2  1  0.250000  0.693319  0.613362  1
  Sn  Sn3  1  0.250000  0.268401  0.463197  1
  Sn  Sn4  1  0.750000  0.769023  0.461955  1
  Sn  Sn5  1  0.250000  0.548429  0.903142  1
  Sn  Sn6  1  0.750000  0.443641  0.112718  1
