# generated using pymatgen
data_NdTm3(ScPt)4
_symmetry_space_group_name_H-M   'P 1'
_cell_length_a   4.63535900
_cell_length_b   6.97415366
_cell_length_c   8.40127522
_cell_angle_alpha   90.12246336
_cell_angle_beta   90.00000000
_cell_angle_gamma   90.00000000
_symmetry_Int_Tables_number   1
_chemical_formula_structural   NdTm3(ScPt)4
_chemical_formula_sum   'Nd1 Tm3 Sc4 Pt4'
_cell_volume   271.59333455
_cell_formula_units_Z   1
loop_
 _symmetry_equiv_pos_site_id
 _symmetry_equiv_pos_as_xyz
  1  'x, y, z'
loop_
 _atom_site_type_symbol
 _atom_site_label
 _atom_site_symmetry_multiplicity
 _atom_site_fract_x
 _atom_site_fract_y
 _atom_site_fract_z
 _atom_site_occupancy
  Nd  Nd0  1  0.750000  0.514870  0.822569  1
  Tm  Tm1  1  0.250000  0.983104  0.323926  1
  Tm  Tm2  1  0.750000  0.016944  0.672982  1
  Tm  Tm3  1  0.250000  0.483366  0.178362  1
  Sc  Sc4  1  0.750000  0.642349  0.423589  1
  Sc  Sc5  1  0.250000  0.357302  0.568100  1
  Sc  Sc6  1  0.750000  0.140654  0.076183  1
  Sc  Sc7  1  0.250000  0.860224  0.926720  1
  Pt  Pt8  1  0.250000  0.241071  0.906644  1
  Pt  Pt9  1  0.750000  0.756127  0.104346  1
  Pt  Pt10  1  0.250000  0.750366  0.594305  1
  Pt  Pt11  1  0.750000  0.253621  0.402273  1
