# generated using pymatgen
data_Ho2Er18Si15Ir
_symmetry_space_group_name_H-M   'P 1'
_cell_length_a   7.37061763
_cell_length_b   7.61881816
_cell_length_c   14.46287903
_cell_angle_alpha   90.19794899
_cell_angle_beta   90.33840810
_cell_angle_gamma   90.22905124
_symmetry_Int_Tables_number   1
_chemical_formula_structural   Ho2Er18Si15Ir
_chemical_formula_sum   'Ho2 Er18 Si15 Ir1'
_cell_volume   812.14312158
_cell_formula_units_Z   1
loop_
 _symmetry_equiv_pos_site_id
 _symmetry_equiv_pos_as_xyz
  1  'x, y, z'
loop_
 _atom_site_type_symbol
 _atom_site_label
 _atom_site_symmetry_multiplicity
 _atom_site_fract_x
 _atom_site_fract_y
 _atom_site_fract_z
 _atom_site_occupancy
  Ho  Ho0  1  0.023777  0.819692  0.598804  1
  Ho  Ho1  1  0.526592  0.685887  0.596527  1
  Er  Er2  1  0.320944  0.818547  0.121642  1
  Er  Er3  1  0.816402  0.679392  0.122215  1
  Er  Er4  1  0.853086  0.506298  0.749120  1
  Er  Er5  1  0.470539  0.315693  0.099238  1
  Er  Er6  1  0.028831  0.817298  0.901709  1
  Er  Er7  1  0.472110  0.312976  0.402193  1
  Er  Er8  1  0.652193  0.011905  0.258084  1
  Er  Er9  1  0.530075  0.682552  0.900957  1
  Er  Er10  1  0.681217  0.179994  0.877327  1
  Er  Er11  1  0.179808  0.321937  0.624103  1
  Er  Er12  1  0.185355  0.323319  0.875928  1
  Er  Er13  1  0.814960  0.688254  0.382183  1
  Er  Er14  1  0.323628  0.825365  0.377763  1
  Er  Er15  1  0.352395  0.989895  0.747615  1
  Er  Er16  1  0.683058  0.166354  0.619304  1
  Er  Er17  1  0.145952  0.489872  0.252507  1
  Er  Er18  1  0.970917  0.181598  0.098135  1
  Er  Er19  1  0.969015  0.174994  0.402005  1
  Si  Si20  1  0.233999  0.629158  0.750902  1
  Si  Si21  1  0.343085  0.028854  0.540878  1
  Si  Si22  1  0.027048  0.892523  0.245611  1
  Si  Si23  1  0.734564  0.869265  0.752867  1
  Si  Si24  1  0.264564  0.127514  0.245855  1
  Si  Si25  1  0.853033  0.472720  0.542453  1
  Si  Si26  1  0.482564  0.394211  0.748950  1
  Si  Si27  1  0.147164  0.531039  0.461477  1
  Si  Si28  1  0.146891  0.527443  0.040232  1
  Si  Si29  1  0.978708  0.104294  0.752174  1
  Si  Si30  1  0.767345  0.375850  0.248350  1
  Si  Si31  1  0.351558  0.029881  0.959913  1
  Si  Si32  1  0.856311  0.471313  0.959053  1
  Si  Si33  1  0.646717  0.971285  0.039412  1
  Si  Si34  1  0.520567  0.601921  0.247826  1
  Ir  Ir35  1  0.645025  0.980902  0.456688  1
