# generated using pymatgen
data_Hf18Re6NiMo2Ru
_symmetry_space_group_name_H-M   'P 1'
_cell_length_a   8.64935900
_cell_length_b   8.64935958
_cell_length_c   8.47213500
_cell_angle_alpha   90.00000000
_cell_angle_beta   90.00000000
_cell_angle_gamma   120.00000161
_symmetry_Int_Tables_number   1
_chemical_formula_structural   Hf18Re6NiMo2Ru
_chemical_formula_sum   'Hf18 Re6 Ni1 Mo2 Ru1'
_cell_volume   548.89764534
_cell_formula_units_Z   1
loop_
 _symmetry_equiv_pos_site_id
 _symmetry_equiv_pos_as_xyz
  1  'x, y, z'
loop_
 _atom_site_type_symbol
 _atom_site_label
 _atom_site_symmetry_multiplicity
 _atom_site_fract_x
 _atom_site_fract_y
 _atom_site_fract_z
 _atom_site_occupancy
  Hf  Hf0  1  0.197978  0.802022  0.446213  1
  Hf  Hf1  1  0.197978  0.395954  0.446213  1
  Hf  Hf2  1  0.604046  0.802022  0.446213  1
  Hf  Hf3  1  0.801377  0.198623  0.557632  1
  Hf  Hf4  1  0.801377  0.602755  0.557632  1
  Hf  Hf5  1  0.397245  0.198623  0.557632  1
  Hf  Hf6  1  0.801377  0.198623  0.942368  1
  Hf  Hf7  1  0.801377  0.602755  0.942368  1
  Hf  Hf8  1  0.397245  0.198623  0.942368  1
  Hf  Hf9  1  0.197978  0.802022  0.053787  1
  Hf  Hf10  1  0.197978  0.395954  0.053787  1
  Hf  Hf11  1  0.604046  0.802022  0.053787  1
  Hf  Hf12  1  0.542155  0.457845  0.250000  1
  Hf  Hf13  1  0.542155  0.084310  0.250000  1
  Hf  Hf14  1  0.915690  0.457845  0.250000  1
  Hf  Hf15  1  0.458888  0.541112  0.750000  1
  Hf  Hf16  1  0.458888  0.917775  0.750000  1
  Hf  Hf17  1  0.082225  0.541112  0.750000  1
  Re  Re18  1  0.888125  0.111875  0.250000  1
  Re  Re19  1  0.888125  0.776248  0.250000  1
  Re  Re20  1  0.223752  0.111875  0.250000  1
  Re  Re21  1  0.111159  0.888841  0.750000  1
  Re  Re22  1  0.111159  0.222320  0.750000  1
  Re  Re23  1  0.777680  0.888841  0.750000  1
  Ni  Ni24  1  0.666667  0.333333  0.750000  1
  Mo  Mo25  1  0.000000  0.000000  0.498592  1
  Mo  Mo26  1  0.000000  0.000000  0.001408  1
  Ru  Ru27  1  0.333333  0.666667  0.250000  1
