# generated using pymatgen
data_CsAsPRh2
_symmetry_space_group_name_H-M   'P 1'
_cell_length_a   7.92588892
_cell_length_b   7.92588865
_cell_length_c   7.92588859
_cell_angle_alpha   150.58842227
_cell_angle_beta   150.58842258
_cell_angle_gamma   42.07834271
_symmetry_Int_Tables_number   1
_chemical_formula_structural   CsAsPRh2
_chemical_formula_sum   'Cs1 As1 P1 Rh2'
_cell_volume   119.78854349
_cell_formula_units_Z   1
loop_
 _symmetry_equiv_pos_site_id
 _symmetry_equiv_pos_as_xyz
  1  'x, y, z'
loop_
 _atom_site_type_symbol
 _atom_site_label
 _atom_site_symmetry_multiplicity
 _atom_site_fract_x
 _atom_site_fract_y
 _atom_site_fract_z
 _atom_site_occupancy
  Cs  Cs0  1  0.004782  0.004782  0.000000  1
  As  As1  1  0.341535  0.341535  0.000000  1
  P  P2  1  0.664424  0.664424  0.000000  1
  Rh  Rh3  1  0.744629  0.244629  0.500000  1
  Rh  Rh4  1  0.244629  0.744629  0.500000  1
