# generated using pymatgen
data_Tm5SnHg3Pt2
_symmetry_space_group_name_H-M   'P 1'
_cell_length_a   3.61694200
_cell_length_b   7.91440975
_cell_length_c   17.96868792
_cell_angle_alpha   90.51785526
_cell_angle_beta   90.00000000
_cell_angle_gamma   90.00000000
_symmetry_Int_Tables_number   1
_chemical_formula_structural   Tm5SnHg3Pt2
_chemical_formula_sum   'Tm10 Sn2 Hg6 Pt4'
_cell_volume   514.34995071
_cell_formula_units_Z   2
loop_
 _symmetry_equiv_pos_site_id
 _symmetry_equiv_pos_as_xyz
  1  'x, y, z'
loop_
 _atom_site_type_symbol
 _atom_site_label
 _atom_site_symmetry_multiplicity
 _atom_site_fract_x
 _atom_site_fract_y
 _atom_site_fract_z
 _atom_site_occupancy
  Tm  Tm0  1  0.000000  0.113662  0.414235  1
  Tm  Tm1  1  0.000000  0.886338  0.585765  1
  Tm  Tm2  1  0.000000  0.387924  0.913280  1
  Tm  Tm3  1  0.000000  0.612076  0.086720  1
  Tm  Tm4  1  0.000000  0.237441  0.214647  1
  Tm  Tm5  1  0.000000  0.762559  0.785353  1
  Tm  Tm6  1  0.000000  0.252609  0.717840  1
  Tm  Tm7  1  0.000000  0.747391  0.282160  1
  Tm  Tm8  1  0.000000  0.000000  0.000000  1
  Tm  Tm9  1  0.000000  0.500000  0.500000  1
  Sn  Sn10  1  0.500000  0.423657  0.352636  1
  Sn  Sn11  1  0.500000  0.576343  0.647364  1
  Hg  Hg12  1  0.500000  0.079270  0.856314  1
  Hg  Hg13  1  0.500000  0.920730  0.143686  1
  Hg  Hg14  1  0.500000  0.289456  0.061925  1
  Hg  Hg15  1  0.500000  0.710544  0.938075  1
  Hg  Hg16  1  0.500000  0.208346  0.562933  1
  Hg  Hg17  1  0.500000  0.791654  0.437067  1
  Pt  Pt18  1  0.500000  0.031480  0.302355  1
  Pt  Pt19  1  0.500000  0.968520  0.697645  1
  Pt  Pt20  1  0.500000  0.474698  0.801098  1
  Pt  Pt21  1  0.500000  0.525302  0.198902  1
