# generated using pymatgen
data_Er2Ti3P7Rh9
_symmetry_space_group_name_H-M   'P 1'
_cell_length_a   3.82213200
_cell_length_b   9.66712513
_cell_length_c   9.66670908
_cell_angle_alpha   119.99590339
_cell_angle_beta   89.99970088
_cell_angle_gamma   89.99983238
_symmetry_Int_Tables_number   1
_chemical_formula_structural   Er2Ti3P7Rh9
_chemical_formula_sum   'Er2 Ti3 P7 Rh9'
_cell_volume   309.33583136
_cell_formula_units_Z   1
loop_
 _symmetry_equiv_pos_site_id
 _symmetry_equiv_pos_as_xyz
  1  'x, y, z'
loop_
 _atom_site_type_symbol
 _atom_site_label
 _atom_site_symmetry_multiplicity
 _atom_site_fract_x
 _atom_site_fract_y
 _atom_site_fract_z
 _atom_site_occupancy
  Er  Er0  1  0.261793  0.666600  0.333339  1
  Er  Er1  1  0.761856  0.333360  0.666693  1
  Ti  Ti2  1  0.762026  0.099966  0.878199  1
  Ti  Ti3  1  0.762030  0.121680  0.221705  1
  Ti  Ti4  1  0.762022  0.778263  0.900018  1
  P  P5  1  0.262240  0.999904  0.999932  1
  P  P6  1  0.761820  0.875086  0.587528  1
  P  P7  1  0.761822  0.412388  0.287517  1
  P  P8  1  0.761811  0.712478  0.124967  1
  P  P9  1  0.261862  0.116896  0.417519  1
  P  P10  1  0.261876  0.582551  0.699327  1
  P  P11  1  0.261888  0.300699  0.883224  1
  Rh  Rh12  1  0.261819  0.883466  0.159822  1
  Rh  Rh13  1  0.261893  0.840237  0.723609  1
  Rh  Rh14  1  0.261848  0.276172  0.116459  1
  Rh  Rh15  1  0.761928  0.610032  0.557135  1
  Rh  Rh16  1  0.761892  0.442840  0.052928  1
  Rh  Rh17  1  0.761856  0.947193  0.390036  1
  Rh  Rh18  1  0.261970  0.364927  0.437497  1
  Rh  Rh19  1  0.261891  0.562470  0.927360  1
  Rh  Rh20  1  0.261854  0.072790  0.635187  1
