# generated using pymatgen
data_Cs2PuBr5
_symmetry_space_group_name_H-M   'P 1'
_cell_length_a   9.12136600
_cell_length_b   9.64608700
_cell_length_c   14.53953800
_cell_angle_alpha   90.00000000
_cell_angle_beta   90.00000000
_cell_angle_gamma   90.00000000
_symmetry_Int_Tables_number   1
_chemical_formula_structural   Cs2PuBr5
_chemical_formula_sum   'Cs8 Pu4 Br20'
_cell_volume   1279.26837523
_cell_formula_units_Z   4
loop_
 _symmetry_equiv_pos_site_id
 _symmetry_equiv_pos_as_xyz
  1  'x, y, z'
loop_
 _atom_site_type_symbol
 _atom_site_label
 _atom_site_symmetry_multiplicity
 _atom_site_fract_x
 _atom_site_fract_y
 _atom_site_fract_z
 _atom_site_occupancy
  Cs  Cs0  1  0.943870  0.004922  0.828902  1
  Cs  Cs1  1  0.056130  0.995078  0.171098  1
  Cs  Cs2  1  0.443870  0.995078  0.671098  1
  Cs  Cs3  1  0.056130  0.504922  0.171098  1
  Cs  Cs4  1  0.556130  0.004922  0.328902  1
  Cs  Cs5  1  0.943870  0.495078  0.828902  1
  Cs  Cs6  1  0.556130  0.495078  0.328902  1
  Cs  Cs7  1  0.443870  0.504922  0.671098  1
  Pu  Pu8  1  0.939981  0.750000  0.500674  1
  Pu  Pu9  1  0.060019  0.250000  0.499326  1
  Pu  Pu10  1  0.439981  0.250000  0.999326  1
  Pu  Pu11  1  0.560019  0.750000  0.000674  1
  Br  Br12  1  0.110498  0.750000  0.669331  1
  Br  Br13  1  0.889502  0.250000  0.330669  1
  Br  Br14  1  0.610498  0.250000  0.830669  1
  Br  Br15  1  0.389502  0.750000  0.169331  1
  Br  Br16  1  0.845315  0.040152  0.568734  1
  Br  Br17  1  0.154685  0.959848  0.431266  1
  Br  Br18  1  0.345315  0.959848  0.931266  1
  Br  Br19  1  0.154685  0.540152  0.431266  1
  Br  Br20  1  0.654685  0.040152  0.068734  1
  Br  Br21  1  0.845315  0.459848  0.568734  1
  Br  Br22  1  0.654685  0.459848  0.068734  1
  Br  Br23  1  0.345315  0.540152  0.931266  1
  Br  Br24  1  0.611132  0.750000  0.513746  1
  Br  Br25  1  0.388868  0.250000  0.486254  1
  Br  Br26  1  0.111132  0.250000  0.986254  1
  Br  Br27  1  0.888868  0.750000  0.013746  1
  Br  Br28  1  0.650768  0.750000  0.809870  1
  Br  Br29  1  0.349232  0.250000  0.190130  1
  Br  Br30  1  0.150768  0.250000  0.690130  1
  Br  Br31  1  0.849232  0.750000  0.309870  1
