# generated using pymatgen
data_Dy4ReCl4
_symmetry_space_group_name_H-M   'P 1'
_cell_length_a   8.63433106
_cell_length_b   8.63433199
_cell_length_c   6.53899477
_cell_angle_alpha   89.84687064
_cell_angle_beta   89.84686624
_cell_angle_gamma   89.50863363
_symmetry_Int_Tables_number   1
_chemical_formula_structural   Dy4ReCl4
_chemical_formula_sum   'Dy8 Re2 Cl8'
_cell_volume   487.47167227
_cell_formula_units_Z   2
loop_
 _symmetry_equiv_pos_site_id
 _symmetry_equiv_pos_as_xyz
  1  'x, y, z'
loop_
 _atom_site_type_symbol
 _atom_site_label
 _atom_site_symmetry_multiplicity
 _atom_site_fract_x
 _atom_site_fract_y
 _atom_site_fract_z
 _atom_site_occupancy
  Dy  Dy0  1  0.104973  0.742153  0.985801  1
  Dy  Dy1  1  0.257847  0.895027  0.514199  1
  Dy  Dy2  1  0.895027  0.257847  0.014199  1
  Dy  Dy3  1  0.742153  0.104973  0.485801  1
  Dy  Dy4  1  0.743635  0.896276  0.006196  1
  Dy  Dy5  1  0.103724  0.256365  0.493804  1
  Dy  Dy6  1  0.256365  0.103724  0.993804  1
  Dy  Dy7  1  0.896276  0.743635  0.506196  1
  Re  Re8  1  0.006935  0.993065  0.250000  1
  Re  Re9  1  0.993065  0.006935  0.750000  1
  Cl  Cl10  1  0.419450  0.821097  0.904588  1
  Cl  Cl11  1  0.178903  0.580550  0.595412  1
  Cl  Cl12  1  0.580550  0.178903  0.095412  1
  Cl  Cl13  1  0.821097  0.419450  0.404588  1
  Cl  Cl14  1  0.814403  0.583106  0.904787  1
  Cl  Cl15  1  0.416894  0.185597  0.595213  1
  Cl  Cl16  1  0.185597  0.416894  0.095213  1
  Cl  Cl17  1  0.583106  0.814403  0.404787  1
