# generated using pymatgen
data_GdLu(BrO3)6
_symmetry_space_group_name_H-M   'P 1'
_cell_length_a   9.85296600
_cell_length_b   9.85296512
_cell_length_c   5.78795800
_cell_angle_alpha   90.00000000
_cell_angle_beta   90.00000000
_cell_angle_gamma   119.99998952
_symmetry_Int_Tables_number   1
_chemical_formula_structural   GdLu(BrO3)6
_chemical_formula_sum   'Gd1 Lu1 Br6 O18'
_cell_volume   486.62002671
_cell_formula_units_Z   1
loop_
 _symmetry_equiv_pos_site_id
 _symmetry_equiv_pos_as_xyz
  1  'x, y, z'
loop_
 _atom_site_type_symbol
 _atom_site_label
 _atom_site_symmetry_multiplicity
 _atom_site_fract_x
 _atom_site_fract_y
 _atom_site_fract_z
 _atom_site_occupancy
  Gd  Gd0  1  0.666667  0.333333  0.697880  1
  Lu  Lu1  1  0.333333  0.666667  0.200026  1
  Br  Br2  1  0.680627  0.014760  0.360773  1
  Br  Br3  1  0.313082  0.974732  0.869554  1
  Br  Br4  1  0.025268  0.338349  0.869554  1
  Br  Br5  1  0.334132  0.319373  0.360773  1
  Br  Br6  1  0.985240  0.665868  0.360773  1
  Br  Br7  1  0.661651  0.686918  0.869554  1
  O  O8  1  0.772677  0.830110  0.045138  1
  O  O9  1  0.952103  0.773276  0.542014  1
  O  O10  1  0.821173  0.047897  0.542014  1
  O  O11  1  0.169890  0.942568  0.045138  1
  O  O12  1  0.057432  0.227323  0.045138  1
  O  O13  1  0.226724  0.178827  0.542014  1
  O  O14  1  0.706209  0.542539  0.927286  1
  O  O15  1  0.174609  0.710008  0.417164  1
  O  O16  1  0.522948  0.404547  0.463382  1
  O  O17  1  0.128493  0.526622  0.974521  1
  O  O18  1  0.398130  0.871507  0.974521  1
  O  O19  1  0.595453  0.118402  0.463382  1
  O  O20  1  0.881598  0.477052  0.463382  1
  O  O21  1  0.473378  0.601870  0.974521  1
  O  O22  1  0.289992  0.464601  0.417164  1
  O  O23  1  0.836330  0.293791  0.927286  1
  O  O24  1  0.457461  0.163670  0.927286  1
  O  O25  1  0.535399  0.825391  0.417164  1
