# generated using pymatgen
data_Tb11Ce4Nd(CdIr)4
_symmetry_space_group_name_H-M   'P 1'
_cell_length_a   9.71172019
_cell_length_b   9.71172052
_cell_length_c   9.70809700
_cell_angle_alpha   60.01233814
_cell_angle_beta   60.01233701
_cell_angle_gamma   59.93219966
_symmetry_Int_Tables_number   1
_chemical_formula_structural   Tb11Ce4Nd(CdIr)4
_chemical_formula_sum   'Tb11 Ce4 Nd1 Cd4 Ir4'
_cell_volume   647.24588730
_cell_formula_units_Z   1
loop_
 _symmetry_equiv_pos_site_id
 _symmetry_equiv_pos_as_xyz
  1  'x, y, z'
loop_
 _atom_site_type_symbol
 _atom_site_label
 _atom_site_symmetry_multiplicity
 _atom_site_fract_x
 _atom_site_fract_y
 _atom_site_fract_z
 _atom_site_occupancy
  Tb  Tb0  1  0.811117  0.189384  0.187523  1
  Tb  Tb1  1  0.189384  0.811117  0.811976  1
  Tb  Tb2  1  0.189384  0.811117  0.187523  1
  Tb  Tb3  1  0.811117  0.189384  0.811976  1
  Tb  Tb4  1  0.189148  0.189148  0.810852  1
  Tb  Tb5  1  0.811560  0.811560  0.188440  1
  Tb  Tb6  1  0.939069  0.560127  0.561915  1
  Tb  Tb7  1  0.560127  0.939069  0.938889  1
  Tb  Tb8  1  0.560127  0.939069  0.561915  1
  Tb  Tb9  1  0.939069  0.560127  0.938889  1
  Tb  Tb10  1  0.563146  0.563146  0.936854  1
  Ce  Ce11  1  0.348588  0.348588  0.347512  1
  Ce  Ce12  1  0.348588  0.348588  0.955311  1
  Ce  Ce13  1  0.349305  0.953383  0.348656  1
  Ce  Ce14  1  0.953383  0.349305  0.348656  1
  Nd  Nd15  1  0.937779  0.937779  0.562221  1
  Cd  Cd16  1  0.580905  0.580905  0.581437  1
  Cd  Cd17  1  0.580905  0.580905  0.256753  1
  Cd  Cd18  1  0.578217  0.258023  0.581879  1
  Cd  Cd19  1  0.258023  0.578217  0.581879  1
  Ir  Ir20  1  0.144333  0.144333  0.141544  1
  Ir  Ir21  1  0.144333  0.144333  0.569788  1
  Ir  Ir22  1  0.143161  0.569229  0.143804  1
  Ir  Ir23  1  0.569229  0.143161  0.143804  1
