# generated using pymatgen
data_Ca3Pr2(SnBi)2
_symmetry_space_group_name_H-M   'P 1'
_cell_length_a   8.36962100
_cell_length_b   8.40954400
_cell_length_c   16.34458100
_cell_angle_alpha   90.00000000
_cell_angle_beta   90.00000000
_cell_angle_gamma   90.00000000
_symmetry_Int_Tables_number   1
_chemical_formula_structural   Ca3Pr2(SnBi)2
_chemical_formula_sum   'Ca12 Pr8 Sn8 Bi8'
_cell_volume   1150.40836596
_cell_formula_units_Z   4
loop_
 _symmetry_equiv_pos_site_id
 _symmetry_equiv_pos_as_xyz
  1  'x, y, z'
loop_
 _atom_site_type_symbol
 _atom_site_label
 _atom_site_symmetry_multiplicity
 _atom_site_fract_x
 _atom_site_fract_y
 _atom_site_fract_z
 _atom_site_occupancy
  Ca  Ca0  1  0.393378  0.834078  0.881771  1
  Ca  Ca1  1  0.893378  0.665922  0.618229  1
  Ca  Ca2  1  0.606622  0.165922  0.381771  1
  Ca  Ca3  1  0.106622  0.334078  0.118229  1
  Ca  Ca4  1  0.606622  0.165922  0.118229  1
  Ca  Ca5  1  0.106622  0.334078  0.381771  1
  Ca  Ca6  1  0.393378  0.834078  0.618229  1
  Ca  Ca7  1  0.893378  0.665922  0.881771  1
  Ca  Ca8  1  0.220051  0.505399  0.750000  1
  Ca  Ca9  1  0.720051  0.994601  0.750000  1
  Ca  Ca10  1  0.779949  0.494601  0.250000  1
  Ca  Ca11  1  0.279949  0.005399  0.250000  1
  Pr  Pr12  1  0.551119  0.326535  0.893545  1
  Pr  Pr13  1  0.051119  0.173465  0.606455  1
  Pr  Pr14  1  0.448881  0.673465  0.393545  1
  Pr  Pr15  1  0.948881  0.826535  0.106455  1
  Pr  Pr16  1  0.448881  0.673465  0.106455  1
  Pr  Pr17  1  0.948881  0.826535  0.393545  1
  Pr  Pr18  1  0.551119  0.326535  0.606455  1
  Pr  Pr19  1  0.051119  0.173465  0.893545  1
  Sn  Sn20  1  0.595049  0.611617  0.750000  1
  Sn  Sn21  1  0.095049  0.888383  0.750000  1
  Sn  Sn22  1  0.404951  0.388383  0.250000  1
  Sn  Sn23  1  0.904951  0.111617  0.250000  1
  Sn  Sn24  1  0.343334  0.135008  0.750000  1
  Sn  Sn25  1  0.843334  0.364992  0.750000  1
  Sn  Sn26  1  0.656666  0.864992  0.250000  1
  Sn  Sn27  1  0.156666  0.635008  0.250000  1
  Bi  Bi28  1  0.270387  0.019957  0.043986  1
  Bi  Bi29  1  0.770387  0.480043  0.456014  1
  Bi  Bi30  1  0.729613  0.980043  0.543986  1
  Bi  Bi31  1  0.229613  0.519957  0.956014  1
  Bi  Bi32  1  0.729613  0.980043  0.956014  1
  Bi  Bi33  1  0.229613  0.519957  0.543986  1
  Bi  Bi34  1  0.270387  0.019957  0.456014  1
  Bi  Bi35  1  0.770387  0.480043  0.043986  1
