# generated using pymatgen
data_Nb5Ge(B2Ru5)2
_symmetry_space_group_name_H-M   'P 1'
_cell_length_a   9.42109800
_cell_length_b   9.42109800
_cell_length_c   2.99915000
_cell_angle_alpha   90.00000000
_cell_angle_beta   90.00000000
_cell_angle_gamma   90.00000000
_symmetry_Int_Tables_number   1
_chemical_formula_structural   Nb5Ge(B2Ru5)2
_chemical_formula_sum   'Nb5 Ge1 B4 Ru10'
_cell_volume   266.19581905
_cell_formula_units_Z   1
loop_
 _symmetry_equiv_pos_site_id
 _symmetry_equiv_pos_as_xyz
  1  'x, y, z'
loop_
 _atom_site_type_symbol
 _atom_site_label
 _atom_site_symmetry_multiplicity
 _atom_site_fract_x
 _atom_site_fract_y
 _atom_site_fract_z
 _atom_site_occupancy
  Nb  Nb0  1  0.821963  0.675380  0.000000  1
  Nb  Nb1  1  0.178037  0.324620  0.000000  1
  Nb  Nb2  1  0.324620  0.821963  0.000000  1
  Nb  Nb3  1  0.675380  0.178037  0.000000  1
  Nb  Nb4  1  0.000000  0.000000  0.000000  1
  Ge  Ge5  1  0.500000  0.500000  0.000000  1
  B  B6  1  0.617071  0.871639  0.000000  1
  B  B7  1  0.382929  0.128361  0.000000  1
  B  B8  1  0.128361  0.617071  0.000000  1
  B  B9  1  0.871639  0.382929  0.000000  1
  Ru  Ru10  1  0.500000  0.000000  0.500000  1
  Ru  Ru11  1  0.000000  0.500000  0.500000  1
  Ru  Ru12  1  0.568646  0.713246  0.500000  1
  Ru  Ru13  1  0.431354  0.286754  0.500000  1
  Ru  Ru14  1  0.072179  0.779799  0.500000  1
  Ru  Ru15  1  0.927821  0.220201  0.500000  1
  Ru  Ru16  1  0.286754  0.568646  0.500000  1
  Ru  Ru17  1  0.713246  0.431354  0.500000  1
  Ru  Ru18  1  0.220201  0.072179  0.500000  1
  Ru  Ru19  1  0.779799  0.927821  0.500000  1
