# generated using pymatgen
data_NdSm(Be12Ni)2
_symmetry_space_group_name_H-M   'P 1'
_cell_length_a   7.32709542
_cell_length_b   7.36776067
_cell_length_c   7.30369452
_cell_angle_alpha   59.92479077
_cell_angle_beta   59.66244193
_cell_angle_gamma   59.60938711
_symmetry_Int_Tables_number   1
_chemical_formula_structural   NdSm(Be12Ni)2
_chemical_formula_sum   'Nd1 Sm1 Be24 Ni2'
_cell_volume   277.10095934
_cell_formula_units_Z   1
loop_
 _symmetry_equiv_pos_site_id
 _symmetry_equiv_pos_as_xyz
  1  'x, y, z'
loop_
 _atom_site_type_symbol
 _atom_site_label
 _atom_site_symmetry_multiplicity
 _atom_site_fract_x
 _atom_site_fract_y
 _atom_site_fract_z
 _atom_site_occupancy
  Nd  Nd0  1  0.500400  0.499624  0.500393  1
  Sm  Sm1  1  0.999600  0.000408  0.999593  1
  Be  Be2  1  0.317512  0.538132  0.181505  1
  Be  Be3  1  0.181546  0.962819  0.317544  1
  Be  Be4  1  0.039841  0.684758  0.458865  1
  Be  Be5  1  0.458919  0.816503  0.039816  1
  Be  Be6  1  0.683414  0.034869  0.817458  1
  Be  Be7  1  0.817444  0.464224  0.683408  1
  Be  Be8  1  0.957976  0.545252  0.311563  1
  Be  Be9  1  0.542433  0.955259  0.188042  1
  Be  Be10  1  0.188072  0.314215  0.542474  1
  Be  Be11  1  0.311583  0.185162  0.958047  1
  Be  Be12  1  0.462583  0.033281  0.685469  1
  Be  Be13  1  0.036901  0.466184  0.815167  1
  Be  Be14  1  0.815141  0.681746  0.036865  1
  Be  Be15  1  0.685460  0.818721  0.462556  1
  Be  Be16  1  0.313057  0.959017  0.542578  1
  Be  Be17  1  0.186352  0.541823  0.958318  1
  Be  Be18  1  0.542633  0.185393  0.313007  1
  Be  Be19  1  0.958269  0.313477  0.186398  1
  Be  Be20  1  0.686357  0.462515  0.037058  1
  Be  Be21  1  0.814723  0.036690  0.462130  1
  Be  Be22  1  0.037134  0.814052  0.686356  1
  Be  Be23  1  0.462055  0.686524  0.814700  1
  Be  Be24  1  0.250051  0.249950  0.250093  1
  Be  Be25  1  0.750178  0.749817  0.750158  1
  Ni  Ni26  1  0.547044  0.309640  0.953345  1
  Ni  Ni27  1  0.953323  0.189946  0.547094  1
