# generated using pymatgen
data_Ti2NbAl2AuC
_symmetry_space_group_name_H-M   'P 1'
_cell_length_a   8.36664724
_cell_length_b   8.34933461
_cell_length_c   8.36707440
_cell_angle_alpha   60.06383668
_cell_angle_beta   59.86062860
_cell_angle_gamma   60.05558055
_symmetry_Int_Tables_number   1
_chemical_formula_structural   Ti2NbAl2AuC
_chemical_formula_sum   'Ti8 Nb4 Al8 Au4 C4'
_cell_volume   413.23106335
_cell_formula_units_Z   4
loop_
 _symmetry_equiv_pos_site_id
 _symmetry_equiv_pos_as_xyz
  1  'x, y, z'
loop_
 _atom_site_type_symbol
 _atom_site_label
 _atom_site_symmetry_multiplicity
 _atom_site_fract_x
 _atom_site_fract_y
 _atom_site_fract_z
 _atom_site_occupancy
  Ti  Ti0  1  0.679967  0.320593  0.678302  1
  Ti  Ti1  1  0.320537  0.679962  0.321164  1
  Ti  Ti2  1  0.571622  0.928635  0.570081  1
  Ti  Ti3  1  0.570844  0.929480  0.930433  1
  Ti  Ti4  1  0.929500  0.570796  0.569255  1
  Ti  Ti5  1  0.928673  0.571660  0.929626  1
  Ti  Ti6  1  0.319883  0.319942  0.680081  1
  Ti  Ti7  1  0.569857  0.569861  0.930123  1
  Nb  Nb8  1  0.930024  0.929995  0.570033  1
  Nb  Nb9  1  0.681239  0.319414  0.319927  1
  Nb  Nb10  1  0.319409  0.681229  0.679441  1
  Nb  Nb11  1  0.679511  0.679481  0.320523  1
  Al  Al12  1  0.912405  0.261503  0.913910  1
  Al  Al13  1  0.337134  0.335798  0.990013  1
  Al  Al14  1  0.992565  0.334632  0.337046  1
  Al  Al15  1  0.335794  0.337124  0.337046  1
  Al  Al16  1  0.261511  0.912419  0.912155  1
  Al  Al17  1  0.913810  0.911973  0.914877  1
  Al  Al18  1  0.911943  0.913824  0.259343  1
  Al  Al19  1  0.334634  0.992573  0.335763  1
  Au  Au20  1  0.126722  0.624019  0.126358  1
  Au  Au21  1  0.124596  0.127862  0.626167  1
  Au  Au22  1  0.623996  0.126722  0.122924  1
  Au  Au23  1  0.127865  0.124550  0.121370  1
  C  C24  1  0.617911  0.125970  0.630945  1
  C  C25  1  0.623127  0.628942  0.118078  1
  C  C26  1  0.125988  0.617900  0.625163  1
  C  C27  1  0.628933  0.623140  0.629852  1
