# generated using pymatgen
data_YbZn3CuAg
_symmetry_space_group_name_H-M   'P 1'
_cell_length_a   5.15264541
_cell_length_b   5.15264533
_cell_length_c   5.15264516
_cell_angle_alpha   60.42477362
_cell_angle_beta   60.42477209
_cell_angle_gamma   60.42477570
_symmetry_Int_Tables_number   1
_chemical_formula_structural   YbZn3CuAg
_chemical_formula_sum   'Yb1 Zn3 Cu1 Ag1'
_cell_volume   97.66232112
_cell_formula_units_Z   1
loop_
 _symmetry_equiv_pos_site_id
 _symmetry_equiv_pos_as_xyz
  1  'x, y, z'
loop_
 _atom_site_type_symbol
 _atom_site_label
 _atom_site_symmetry_multiplicity
 _atom_site_fract_x
 _atom_site_fract_y
 _atom_site_fract_z
 _atom_site_occupancy
  Yb  Yb0  1  0.999281  0.999281  0.999281  1
  Zn  Zn1  1  0.623601  0.623601  0.128775  1
  Zn  Zn2  1  0.623601  0.128775  0.623601  1
  Zn  Zn3  1  0.128775  0.623601  0.623601  1
  Cu  Cu4  1  0.624625  0.624625  0.624625  1
  Ag  Ag5  1  0.250116  0.250116  0.250116  1
