# generated using pymatgen
data_Th(CrC)4
_symmetry_space_group_name_H-M   'P 1'
_cell_length_a   5.85945746
_cell_length_b   5.85945666
_cell_length_c   5.85945731
_cell_angle_alpha   94.34459308
_cell_angle_beta   94.34459266
_cell_angle_gamma   148.04785993
_symmetry_Int_Tables_number   1
_chemical_formula_structural   Th(CrC)4
_chemical_formula_sum   'Th1 Cr4 C4'
_cell_volume   102.35153287
_cell_formula_units_Z   1
loop_
 _symmetry_equiv_pos_site_id
 _symmetry_equiv_pos_as_xyz
  1  'x, y, z'
loop_
 _atom_site_type_symbol
 _atom_site_label
 _atom_site_symmetry_multiplicity
 _atom_site_fract_x
 _atom_site_fract_y
 _atom_site_fract_z
 _atom_site_occupancy
  Th  Th0  1  0.000000  0.000000  0.000000  1
  Cr  Cr1  1  0.818652  0.363771  0.182420  1
  Cr  Cr2  1  0.636232  0.818652  0.454881  1
  Cr  Cr3  1  0.363769  0.181349  0.545119  1
  Cr  Cr4  1  0.181349  0.636230  0.817579  1
  C  C5  1  0.400470  0.748220  0.148687  1
  C  C6  1  0.748220  0.599533  0.347749  1
  C  C7  1  0.251781  0.400468  0.652251  1
  C  C8  1  0.599531  0.251781  0.851312  1
