# generated using pymatgen
data_KSrGaO3
_symmetry_space_group_name_H-M   'P 1'
_cell_length_a   6.34556401
_cell_length_b   6.34556324
_cell_length_c   12.30104500
_cell_angle_alpha   90.00000000
_cell_angle_beta   90.00000000
_cell_angle_gamma   126.67659658
_symmetry_Int_Tables_number   1
_chemical_formula_structural   KSrGaO3
_chemical_formula_sum   'K4 Sr4 Ga4 O12'
_cell_volume   397.25323483
_cell_formula_units_Z   4
loop_
 _symmetry_equiv_pos_site_id
 _symmetry_equiv_pos_as_xyz
  1  'x, y, z'
loop_
 _atom_site_type_symbol
 _atom_site_label
 _atom_site_symmetry_multiplicity
 _atom_site_fract_x
 _atom_site_fract_y
 _atom_site_fract_z
 _atom_site_occupancy
  K  K0  1  0.459726  0.540274  0.641870  1
  K  K1  1  0.540274  0.459726  0.358130  1
  K  K2  1  0.040274  0.959726  0.141870  1
  K  K3  1  0.959726  0.040274  0.858130  1
  Sr  Sr4  1  0.642831  0.357169  0.920488  1
  Sr  Sr5  1  0.857169  0.142831  0.420488  1
  Sr  Sr6  1  0.142831  0.857169  0.579512  1
  Sr  Sr7  1  0.357169  0.642831  0.079512  1
  Ga  Ga8  1  0.227944  0.772056  0.338991  1
  Ga  Ga9  1  0.727944  0.272056  0.161009  1
  Ga  Ga10  1  0.772056  0.227944  0.661009  1
  Ga  Ga11  1  0.272056  0.727944  0.838991  1
  O  O12  1  0.970646  0.529354  0.750000  1
  O  O13  1  0.529354  0.970646  0.250000  1
  O  O14  1  0.029354  0.470646  0.250000  1
  O  O15  1  0.470646  0.029354  0.750000  1
  O  O16  1  0.429633  0.570367  0.877443  1
  O  O17  1  0.570367  0.429633  0.122557  1
  O  O18  1  0.070367  0.929633  0.377443  1
  O  O19  1  0.673647  0.326353  0.540698  1
  O  O20  1  0.173647  0.826353  0.959302  1
  O  O21  1  0.826353  0.173647  0.040698  1
  O  O22  1  0.326353  0.673647  0.459302  1
  O  O23  1  0.929633  0.070367  0.622557  1
