# generated using pymatgen
data_Zr2Be4IrRu4
_symmetry_space_group_name_H-M   'P 1'
_cell_length_a   3.20580000
_cell_length_b   8.58933607
_cell_length_c   10.22342000
_cell_angle_alpha   90.00754442
_cell_angle_beta   90.00000000
_cell_angle_gamma   90.00000000
_symmetry_Int_Tables_number   1
_chemical_formula_structural   Zr2Be4IrRu4
_chemical_formula_sum   'Zr4 Be8 Ir2 Ru8'
_cell_volume   281.50895810
_cell_formula_units_Z   2
loop_
 _symmetry_equiv_pos_site_id
 _symmetry_equiv_pos_as_xyz
  1  'x, y, z'
loop_
 _atom_site_type_symbol
 _atom_site_label
 _atom_site_symmetry_multiplicity
 _atom_site_fract_x
 _atom_site_fract_y
 _atom_site_fract_z
 _atom_site_occupancy
  Zr  Zr0  1  0.500000  0.838777  0.184412  1
  Zr  Zr1  1  0.500000  0.161223  0.815588  1
  Zr  Zr2  1  0.500000  0.661194  0.684445  1
  Zr  Zr3  1  0.500000  0.338806  0.315555  1
  Be  Be4  1  0.500000  0.964959  0.593692  1
  Be  Be5  1  0.500000  0.035041  0.406308  1
  Be  Be6  1  0.500000  0.842720  0.903056  1
  Be  Be7  1  0.500000  0.157280  0.096944  1
  Be  Be8  1  0.500000  0.657293  0.403060  1
  Be  Be9  1  0.500000  0.342707  0.596940  1
  Be  Be10  1  0.500000  0.465082  0.906283  1
  Be  Be11  1  0.500000  0.534918  0.093717  1
  Ir  Ir12  1  0.000000  0.000000  0.000000  1
  Ir  Ir13  1  0.000000  0.500000  0.500000  1
  Ru  Ru14  1  0.000000  0.660965  0.955168  1
  Ru  Ru15  1  0.000000  0.339035  0.044832  1
  Ru  Ru16  1  0.000000  0.839064  0.455068  1
  Ru  Ru17  1  0.000000  0.160936  0.544932  1
  Ru  Ru18  1  0.000000  0.405805  0.757664  1
  Ru  Ru19  1  0.000000  0.594195  0.242336  1
  Ru  Ru20  1  0.000000  0.905803  0.742340  1
  Ru  Ru21  1  0.000000  0.094197  0.257660  1
