# generated using pymatgen
data_La5Nd11CdHg3(PdRu)2
_symmetry_space_group_name_H-M   'P 1'
_cell_length_a   9.99330272
_cell_length_b   10.03059351
_cell_length_c   10.11416200
_cell_angle_alpha   59.62783748
_cell_angle_beta   59.79914823
_cell_angle_gamma   59.83082879
_symmetry_Int_Tables_number   1
_chemical_formula_structural   La5Nd11CdHg3(PdRu)2
_chemical_formula_sum   'La5 Nd11 Cd1 Hg3 Pd2 Ru2'
_cell_volume   712.85430737
_cell_formula_units_Z   1
loop_
 _symmetry_equiv_pos_site_id
 _symmetry_equiv_pos_as_xyz
  1  'x, y, z'
loop_
 _atom_site_type_symbol
 _atom_site_label
 _atom_site_symmetry_multiplicity
 _atom_site_fract_x
 _atom_site_fract_y
 _atom_site_fract_z
 _atom_site_occupancy
  La  La0  1  0.347028  0.346557  0.359222  1
  La  La1  1  0.349089  0.348113  0.944707  1
  La  La2  1  0.344166  0.955401  0.349355  1
  La  La3  1  0.951447  0.346396  0.352750  1
  La  La4  1  0.822529  0.187700  0.188716  1
  Nd  Nd5  1  0.187029  0.816881  0.804339  1
  Nd  Nd6  1  0.191143  0.814172  0.190336  1
  Nd  Nd7  1  0.815284  0.188053  0.802102  1
  Nd  Nd8  1  0.189715  0.188527  0.809337  1
  Nd  Nd9  1  0.805478  0.804245  0.193008  1
  Nd  Nd10  1  0.933285  0.560895  0.568510  1
  Nd  Nd11  1  0.559940  0.934664  0.937331  1
  Nd  Nd12  1  0.559321  0.934077  0.568036  1
  Nd  Nd13  1  0.935582  0.560416  0.938303  1
  Nd  Nd14  1  0.562172  0.562599  0.938264  1
  Nd  Nd15  1  0.936048  0.935892  0.564436  1
  Cd  Cd16  1  0.256213  0.581772  0.580753  1
  Hg  Hg17  1  0.582022  0.584837  0.585582  1
  Hg  Hg18  1  0.581993  0.586967  0.246641  1
  Hg  Hg19  1  0.583346  0.244299  0.587392  1
  Pd  Pd20  1  0.147682  0.574268  0.139560  1
  Pd  Pd21  1  0.575782  0.147656  0.140231  1
  Ru  Ru22  1  0.136048  0.148006  0.140604  1
  Ru  Ru23  1  0.147657  0.147608  0.570484  1
