# generated using pymatgen
data_Dy5Y11Cd4Ni3Os
_symmetry_space_group_name_H-M   'P 1'
_cell_length_a   9.58703939
_cell_length_b   9.59831128
_cell_length_c   9.59831125
_cell_angle_alpha   59.57404827
_cell_angle_beta   59.59595794
_cell_angle_gamma   59.59596641
_symmetry_Int_Tables_number   1
_chemical_formula_structural   Dy5Y11Cd4Ni3Os
_chemical_formula_sum   'Dy5 Y11 Cd4 Ni3 Os1'
_cell_volume   618.69895284
_cell_formula_units_Z   1
loop_
 _symmetry_equiv_pos_site_id
 _symmetry_equiv_pos_as_xyz
  1  'x, y, z'
loop_
 _atom_site_type_symbol
 _atom_site_label
 _atom_site_symmetry_multiplicity
 _atom_site_fract_x
 _atom_site_fract_y
 _atom_site_fract_z
 _atom_site_occupancy
  Dy  Dy0  1  0.597927  0.597789  0.597789  1
  Dy  Dy1  1  0.600604  0.600500  0.203966  1
  Dy  Dy2  1  0.600604  0.203966  0.600500  1
  Dy  Dy3  1  0.203745  0.600700  0.600700  1
  Dy  Dy4  1  0.060593  0.438461  0.438461  1
  Y  Y5  1  0.437358  0.060763  0.060763  1
  Y  Y6  1  0.438626  0.060020  0.438653  1
  Y  Y7  1  0.060862  0.437377  0.060760  1
  Y  Y8  1  0.438626  0.438653  0.060020  1
  Y  Y9  1  0.060862  0.060760  0.437377  1
  Y  Y10  1  0.186453  0.814973  0.814973  1
  Y  Y11  1  0.807546  0.188762  0.188762  1
  Y  Y12  1  0.815086  0.186599  0.814770  1
  Y  Y13  1  0.188747  0.807163  0.188956  1
  Y  Y14  1  0.815086  0.814770  0.186599  1
  Y  Y15  1  0.188747  0.188956  0.807163  1
  Cd  Cd16  1  0.830214  0.830237  0.830237  1
  Cd  Cd17  1  0.830191  0.830356  0.506120  1
  Cd  Cd18  1  0.830191  0.506120  0.830356  1
  Cd  Cd19  1  0.506144  0.830228  0.830228  1
  Ni  Ni20  1  0.392947  0.392867  0.822754  1
  Ni  Ni21  1  0.392947  0.822754  0.392867  1
  Ni  Ni22  1  0.823552  0.393064  0.393064  1
  Os  Os23  1  0.392342  0.394160  0.394160  1
