# generated using pymatgen
data_Yb5Pr15(SnSb)8
_symmetry_space_group_name_H-M   'P 1'
_cell_length_a   8.41532985
_cell_length_b   8.43922160
_cell_length_c   16.36099400
_cell_angle_alpha   89.94100841
_cell_angle_beta   90.03797101
_cell_angle_gamma   90.37438600
_symmetry_Int_Tables_number   1
_chemical_formula_structural   Yb5Pr15(SnSb)8
_chemical_formula_sum   'Yb5 Pr15 Sn8 Sb8'
_cell_volume   1161.91303608
_cell_formula_units_Z   1
loop_
 _symmetry_equiv_pos_site_id
 _symmetry_equiv_pos_as_xyz
  1  'x, y, z'
loop_
 _atom_site_type_symbol
 _atom_site_label
 _atom_site_symmetry_multiplicity
 _atom_site_fract_x
 _atom_site_fract_y
 _atom_site_fract_z
 _atom_site_occupancy
  Yb  Yb0  1  0.392418  0.838522  0.882261  1
  Yb  Yb1  1  0.226804  0.502169  0.751331  1
  Yb  Yb2  1  0.722979  0.996249  0.751847  1
  Yb  Yb3  1  0.775409  0.499821  0.249843  1
  Yb  Yb4  1  0.275801  0.001453  0.249173  1
  Pr  Pr5  1  0.895960  0.665812  0.617473  1
  Pr  Pr6  1  0.605140  0.164022  0.382889  1
  Pr  Pr7  1  0.105381  0.335814  0.115968  1
  Pr  Pr8  1  0.604883  0.164468  0.117349  1
  Pr  Pr9  1  0.104746  0.335903  0.383075  1
  Pr  Pr10  1  0.395401  0.835370  0.615876  1
  Pr  Pr11  1  0.896040  0.664751  0.883388  1
  Pr  Pr12  1  0.549628  0.324138  0.892111  1
  Pr  Pr13  1  0.050100  0.175178  0.608817  1
  Pr  Pr14  1  0.450218  0.675204  0.392481  1
  Pr  Pr15  1  0.949152  0.826425  0.108502  1
  Pr  Pr16  1  0.449386  0.676348  0.105343  1
  Pr  Pr17  1  0.949007  0.825131  0.391336  1
  Pr  Pr18  1  0.549725  0.323844  0.608593  1
  Pr  Pr19  1  0.050331  0.174385  0.890609  1
  Sn  Sn20  1  0.596214  0.620738  0.751531  1
  Sn  Sn21  1  0.096309  0.879133  0.750013  1
  Sn  Sn22  1  0.404566  0.380224  0.249815  1
  Sn  Sn23  1  0.905160  0.121207  0.250017  1
  Sn  Sn24  1  0.348313  0.134253  0.750003  1
  Sn  Sn25  1  0.848811  0.363462  0.749926  1
  Sn  Sn26  1  0.650243  0.863847  0.249812  1
  Sn  Sn27  1  0.151767  0.635443  0.249842  1
  Sb  Sb28  1  0.267807  0.017749  0.045401  1
  Sb  Sb29  1  0.767355  0.482282  0.454447  1
  Sb  Sb30  1  0.733165  0.981357  0.545323  1
  Sb  Sb31  1  0.233579  0.517114  0.953023  1
  Sb  Sb32  1  0.731561  0.979817  0.955543  1
  Sb  Sb33  1  0.232723  0.516464  0.546441  1
  Sb  Sb34  1  0.266693  0.019167  0.454509  1
  Sb  Sb35  1  0.767224  0.482734  0.046088  1
