# generated using pymatgen
data_MgZr8Tc3Os4
_symmetry_space_group_name_H-M   'P 1'
_cell_length_a   6.61347600
_cell_length_b   4.67269100
_cell_length_c   9.38950300
_cell_angle_alpha   90.00000000
_cell_angle_beta   90.00034669
_cell_angle_gamma   90.00002093
_symmetry_Int_Tables_number   1
_chemical_formula_structural   MgZr8Tc3Os4
_chemical_formula_sum   'Mg1 Zr8 Tc3 Os4'
_cell_volume   290.16127401
_cell_formula_units_Z   1
loop_
 _symmetry_equiv_pos_site_id
 _symmetry_equiv_pos_as_xyz
  1  'x, y, z'
loop_
 _atom_site_type_symbol
 _atom_site_label
 _atom_site_symmetry_multiplicity
 _atom_site_fract_x
 _atom_site_fract_y
 _atom_site_fract_z
 _atom_site_occupancy
  Mg  Mg0  1  0.750029  0.249998  0.124981  1
  Zr  Zr1  1  0.010235  0.749999  0.125006  1
  Zr  Zr2  1  0.489833  0.749999  0.125009  1
  Zr  Zr3  1  0.003773  0.249998  0.381330  1
  Zr  Zr4  1  0.496289  0.250000  0.381338  1
  Zr  Zr5  1  0.500495  0.749999  0.625008  1
  Zr  Zr6  1  0.999428  0.749998  0.625004  1
  Zr  Zr7  1  0.496233  0.249999  0.868672  1
  Zr  Zr8  1  0.003710  0.249999  0.868659  1
  Tc  Tc9  1  0.250028  0.749999  0.376299  1
  Tc  Tc10  1  0.749972  0.249999  0.624984  1
  Tc  Tc11  1  0.249972  0.749998  0.873693  1
  Os  Os12  1  0.250026  0.250000  0.125008  1
  Os  Os13  1  0.750024  0.750000  0.369769  1
  Os  Os14  1  0.249976  0.249999  0.625010  1
  Os  Os15  1  0.749979  0.749999  0.880227  1
