# generated using pymatgen
data_Tb3CdIn3HgIr
_symmetry_space_group_name_H-M   'P 1'
_cell_length_a   8.04922000
_cell_length_b   8.04922137
_cell_length_c   3.86997300
_cell_angle_alpha   90.00000000
_cell_angle_beta   90.00000000
_cell_angle_gamma   120.00000261
_symmetry_Int_Tables_number   1
_chemical_formula_structural   Tb3CdIn3HgIr
_chemical_formula_sum   'Tb3 Cd1 In3 Hg1 Ir1'
_cell_volume   217.14319529
_cell_formula_units_Z   1
loop_
 _symmetry_equiv_pos_site_id
 _symmetry_equiv_pos_as_xyz
  1  'x, y, z'
loop_
 _atom_site_type_symbol
 _atom_site_label
 _atom_site_symmetry_multiplicity
 _atom_site_fract_x
 _atom_site_fract_y
 _atom_site_fract_z
 _atom_site_occupancy
  Tb  Tb0  1  0.417835  0.380722  0.000000  1
  Tb  Tb1  1  0.619278  0.037112  0.000000  1
  Tb  Tb2  1  0.962888  0.582165  0.000000  1
  Cd  Cd3  1  0.000000  0.000000  0.000000  1
  In  In4  1  0.002705  0.277135  0.500000  1
  In  In5  1  0.722865  0.725570  0.500000  1
  In  In6  1  0.274430  0.997295  0.500000  1
  Hg  Hg7  1  0.333333  0.666667  0.500000  1
  Ir  Ir8  1  0.666667  0.333333  0.500000  1
