# generated using pymatgen
data_Er3PaZn2Rh3
_symmetry_space_group_name_H-M   'P 1'
_cell_length_a   7.39174400
_cell_length_b   7.52564864
_cell_length_c   3.79657800
_cell_angle_alpha   90.00000000
_cell_angle_beta   90.00000000
_cell_angle_gamma   119.41313389
_symmetry_Int_Tables_number   1
_chemical_formula_structural   Er3PaZn2Rh3
_chemical_formula_sum   'Er3 Pa1 Zn2 Rh3'
_cell_volume   183.97203966
_cell_formula_units_Z   1
loop_
 _symmetry_equiv_pos_site_id
 _symmetry_equiv_pos_as_xyz
  1  'x, y, z'
loop_
 _atom_site_type_symbol
 _atom_site_label
 _atom_site_symmetry_multiplicity
 _atom_site_fract_x
 _atom_site_fract_y
 _atom_site_fract_z
 _atom_site_occupancy
  Er  Er0  1  0.962005  0.550125  0.500000  1
  Er  Er1  1  0.411880  0.449875  0.500000  1
  Er  Er2  1  0.638004  0.000000  0.500000  1
  Pa  Pa3  1  0.260550  0.000000  0.000000  1
  Zn  Zn4  1  0.746476  0.735259  0.000000  1
  Zn  Zn5  1  0.011218  0.264741  0.000000  1
  Rh  Rh6  1  0.633735  0.308884  0.000000  1
  Rh  Rh7  1  0.324851  0.691116  0.000000  1
  Rh  Rh8  1  0.011279  0.000000  0.500000  1
