# generated using pymatgen
data_Tb8Al3Si8Ge
_symmetry_space_group_name_H-M   'P 1'
_cell_length_a   5.62838993
_cell_length_b   5.62839000
_cell_length_c   19.55694655
_cell_angle_alpha   82.53220718
_cell_angle_beta   82.53220757
_cell_angle_gamma   42.40806934
_symmetry_Int_Tables_number   1
_chemical_formula_structural   Tb8Al3Si8Ge
_chemical_formula_sum   'Tb8 Al3 Si8 Ge1'
_cell_volume   413.74182978
_cell_formula_units_Z   1
loop_
 _symmetry_equiv_pos_site_id
 _symmetry_equiv_pos_as_xyz
  1  'x, y, z'
loop_
 _atom_site_type_symbol
 _atom_site_label
 _atom_site_symmetry_multiplicity
 _atom_site_fract_x
 _atom_site_fract_y
 _atom_site_fract_z
 _atom_site_occupancy
  Tb  Tb0  1  0.462521  0.462521  0.676531  1
  Tb  Tb1  1  0.703148  0.703148  0.928730  1
  Tb  Tb2  1  0.973938  0.973938  0.179145  1
  Tb  Tb3  1  0.216858  0.216858  0.428040  1
  Tb  Tb4  1  0.783142  0.783142  0.571960  1
  Tb  Tb5  1  0.026062  0.026062  0.820855  1
  Tb  Tb6  1  0.296852  0.296852  0.071270  1
  Tb  Tb7  1  0.537479  0.537479  0.323469  1
  Al  Al8  1  0.254785  0.254785  0.252341  1
  Al  Al9  1  0.500000  0.500000  0.500000  1
  Al  Al10  1  0.745215  0.745215  0.747659  1
  Si  Si11  1  0.172479  0.172479  0.676256  1
  Si  Si12  1  0.415619  0.415619  0.922989  1
  Si  Si13  1  0.687148  0.687148  0.180027  1
  Si  Si14  1  0.928118  0.928118  0.427848  1
  Si  Si15  1  0.071882  0.071882  0.572152  1
  Si  Si16  1  0.312852  0.312852  0.819973  1
  Si  Si17  1  0.584381  0.584381  0.077011  1
  Si  Si18  1  0.827521  0.827521  0.323744  1
  Ge  Ge19  1  0.000000  0.000000  0.000000  1
