# generated using pymatgen
data_Sm2Er4Al24Os5Pt3
_symmetry_space_group_name_H-M   'P 1'
_cell_length_a   8.84745743
_cell_length_b   8.85599694
_cell_length_c   9.53889764
_cell_angle_alpha   89.96048601
_cell_angle_beta   89.70389775
_cell_angle_gamma   119.73052469
_symmetry_Int_Tables_number   1
_chemical_formula_structural   Sm2Er4Al24Os5Pt3
_chemical_formula_sum   'Sm2 Er4 Al24 Os5 Pt3'
_cell_volume   649.00614536
_cell_formula_units_Z   1
loop_
 _symmetry_equiv_pos_site_id
 _symmetry_equiv_pos_as_xyz
  1  'x, y, z'
loop_
 _atom_site_type_symbol
 _atom_site_label
 _atom_site_symmetry_multiplicity
 _atom_site_fract_x
 _atom_site_fract_y
 _atom_site_fract_z
 _atom_site_occupancy
  Sm  Sm0  1  0.186556  0.378324  0.250264  1
  Sm  Sm1  1  0.813444  0.621676  0.749736  1
  Er  Er2  1  0.611688  0.813653  0.251896  1
  Er  Er3  1  0.388312  0.186347  0.748104  1
  Er  Er4  1  0.196006  0.809206  0.251096  1
  Er  Er5  1  0.803994  0.190794  0.748904  1
  Al  Al6  1  0.335818  0.671149  0.028811  1
  Al  Al7  1  0.664182  0.328851  0.971189  1
  Al  Al8  1  0.669450  0.331725  0.526592  1
  Al  Al9  1  0.330550  0.668275  0.473408  1
  Al  Al10  1  0.158098  0.325003  0.576568  1
  Al  Al11  1  0.841902  0.674997  0.423432  1
  Al  Al12  1  0.674137  0.841618  0.574731  1
  Al  Al13  1  0.837045  0.676730  0.079504  1
  Al  Al14  1  0.325863  0.158382  0.425269  1
  Al  Al15  1  0.162955  0.323270  0.920496  1
  Al  Al16  1  0.165224  0.836320  0.574651  1
  Al  Al17  1  0.325854  0.158154  0.074962  1
  Al  Al18  1  0.834776  0.163680  0.425349  1
  Al  Al19  1  0.674146  0.841846  0.925038  1
  Al  Al20  1  0.831060  0.158338  0.075997  1
  Al  Al21  1  0.168940  0.841662  0.924003  1
  Al  Al22  1  0.560107  0.124055  0.249348  1
  Al  Al23  1  0.439893  0.875945  0.750652  1
  Al  Al24  1  0.873912  0.438665  0.252881  1
  Al  Al25  1  0.126088  0.561335  0.747119  1
  Al  Al26  1  0.563617  0.437627  0.249356  1
  Al  Al27  1  0.436383  0.562373  0.750644  1
  Al  Al28  1  0.995717  0.996369  0.250270  1
  Al  Al29  1  0.004283  0.003631  0.749730  1
  Os  Os30  1  0.500000  0.000000  0.000000  1
  Os  Os31  1  0.500000  0.000000  0.500000  1
  Os  Os32  1  0.000000  0.500000  0.500000  1
  Os  Os33  1  0.000000  0.000000  0.000000  1
  Os  Os34  1  0.000000  0.000000  0.500000  1
  Pt  Pt35  1  0.000000  0.500000  0.000000  1
  Pt  Pt36  1  0.500000  0.500000  0.000000  1
  Pt  Pt37  1  0.500000  0.500000  0.500000  1
