# generated using pymatgen
data_Na8Zr3PbCl24
_symmetry_space_group_name_H-M   'P 1'
_cell_length_a   6.80043600
_cell_length_b   6.80043658
_cell_length_c   25.95612300
_cell_angle_alpha   90.00000000
_cell_angle_beta   90.00000000
_cell_angle_gamma   119.99999719
_symmetry_Int_Tables_number   1
_chemical_formula_structural   Na8Zr3PbCl24
_chemical_formula_sum   'Na8 Zr3 Pb1 Cl24'
_cell_volume   1039.54673785
_cell_formula_units_Z   1
loop_
 _symmetry_equiv_pos_site_id
 _symmetry_equiv_pos_as_xyz
  1  'x, y, z'
loop_
 _atom_site_type_symbol
 _atom_site_label
 _atom_site_symmetry_multiplicity
 _atom_site_fract_x
 _atom_site_fract_y
 _atom_site_fract_z
 _atom_site_occupancy
  Na  Na0  1  0.000000  0.000000  0.250155  1
  Na  Na1  1  0.000000  0.000000  0.749845  1
  Na  Na2  1  0.333333  0.666667  0.000298  1
  Na  Na3  1  0.333333  0.666667  0.499515  1
  Na  Na4  1  0.333333  0.666667  0.250022  1
  Na  Na5  1  0.666667  0.333333  0.749978  1
  Na  Na6  1  0.666667  0.333333  0.999702  1
  Na  Na7  1  0.666667  0.333333  0.500485  1
  Zr  Zr8  1  0.000000  0.000000  0.500000  1
  Zr  Zr9  1  0.333333  0.666667  0.749699  1
  Zr  Zr10  1  0.666667  0.333333  0.250301  1
  Pb  Pb11  1  0.000000  0.000000  0.000000  1
  Cl  Cl12  1  0.367588  0.034000  0.306064  1
  Cl  Cl13  1  0.333624  0.965966  0.805624  1
  Cl  Cl14  1  0.999374  0.308044  0.057548  1
  Cl  Cl15  1  0.000367  0.299401  0.555842  1
  Cl  Cl16  1  0.966000  0.333591  0.306064  1
  Cl  Cl17  1  0.034034  0.367657  0.805624  1
  Cl  Cl18  1  0.367657  0.333624  0.194376  1
  Cl  Cl19  1  0.333591  0.367588  0.693936  1
  Cl  Cl20  1  0.299401  0.299033  0.444158  1
  Cl  Cl21  1  0.308044  0.308669  0.942452  1
  Cl  Cl22  1  0.700967  0.000367  0.444158  1
  Cl  Cl23  1  0.308669  0.000626  0.057548  1
  Cl  Cl24  1  0.299033  0.999633  0.555842  1
  Cl  Cl25  1  0.691956  0.691331  0.057548  1
  Cl  Cl26  1  0.700599  0.700967  0.555842  1
  Cl  Cl27  1  0.666409  0.632412  0.306064  1
  Cl  Cl28  1  0.632343  0.666376  0.805624  1
  Cl  Cl29  1  0.965966  0.632343  0.194376  1
  Cl  Cl30  1  0.034000  0.666409  0.693936  1
  Cl  Cl31  1  0.999633  0.700599  0.444158  1
  Cl  Cl32  1  0.000626  0.691956  0.942452  1
  Cl  Cl33  1  0.691331  0.999374  0.942452  1
  Cl  Cl34  1  0.666376  0.034034  0.194376  1
  Cl  Cl35  1  0.632412  0.966000  0.693936  1
