# generated using pymatgen
data_LaGdTa6O18
_symmetry_space_group_name_H-M   'P 1'
_cell_length_a   7.60236900
_cell_length_b   5.43282786
_cell_length_c   8.31911031
_cell_angle_alpha   87.74868838
_cell_angle_beta   90.00000000
_cell_angle_gamma   90.00000000
_symmetry_Int_Tables_number   1
_chemical_formula_structural   LaGdTa6O18
_chemical_formula_sum   'La1 Gd1 Ta6 O18'
_cell_volume   343.33369541
_cell_formula_units_Z   1
loop_
 _symmetry_equiv_pos_site_id
 _symmetry_equiv_pos_as_xyz
  1  'x, y, z'
loop_
 _atom_site_type_symbol
 _atom_site_label
 _atom_site_symmetry_multiplicity
 _atom_site_fract_x
 _atom_site_fract_y
 _atom_site_fract_z
 _atom_site_occupancy
  La  La0  1  0.250000  0.969022  0.436853  1
  Gd  Gd1  1  0.750000  0.038788  0.565784  1
  Ta  Ta2  1  0.000046  0.001746  0.999191  1
  Ta  Ta3  1  0.499954  0.001746  0.999191  1
  Ta  Ta4  1  0.004560  0.527394  0.698748  1
  Ta  Ta5  1  0.495440  0.527394  0.698748  1
  Ta  Ta6  1  0.991095  0.474626  0.302298  1
  Ta  Ta7  1  0.508905  0.474626  0.302298  1
  O  O8  1  0.250000  0.914515  0.981086  1
  O  O9  1  0.940545  0.846967  0.784887  1
  O  O10  1  0.559455  0.846967  0.784887  1
  O  O11  1  0.955971  0.736353  0.468505  1
  O  O12  1  0.544029  0.736353  0.468505  1
  O  O13  1  0.250000  0.640863  0.661337  1
  O  O14  1  0.952908  0.683761  0.123545  1
  O  O15  1  0.547092  0.683761  0.123545  1
  O  O16  1  0.250000  0.553894  0.316919  1
  O  O17  1  0.750000  0.427822  0.689425  1
  O  O18  1  0.047513  0.318771  0.877245  1
  O  O19  1  0.452487  0.318771  0.877245  1
  O  O20  1  0.750000  0.345087  0.340167  1
  O  O21  1  0.032605  0.264847  0.532488  1
  O  O22  1  0.467395  0.264847  0.532488  1
  O  O23  1  0.054950  0.159051  0.209117  1
  O  O24  1  0.445050  0.159051  0.209117  1
  O  O25  1  0.750000  0.082978  0.016381  1
