# generated using pymatgen
data_Zr6Ta4Al12OsRu6
_symmetry_space_group_name_H-M   'P 1'
_cell_length_a   8.82740329
_cell_length_b   8.83708771
_cell_length_c   8.83708568
_cell_angle_alpha   59.92717221
_cell_angle_beta   60.03623857
_cell_angle_gamma   60.03624268
_symmetry_Int_Tables_number   1
_chemical_formula_structural   Zr6Ta4Al12OsRu6
_chemical_formula_sum   'Zr6 Ta4 Al12 Os1 Ru6'
_cell_volume   487.45442338
_cell_formula_units_Z   1
loop_
 _symmetry_equiv_pos_site_id
 _symmetry_equiv_pos_as_xyz
  1  'x, y, z'
loop_
 _atom_site_type_symbol
 _atom_site_label
 _atom_site_symmetry_multiplicity
 _atom_site_fract_x
 _atom_site_fract_y
 _atom_site_fract_z
 _atom_site_occupancy
  Zr  Zr0  1  0.699093  0.700874  0.299411  1
  Zr  Zr1  1  0.300621  0.700874  0.299411  1
  Zr  Zr2  1  0.698986  0.301014  0.301014  1
  Zr  Zr3  1  0.300621  0.299411  0.700874  1
  Zr  Zr4  1  0.699093  0.299411  0.700874  1
  Zr  Zr5  1  0.300539  0.699461  0.699461  1
  Ta  Ta6  1  0.879384  0.879642  0.361593  1
  Ta  Ta7  1  0.879384  0.361593  0.879642  1
  Ta  Ta8  1  0.362247  0.879338  0.879338  1
  Ta  Ta9  1  0.879078  0.879338  0.879338  1
  Al  Al10  1  0.120850  0.120477  0.637821  1
  Al  Al11  1  0.120850  0.637821  0.120477  1
  Al  Al12  1  0.637530  0.120937  0.120937  1
  Al  Al13  1  0.120593  0.120937  0.120937  1
  Al  Al14  1  0.662145  0.659767  0.015943  1
  Al  Al15  1  0.662145  0.015943  0.659767  1
  Al  Al16  1  0.015785  0.661299  0.661299  1
  Al  Al17  1  0.661618  0.661299  0.661299  1
  Al  Al18  1  0.333878  0.335218  0.997026  1
  Al  Al19  1  0.333878  0.997026  0.335218  1
  Al  Al20  1  0.996261  0.334757  0.334757  1
  Al  Al21  1  0.334227  0.334757  0.334757  1
  Os  Os22  1  0.503143  0.996857  0.996857  1
  Ru  Ru23  1  0.000052  0.999948  0.999948  1
  Ru  Ru24  1  0.997394  0.997262  0.502341  1
  Ru  Ru25  1  0.503002  0.997262  0.502341  1
  Ru  Ru26  1  0.997208  0.502792  0.502792  1
  Ru  Ru27  1  0.503002  0.502341  0.997262  1
  Ru  Ru28  1  0.997394  0.502341  0.997262  1
