# generated using pymatgen
data_Er16Hf4Ir11Rh
_symmetry_space_group_name_H-M   'P 1'
_cell_length_a   10.76177100
_cell_length_b   10.76177100
_cell_length_c   6.23824100
_cell_angle_alpha   90.00000000
_cell_angle_beta   90.00000000
_cell_angle_gamma   90.00000000
_symmetry_Int_Tables_number   1
_chemical_formula_structural   Er16Hf4Ir11Rh
_chemical_formula_sum   'Er16 Hf4 Ir11 Rh1'
_cell_volume   722.48634211
_cell_formula_units_Z   1
loop_
 _symmetry_equiv_pos_site_id
 _symmetry_equiv_pos_as_xyz
  1  'x, y, z'
loop_
 _atom_site_type_symbol
 _atom_site_label
 _atom_site_symmetry_multiplicity
 _atom_site_fract_x
 _atom_site_fract_y
 _atom_site_fract_z
 _atom_site_occupancy
  Er  Er0  1  0.289642  0.086094  0.371862  1
  Er  Er1  1  0.289038  0.913486  0.869781  1
  Er  Er2  1  0.710962  0.086514  0.869781  1
  Er  Er3  1  0.710358  0.913906  0.371862  1
  Er  Er4  1  0.586514  0.789038  0.869781  1
  Er  Er5  1  0.586094  0.210358  0.371862  1
  Er  Er6  1  0.413906  0.789642  0.371862  1
  Er  Er7  1  0.413486  0.210962  0.869781  1
  Er  Er8  1  0.210193  0.413689  0.628859  1
  Er  Er9  1  0.210277  0.586918  0.128932  1
  Er  Er10  1  0.789723  0.413082  0.128932  1
  Er  Er11  1  0.789807  0.586311  0.628859  1
  Er  Er12  1  0.913082  0.710277  0.128932  1
  Er  Er13  1  0.913689  0.289807  0.628859  1
  Er  Er14  1  0.086311  0.710193  0.628859  1
  Er  Er15  1  0.086918  0.289723  0.128932  1
  Hf  Hf16  1  0.000000  0.000000  0.500223  1
  Hf  Hf17  1  0.000000  0.000000  0.000474  1
  Hf  Hf18  1  0.500000  0.500000  0.000474  1
  Hf  Hf19  1  0.500000  0.500000  0.500223  1
  Ir  Ir20  1  0.854949  0.143923  0.250083  1
  Ir  Ir21  1  0.855340  0.855977  0.750176  1
  Ir  Ir22  1  0.144660  0.144023  0.750176  1
  Ir  Ir23  1  0.145051  0.856077  0.250083  1
  Ir  Ir24  1  0.644023  0.355340  0.750176  1
  Ir  Ir25  1  0.643923  0.645051  0.250083  1
  Ir  Ir26  1  0.356077  0.354949  0.250083  1
  Ir  Ir27  1  0.355977  0.644660  0.750176  1
  Ir  Ir28  1  0.500000  0.000000  0.616522  1
  Ir  Ir29  1  0.000000  0.500000  0.884901  1
  Ir  Ir30  1  0.000000  0.500000  0.384468  1
  Rh  Rh31  1  0.500000  0.000000  0.113945  1
