# generated using pymatgen
data_Dy8SiPBr12
_symmetry_space_group_name_H-M   'P 1'
_cell_length_a   4.03356200
_cell_length_b   13.15918024
_cell_length_c   13.93251801
_cell_angle_alpha   89.91322137
_cell_angle_beta   90.00000000
_cell_angle_gamma   90.00000000
_symmetry_Int_Tables_number   1
_chemical_formula_structural   Dy8SiPBr12
_chemical_formula_sum   'Dy8 Si1 P1 Br12'
_cell_volume   739.51448927
_cell_formula_units_Z   1
loop_
 _symmetry_equiv_pos_site_id
 _symmetry_equiv_pos_as_xyz
  1  'x, y, z'
loop_
 _atom_site_type_symbol
 _atom_site_label
 _atom_site_symmetry_multiplicity
 _atom_site_fract_x
 _atom_site_fract_y
 _atom_site_fract_z
 _atom_site_occupancy
  Dy  Dy0  1  0.500000  0.116131  0.344009  1
  Dy  Dy1  1  0.500000  0.883869  0.655991  1
  Dy  Dy2  1  0.500000  0.619023  0.159884  1
  Dy  Dy3  1  0.500000  0.380977  0.840116  1
  Dy  Dy4  1  0.000000  0.113560  0.575297  1
  Dy  Dy5  1  0.000000  0.886440  0.424703  1
  Dy  Dy6  1  0.000000  0.618963  0.920908  1
  Dy  Dy7  1  0.000000  0.381037  0.079092  1
  Si  Si8  1  0.500000  0.500000  0.000000  1
  P  P9  1  0.500000  0.000000  0.500000  1
  Br  Br10  1  0.500000  0.242826  0.163335  1
  Br  Br11  1  0.500000  0.757174  0.836665  1
  Br  Br12  1  0.500000  0.745063  0.338201  1
  Br  Br13  1  0.500000  0.254937  0.661799  1
  Br  Br14  1  0.000000  0.255544  0.412170  1
  Br  Br15  1  0.000000  0.744456  0.587830  1
  Br  Br16  1  0.000000  0.757148  0.088354  1
  Br  Br17  1  0.000000  0.242852  0.911646  1
  Br  Br18  1  0.000000  0.001020  0.243311  1
  Br  Br19  1  0.000000  0.998980  0.756689  1
  Br  Br20  1  0.000000  0.501122  0.258493  1
  Br  Br21  1  0.000000  0.498878  0.741507  1
