# generated using pymatgen
data_Th4CdPt4Au
_symmetry_space_group_name_H-M   'P 1'
_cell_length_a   3.83556100
_cell_length_b   7.88258600
_cell_length_c   7.88258600
_cell_angle_alpha   90.00000000
_cell_angle_beta   90.00000000
_cell_angle_gamma   90.00000000
_symmetry_Int_Tables_number   1
_chemical_formula_structural   Th4CdPt4Au
_chemical_formula_sum   'Th4 Cd1 Pt4 Au1'
_cell_volume   238.32320428
_cell_formula_units_Z   1
loop_
 _symmetry_equiv_pos_site_id
 _symmetry_equiv_pos_as_xyz
  1  'x, y, z'
loop_
 _atom_site_type_symbol
 _atom_site_label
 _atom_site_symmetry_multiplicity
 _atom_site_fract_x
 _atom_site_fract_y
 _atom_site_fract_z
 _atom_site_occupancy
  Th  Th0  1  0.500000  0.167164  0.680045  1
  Th  Th1  1  0.500000  0.832836  0.319955  1
  Th  Th2  1  0.500000  0.319955  0.167164  1
  Th  Th3  1  0.500000  0.680045  0.832836  1
  Cd  Cd4  1  0.000000  0.500000  0.500000  1
  Pt  Pt5  1  0.000000  0.625560  0.132966  1
  Pt  Pt6  1  0.000000  0.374440  0.867034  1
  Pt  Pt7  1  0.000000  0.867034  0.625560  1
  Pt  Pt8  1  0.000000  0.132966  0.374440  1
  Au  Au9  1  0.000000  0.000000  0.000000  1
