# generated using pymatgen
data_YEr(Sb5O13)2
_symmetry_space_group_name_H-M   'P 1'
_cell_length_a   7.41736409
_cell_length_b   7.34978070
_cell_length_c   10.30303800
_cell_angle_alpha   88.82531139
_cell_angle_beta   89.94770481
_cell_angle_gamma   89.94671315
_symmetry_Int_Tables_number   1
_chemical_formula_structural   YEr(Sb5O13)2
_chemical_formula_sum   'Y1 Er1 Sb10 O26'
_cell_volume   561.56190245
_cell_formula_units_Z   1
loop_
 _symmetry_equiv_pos_site_id
 _symmetry_equiv_pos_as_xyz
  1  'x, y, z'
loop_
 _atom_site_type_symbol
 _atom_site_label
 _atom_site_symmetry_multiplicity
 _atom_site_fract_x
 _atom_site_fract_y
 _atom_site_fract_z
 _atom_site_occupancy
  Y  Y0  1  0.000000  0.500000  0.000000  1
  Er  Er1  1  0.500000  0.500000  0.000000  1
  Sb  Sb2  1  0.251201  0.728763  0.731205  1
  Sb  Sb3  1  0.748799  0.271237  0.268795  1
  Sb  Sb4  1  0.500000  0.000000  0.000000  1
  Sb  Sb5  1  0.749928  0.757407  0.749012  1
  Sb  Sb6  1  0.250390  0.747887  0.251795  1
  Sb  Sb7  1  0.500000  0.500000  0.500000  1
  Sb  Sb8  1  0.000000  0.500000  0.500000  1
  Sb  Sb9  1  0.749610  0.252113  0.748205  1
  Sb  Sb10  1  0.250072  0.242593  0.250988  1
  Sb  Sb11  1  0.000000  0.000000  0.000000  1
  O  O12  1  0.448566  0.690767  0.372146  1
  O  O13  1  0.747306  0.456685  0.127045  1
  O  O14  1  0.251248  0.493661  0.160243  1
  O  O15  1  0.454627  0.308401  0.366223  1
  O  O16  1  0.556620  0.216851  0.885432  1
  O  O17  1  0.943029  0.215687  0.884758  1
  O  O18  1  0.448907  0.208212  0.120539  1
  O  O19  1  0.749940  0.999143  0.072912  1
  O  O20  1  0.250060  0.000857  0.927088  1
  O  O21  1  0.749539  0.004033  0.684558  1
  O  O22  1  0.551093  0.791788  0.879461  1
  O  O23  1  0.949031  0.792258  0.879065  1
  O  O24  1  0.443380  0.783149  0.114568  1
  O  O25  1  0.051692  0.690590  0.371926  1
  O  O26  1  0.545373  0.691599  0.633777  1
  O  O27  1  0.954064  0.691289  0.633737  1
  O  O28  1  0.249989  0.518193  0.581214  1
  O  O29  1  0.748752  0.506339  0.839757  1
  O  O30  1  0.750011  0.481807  0.418786  1
  O  O31  1  0.045936  0.308711  0.366263  1
  O  O32  1  0.551434  0.309233  0.627854  1
  O  O33  1  0.948308  0.309410  0.628074  1
  O  O34  1  0.050969  0.207742  0.120935  1
  O  O35  1  0.250461  0.995967  0.315442  1
  O  O36  1  0.056971  0.784313  0.115242  1
  O  O37  1  0.252694  0.543315  0.872955  1
