# generated using pymatgen
data_Nb4Cr3Fe3Si2
_symmetry_space_group_name_H-M   'P 1'
_cell_length_a   4.84639300
_cell_length_b   4.84639372
_cell_length_c   8.01560000
_cell_angle_alpha   90.00000000
_cell_angle_beta   90.00000000
_cell_angle_gamma   120.00000190
_symmetry_Int_Tables_number   1
_chemical_formula_structural   Nb4Cr3Fe3Si2
_chemical_formula_sum   'Nb4 Cr3 Fe3 Si2'
_cell_volume   163.04368490
_cell_formula_units_Z   1
loop_
 _symmetry_equiv_pos_site_id
 _symmetry_equiv_pos_as_xyz
  1  'x, y, z'
loop_
 _atom_site_type_symbol
 _atom_site_label
 _atom_site_symmetry_multiplicity
 _atom_site_fract_x
 _atom_site_fract_y
 _atom_site_fract_z
 _atom_site_occupancy
  Nb  Nb0  1  0.333333  0.666667  0.437421  1
  Nb  Nb1  1  0.666667  0.333333  0.564068  1
  Nb  Nb2  1  0.666667  0.333333  0.935932  1
  Nb  Nb3  1  0.333333  0.666667  0.062579  1
  Cr  Cr4  1  0.829770  0.170230  0.250000  1
  Cr  Cr5  1  0.829770  0.659538  0.250000  1
  Cr  Cr6  1  0.340462  0.170230  0.250000  1
  Fe  Fe7  1  0.172241  0.827759  0.750000  1
  Fe  Fe8  1  0.172241  0.344483  0.750000  1
  Fe  Fe9  1  0.655517  0.827759  0.750000  1
  Si  Si10  1  0.000000  0.000000  0.508288  1
  Si  Si11  1  0.000000  0.000000  0.991712  1
