# generated using pymatgen
data_YbLu9(In2Pt)4
_symmetry_space_group_name_H-M   'P 1'
_cell_length_a   3.59010900
_cell_length_b   8.02151020
_cell_length_c   17.98155210
_cell_angle_alpha   89.89791505
_cell_angle_beta   90.00000000
_cell_angle_gamma   90.00000000
_symmetry_Int_Tables_number   1
_chemical_formula_structural   YbLu9(In2Pt)4
_chemical_formula_sum   'Yb1 Lu9 In8 Pt4'
_cell_volume   517.83364092
_cell_formula_units_Z   1
loop_
 _symmetry_equiv_pos_site_id
 _symmetry_equiv_pos_as_xyz
  1  'x, y, z'
loop_
 _atom_site_type_symbol
 _atom_site_label
 _atom_site_symmetry_multiplicity
 _atom_site_fract_x
 _atom_site_fract_y
 _atom_site_fract_z
 _atom_site_occupancy
  Yb  Yb0  1  0.000000  0.000000  0.000000  1
  Lu  Lu1  1  0.000000  0.116860  0.413674  1
  Lu  Lu2  1  0.000000  0.883140  0.586326  1
  Lu  Lu3  1  0.000000  0.382515  0.914008  1
  Lu  Lu4  1  0.000000  0.617485  0.085992  1
  Lu  Lu5  1  0.000000  0.244205  0.221043  1
  Lu  Lu6  1  0.000000  0.755795  0.778957  1
  Lu  Lu7  1  0.000000  0.255474  0.721328  1
  Lu  Lu8  1  0.000000  0.744526  0.278672  1
  Lu  Lu9  1  0.000000  0.500000  0.500000  1
  In  In10  1  0.500000  0.424525  0.352490  1
  In  In11  1  0.500000  0.575475  0.647510  1
  In  In12  1  0.500000  0.075248  0.851957  1
  In  In13  1  0.500000  0.924752  0.148043  1
  In  In14  1  0.500000  0.294017  0.066469  1
  In  In15  1  0.500000  0.705983  0.933531  1
  In  In16  1  0.500000  0.208108  0.565732  1
  In  In17  1  0.500000  0.791892  0.434268  1
  Pt  Pt18  1  0.500000  0.025818  0.303974  1
  Pt  Pt19  1  0.500000  0.974182  0.696026  1
  Pt  Pt20  1  0.500000  0.475359  0.803203  1
  Pt  Pt21  1  0.500000  0.524641  0.196797  1
