# generated using pymatgen
data_Tb3Sc3Si2Ir
_symmetry_space_group_name_H-M   'P 1'
_cell_length_a   7.46777500
_cell_length_b   7.46777624
_cell_length_c   4.23785700
_cell_angle_alpha   90.00000000
_cell_angle_beta   90.00000000
_cell_angle_gamma   119.99999895
_symmetry_Int_Tables_number   1
_chemical_formula_structural   Tb3Sc3Si2Ir
_chemical_formula_sum   'Tb3 Sc3 Si2 Ir1'
_cell_volume   204.67248151
_cell_formula_units_Z   1
loop_
 _symmetry_equiv_pos_site_id
 _symmetry_equiv_pos_as_xyz
  1  'x, y, z'
loop_
 _atom_site_type_symbol
 _atom_site_label
 _atom_site_symmetry_multiplicity
 _atom_site_fract_x
 _atom_site_fract_y
 _atom_site_fract_z
 _atom_site_occupancy
  Tb  Tb0  1  0.414265  0.000000  0.000000  1
  Tb  Tb1  1  0.000000  0.414264  0.000000  1
  Tb  Tb2  1  0.585736  0.585735  0.000000  1
  Sc  Sc3  1  0.759478  0.000000  0.499999  1
  Sc  Sc4  1  0.240522  0.240522  0.499999  1
  Sc  Sc5  1  0.000000  0.759479  0.499999  1
  Si  Si6  1  0.666667  0.333333  0.499999  1
  Si  Si7  1  0.333333  0.666667  0.499999  1
  Ir  Ir8  1  0.000000  0.000000  0.000000  1
