# generated using pymatgen
data_Pr8SiPBr12
_symmetry_space_group_name_H-M   'P 1'
_cell_length_a   4.24574400
_cell_length_b   13.73840024
_cell_length_c   14.58312226
_cell_angle_alpha   90.02171703
_cell_angle_beta   90.00000000
_cell_angle_gamma   90.00000000
_symmetry_Int_Tables_number   1
_chemical_formula_structural   Pr8SiPBr12
_chemical_formula_sum   'Pr8 Si1 P1 Br12'
_cell_volume   850.62952907
_cell_formula_units_Z   1
loop_
 _symmetry_equiv_pos_site_id
 _symmetry_equiv_pos_as_xyz
  1  'x, y, z'
loop_
 _atom_site_type_symbol
 _atom_site_label
 _atom_site_symmetry_multiplicity
 _atom_site_fract_x
 _atom_site_fract_y
 _atom_site_fract_z
 _atom_site_occupancy
  Pr  Pr0  1  0.500000  0.117047  0.342903  1
  Pr  Pr1  1  0.500000  0.882953  0.657097  1
  Pr  Pr2  1  0.500000  0.619627  0.160250  1
  Pr  Pr3  1  0.500000  0.380373  0.839750  1
  Pr  Pr4  1  0.000000  0.114773  0.576047  1
  Pr  Pr5  1  0.000000  0.885227  0.423953  1
  Pr  Pr6  1  0.000000  0.620625  0.920062  1
  Pr  Pr7  1  0.000000  0.379375  0.079938  1
  Si  Si8  1  0.500000  0.500000  0.000000  1
  P  P9  1  0.500000  0.000000  0.500000  1
  Br  Br10  1  0.500000  0.242245  0.163368  1
  Br  Br11  1  0.500000  0.757755  0.836632  1
  Br  Br12  1  0.500000  0.745434  0.339571  1
  Br  Br13  1  0.500000  0.254566  0.660429  1
  Br  Br14  1  0.000000  0.254202  0.411391  1
  Br  Br15  1  0.000000  0.745798  0.588609  1
  Br  Br16  1  0.000000  0.754976  0.088825  1
  Br  Br17  1  0.000000  0.245024  0.911175  1
  Br  Br18  1  0.000000  0.001751  0.244554  1
  Br  Br19  1  0.000000  0.998249  0.755446  1
  Br  Br20  1  0.000000  0.501880  0.256156  1
  Br  Br21  1  0.000000  0.498120  0.743844  1
