# generated using pymatgen
data_Pr6Dy3Y7(CdIr)4
_symmetry_space_group_name_H-M   'P 1'
_cell_length_a   9.78727219
_cell_length_b   9.79275481
_cell_length_c   9.79275600
_cell_angle_alpha   60.00000273
_cell_angle_beta   59.98147045
_cell_angle_gamma   59.98146659
_symmetry_Int_Tables_number   1
_chemical_formula_structural   Pr6Dy3Y7(CdIr)4
_chemical_formula_sum   'Pr6 Dy3 Y7 Cd4 Ir4'
_cell_volume   663.49062052
_cell_formula_units_Z   1
loop_
 _symmetry_equiv_pos_site_id
 _symmetry_equiv_pos_as_xyz
  1  'x, y, z'
loop_
 _atom_site_type_symbol
 _atom_site_label
 _atom_site_symmetry_multiplicity
 _atom_site_fract_x
 _atom_site_fract_y
 _atom_site_fract_z
 _atom_site_occupancy
  Pr  Pr0  1  0.940659  0.559438  0.559438  1
  Pr  Pr1  1  0.559327  0.940681  0.940681  1
  Pr  Pr2  1  0.559327  0.940681  0.559311  1
  Pr  Pr3  1  0.940659  0.559438  0.940465  1
  Pr  Pr4  1  0.559327  0.559311  0.940681  1
  Pr  Pr5  1  0.940659  0.940465  0.559438  1
  Dy  Dy6  1  0.347021  0.347032  0.347032  1
  Dy  Dy7  1  0.347021  0.347032  0.958915  1
  Dy  Dy8  1  0.347021  0.958915  0.347032  1
  Y  Y9  1  0.957958  0.347347  0.347347  1
  Y  Y10  1  0.812392  0.187581  0.187581  1
  Y  Y11  1  0.187584  0.812376  0.812376  1
  Y  Y12  1  0.187584  0.812376  0.187663  1
  Y  Y13  1  0.812392  0.187581  0.812445  1
  Y  Y14  1  0.187584  0.187663  0.812376  1
  Y  Y15  1  0.812392  0.812445  0.187581  1
  Cd  Cd16  1  0.579244  0.579218  0.579218  1
  Cd  Cd17  1  0.579244  0.579218  0.262320  1
  Cd  Cd18  1  0.579244  0.262320  0.579218  1
  Cd  Cd19  1  0.262327  0.579224  0.579224  1
  Ir  Ir20  1  0.142107  0.141282  0.141282  1
  Ir  Ir21  1  0.142107  0.141282  0.575330  1
  Ir  Ir22  1  0.142107  0.575330  0.141282  1
  Ir  Ir23  1  0.574713  0.141763  0.141763  1
