# generated using pymatgen
data_Mn4Be7Si
_symmetry_space_group_name_H-M   'P 1'
_cell_length_a   4.21991600
_cell_length_b   4.21991560
_cell_length_c   7.01920500
_cell_angle_alpha   90.00000000
_cell_angle_beta   90.00000000
_cell_angle_gamma   120.00000311
_symmetry_Int_Tables_number   1
_chemical_formula_structural   Mn4Be7Si
_chemical_formula_sum   'Mn4 Be7 Si1'
_cell_volume   108.24955408
_cell_formula_units_Z   1
loop_
 _symmetry_equiv_pos_site_id
 _symmetry_equiv_pos_as_xyz
  1  'x, y, z'
loop_
 _atom_site_type_symbol
 _atom_site_label
 _atom_site_symmetry_multiplicity
 _atom_site_fract_x
 _atom_site_fract_y
 _atom_site_fract_z
 _atom_site_occupancy
  Mn  Mn0  1  0.333333  0.666667  0.065047  1
  Mn  Mn1  1  0.666667  0.333333  0.559460  1
  Mn  Mn2  1  0.666667  0.333333  0.934953  1
  Mn  Mn3  1  0.333333  0.666667  0.440540  1
  Be  Be4  1  0.000000  0.000000  0.500000  1
  Be  Be5  1  0.828204  0.656406  0.261027  1
  Be  Be6  1  0.171796  0.828204  0.738973  1
  Be  Be7  1  0.656406  0.828204  0.738973  1
  Be  Be8  1  0.343594  0.171796  0.261027  1
  Be  Be9  1  0.828204  0.171796  0.261027  1
  Be  Be10  1  0.171796  0.343594  0.738973  1
  Si  Si11  1  0.000000  0.000000  0.000000  1
