# generated using pymatgen
data_Be4CuIr2Pd
_symmetry_space_group_name_H-M   'P 1'
_cell_length_a   5.51923300
_cell_length_b   5.51939800
_cell_length_c   5.67202800
_cell_angle_alpha   89.99993855
_cell_angle_beta   90.00000000
_cell_angle_gamma   90.00000000
_symmetry_Int_Tables_number   1
_chemical_formula_structural   Be4CuIr2Pd
_chemical_formula_sum   'Be8 Cu2 Ir4 Pd2'
_cell_volume   172.78610176
_cell_formula_units_Z   2
loop_
 _symmetry_equiv_pos_site_id
 _symmetry_equiv_pos_as_xyz
  1  'x, y, z'
loop_
 _atom_site_type_symbol
 _atom_site_label
 _atom_site_symmetry_multiplicity
 _atom_site_fract_x
 _atom_site_fract_y
 _atom_site_fract_z
 _atom_site_occupancy
  Be  Be0  1  0.499894  0.000013  0.249726  1
  Be  Be1  1  0.499893  0.499998  0.249727  1
  Be  Be2  1  0.999893  0.999987  0.250276  1
  Be  Be3  1  0.999892  0.500000  0.250275  1
  Be  Be4  1  0.000107  0.000006  0.749712  1
  Be  Be5  1  0.000108  0.500005  0.749713  1
  Be  Be6  1  0.500106  0.999994  0.750286  1
  Be  Be7  1  0.500107  0.499993  0.750285  1
  Cu  Cu8  1  0.750631  0.749999  0.000128  1
  Cu  Cu9  1  0.250630  0.250000  0.499873  1
  Ir  Ir10  1  0.250166  0.749999  0.000066  1
  Ir  Ir11  1  0.750166  0.250000  0.499936  1
  Ir  Ir12  1  0.249716  0.749999  0.500054  1
  Ir  Ir13  1  0.749715  0.250000  0.999944  1
  Pd  Pd14  1  0.749487  0.749999  0.500111  1
  Pd  Pd15  1  0.249486  0.250000  0.999887  1
