# generated using pymatgen
data_CsBaVO4
_symmetry_space_group_name_H-M   'P 1'
_cell_length_a   6.15853200
_cell_length_b   8.20742700
_cell_length_c   10.66472800
_cell_angle_alpha   90.00000000
_cell_angle_beta   90.00000000
_cell_angle_gamma   90.00000000
_symmetry_Int_Tables_number   1
_chemical_formula_structural   CsBaVO4
_chemical_formula_sum   'Cs4 Ba4 V4 O16'
_cell_volume   539.05616145
_cell_formula_units_Z   4
loop_
 _symmetry_equiv_pos_site_id
 _symmetry_equiv_pos_as_xyz
  1  'x, y, z'
loop_
 _atom_site_type_symbol
 _atom_site_label
 _atom_site_symmetry_multiplicity
 _atom_site_fract_x
 _atom_site_fract_y
 _atom_site_fract_z
 _atom_site_occupancy
  Cs  Cs0  1  0.250000  0.652265  0.583357  1
  Cs  Cs1  1  0.749999  0.347735  0.416643  1
  Cs  Cs2  1  0.749999  0.847736  0.083358  1
  Cs  Cs3  1  0.250000  0.152265  0.916643  1
  Ba  Ba4  1  0.749999  0.999662  0.693599  1
  Ba  Ba5  1  0.250000  0.000338  0.306400  1
  Ba  Ba6  1  0.749999  0.499661  0.806401  1
  Ba  Ba7  1  0.250000  0.500338  0.193599  1
  V  V8  1  0.749999  0.775630  0.415432  1
  V  V9  1  0.250000  0.224369  0.584568  1
  V  V10  1  0.749999  0.275631  0.084568  1
  V  V11  1  0.250000  0.724370  0.915433  1
  O  O12  1  0.514025  0.714130  0.336239  1
  O  O13  1  0.014026  0.285869  0.663760  1
  O  O14  1  0.985975  0.214131  0.163760  1
  O  O15  1  0.485975  0.785869  0.836239  1
  O  O16  1  0.485975  0.285869  0.663760  1
  O  O17  1  0.985975  0.714130  0.336239  1
  O  O18  1  0.014026  0.785869  0.836239  1
  O  O19  1  0.514025  0.214131  0.163760  1
  O  O20  1  0.250000  0.513928  0.928178  1
  O  O21  1  0.749999  0.486072  0.071822  1
  O  O22  1  0.250000  0.013928  0.571822  1
  O  O23  1  0.749999  0.986073  0.428179  1
  O  O24  1  0.749999  0.200207  0.930622  1
  O  O25  1  0.250000  0.799793  0.069378  1
  O  O26  1  0.250000  0.299793  0.430623  1
  O  O27  1  0.749999  0.700206  0.569378  1
