# generated using pymatgen
data_Y11In9(RhAu)2
_symmetry_space_group_name_H-M   'P 1'
_cell_length_a   13.24917190
_cell_length_b   13.33016856
_cell_length_c   3.65312000
_cell_angle_alpha   90.00000000
_cell_angle_beta   90.00000000
_cell_angle_gamma   110.71985458
_symmetry_Int_Tables_number   1
_chemical_formula_structural   Y11In9(RhAu)2
_chemical_formula_sum   'Y11 In9 Rh2 Au2'
_cell_volume   603.46102362
_cell_formula_units_Z   1
loop_
 _symmetry_equiv_pos_site_id
 _symmetry_equiv_pos_as_xyz
  1  'x, y, z'
loop_
 _atom_site_type_symbol
 _atom_site_label
 _atom_site_symmetry_multiplicity
 _atom_site_fract_x
 _atom_site_fract_y
 _atom_site_fract_z
 _atom_site_occupancy
  Y  Y0  1  0.068592  0.418189  0.000000  1
  Y  Y1  1  0.931408  0.581811  0.000000  1
  Y  Y2  1  0.418002  0.073391  0.000000  1
  Y  Y3  1  0.581998  0.926609  0.000000  1
  Y  Y4  1  0.620586  0.360215  0.000000  1
  Y  Y5  1  0.379414  0.639785  0.000000  1
  Y  Y6  1  0.842033  0.156353  0.000000  1
  Y  Y7  1  0.157967  0.843647  0.000000  1
  Y  Y8  1  0.000000  0.000000  0.000000  1
  Y  Y9  1  0.315677  0.301430  0.000000  1
  Y  Y10  1  0.684323  0.698570  0.000000  1
  In  In11  1  0.844594  0.364620  0.500000  1
  In  In12  1  0.155406  0.635380  0.500000  1
  In  In13  1  0.367109  0.843669  0.500000  1
  In  In14  1  0.632891  0.156331  0.500000  1
  In  In15  1  0.070344  0.215991  0.500000  1
  In  In16  1  0.929656  0.784009  0.500000  1
  In  In17  1  0.218710  0.074590  0.500000  1
  In  In18  1  0.781290  0.925410  0.500000  1
  In  In19  1  0.500000  0.500000  0.500000  1
  Rh  Rh20  1  0.450928  0.243131  0.500000  1
  Rh  Rh21  1  0.549072  0.756869  0.500000  1
  Au  Au22  1  0.252619  0.452082  0.500000  1
  Au  Au23  1  0.747381  0.547918  0.500000  1
