# generated using pymatgen
data_Ho3Tm9Ir3Rh
_symmetry_space_group_name_H-M   'P 1'
_cell_length_a   6.33760266
_cell_length_b   7.18323603
_cell_length_c   9.07573100
_cell_angle_alpha   90.00000000
_cell_angle_beta   90.00000000
_cell_angle_gamma   90.03151723
_symmetry_Int_Tables_number   1
_chemical_formula_structural   Ho3Tm9Ir3Rh
_chemical_formula_sum   'Ho3 Tm9 Ir3 Rh1'
_cell_volume   413.16801536
_cell_formula_units_Z   1
loop_
 _symmetry_equiv_pos_site_id
 _symmetry_equiv_pos_as_xyz
  1  'x, y, z'
loop_
 _atom_site_type_symbol
 _atom_site_label
 _atom_site_symmetry_multiplicity
 _atom_site_fract_x
 _atom_site_fract_y
 _atom_site_fract_z
 _atom_site_occupancy
  Ho  Ho0  1  0.871987  0.532590  0.250000  1
  Ho  Ho1  1  0.627083  0.033590  0.250000  1
  Ho  Ho2  1  0.127541  0.466968  0.750000  1
  Tm  Tm3  1  0.329703  0.677547  0.061174  1
  Tm  Tm4  1  0.172252  0.177887  0.438411  1
  Tm  Tm5  1  0.671790  0.321840  0.562274  1
  Tm  Tm6  1  0.825985  0.822208  0.936707  1
  Tm  Tm7  1  0.671790  0.321840  0.937726  1
  Tm  Tm8  1  0.825985  0.822208  0.563293  1
  Tm  Tm9  1  0.329703  0.677547  0.438826  1
  Tm  Tm10  1  0.172252  0.177887  0.061589  1
  Tm  Tm11  1  0.372174  0.967034  0.750000  1
  Ir  Ir12  1  0.454671  0.384417  0.250000  1
  Ir  Ir13  1  0.956965  0.115065  0.750000  1
  Ir  Ir14  1  0.544069  0.616721  0.750000  1
  Rh  Rh15  1  0.046049  0.884654  0.250000  1
