# generated using pymatgen
data_Hf2NbPb4WO13
_symmetry_space_group_name_H-M   'P 1'
_cell_length_a   7.59120296
_cell_length_b   7.63426683
_cell_length_c   7.59120348
_cell_angle_alpha   119.92208581
_cell_angle_beta   119.68872644
_cell_angle_gamma   90.17437058
_symmetry_Int_Tables_number   1
_chemical_formula_structural   Hf2NbPb4WO13
_chemical_formula_sum   'Hf2 Nb1 Pb4 W1 O13'
_cell_volume   312.43249851
_cell_formula_units_Z   1
loop_
 _symmetry_equiv_pos_site_id
 _symmetry_equiv_pos_as_xyz
  1  'x, y, z'
loop_
 _atom_site_type_symbol
 _atom_site_label
 _atom_site_symmetry_multiplicity
 _atom_site_fract_x
 _atom_site_fract_y
 _atom_site_fract_z
 _atom_site_occupancy
  Hf  Hf0  1  0.748972  0.999095  0.749134  1
  Hf  Hf1  1  0.249960  0.999095  0.250123  1
  Nb  Nb2  1  0.748990  0.498058  0.749068  1
  Pb  Pb3  1  0.249343  0.499740  0.749898  1
  Pb  Pb4  1  0.749843  0.499740  0.250399  1
  Pb  Pb5  1  0.249354  0.497453  0.248096  1
  Pb  Pb6  1  0.249391  0.001295  0.751904  1
  W  W7  1  0.749556  0.000222  0.250666  1
  O  O8  1  0.079104  0.078828  0.999724  1
  O  O9  1  0.683088  0.683783  0.000694  1
  O  O10  1  0.680700  0.076377  0.011371  1
  O  O11  1  0.066552  0.672508  0.990143  1
  O  O12  1  0.065006  0.076377  0.395678  1
  O  O13  1  0.682366  0.672508  0.605955  1
  O  O14  1  0.425635  0.926280  0.500645  1
  O  O15  1  0.814635  0.314479  0.499844  1
  O  O16  1  0.816358  0.926708  0.489296  1
  O  O17  1  0.436618  0.324011  0.509718  1
  O  O18  1  0.437413  0.926708  0.110351  1
  O  O19  1  0.814294  0.324011  0.887393  1
  O  O20  1  0.377823  0.377722  0.999899  1
