# generated using pymatgen
data_Sc10Bi7Sb3
_symmetry_space_group_name_H-M   'P 1'
_cell_length_a   8.21806706
_cell_length_b   8.21806644
_cell_length_c   11.04439904
_cell_angle_alpha   69.88375335
_cell_angle_beta   69.88375308
_cell_angle_gamma   53.34190124
_symmetry_Int_Tables_number   1
_chemical_formula_structural   Sc10Bi7Sb3
_chemical_formula_sum   'Sc10 Bi7 Sb3'
_cell_volume   552.27751958
_cell_formula_units_Z   1
loop_
 _symmetry_equiv_pos_site_id
 _symmetry_equiv_pos_as_xyz
  1  'x, y, z'
loop_
 _atom_site_type_symbol
 _atom_site_label
 _atom_site_symmetry_multiplicity
 _atom_site_fract_x
 _atom_site_fract_y
 _atom_site_fract_z
 _atom_site_occupancy
  Sc  Sc0  1  0.005263  0.795843  0.950404  1
  Sc  Sc1  1  0.397154  0.206299  0.150692  1
  Sc  Sc2  1  0.802475  0.597929  0.353547  1
  Sc  Sc3  1  0.204157  0.994737  0.049596  1
  Sc  Sc4  1  0.205282  0.000530  0.548328  1
  Sc  Sc5  1  0.593620  0.403019  0.249339  1
  Sc  Sc6  1  0.596981  0.406380  0.750661  1
  Sc  Sc7  1  0.999470  0.794718  0.451672  1
  Sc  Sc8  1  0.402071  0.197525  0.646453  1
  Sc  Sc9  1  0.793701  0.602846  0.849308  1
  Bi  Bi10  1  0.965174  0.432981  0.100298  1
  Bi  Bi11  1  0.833493  0.966659  0.199960  1
  Bi  Bi12  1  0.366750  0.834120  0.299976  1
  Bi  Bi13  1  0.767734  0.232266  0.500000  1
  Bi  Bi14  1  0.165880  0.633250  0.700024  1
  Bi  Bi15  1  0.033341  0.166507  0.800040  1
  Bi  Bi16  1  0.567019  0.034826  0.899702  1
  Sb  Sb17  1  0.433500  0.566500  0.000000  1
  Sb  Sb18  1  0.233373  0.366437  0.400110  1
  Sb  Sb19  1  0.633563  0.766627  0.599890  1
