# generated using pymatgen
data_PrNdY6(WO6)4
_symmetry_space_group_name_H-M   'P 1'
_cell_length_a   5.46713300
_cell_length_b   7.79504031
_cell_length_c   11.58889215
_cell_angle_alpha   75.58998952
_cell_angle_beta   90.00000000
_cell_angle_gamma   90.00000000
_symmetry_Int_Tables_number   1
_chemical_formula_structural   PrNdY6(WO6)4
_chemical_formula_sum   'Pr1 Nd1 Y6 W4 O24'
_cell_volume   478.34071789
_cell_formula_units_Z   1
loop_
 _symmetry_equiv_pos_site_id
 _symmetry_equiv_pos_as_xyz
  1  'x, y, z'
loop_
 _atom_site_type_symbol
 _atom_site_label
 _atom_site_symmetry_multiplicity
 _atom_site_fract_x
 _atom_site_fract_y
 _atom_site_fract_z
 _atom_site_occupancy
  Pr  Pr0  1  0.314624  0.500000  0.750000  1
  Nd  Nd1  1  0.684988  0.500000  0.250000  1
  Y  Y2  1  0.186480  0.796505  0.077052  1
  Y  Y3  1  0.258660  0.000000  0.750000  1
  Y  Y4  1  0.741241  0.000000  0.250000  1
  Y  Y5  1  0.186480  0.203495  0.422948  1
  Y  Y6  1  0.813204  0.202946  0.923306  1
  Y  Y7  1  0.813204  0.797054  0.576694  1
  W  W8  1  0.746142  0.727494  0.884792  1
  W  W9  1  0.253844  0.727204  0.384192  1
  W  W10  1  0.746142  0.272506  0.615208  1
  W  W11  1  0.253844  0.272796  0.115808  1
  O  O12  1  0.852766  0.358888  0.454203  1
  O  O13  1  0.467803  0.846243  0.930508  1
  O  O14  1  0.852766  0.641112  0.045797  1
  O  O15  1  0.012788  0.281390  0.729486  1
  O  O16  1  0.986111  0.282971  0.229256  1
  O  O17  1  0.146488  0.358884  0.955251  1
  O  O18  1  0.651153  0.493917  0.887873  1
  O  O19  1  0.531451  0.153717  0.069706  1
  O  O20  1  0.146488  0.641116  0.544749  1
  O  O21  1  0.012788  0.718610  0.770514  1
  O  O22  1  0.455771  0.206580  0.272243  1
  O  O23  1  0.043258  0.940788  0.395341  1
  O  O24  1  0.467803  0.153757  0.569492  1
  O  O25  1  0.986111  0.717029  0.270744  1
  O  O26  1  0.957007  0.059464  0.604058  1
  O  O27  1  0.544889  0.205671  0.772131  1
  O  O28  1  0.544889  0.794329  0.727869  1
  O  O29  1  0.043258  0.059212  0.104659  1
  O  O30  1  0.651153  0.506083  0.612127  1
  O  O31  1  0.351090  0.506048  0.112836  1
  O  O32  1  0.455771  0.793420  0.227757  1
  O  O33  1  0.351090  0.493952  0.387164  1
  O  O34  1  0.531451  0.846283  0.430294  1
  O  O35  1  0.957007  0.940536  0.895942  1
