# generated using pymatgen
data_Zr10Ge3As3C
_symmetry_space_group_name_H-M   'P 1'
_cell_length_a   8.06127200
_cell_length_b   8.06127171
_cell_length_c   5.62880700
_cell_angle_alpha   90.00000000
_cell_angle_beta   90.00000000
_cell_angle_gamma   120.00000120
_symmetry_Int_Tables_number   1
_chemical_formula_structural   Zr10Ge3As3C
_chemical_formula_sum   'Zr10 Ge3 As3 C1'
_cell_volume   316.77734814
_cell_formula_units_Z   1
loop_
 _symmetry_equiv_pos_site_id
 _symmetry_equiv_pos_as_xyz
  1  'x, y, z'
loop_
 _atom_site_type_symbol
 _atom_site_label
 _atom_site_symmetry_multiplicity
 _atom_site_fract_x
 _atom_site_fract_y
 _atom_site_fract_z
 _atom_site_occupancy
  Zr  Zr0  1  0.000000  0.759472  0.258055  1
  Zr  Zr1  1  0.240528  0.240528  0.258055  1
  Zr  Zr2  1  0.759472  0.000000  0.258055  1
  Zr  Zr3  1  0.000000  0.240843  0.741947  1
  Zr  Zr4  1  0.759157  0.759157  0.741947  1
  Zr  Zr5  1  0.240843  0.000000  0.741947  1
  Zr  Zr6  1  0.333333  0.666667  0.998522  1
  Zr  Zr7  1  0.666667  0.333333  0.998522  1
  Zr  Zr8  1  0.666667  0.333333  0.501651  1
  Zr  Zr9  1  0.333333  0.666667  0.501651  1
  Ge  Ge10  1  0.000000  0.605659  0.753205  1
  Ge  Ge11  1  0.394341  0.394341  0.753205  1
  Ge  Ge12  1  0.605659  0.000000  0.753205  1
  As  As13  1  0.000000  0.395152  0.247055  1
  As  As14  1  0.604848  0.604848  0.247055  1
  As  As15  1  0.395152  0.000000  0.247055  1
  C  C16  1  0.000000  0.000000  0.498870  1
