# generated using pymatgen
data_Pr5Nd3Re3TcC8
_symmetry_space_group_name_H-M   'P 1'
_cell_length_a   5.39099000
_cell_length_b   6.75000305
_cell_length_c   10.25202421
_cell_angle_alpha   90.00456253
_cell_angle_beta   90.00000000
_cell_angle_gamma   90.00000000
_symmetry_Int_Tables_number   1
_chemical_formula_structural   Pr5Nd3Re3TcC8
_chemical_formula_sum   'Pr5 Nd3 Re3 Tc1 C8'
_cell_volume   373.06294743
_cell_formula_units_Z   1
loop_
 _symmetry_equiv_pos_site_id
 _symmetry_equiv_pos_as_xyz
  1  'x, y, z'
loop_
 _atom_site_type_symbol
 _atom_site_label
 _atom_site_symmetry_multiplicity
 _atom_site_fract_x
 _atom_site_fract_y
 _atom_site_fract_z
 _atom_site_occupancy
  Pr  Pr0  1  0.250000  0.472844  0.786028  1
  Pr  Pr1  1  0.750000  0.026179  0.286385  1
  Pr  Pr2  1  0.250000  0.973397  0.712909  1
  Pr  Pr3  1  0.750000  0.525103  0.213179  1
  Pr  Pr4  1  0.250000  0.812768  0.050353  1
  Nd  Nd5  1  0.750000  0.686703  0.550867  1
  Nd  Nd6  1  0.250000  0.312658  0.448480  1
  Nd  Nd7  1  0.750000  0.186829  0.948262  1
  Re  Re8  1  0.750000  0.231163  0.642694  1
  Re  Re9  1  0.250000  0.769575  0.357617  1
  Re  Re10  1  0.750000  0.731132  0.856172  1
  Tc  Tc11  1  0.250000  0.269333  0.143509  1
  C  C12  1  0.250000  0.685469  0.536679  1
  C  C13  1  0.750000  0.814021  0.035335  1
  C  C14  1  0.250000  0.187282  0.965362  1
  C  C15  1  0.750000  0.314731  0.463682  1
  C  C16  1  0.250000  0.032999  0.259587  1
  C  C17  1  0.750000  0.466731  0.757821  1
  C  C18  1  0.250000  0.534509  0.243860  1
  C  C19  1  0.750000  0.966574  0.741219  1
