# generated using pymatgen
data_Mg6Co14P12Ir3W
_symmetry_space_group_name_H-M   'P 1'
_cell_length_a   3.62628400
_cell_length_b   10.63038500
_cell_length_c   12.03537000
_cell_angle_alpha   90.00000000
_cell_angle_beta   90.00000000
_cell_angle_gamma   90.00000000
_symmetry_Int_Tables_number   1
_chemical_formula_structural   Mg6Co14P12Ir3W
_chemical_formula_sum   'Mg6 Co14 P12 Ir3 W1'
_cell_volume   463.94901135
_cell_formula_units_Z   1
loop_
 _symmetry_equiv_pos_site_id
 _symmetry_equiv_pos_as_xyz
  1  'x, y, z'
loop_
 _atom_site_type_symbol
 _atom_site_label
 _atom_site_symmetry_multiplicity
 _atom_site_fract_x
 _atom_site_fract_y
 _atom_site_fract_z
 _atom_site_occupancy
  Mg  Mg0  1  0.000000  0.500000  0.523731  1
  Mg  Mg1  1  0.500000  0.000000  0.474337  1
  Mg  Mg2  1  0.500000  0.821782  0.207391  1
  Mg  Mg3  1  0.500000  0.178218  0.207391  1
  Mg  Mg4  1  0.000000  0.674944  0.794799  1
  Mg  Mg5  1  0.000000  0.325056  0.794799  1
  Co  Co6  1  0.000000  0.500000  0.987711  1
  Co  Co7  1  0.500000  0.000000  0.009542  1
  Co  Co8  1  0.500000  0.329825  0.990345  1
  Co  Co9  1  0.500000  0.670175  0.990345  1
  Co  Co10  1  0.000000  0.168652  0.009331  1
  Co  Co11  1  0.000000  0.831348  0.009331  1
  Co  Co12  1  0.500000  0.301152  0.435546  1
  Co  Co13  1  0.500000  0.698848  0.435546  1
  Co  Co14  1  0.000000  0.196998  0.567242  1
  Co  Co15  1  0.000000  0.803002  0.567242  1
  Co  Co16  1  0.500000  0.879043  0.706890  1
  Co  Co17  1  0.500000  0.120957  0.706890  1
  Co  Co18  1  0.000000  0.622457  0.294287  1
  Co  Co19  1  0.000000  0.377543  0.294287  1
  P  P20  1  0.500000  0.500000  0.884789  1
  P  P21  1  0.000000  0.000000  0.113891  1
  P  P22  1  0.500000  0.500000  0.353442  1
  P  P23  1  0.000000  0.000000  0.644716  1
  P  P24  1  0.500000  0.302241  0.619070  1
  P  P25  1  0.500000  0.697759  0.619070  1
  P  P26  1  0.000000  0.196627  0.383598  1
  P  P27  1  0.000000  0.803373  0.383598  1
  P  P28  1  0.500000  0.842899  0.889099  1
  P  P29  1  0.500000  0.157101  0.889099  1
  P  P30  1  0.000000  0.658108  0.109416  1
  P  P31  1  0.000000  0.341892  0.109416  1
  Ir  Ir32  1  0.000000  0.000000  0.838427  1
  Ir  Ir33  1  0.500000  0.500000  0.695620  1
  Ir  Ir34  1  0.000000  0.000000  0.302378  1
  W  W35  1  0.500000  0.500000  0.157385  1
