# generated using pymatgen
data_HoNb2B2Ru5
_symmetry_space_group_name_H-M   'P 1'
_cell_length_a   9.56061214
_cell_length_b   9.56061256
_cell_length_c   3.09446800
_cell_angle_alpha   90.00000000
_cell_angle_beta   90.00000000
_cell_angle_gamma   89.34280915
_symmetry_Int_Tables_number   1
_chemical_formula_structural   HoNb2B2Ru5
_chemical_formula_sum   'Ho2 Nb4 B4 Ru10'
_cell_volume   282.83219599
_cell_formula_units_Z   2
loop_
 _symmetry_equiv_pos_site_id
 _symmetry_equiv_pos_as_xyz
  1  'x, y, z'
loop_
 _atom_site_type_symbol
 _atom_site_label
 _atom_site_symmetry_multiplicity
 _atom_site_fract_x
 _atom_site_fract_y
 _atom_site_fract_z
 _atom_site_occupancy
  Ho  Ho0  1  0.176055  0.176055  0.000000  1
  Ho  Ho1  1  0.823945  0.823945  0.000000  1
  Nb  Nb2  1  0.500000  0.000000  0.000000  1
  Nb  Nb3  1  0.000000  0.500000  0.000000  1
  Nb  Nb4  1  0.675576  0.324424  0.000000  1
  Nb  Nb5  1  0.324424  0.675576  0.000000  1
  B  B6  1  0.379112  0.379112  0.000000  1
  B  B7  1  0.620888  0.620888  0.000000  1
  B  B8  1  0.878877  0.121123  0.000000  1
  B  B9  1  0.121123  0.878877  0.000000  1
  Ru  Ru10  1  0.500000  0.500000  0.500000  1
  Ru  Ru11  1  0.000000  0.000000  0.500000  1
  Ru  Ru12  1  0.439978  0.222870  0.500000  1
  Ru  Ru13  1  0.560022  0.777130  0.500000  1
  Ru  Ru14  1  0.919035  0.284835  0.500000  1
  Ru  Ru15  1  0.080965  0.715165  0.500000  1
  Ru  Ru16  1  0.715165  0.080965  0.500000  1
  Ru  Ru17  1  0.284835  0.919035  0.500000  1
  Ru  Ru18  1  0.777130  0.560022  0.500000  1
  Ru  Ru19  1  0.222870  0.439978  0.500000  1
