# generated using pymatgen
data_Sr3TaTi2O9
_symmetry_space_group_name_H-M   'P 1'
_cell_length_a   5.64509606
_cell_length_b   5.64509545
_cell_length_c   12.58635412
_cell_angle_alpha   77.14561173
_cell_angle_beta   77.14561195
_cell_angle_gamma   90.46924259
_symmetry_Int_Tables_number   1
_chemical_formula_structural   Sr3TaTi2O9
_chemical_formula_sum   'Sr6 Ta2 Ti4 O18'
_cell_volume   380.53610663
_cell_formula_units_Z   2
loop_
 _symmetry_equiv_pos_site_id
 _symmetry_equiv_pos_as_xyz
  1  'x, y, z'
loop_
 _atom_site_type_symbol
 _atom_site_label
 _atom_site_symmetry_multiplicity
 _atom_site_fract_x
 _atom_site_fract_y
 _atom_site_fract_z
 _atom_site_occupancy
  Sr  Sr0  1  0.421054  0.921170  0.157769  1
  Sr  Sr1  1  0.078830  0.578946  0.842231  1
  Sr  Sr2  1  0.749946  0.250054  0.500000  1
  Sr  Sr3  1  0.578946  0.078830  0.842231  1
  Sr  Sr4  1  0.250054  0.749946  0.500000  1
  Sr  Sr5  1  0.921170  0.421054  0.157769  1
  Ta  Ta6  1  0.333611  0.333611  0.333657  1
  Ta  Ta7  1  0.666389  0.666389  0.666343  1
  Ti  Ti8  1  0.500000  0.500000  0.000000  1
  Ti  Ti9  1  0.836481  0.836481  0.327916  1
  Ti  Ti10  1  0.163519  0.163519  0.672084  1
  Ti  Ti11  1  0.000000  0.000000  0.000000  1
  O  O12  1  0.613267  0.613267  0.832632  1
  O  O13  1  0.281618  0.281618  0.500360  1
  O  O14  1  0.944914  0.944914  0.167483  1
  O  O15  1  0.386733  0.386733  0.167368  1
  O  O16  1  0.055086  0.055086  0.832517  1
  O  O17  1  0.718382  0.718382  0.499640  1
  O  O18  1  0.259175  0.259175  0.982544  1
  O  O19  1  0.927473  0.927473  0.645267  1
  O  O20  1  0.594144  0.594144  0.312249  1
  O  O21  1  0.740825  0.740825  0.017456  1
  O  O22  1  0.405856  0.405856  0.687751  1
  O  O23  1  0.072527  0.072527  0.354733  1
  O  O24  1  0.250451  0.749549  0.000000  1
  O  O25  1  0.583417  0.083058  0.334022  1
  O  O26  1  0.916942  0.416583  0.665978  1
  O  O27  1  0.749549  0.250451  0.000000  1
  O  O28  1  0.083058  0.583417  0.334022  1
  O  O29  1  0.416583  0.916942  0.665978  1
