# generated using pymatgen
data_Sc22CoIr7
_symmetry_space_group_name_H-M   'P 1'
_cell_length_a   9.46119146
_cell_length_b   9.46119181
_cell_length_c   9.46119200
_cell_angle_alpha   59.99999935
_cell_angle_beta   59.99999812
_cell_angle_gamma   60.00000401
_symmetry_Int_Tables_number   1
_chemical_formula_structural   Sc22CoIr7
_chemical_formula_sum   'Sc22 Co1 Ir7'
_cell_volume   598.85618788
_cell_formula_units_Z   1
loop_
 _symmetry_equiv_pos_site_id
 _symmetry_equiv_pos_as_xyz
  1  'x, y, z'
loop_
 _atom_site_type_symbol
 _atom_site_label
 _atom_site_symmetry_multiplicity
 _atom_site_fract_x
 _atom_site_fract_y
 _atom_site_fract_z
 _atom_site_occupancy
  Sc  Sc0  1  0.801684  0.801684  0.198316  1
  Sc  Sc1  1  0.198316  0.801684  0.198316  1
  Sc  Sc2  1  0.801684  0.198316  0.198316  1
  Sc  Sc3  1  0.198316  0.198316  0.801684  1
  Sc  Sc4  1  0.801684  0.198316  0.801684  1
  Sc  Sc5  1  0.198316  0.801684  0.801684  1
  Sc  Sc6  1  0.615723  0.615723  0.152831  1
  Sc  Sc7  1  0.615723  0.152831  0.615723  1
  Sc  Sc8  1  0.152831  0.615723  0.615723  1
  Sc  Sc9  1  0.615723  0.615723  0.615723  1
  Sc  Sc10  1  0.384277  0.384277  0.847169  1
  Sc  Sc11  1  0.384277  0.847169  0.384277  1
  Sc  Sc12  1  0.847169  0.384277  0.384277  1
  Sc  Sc13  1  0.384277  0.384277  0.384277  1
  Sc  Sc14  1  0.842754  0.842754  0.471737  1
  Sc  Sc15  1  0.842754  0.471737  0.842754  1
  Sc  Sc16  1  0.471737  0.842754  0.842754  1
  Sc  Sc17  1  0.842754  0.842754  0.842754  1
  Sc  Sc18  1  0.157246  0.157246  0.528263  1
  Sc  Sc19  1  0.157246  0.528263  0.157246  1
  Sc  Sc20  1  0.528263  0.157246  0.157246  1
  Sc  Sc21  1  0.157246  0.157246  0.157246  1
  Co  Co22  1  0.500000  0.500000  0.500000  1
  Ir  Ir23  1  0.000000  0.000000  0.000000  1
  Ir  Ir24  1  0.000000  0.000000  0.500000  1
  Ir  Ir25  1  0.500000  0.000000  0.500000  1
  Ir  Ir26  1  0.000000  0.500000  0.500000  1
  Ir  Ir27  1  0.500000  0.500000  0.000000  1
  Ir  Ir28  1  0.000000  0.500000  0.000000  1
  Ir  Ir29  1  0.500000  0.000000  0.000000  1
