# generated using pymatgen
data_Dy2MnCo4NiP4
_symmetry_space_group_name_H-M   'P 1'
_cell_length_a   3.70583600
_cell_length_b   10.50579730
_cell_length_c   12.19169632
_cell_angle_alpha   90.11589693
_cell_angle_beta   90.00000000
_cell_angle_gamma   90.00000000
_symmetry_Int_Tables_number   1
_chemical_formula_structural   Dy2MnCo4NiP4
_chemical_formula_sum   'Dy6 Mn3 Co12 Ni3 P12'
_cell_volume   474.65543827
_cell_formula_units_Z   3
loop_
 _symmetry_equiv_pos_site_id
 _symmetry_equiv_pos_as_xyz
  1  'x, y, z'
loop_
 _atom_site_type_symbol
 _atom_site_label
 _atom_site_symmetry_multiplicity
 _atom_site_fract_x
 _atom_site_fract_y
 _atom_site_fract_z
 _atom_site_occupancy
  Dy  Dy0  1  0.000000  0.500310  0.520315  1
  Dy  Dy1  1  0.500000  0.999877  0.479912  1
  Dy  Dy2  1  0.500000  0.816483  0.204248  1
  Dy  Dy3  1  0.500000  0.182913  0.205490  1
  Dy  Dy4  1  0.000000  0.682518  0.796170  1
  Dy  Dy5  1  0.000000  0.317773  0.795198  1
  Mn  Mn6  1  0.500000  0.498667  0.157473  1
  Mn  Mn7  1  0.000000  0.999721  0.842631  1
  Mn  Mn8  1  0.000000  0.497534  0.988681  1
  Co  Co9  1  0.500000  0.000428  0.014347  1
  Co  Co10  1  0.500000  0.668309  0.994650  1
  Co  Co11  1  0.000000  0.168363  0.006401  1
  Co  Co12  1  0.000000  0.834212  0.006005  1
  Co  Co13  1  0.500000  0.297293  0.430845  1
  Co  Co14  1  0.500000  0.702909  0.430440  1
  Co  Co15  1  0.000000  0.203258  0.568613  1
  Co  Co16  1  0.000000  0.797085  0.568749  1
  Co  Co17  1  0.500000  0.878449  0.709957  1
  Co  Co18  1  0.500000  0.121430  0.708134  1
  Co  Co19  1  0.000000  0.620920  0.290051  1
  Co  Co20  1  0.000000  0.380237  0.292508  1
  Ni  Ni21  1  0.500000  0.500210  0.700453  1
  Ni  Ni22  1  0.000000  0.000240  0.297381  1
  Ni  Ni23  1  0.500000  0.329551  0.992248  1
  P  P24  1  0.500000  0.502178  0.882592  1
  P  P25  1  0.000000  0.000778  0.116438  1
  P  P26  1  0.500000  0.500625  0.344066  1
  P  P27  1  0.000000  0.000106  0.656462  1
  P  P28  1  0.500000  0.309999  0.615012  1
  P  P29  1  0.500000  0.690609  0.615385  1
  P  P30  1  0.000000  0.189547  0.384583  1
  P  P31  1  0.000000  0.810485  0.383973  1
  P  P32  1  0.500000  0.847017  0.893624  1
  P  P33  1  0.500000  0.148944  0.890580  1
  P  P34  1  0.000000  0.652607  0.105736  1
  P  P35  1  0.000000  0.348413  0.110650  1
