# generated using pymatgen
data_YHo2SiAg3Ge2
_symmetry_space_group_name_H-M   'P 1'
_cell_length_a   7.15775407
_cell_length_b   7.15676022
_cell_length_c   4.18982900
_cell_angle_alpha   90.00000000
_cell_angle_beta   90.00000000
_cell_angle_gamma   120.04865191
_symmetry_Int_Tables_number   1
_chemical_formula_structural   YHo2SiAg3Ge2
_chemical_formula_sum   'Y1 Ho2 Si1 Ag3 Ge2'
_cell_volume   185.78346059
_cell_formula_units_Z   1
loop_
 _symmetry_equiv_pos_site_id
 _symmetry_equiv_pos_as_xyz
  1  'x, y, z'
loop_
 _atom_site_type_symbol
 _atom_site_label
 _atom_site_symmetry_multiplicity
 _atom_site_fract_x
 _atom_site_fract_y
 _atom_site_fract_z
 _atom_site_occupancy
  Y  Y0  1  0.414808  0.416570  0.000000  1
  Ho  Ho1  1  0.583763  0.998425  0.000000  1
  Ho  Ho2  1  0.001836  0.585453  0.000000  1
  Si  Si3  1  0.333084  0.667509  0.500000  1
  Ag  Ag4  1  0.252957  0.994597  0.500000  1
  Ag  Ag5  1  0.004616  0.257888  0.500000  1
  Ag  Ag6  1  0.742546  0.747576  0.500000  1
  Ge  Ge7  1  0.667519  0.333110  0.500000  1
  Ge  Ge8  1  0.998871  0.998871  0.000000  1
