# generated using pymatgen
data_Ca7NbAs2N9
_symmetry_space_group_name_H-M   'P 1'
_cell_length_a   10.19106900
_cell_length_b   5.96032590
_cell_length_c   9.22682569
_cell_angle_alpha   91.62444363
_cell_angle_beta   90.00000000
_cell_angle_gamma   90.00000000
_symmetry_Int_Tables_number   1
_chemical_formula_structural   Ca7NbAs2N9
_chemical_formula_sum   'Ca14 Nb2 As4 N18'
_cell_volume   560.23145859
_cell_formula_units_Z   2
loop_
 _symmetry_equiv_pos_site_id
 _symmetry_equiv_pos_as_xyz
  1  'x, y, z'
loop_
 _atom_site_type_symbol
 _atom_site_label
 _atom_site_symmetry_multiplicity
 _atom_site_fract_x
 _atom_site_fract_y
 _atom_site_fract_z
 _atom_site_occupancy
  Ca  Ca0  1  0.935579  0.417814  0.179237  1
  Ca  Ca1  1  0.077040  0.238810  0.512002  1
  Ca  Ca2  1  0.250000  0.055806  0.824452  1
  Ca  Ca3  1  0.435579  0.582186  0.820763  1
  Ca  Ca4  1  0.577040  0.761190  0.487998  1
  Ca  Ca5  1  0.590376  0.076674  0.831461  1
  Ca  Ca6  1  0.909624  0.076674  0.831461  1
  Ca  Ca7  1  0.409624  0.923326  0.168539  1
  Ca  Ca8  1  0.422960  0.238810  0.512002  1
  Ca  Ca9  1  0.090376  0.923326  0.168539  1
  Ca  Ca10  1  0.922960  0.761190  0.487998  1
  Ca  Ca11  1  0.064421  0.582186  0.820763  1
  Ca  Ca12  1  0.750000  0.944194  0.175548  1
  Ca  Ca13  1  0.564421  0.417814  0.179237  1
  Nb  Nb14  1  0.750000  0.271325  0.445158  1
  Nb  Nb15  1  0.250000  0.728675  0.554842  1
  As  As16  1  0.250000  0.419149  0.035551  1
  As  As17  1  0.750000  0.562451  0.708312  1
  As  As18  1  0.750000  0.580851  0.964449  1
  As  As19  1  0.250000  0.437549  0.291688  1
  N  N20  1  0.401698  0.259881  0.985538  1
  N  N21  1  0.250000  0.138936  0.329908  1
  N  N22  1  0.900194  0.110105  0.348759  1
  N  N23  1  0.607763  0.398494  0.644700  1
  N  N24  1  0.750000  0.548046  0.343630  1
  N  N25  1  0.250000  0.718547  0.988260  1
  N  N26  1  0.892237  0.398494  0.644700  1
  N  N27  1  0.392237  0.601506  0.355300  1
  N  N28  1  0.750000  0.281453  0.011740  1
  N  N29  1  0.099806  0.889895  0.651241  1
  N  N30  1  0.750000  0.861064  0.670092  1
  N  N31  1  0.107763  0.601506  0.355300  1
  N  N32  1  0.598302  0.740119  0.014462  1
  N  N33  1  0.250000  0.451954  0.656370  1
  N  N34  1  0.400194  0.889895  0.651241  1
  N  N35  1  0.599806  0.110105  0.348759  1
  N  N36  1  0.098302  0.259881  0.985538  1
  N  N37  1  0.901698  0.740119  0.014462  1
