# generated using pymatgen
data_Sm8Y2B2Cl15
_symmetry_space_group_name_H-M   'P 1'
_cell_length_a   8.84772484
_cell_length_b   9.67007128
_cell_length_c   10.47366917
_cell_angle_alpha   90.99466768
_cell_angle_beta   114.59491788
_cell_angle_gamma   111.04825623
_symmetry_Int_Tables_number   1
_chemical_formula_structural   Sm8Y2B2Cl15
_chemical_formula_sum   'Sm8 Y2 B2 Cl15'
_cell_volume   745.59953406
_cell_formula_units_Z   1
loop_
 _symmetry_equiv_pos_site_id
 _symmetry_equiv_pos_as_xyz
  1  'x, y, z'
loop_
 _atom_site_type_symbol
 _atom_site_label
 _atom_site_symmetry_multiplicity
 _atom_site_fract_x
 _atom_site_fract_y
 _atom_site_fract_z
 _atom_site_occupancy
  Sm  Sm0  1  0.810626  0.417740  0.280368  1
  Sm  Sm1  1  0.189374  0.582260  0.719632  1
  Sm  Sm2  1  0.682072  0.744143  0.819309  1
  Sm  Sm3  1  0.317928  0.255857  0.180691  1
  Sm  Sm4  1  0.526987  0.700741  0.101093  1
  Sm  Sm5  1  0.473013  0.299259  0.898907  1
  Sm  Sm6  1  0.589959  0.036995  0.332335  1
  Sm  Sm7  1  0.410041  0.963005  0.667665  1
  Y  Y8  1  0.727792  0.075692  0.048565  1
  Y  Y9  1  0.272208  0.924308  0.951435  1
  B  B10  1  0.467110  0.819546  0.876177  1
  B  B11  1  0.532890  0.180454  0.123823  1
  Cl  Cl12  1  0.000000  0.000000  0.000000  1
  Cl  Cl13  1  0.635764  0.882970  0.585435  1
  Cl  Cl14  1  0.364236  0.117030  0.414565  1
  Cl  Cl15  1  0.882407  0.298658  0.525611  1
  Cl  Cl16  1  0.117593  0.701342  0.474389  1
  Cl  Cl17  1  0.290219  0.765563  0.175554  1
  Cl  Cl18  1  0.709781  0.234437  0.824446  1
  Cl  Cl19  1  0.048531  0.337238  0.222629  1
  Cl  Cl20  1  0.166031  0.055159  0.708460  1
  Cl  Cl21  1  0.833969  0.944841  0.291540  1
  Cl  Cl22  1  0.234003  0.410864  0.944564  1
  Cl  Cl23  1  0.765997  0.589136  0.055436  1
  Cl  Cl24  1  0.407484  0.465819  0.659236  1
  Cl  Cl25  1  0.592516  0.534181  0.340764  1
  Cl  Cl26  1  0.951469  0.662762  0.777371  1
