# generated using pymatgen
data_U8SiSe17
_symmetry_space_group_name_H-M   'P 1'
_cell_length_a   8.23341785
_cell_length_b   8.23341745
_cell_length_c   10.93001553
_cell_angle_alpha   79.93282142
_cell_angle_beta   79.93282482
_cell_angle_gamma   64.73049542
_symmetry_Int_Tables_number   1
_chemical_formula_structural   U8SiSe17
_chemical_formula_sum   'U8 Si1 Se17'
_cell_volume   655.53075201
_cell_formula_units_Z   1
loop_
 _symmetry_equiv_pos_site_id
 _symmetry_equiv_pos_as_xyz
  1  'x, y, z'
loop_
 _atom_site_type_symbol
 _atom_site_label
 _atom_site_symmetry_multiplicity
 _atom_site_fract_x
 _atom_site_fract_y
 _atom_site_fract_z
 _atom_site_occupancy
  U  U0  1  0.819074  0.307654  0.301629  1
  U  U1  1  0.307654  0.819074  0.301629  1
  U  U2  1  0.180926  0.692346  0.698371  1
  U  U3  1  0.692346  0.180926  0.698371  1
  U  U4  1  0.201387  0.201387  0.540893  1
  U  U5  1  0.798613  0.798613  0.459107  1
  U  U6  1  0.676881  0.676881  0.987083  1
  U  U7  1  0.323119  0.323119  0.012917  1
  Si  Si8  1  0.000000  0.000000  0.000000  1
  Se  Se9  1  0.819075  0.434765  0.537639  1
  Se  Se10  1  0.434765  0.819075  0.537639  1
  Se  Se11  1  0.180925  0.565235  0.462361  1
  Se  Se12  1  0.565235  0.180925  0.462361  1
  Se  Se13  1  0.946940  0.320898  0.029615  1
  Se  Se14  1  0.320898  0.946940  0.029615  1
  Se  Se15  1  0.053060  0.679102  0.970385  1
  Se  Se16  1  0.679102  0.053060  0.970385  1
  Se  Se17  1  0.216279  0.216279  0.276995  1
  Se  Se18  1  0.783721  0.783721  0.723005  1
  Se  Se19  1  0.051570  0.051570  0.772087  1
  Se  Se20  1  0.948430  0.948430  0.227913  1
  Se  Se21  1  0.297267  0.297267  0.754908  1
  Se  Se22  1  0.702733  0.702733  0.245092  1
  Se  Se23  1  0.519931  0.519931  0.828415  1
  Se  Se24  1  0.480069  0.480069  0.171585  1
  Se  Se25  1  0.000000  0.000000  0.500000  1
