# generated using pymatgen
data_ScPa3Mn3CoGe4
_symmetry_space_group_name_H-M   'P 1'
_cell_length_a   4.43112100
_cell_length_b   6.77511811
_cell_length_c   6.94244223
_cell_angle_alpha   86.10068131
_cell_angle_beta   90.00000000
_cell_angle_gamma   90.00000000
_symmetry_Int_Tables_number   1
_chemical_formula_structural   ScPa3Mn3CoGe4
_chemical_formula_sum   'Sc1 Pa3 Mn3 Co1 Ge4'
_cell_volume   207.93913609
_cell_formula_units_Z   1
loop_
 _symmetry_equiv_pos_site_id
 _symmetry_equiv_pos_as_xyz
  1  'x, y, z'
loop_
 _atom_site_type_symbol
 _atom_site_label
 _atom_site_symmetry_multiplicity
 _atom_site_fract_x
 _atom_site_fract_y
 _atom_site_fract_z
 _atom_site_occupancy
  Sc  Sc0  1  0.750000  0.529079  0.786461  1
  Pa  Pa1  1  0.250000  0.988510  0.300899  1
  Pa  Pa2  1  0.250000  0.470789  0.214194  1
  Pa  Pa3  1  0.750000  0.024436  0.696400  1
  Mn  Mn4  1  0.250000  0.146933  0.961357  1
  Mn  Mn5  1  0.750000  0.845835  0.033663  1
  Mn  Mn6  1  0.750000  0.270186  0.452192  1
  Co  Co7  1  0.250000  0.725063  0.548002  1
  Ge  Ge8  1  0.250000  0.321127  0.625398  1
  Ge  Ge9  1  0.250000  0.785231  0.896684  1
  Ge  Ge10  1  0.750000  0.680593  0.395598  1
  Ge  Ge11  1  0.750000  0.212218  0.089152  1
