# generated using pymatgen
data_In5B4Rh13Au2
_symmetry_space_group_name_H-M   'P 1'
_cell_length_a   4.16053400
_cell_length_b   4.16053400
_cell_length_c   20.55801300
_cell_angle_alpha   90.00000000
_cell_angle_beta   90.00000000
_cell_angle_gamma   90.00000000
_symmetry_Int_Tables_number   1
_chemical_formula_structural   In5B4Rh13Au2
_chemical_formula_sum   'In5 B4 Rh13 Au2'
_cell_volume   355.86009242
_cell_formula_units_Z   1
loop_
 _symmetry_equiv_pos_site_id
 _symmetry_equiv_pos_as_xyz
  1  'x, y, z'
loop_
 _atom_site_type_symbol
 _atom_site_label
 _atom_site_symmetry_multiplicity
 _atom_site_fract_x
 _atom_site_fract_y
 _atom_site_fract_z
 _atom_site_occupancy
  In  In0  1  0.000000  0.000000  0.893890  1
  In  In1  1  0.000000  0.000000  0.106110  1
  In  In2  1  0.000000  0.000000  0.299775  1
  In  In3  1  0.000000  0.000000  0.500000  1
  In  In4  1  0.000000  0.000000  0.700225  1
  B  B5  1  0.500000  0.500000  0.193394  1
  B  B6  1  0.500000  0.500000  0.398640  1
  B  B7  1  0.500000  0.500000  0.601360  1
  B  B8  1  0.500000  0.500000  0.806606  1
  Rh  Rh9  1  0.500000  0.500000  0.904260  1
  Rh  Rh10  1  0.500000  0.500000  0.095740  1
  Rh  Rh11  1  0.500000  0.500000  0.298250  1
  Rh  Rh12  1  0.500000  0.500000  0.500000  1
  Rh  Rh13  1  0.500000  0.500000  0.701750  1
  Rh  Rh14  1  0.500000  0.000000  0.200691  1
  Rh  Rh15  1  0.500000  0.000000  0.399447  1
  Rh  Rh16  1  0.500000  0.000000  0.600553  1
  Rh  Rh17  1  0.500000  0.000000  0.799309  1
  Rh  Rh18  1  0.000000  0.500000  0.200691  1
  Rh  Rh19  1  0.000000  0.500000  0.399447  1
  Rh  Rh20  1  0.000000  0.500000  0.600553  1
  Rh  Rh21  1  0.000000  0.500000  0.799309  1
  Au  Au22  1  0.500000  0.000000  0.000000  1
  Au  Au23  1  0.000000  0.500000  0.000000  1
