# generated using pymatgen
data_Ta4Al2B4Ir3Ru7
_symmetry_space_group_name_H-M   'P 1'
_cell_length_a   9.39334353
_cell_length_b   9.31077860
_cell_length_c   2.97896200
_cell_angle_alpha   90.00000000
_cell_angle_beta   90.00000000
_cell_angle_gamma   90.10004319
_symmetry_Int_Tables_number   1
_chemical_formula_structural   Ta4Al2B4Ir3Ru7
_chemical_formula_sum   'Ta4 Al2 B4 Ir3 Ru7'
_cell_volume   260.53765891
_cell_formula_units_Z   1
loop_
 _symmetry_equiv_pos_site_id
 _symmetry_equiv_pos_as_xyz
  1  'x, y, z'
loop_
 _atom_site_type_symbol
 _atom_site_label
 _atom_site_symmetry_multiplicity
 _atom_site_fract_x
 _atom_site_fract_y
 _atom_site_fract_z
 _atom_site_occupancy
  Ta  Ta0  1  0.822663  0.674395  0.000000  1
  Ta  Ta1  1  0.172326  0.322224  0.000000  1
  Ta  Ta2  1  0.322947  0.824877  0.000000  1
  Ta  Ta3  1  0.682198  0.176138  0.000000  1
  Al  Al4  1  0.500108  0.499430  0.000000  1
  Al  Al5  1  0.998896  0.004196  0.000000  1
  B  B6  1  0.627803  0.880380  0.000000  1
  B  B7  1  0.372417  0.119589  0.000000  1
  B  B8  1  0.126312  0.620075  0.000000  1
  B  B9  1  0.874167  0.375392  0.000000  1
  Ir  Ir10  1  0.568194  0.715217  0.500000  1
  Ir  Ir11  1  0.430042  0.284812  0.500000  1
  Ir  Ir12  1  0.069347  0.786231  0.500000  1
  Ru  Ru13  1  0.930475  0.216643  0.500000  1
  Ru  Ru14  1  0.285176  0.570018  0.500000  1
  Ru  Ru15  1  0.714468  0.431379  0.500000  1
  Ru  Ru16  1  0.215613  0.068777  0.500000  1
  Ru  Ru17  1  0.785774  0.927850  0.500000  1
  Ru  Ru18  1  0.501651  0.000991  0.500000  1
  Ru  Ru19  1  0.999421  0.501387  0.500000  1
