# generated using pymatgen
data_Cs7NbIn3AsP4
_symmetry_space_group_name_H-M   'P 1'
_cell_length_a   8.91231092
_cell_length_b   9.74149941
_cell_length_c   14.94698224
_cell_angle_alpha   85.37423449
_cell_angle_beta   84.64493962
_cell_angle_gamma   84.73075961
_symmetry_Int_Tables_number   1
_chemical_formula_structural   Cs7NbIn3AsP4
_chemical_formula_sum   'Cs14 Nb2 In6 As2 P8'
_cell_volume   1283.15803634
_cell_formula_units_Z   2
loop_
 _symmetry_equiv_pos_site_id
 _symmetry_equiv_pos_as_xyz
  1  'x, y, z'
loop_
 _atom_site_type_symbol
 _atom_site_label
 _atom_site_symmetry_multiplicity
 _atom_site_fract_x
 _atom_site_fract_y
 _atom_site_fract_z
 _atom_site_occupancy
  Cs  Cs0  1  0.841198  0.364683  0.649922  1
  Cs  Cs1  1  0.813422  0.807774  0.131592  1
  Cs  Cs2  1  0.240337  0.008785  0.470088  1
  Cs  Cs3  1  0.270486  0.257096  0.251272  1
  Cs  Cs4  1  0.736952  0.500955  0.974264  1
  Cs  Cs5  1  0.256944  0.498063  0.025797  1
  Cs  Cs6  1  0.681232  0.082097  0.889008  1
  Cs  Cs7  1  0.762877  0.993955  0.531318  1
  Cs  Cs8  1  0.730567  0.744557  0.745569  1
  Cs  Cs9  1  0.333504  0.346726  0.598529  1
  Cs  Cs10  1  0.160913  0.633571  0.351439  1
  Cs  Cs11  1  0.182151  0.191102  0.865054  1
  Cs  Cs12  1  0.317927  0.918598  0.115869  1
  Cs  Cs13  1  0.666622  0.657611  0.399282  1
  Nb  Nb14  1  0.355916  0.603880  0.773463  1
  Nb  Nb15  1  0.644873  0.394517  0.226789  1
  In  In16  1  0.059112  0.812011  0.864366  1
  In  In17  1  0.935347  0.191200  0.132377  1
  In  In18  1  0.358421  0.945424  0.703577  1
  In  In19  1  0.102075  0.721532  0.627593  1
  In  In20  1  0.898343  0.280821  0.372756  1
  In  In21  1  0.637448  0.056204  0.293951  1
  As  As22  1  0.377185  0.798041  0.877172  1
  As  As23  1  0.965793  0.005984  0.297557  1
  P  P24  1  0.908335  0.444584  0.212903  1
  P  P25  1  0.627468  0.206481  0.128990  1
  P  P26  1  0.092522  0.554898  0.787033  1
  P  P27  1  0.589355  0.297463  0.381821  1
  P  P28  1  0.411719  0.701363  0.618840  1
  P  P29  1  0.041522  0.982517  0.702842  1
  P  P30  1  0.513091  0.404003  0.807411  1
  P  P31  1  0.486342  0.593502  0.191550  1
