# generated using pymatgen
data_La3Mg3AlSn2
_symmetry_space_group_name_H-M   'P 1'
_cell_length_a   7.85579600
_cell_length_b   7.85579695
_cell_length_c   4.70098800
_cell_angle_alpha   90.00000000
_cell_angle_beta   90.00000000
_cell_angle_gamma   119.99999600
_symmetry_Int_Tables_number   1
_chemical_formula_structural   La3Mg3AlSn2
_chemical_formula_sum   'La3 Mg3 Al1 Sn2'
_cell_volume   251.24662615
_cell_formula_units_Z   1
loop_
 _symmetry_equiv_pos_site_id
 _symmetry_equiv_pos_as_xyz
  1  'x, y, z'
loop_
 _atom_site_type_symbol
 _atom_site_label
 _atom_site_symmetry_multiplicity
 _atom_site_fract_x
 _atom_site_fract_y
 _atom_site_fract_z
 _atom_site_occupancy
  La  La0  1  0.594066  0.000000  0.000000  1
  La  La1  1  0.000000  0.594066  0.000000  1
  La  La2  1  0.405934  0.405934  0.000000  1
  Mg  Mg3  1  0.234042  0.000000  0.500000  1
  Mg  Mg4  1  0.000000  0.234042  0.500000  1
  Mg  Mg5  1  0.765958  0.765958  0.500000  1
  Al  Al6  1  0.000000  0.000000  0.000000  1
  Sn  Sn7  1  0.333333  0.666667  0.500000  1
  Sn  Sn8  1  0.666667  0.333333  0.500000  1
