# generated using pymatgen
data_SrIr3PdPb3O14
_symmetry_space_group_name_H-M   'P 1'
_cell_length_a   7.35041343
_cell_length_b   7.35041319
_cell_length_c   7.35041362
_cell_angle_alpha   60.48227322
_cell_angle_beta   60.48228472
_cell_angle_gamma   60.48227081
_symmetry_Int_Tables_number   1
_chemical_formula_structural   SrIr3PdPb3O14
_chemical_formula_sum   'Sr1 Ir3 Pd1 Pb3 O14'
_cell_volume   283.87606487
_cell_formula_units_Z   1
loop_
 _symmetry_equiv_pos_site_id
 _symmetry_equiv_pos_as_xyz
  1  'x, y, z'
loop_
 _atom_site_type_symbol
 _atom_site_label
 _atom_site_symmetry_multiplicity
 _atom_site_fract_x
 _atom_site_fract_y
 _atom_site_fract_z
 _atom_site_occupancy
  Sr  Sr0  1  0.125000  0.125000  0.125000  1
  Ir  Ir1  1  0.125000  0.625000  0.625000  1
  Ir  Ir2  1  0.625000  0.125000  0.625000  1
  Ir  Ir3  1  0.625000  0.625000  0.125000  1
  Pd  Pd4  1  0.625000  0.625000  0.625000  1
  Pb  Pb5  1  0.625000  0.125000  0.125000  1
  Pb  Pb6  1  0.125000  0.625000  0.125000  1
  Pb  Pb7  1  0.125000  0.125000  0.625000  1
  O  O8  1  0.705621  0.705621  0.289760  1
  O  O9  1  0.298517  0.298517  0.696321  1
  O  O10  1  0.705621  0.289760  0.705621  1
  O  O11  1  0.298517  0.696321  0.298517  1
  O  O12  1  0.289760  0.705621  0.705621  1
  O  O13  1  0.696321  0.298517  0.298517  1
  O  O14  1  0.544379  0.544379  0.960240  1
  O  O15  1  0.951483  0.951483  0.553679  1
  O  O16  1  0.544379  0.960240  0.544379  1
  O  O17  1  0.951483  0.553679  0.951483  1
  O  O18  1  0.960240  0.544379  0.544379  1
  O  O19  1  0.553679  0.951483  0.951483  1
  O  O20  1  0.257121  0.257121  0.257121  1
  O  O21  1  0.992879  0.992879  0.992879  1
