# generated using pymatgen
data_Li2AcErSi2
_symmetry_space_group_name_H-M   'P 1'
_cell_length_a   4.47561200
_cell_length_b   4.47561177
_cell_length_c   7.62905000
_cell_angle_alpha   90.00000000
_cell_angle_beta   90.00000000
_cell_angle_gamma   119.99998693
_symmetry_Int_Tables_number   1
_chemical_formula_structural   Li2AcErSi2
_chemical_formula_sum   'Li2 Ac1 Er1 Si2'
_cell_volume   132.34452725
_cell_formula_units_Z   1
loop_
 _symmetry_equiv_pos_site_id
 _symmetry_equiv_pos_as_xyz
  1  'x, y, z'
loop_
 _atom_site_type_symbol
 _atom_site_label
 _atom_site_symmetry_multiplicity
 _atom_site_fract_x
 _atom_site_fract_y
 _atom_site_fract_z
 _atom_site_occupancy
  Li  Li0  1  0.666667  0.333333  0.451537  1
  Li  Li1  1  0.333333  0.666667  0.065277  1
  Ac  Ac2  1  0.000000  0.000000  0.755075  1
  Er  Er3  1  0.000000  0.000000  0.253940  1
  Si  Si4  1  0.333333  0.666667  0.465747  1
  Si  Si5  1  0.666667  0.333333  0.029420  1
