# generated using pymatgen
data_Rb4UMnBr12
_symmetry_space_group_name_H-M   'P 1'
_cell_length_a   7.45995500
_cell_length_b   7.45995500
_cell_length_c   11.84031200
_cell_angle_alpha   90.00000000
_cell_angle_beta   90.00000000
_cell_angle_gamma   90.00000000
_symmetry_Int_Tables_number   1
_chemical_formula_structural   Rb4UMnBr12
_chemical_formula_sum   'Rb4 U1 Mn1 Br12'
_cell_volume   658.92435797
_cell_formula_units_Z   1
loop_
 _symmetry_equiv_pos_site_id
 _symmetry_equiv_pos_as_xyz
  1  'x, y, z'
loop_
 _atom_site_type_symbol
 _atom_site_label
 _atom_site_symmetry_multiplicity
 _atom_site_fract_x
 _atom_site_fract_y
 _atom_site_fract_z
 _atom_site_occupancy
  Rb  Rb0  1  0.000000  0.500001  0.207700  1
  Rb  Rb1  1  0.500001  0.000000  0.207700  1
  Rb  Rb2  1  0.000000  0.500001  0.792299  1
  Rb  Rb3  1  0.500001  0.000000  0.792299  1
  U  U4  1  0.500001  0.500001  0.500000  1
  Mn  Mn5  1  0.000000  0.000000  0.000000  1
  Br  Br6  1  0.000000  0.000000  0.232175  1
  Br  Br7  1  0.500001  0.500001  0.267274  1
  Br  Br8  1  0.000000  0.000000  0.767825  1
  Br  Br9  1  0.500001  0.500001  0.732726  1
  Br  Br10  1  0.760904  0.233526  0.000000  1
  Br  Br11  1  0.239096  0.766474  0.000000  1
  Br  Br12  1  0.308758  0.195563  0.500000  1
  Br  Br13  1  0.691242  0.804437  0.500000  1
  Br  Br14  1  0.195563  0.691242  0.500000  1
  Br  Br15  1  0.804437  0.308758  0.500000  1
  Br  Br16  1  0.233526  0.239096  0.000000  1
  Br  Br17  1  0.766474  0.760904  0.000000  1
