# generated using pymatgen
data_Dy5Ti3Si5P7Ir16
_symmetry_space_group_name_H-M   'P 1'
_cell_length_a   12.84711731
_cell_length_b   12.86831305
_cell_length_c   3.94498800
_cell_angle_alpha   90.00000000
_cell_angle_beta   90.00000000
_cell_angle_gamma   120.03941857
_symmetry_Int_Tables_number   1
_chemical_formula_structural   Dy5Ti3Si5P7Ir16
_chemical_formula_sum   'Dy5 Ti3 Si5 P7 Ir16'
_cell_volume   564.58714238
_cell_formula_units_Z   1
loop_
 _symmetry_equiv_pos_site_id
 _symmetry_equiv_pos_as_xyz
  1  'x, y, z'
loop_
 _atom_site_type_symbol
 _atom_site_label
 _atom_site_symmetry_multiplicity
 _atom_site_fract_x
 _atom_site_fract_y
 _atom_site_fract_z
 _atom_site_occupancy
  Dy  Dy0  1  0.332412  0.665641  0.500000  1
  Dy  Dy1  1  0.666278  0.333413  0.500000  1
  Dy  Dy2  1  0.001173  0.811329  0.000000  1
  Dy  Dy3  1  0.187236  0.188193  0.000000  1
  Dy  Dy4  1  0.812565  0.000044  0.000000  1
  Ti  Ti5  1  0.998792  0.436574  0.500000  1
  Ti  Ti6  1  0.562091  0.560794  0.500000  1
  Ti  Ti7  1  0.439314  0.002546  0.500000  1
  Si  Si8  1  0.001069  0.635574  0.500000  1
  Si  Si9  1  0.361895  0.363108  0.500000  1
  Si  Si10  1  0.636004  0.998861  0.500000  1
  Si  Si11  1  0.518937  0.688655  0.000000  1
  Si  Si12  1  0.313047  0.831347  0.000000  1
  P  P13  1  0.168794  0.481520  0.000000  1
  P  P14  1  0.481498  0.169806  0.000000  1
  P  P15  1  0.687201  0.518306  0.000000  1
  P  P16  1  0.830924  0.313328  0.000000  1
  P  P17  1  0.999156  0.176691  0.500000  1
  P  P18  1  0.822358  0.821535  0.500000  1
  P  P19  1  0.177544  0.999442  0.500000  1
  Ir  Ir20  1  0.515874  0.877292  0.000000  1
  Ir  Ir21  1  0.126107  0.636970  0.000000  1
  Ir  Ir22  1  0.358442  0.486689  0.000000  1
  Ir  Ir23  1  0.490219  0.360282  0.000000  1
  Ir  Ir24  1  0.868734  0.509088  0.000000  1
  Ir  Ir25  1  0.641185  0.133761  0.000000  1
  Ir  Ir26  1  0.998963  0.279726  0.000000  1
  Ir  Ir27  1  0.723512  0.719720  0.000000  1
  Ir  Ir28  1  0.279522  0.002700  0.000000  1
  Ir  Ir29  1  0.628182  0.804809  0.500000  1
  Ir  Ir30  1  0.194891  0.821887  0.500000  1
  Ir  Ir31  1  0.176550  0.372458  0.500000  1
  Ir  Ir32  1  0.373387  0.179708  0.500000  1
  Ir  Ir33  1  0.805302  0.624788  0.500000  1
  Ir  Ir34  1  0.821148  0.193751  0.500000  1
  Ir  Ir35  1  0.999694  0.999659  0.500000  1
