# generated using pymatgen
data_Nb8Co8Si13P
_symmetry_space_group_name_H-M   'P 1'
_cell_length_a   9.19590758
_cell_length_b   9.19590736
_cell_length_c   9.21744116
_cell_angle_alpha   94.23536304
_cell_angle_beta   94.23536320
_cell_angle_gamma   148.42404191
_symmetry_Int_Tables_number   1
_chemical_formula_structural   Nb8Co8Si13P
_chemical_formula_sum   'Nb8 Co8 Si13 P1'
_cell_volume   392.82854715
_cell_formula_units_Z   1
loop_
 _symmetry_equiv_pos_site_id
 _symmetry_equiv_pos_as_xyz
  1  'x, y, z'
loop_
 _atom_site_type_symbol
 _atom_site_label
 _atom_site_symmetry_multiplicity
 _atom_site_fract_x
 _atom_site_fract_y
 _atom_site_fract_z
 _atom_site_occupancy
  Nb  Nb0  1  0.308171  0.497699  0.805870  1
  Nb  Nb1  1  0.691005  0.499083  0.190088  1
  Nb  Nb2  1  0.499083  0.691005  0.190088  1
  Nb  Nb3  1  0.497699  0.308171  0.805870  1
  Nb  Nb4  1  0.134406  0.134406  0.268812  1
  Nb  Nb5  1  0.866188  0.866188  0.732377  1
  Nb  Nb6  1  0.133962  0.866299  0.000261  1
  Nb  Nb7  1  0.866299  0.133962  0.000261  1
  Co  Co8  1  0.398770  0.898770  0.797539  1
  Co  Co9  1  0.101329  0.601329  0.202658  1
  Co  Co10  1  0.903803  0.101878  0.501844  1
  Co  Co11  1  0.598042  0.399966  0.501844  1
  Co  Co12  1  0.601329  0.101329  0.202658  1
  Co  Co13  1  0.898770  0.398770  0.797539  1
  Co  Co14  1  0.101878  0.903803  0.501844  1
  Co  Co15  1  0.399966  0.598042  0.501844  1
  Si  Si16  1  0.705472  0.705472  0.410944  1
  Si  Si17  1  0.291781  0.707827  0.999608  1
  Si  Si18  1  0.707827  0.291781  0.999608  1
  Si  Si19  1  0.093440  0.500275  0.593715  1
  Si  Si20  1  0.905393  0.500857  0.406250  1
  Si  Si21  1  0.500857  0.905393  0.406250  1
  Si  Si22  1  0.500275  0.093440  0.593715  1
  Si  Si23  1  0.248479  0.248479  0.000156  1
  Si  Si24  1  0.751677  0.751677  0.000156  1
  Si  Si25  1  0.297433  0.000106  0.297539  1
  Si  Si26  1  0.702901  0.000168  0.703069  1
  Si  Si27  1  0.000168  0.702901  0.703069  1
  Si  Si28  1  0.000106  0.297433  0.297539  1
  P  P29  1  0.293491  0.293491  0.586982  1
