# generated using pymatgen
data_Pr8Y12Si15As
_symmetry_space_group_name_H-M   'P 1'
_cell_length_a   7.56874070
_cell_length_b   7.83879603
_cell_length_c   14.87514600
_cell_angle_alpha   90.00000000
_cell_angle_beta   90.00000000
_cell_angle_gamma   90.35721488
_symmetry_Int_Tables_number   1
_chemical_formula_structural   Pr8Y12Si15As
_chemical_formula_sum   'Pr8 Y12 Si15 As1'
_cell_volume   882.52250068
_cell_formula_units_Z   1
loop_
 _symmetry_equiv_pos_site_id
 _symmetry_equiv_pos_as_xyz
  1  'x, y, z'
loop_
 _atom_site_type_symbol
 _atom_site_label
 _atom_site_symmetry_multiplicity
 _atom_site_fract_x
 _atom_site_fract_y
 _atom_site_fract_z
 _atom_site_occupancy
  Pr  Pr0  1  0.025305  0.179754  0.402484  1
  Pr  Pr1  1  0.524833  0.320958  0.402018  1
  Pr  Pr2  1  0.479119  0.674589  0.903693  1
  Pr  Pr3  1  0.479119  0.674589  0.596307  1
  Pr  Pr4  1  0.975641  0.821903  0.600425  1
  Pr  Pr5  1  0.975641  0.821903  0.899575  1
  Pr  Pr6  1  0.524833  0.320958  0.097982  1
  Pr  Pr7  1  0.025305  0.179754  0.097516  1
  Y  Y8  1  0.314860  0.175397  0.623852  1
  Y  Y9  1  0.682978  0.823123  0.377265  1
  Y  Y10  1  0.650717  0.990861  0.750000  1
  Y  Y11  1  0.181730  0.678970  0.377234  1
  Y  Y12  1  0.814192  0.324243  0.878038  1
  Y  Y13  1  0.814192  0.324243  0.621962  1
  Y  Y14  1  0.850813  0.489298  0.250000  1
  Y  Y15  1  0.352218  0.011830  0.250000  1
  Y  Y16  1  0.314860  0.175397  0.876148  1
  Y  Y17  1  0.181730  0.678970  0.122766  1
  Y  Y18  1  0.682978  0.823123  0.122735  1
  Y  Y19  1  0.146676  0.504116  0.750000  1
  Si  Si20  1  0.475853  0.613131  0.250000  1
  Si  Si21  1  0.011066  0.129071  0.750000  1
  Si  Si22  1  0.520111  0.383775  0.750000  1
  Si  Si23  1  0.142599  0.470399  0.540662  1
  Si  Si24  1  0.976819  0.889255  0.250000  1
  Si  Si25  1  0.734198  0.120850  0.250000  1
  Si  Si26  1  0.858118  0.532299  0.040179  1
  Si  Si27  1  0.358126  0.969498  0.039604  1
  Si  Si28  1  0.142599  0.470399  0.959338  1
  Si  Si29  1  0.640981  0.028890  0.540986  1
  Si  Si30  1  0.358126  0.969498  0.460396  1
  Si  Si31  1  0.858118  0.532299  0.459821  1
  Si  Si32  1  0.769234  0.623954  0.750000  1
  Si  Si33  1  0.233710  0.380676  0.250000  1
  Si  Si34  1  0.640981  0.028890  0.959014  1
  As  As35  1  0.281619  0.863134  0.750000  1
