# generated using pymatgen
data_Ac2LaOsI3
_symmetry_space_group_name_H-M   'P 1'
_cell_length_a   4.52681600
_cell_length_b   9.89353297
_cell_length_c   12.80238325
_cell_angle_alpha   87.48200767
_cell_angle_beta   90.00000000
_cell_angle_gamma   90.00000000
_symmetry_Int_Tables_number   1
_chemical_formula_structural   Ac2LaOsI3
_chemical_formula_sum   'Ac4 La2 Os2 I6'
_cell_volume   572.81653621
_cell_formula_units_Z   2
loop_
 _symmetry_equiv_pos_site_id
 _symmetry_equiv_pos_as_xyz
  1  'x, y, z'
loop_
 _atom_site_type_symbol
 _atom_site_label
 _atom_site_symmetry_multiplicity
 _atom_site_fract_x
 _atom_site_fract_y
 _atom_site_fract_z
 _atom_site_occupancy
  Ac  Ac0  1  0.250000  0.315313  0.882563  1
  Ac  Ac1  1  0.250000  0.900172  0.894065  1
  Ac  Ac2  1  0.750000  0.115688  0.663005  1
  Ac  Ac3  1  0.750000  0.098144  0.106462  1
  La  La4  1  0.750000  0.688668  0.121665  1
  La  La5  1  0.250000  0.880759  0.327819  1
  Os  Os6  1  0.250000  0.881429  0.129876  1
  Os  Os7  1  0.750000  0.110518  0.877452  1
  I  I8  1  0.250000  0.405642  0.139051  1
  I  I9  1  0.750000  0.123397  0.380870  1
  I  I10  1  0.750000  0.605242  0.867740  1
  I  I11  1  0.250000  0.364719  0.617787  1
  I  I12  1  0.750000  0.643829  0.375828  1
  I  I13  1  0.250000  0.866481  0.615818  1
