# generated using pymatgen
data_Sb5TeOsRh
_symmetry_space_group_name_H-M   'P 1'
_cell_length_a   8.12962109
_cell_length_b   8.12512718
_cell_length_c   8.13926836
_cell_angle_alpha   109.34261731
_cell_angle_beta   109.80214347
_cell_angle_gamma   109.21262736
_symmetry_Int_Tables_number   1
_chemical_formula_structural   Sb5TeOsRh
_chemical_formula_sum   'Sb10 Te2 Os2 Rh2'
_cell_volume   414.14809270
_cell_formula_units_Z   2
loop_
 _symmetry_equiv_pos_site_id
 _symmetry_equiv_pos_as_xyz
  1  'x, y, z'
loop_
 _atom_site_type_symbol
 _atom_site_label
 _atom_site_symmetry_multiplicity
 _atom_site_fract_x
 _atom_site_fract_y
 _atom_site_fract_z
 _atom_site_occupancy
  Sb  Sb0  1  0.840385  0.510856  0.672200  1
  Sb  Sb1  1  0.159615  0.489144  0.327800  1
  Sb  Sb2  1  0.813267  0.658139  0.153378  1
  Sb  Sb3  1  0.186733  0.341861  0.846622  1
  Sb  Sb4  1  0.505275  0.660059  0.846755  1
  Sb  Sb5  1  0.494725  0.339941  0.153245  1
  Sb  Sb6  1  0.663947  0.154018  0.817630  1
  Sb  Sb7  1  0.336053  0.845982  0.182370  1
  Sb  Sb8  1  0.656771  0.845783  0.503214  1
  Sb  Sb9  1  0.343229  0.154217  0.496786  1
  Te  Te10  1  0.155587  0.815770  0.663224  1
  Te  Te11  1  0.844413  0.184230  0.336776  1
  Os  Os12  1  0.500000  0.000000  0.000000  1
  Os  Os13  1  0.000000  0.500000  0.000000  1
  Rh  Rh14  1  0.000000  0.000000  0.500000  1
  Rh  Rh15  1  0.500000  0.500000  0.500000  1
