# generated using pymatgen
data_V3(As2W)2
_symmetry_space_group_name_H-M   'P 1'
_cell_length_a   6.93265067
_cell_length_b   6.93239284
_cell_length_c   6.90918636
_cell_angle_alpha   92.84753910
_cell_angle_beta   93.47134741
_cell_angle_gamma   152.89613068
_symmetry_Int_Tables_number   1
_chemical_formula_structural   V3(As2W)2
_chemical_formula_sum   'V3 As4 W2'
_cell_volume   147.03920638
_cell_formula_units_Z   1
loop_
 _symmetry_equiv_pos_site_id
 _symmetry_equiv_pos_as_xyz
  1  'x, y, z'
loop_
 _atom_site_type_symbol
 _atom_site_label
 _atom_site_symmetry_multiplicity
 _atom_site_fract_x
 _atom_site_fract_y
 _atom_site_fract_z
 _atom_site_occupancy
  V  V0  1  0.695182  0.625102  0.320278  1
  V  V1  1  0.306404  0.375843  0.682267  1
  V  V2  1  0.627961  0.300848  0.928818  1
  As  As3  1  0.281734  0.946448  0.228130  1
  As  As4  1  0.063386  0.285832  0.349209  1
  As  As5  1  0.941529  0.718179  0.659720  1
  As  As6  1  0.709095  0.054073  0.763201  1
  W  W7  1  0.000195  0.997650  0.997869  1
  W  W8  1  0.374511  0.696021  0.070511  1
