# generated using pymatgen
data_TaNb12Ni8W3C4
_symmetry_space_group_name_H-M   'P 1'
_cell_length_a   8.27189318
_cell_length_b   8.27189272
_cell_length_c   8.23793187
_cell_angle_alpha   59.86352189
_cell_angle_beta   59.86352900
_cell_angle_gamma   59.99999735
_symmetry_Int_Tables_number   1
_chemical_formula_structural   TaNb12Ni8W3C4
_chemical_formula_sum   'Ta1 Nb12 Ni8 W3 C4'
_cell_volume   397.75353274
_cell_formula_units_Z   1
loop_
 _symmetry_equiv_pos_site_id
 _symmetry_equiv_pos_as_xyz
  1  'x, y, z'
loop_
 _atom_site_type_symbol
 _atom_site_label
 _atom_site_symmetry_multiplicity
 _atom_site_fract_x
 _atom_site_fract_y
 _atom_site_fract_z
 _atom_site_occupancy
  Ta  Ta0  1  0.625000  0.625000  0.125000  1
  Nb  Nb1  1  0.435411  0.066108  0.063068  1
  Nb  Nb2  1  0.062539  0.437436  0.437486  1
  Nb  Nb3  1  0.066108  0.435411  0.063068  1
  Nb  Nb4  1  0.062539  0.062539  0.437486  1
  Nb  Nb5  1  0.437436  0.062539  0.437486  1
  Nb  Nb6  1  0.435411  0.435411  0.063068  1
  Nb  Nb7  1  0.183892  0.814589  0.186932  1
  Nb  Nb8  1  0.812564  0.187461  0.812514  1
  Nb  Nb9  1  0.814589  0.183892  0.186932  1
  Nb  Nb10  1  0.187461  0.187461  0.812514  1
  Nb  Nb11  1  0.187461  0.812564  0.812514  1
  Nb  Nb12  1  0.814589  0.814589  0.186932  1
  Ni  Ni13  1  0.830520  0.830520  0.826038  1
  Ni  Ni14  1  0.828045  0.828045  0.515863  1
  Ni  Ni15  1  0.512919  0.830520  0.826038  1
  Ni  Ni16  1  0.830520  0.512919  0.826038  1
  Ni  Ni17  1  0.419480  0.419480  0.423962  1
  Ni  Ni18  1  0.421955  0.421955  0.734137  1
  Ni  Ni19  1  0.419480  0.737081  0.423962  1
  Ni  Ni20  1  0.737081  0.419480  0.423962  1
  W  W21  1  0.625000  0.625000  0.625000  1
  W  W22  1  0.125000  0.625000  0.625000  1
  W  W23  1  0.625000  0.125000  0.625000  1
  C  C24  1  0.125000  0.125000  0.125000  1
  C  C25  1  0.125000  0.125000  0.625000  1
  C  C26  1  0.625000  0.125000  0.125000  1
  C  C27  1  0.125000  0.625000  0.125000  1
