# generated using pymatgen
data_LiTbMnWO6
_symmetry_space_group_name_H-M   'P 1'
_cell_length_a   5.39986822
_cell_length_b   5.68905700
_cell_length_c   7.89358781
_cell_angle_alpha   90.00000000
_cell_angle_beta   89.73935667
_cell_angle_gamma   90.00000000
_symmetry_Int_Tables_number   1
_chemical_formula_structural   LiTbMnWO6
_chemical_formula_sum   'Li2 Tb2 Mn2 W2 O12'
_cell_volume   242.48975613
_cell_formula_units_Z   2
loop_
 _symmetry_equiv_pos_site_id
 _symmetry_equiv_pos_as_xyz
  1  'x, y, z'
loop_
 _atom_site_type_symbol
 _atom_site_label
 _atom_site_symmetry_multiplicity
 _atom_site_fract_x
 _atom_site_fract_y
 _atom_site_fract_z
 _atom_site_occupancy
  Li  Li0  1  0.284088  0.333086  0.995382  1
  Li  Li1  1  0.715912  0.833086  0.004617  1
  Tb  Tb2  1  0.728181  0.780846  0.500961  1
  Tb  Tb3  1  0.271819  0.280846  0.499039  1
  Mn  Mn4  1  0.759734  0.235789  0.236872  1
  Mn  Mn5  1  0.240266  0.735789  0.763129  1
  W  W6  1  0.240147  0.715018  0.239500  1
  W  W7  1  0.759853  0.215018  0.760501  1
  O  O8  1  0.367101  0.719979  0.017593  1
  O  O9  1  0.103695  0.402015  0.208130  1
  O  O10  1  0.936161  0.873176  0.208263  1
  O  O11  1  0.534260  0.519776  0.326032  1
  O  O12  1  0.434334  0.984932  0.318098  1
  O  O13  1  0.131911  0.670982  0.490686  1
  O  O14  1  0.868089  0.170982  0.509314  1
  O  O15  1  0.565667  0.484932  0.681903  1
  O  O16  1  0.465741  0.019776  0.673969  1
  O  O17  1  0.063839  0.373176  0.791736  1
  O  O18  1  0.896305  0.902015  0.791870  1
  O  O19  1  0.632899  0.219979  0.982407  1
