# generated using pymatgen
data_Tm3In3HgPtRh
_symmetry_space_group_name_H-M   'P 1'
_cell_length_a   7.87745800
_cell_length_b   7.87745822
_cell_length_c   3.70775600
_cell_angle_alpha   90.00000000
_cell_angle_beta   90.00000000
_cell_angle_gamma   119.99999907
_symmetry_Int_Tables_number   1
_chemical_formula_structural   Tm3In3HgPtRh
_chemical_formula_sum   'Tm3 In3 Hg1 Pt1 Rh1'
_cell_volume   199.25718335
_cell_formula_units_Z   1
loop_
 _symmetry_equiv_pos_site_id
 _symmetry_equiv_pos_as_xyz
  1  'x, y, z'
loop_
 _atom_site_type_symbol
 _atom_site_label
 _atom_site_symmetry_multiplicity
 _atom_site_fract_x
 _atom_site_fract_y
 _atom_site_fract_z
 _atom_site_occupancy
  Tm  Tm0  1  0.973904  0.384201  0.500000  1
  Tm  Tm1  1  0.615799  0.589704  0.500000  1
  Tm  Tm2  1  0.410296  0.026096  0.500000  1
  In  In3  1  0.256857  0.260164  0.000000  1
  In  In4  1  0.003307  0.743143  0.000000  1
  In  In5  1  0.739836  0.996693  0.000000  1
  Hg  Hg6  1  0.333333  0.666667  0.000000  1
  Pt  Pt7  1  0.666667  0.333333  0.000000  1
  Rh  Rh8  1  0.000000  0.000000  0.500000  1
