# generated using pymatgen
data_Mg3U(MnRh2)4
_symmetry_space_group_name_H-M   'P 1'
_cell_length_a   6.24940400
_cell_length_b   6.24908700
_cell_length_c   6.27350100
_cell_angle_alpha   90.00000000
_cell_angle_beta   90.00000000
_cell_angle_gamma   90.00000000
_symmetry_Int_Tables_number   1
_chemical_formula_structural   Mg3U(MnRh2)4
_chemical_formula_sum   'Mg3 U1 Mn4 Rh8'
_cell_volume   244.99946927
_cell_formula_units_Z   1
loop_
 _symmetry_equiv_pos_site_id
 _symmetry_equiv_pos_as_xyz
  1  'x, y, z'
loop_
 _atom_site_type_symbol
 _atom_site_label
 _atom_site_symmetry_multiplicity
 _atom_site_fract_x
 _atom_site_fract_y
 _atom_site_fract_z
 _atom_site_occupancy
  Mg  Mg0  1  0.250017  0.750000  0.000000  1
  Mg  Mg1  1  0.750035  0.250000  0.499999  1
  Mg  Mg2  1  0.249963  0.750000  0.500001  1
  U  U3  1  0.749973  0.250000  0.000000  1
  Mn  Mn4  1  0.250009  0.250000  0.000000  1
  Mn  Mn5  1  0.749987  0.750000  0.000000  1
  Mn  Mn6  1  0.750027  0.750000  0.499999  1
  Mn  Mn7  1  0.249980  0.250000  0.500001  1
  Rh  Rh8  1  0.998607  0.001388  0.247614  1
  Rh  Rh9  1  0.998607  0.498612  0.247614  1
  Rh  Rh10  1  0.501396  0.001395  0.247657  1
  Rh  Rh11  1  0.501396  0.498605  0.247657  1
  Rh  Rh12  1  0.501394  0.001395  0.752344  1
  Rh  Rh13  1  0.501394  0.498605  0.752344  1
  Rh  Rh14  1  0.998607  0.001388  0.752386  1
  Rh  Rh15  1  0.998607  0.498612  0.752386  1
