# generated using pymatgen
data_Sc(GaCu)6
_symmetry_space_group_name_H-M   'P 1'
_cell_length_a   5.15643336
_cell_length_b   6.55289896
_cell_length_c   6.55289844
_cell_angle_alpha   100.05309680
_cell_angle_beta   66.83086613
_cell_angle_gamma   113.16912566
_symmetry_Int_Tables_number   1
_chemical_formula_structural   Sc(GaCu)6
_chemical_formula_sum   'Sc1 Ga6 Cu6'
_cell_volume   187.09274575
_cell_formula_units_Z   1
loop_
 _symmetry_equiv_pos_site_id
 _symmetry_equiv_pos_as_xyz
  1  'x, y, z'
loop_
 _atom_site_type_symbol
 _atom_site_label
 _atom_site_symmetry_multiplicity
 _atom_site_fract_x
 _atom_site_fract_y
 _atom_site_fract_z
 _atom_site_occupancy
  Sc  Sc0  1  0.000000  0.000000  0.000000  1
  Ga  Ga1  1  0.321207  0.821206  0.178793  1
  Ga  Ga2  1  0.000000  0.344829  0.344829  1
  Ga  Ga3  1  0.657910  0.657911  0.342088  1
  Ga  Ga4  1  0.342088  0.342088  0.657911  1
  Ga  Ga5  1  0.000000  0.655171  0.655171  1
  Ga  Ga6  1  0.678793  0.178793  0.821206  1
  Cu  Cu7  1  0.000000  0.500000  0.000001  1
  Cu  Cu8  1  0.499999  0.500000  0.000001  1
  Cu  Cu9  1  0.499999  0.240357  0.240357  1
  Cu  Cu10  1  0.000000  0.000001  0.500000  1
  Cu  Cu11  1  0.500001  0.000001  0.500000  1
  Cu  Cu12  1  0.499999  0.759643  0.759643  1
