# generated using pymatgen
data_RuRhI18
_symmetry_space_group_name_H-M   'P 1'
_cell_length_a   9.94068193
_cell_length_b   9.94068017
_cell_length_c   9.94068045
_cell_angle_alpha   93.85665552
_cell_angle_beta   93.85663069
_cell_angle_gamma   93.85664744
_symmetry_Int_Tables_number   1
_chemical_formula_structural   RuRhI18
_chemical_formula_sum   'Ru1 Rh1 I18'
_cell_volume   975.31996030
_cell_formula_units_Z   1
loop_
 _symmetry_equiv_pos_site_id
 _symmetry_equiv_pos_as_xyz
  1  'x, y, z'
loop_
 _atom_site_type_symbol
 _atom_site_label
 _atom_site_symmetry_multiplicity
 _atom_site_fract_x
 _atom_site_fract_y
 _atom_site_fract_z
 _atom_site_occupancy
  Ru  Ru0  1  0.500000  0.500000  0.500000  1
  Rh  Rh1  1  0.000000  0.000000  0.000000  1
  I  I2  1  0.998146  0.969417  0.728906  1
  I  I3  1  0.969417  0.728906  0.998146  1
  I  I4  1  0.728906  0.998146  0.969417  1
  I  I5  1  0.001854  0.030583  0.271094  1
  I  I6  1  0.030583  0.271094  0.001854  1
  I  I7  1  0.271094  0.001854  0.030583  1
  I  I8  1  0.521030  0.771993  0.492751  1
  I  I9  1  0.771993  0.492751  0.521030  1
  I  I10  1  0.492751  0.521030  0.771993  1
  I  I11  1  0.478970  0.228007  0.507249  1
  I  I12  1  0.228007  0.507249  0.478970  1
  I  I13  1  0.507249  0.478970  0.228007  1
  I  I14  1  0.630676  0.238172  0.115016  1
  I  I15  1  0.238172  0.115016  0.630676  1
  I  I16  1  0.115016  0.630676  0.238172  1
  I  I17  1  0.369324  0.761828  0.884984  1
  I  I18  1  0.761828  0.884984  0.369324  1
  I  I19  1  0.884984  0.369324  0.761828  1
