# generated using pymatgen
data_NaNb2MoSe6
_symmetry_space_group_name_H-M   'P 1'
_cell_length_a   5.98349900
_cell_length_b   5.98349776
_cell_length_c   15.71522400
_cell_angle_alpha   90.00000000
_cell_angle_beta   90.00000000
_cell_angle_gamma   120.00000130
_symmetry_Int_Tables_number   1
_chemical_formula_structural   NaNb2MoSe6
_chemical_formula_sum   'Na2 Nb4 Mo2 Se12'
_cell_volume   487.26089392
_cell_formula_units_Z   2
loop_
 _symmetry_equiv_pos_site_id
 _symmetry_equiv_pos_as_xyz
  1  'x, y, z'
loop_
 _atom_site_type_symbol
 _atom_site_label
 _atom_site_symmetry_multiplicity
 _atom_site_fract_x
 _atom_site_fract_y
 _atom_site_fract_z
 _atom_site_occupancy
  Na  Na0  1  0.333333  0.666667  0.251310  1
  Na  Na1  1  0.666667  0.333333  0.750251  1
  Nb  Nb2  1  0.666667  0.333333  0.999554  1
  Nb  Nb3  1  0.333333  0.666667  0.499890  1
  Nb  Nb4  1  0.000000  0.000000  0.500030  1
  Nb  Nb5  1  0.666667  0.333333  0.500134  1
  Mo  Mo6  1  0.333333  0.666667  0.999783  1
  Mo  Mo7  1  0.000000  0.000000  0.999969  1
  Se  Se8  1  0.669083  0.666412  0.392493  1
  Se  Se9  1  0.666401  0.668892  0.607556  1
  Se  Se10  1  0.008521  0.675240  0.895106  1
  Se  Se11  1  0.666720  0.991479  0.895106  1
  Se  Se12  1  0.668086  0.996112  0.104538  1
  Se  Se13  1  0.333588  0.002672  0.392493  1
  Se  Se14  1  0.002492  0.333599  0.607556  1
  Se  Se15  1  0.331108  0.997508  0.607556  1
  Se  Se16  1  0.003888  0.671975  0.104538  1
  Se  Se17  1  0.324760  0.333280  0.895106  1
  Se  Se18  1  0.997328  0.330917  0.392493  1
  Se  Se19  1  0.328025  0.331914  0.104538  1
