# generated using pymatgen
data_Nb3ReSi3Ru2
_symmetry_space_group_name_H-M   'P 1'
_cell_length_a   7.50343159
_cell_length_b   7.50343111
_cell_length_c   7.50343140
_cell_angle_alpha   127.00865133
_cell_angle_beta   123.51704620
_cell_angle_gamma   81.13420303
_symmetry_Int_Tables_number   1
_chemical_formula_structural   Nb3ReSi3Ru2
_chemical_formula_sum   'Nb6 Re2 Si6 Ru4'
_cell_volume   270.98565100
_cell_formula_units_Z   2
loop_
 _symmetry_equiv_pos_site_id
 _symmetry_equiv_pos_as_xyz
  1  'x, y, z'
loop_
 _atom_site_type_symbol
 _atom_site_label
 _atom_site_symmetry_multiplicity
 _atom_site_fract_x
 _atom_site_fract_y
 _atom_site_fract_z
 _atom_site_occupancy
  Nb  Nb0  1  0.557903  0.093559  0.035657  1
  Nb  Nb1  1  0.442097  0.477754  0.535657  1
  Nb  Nb2  1  0.961993  0.492832  0.030839  1
  Nb  Nb3  1  0.038007  0.068846  0.530839  1
  Nb  Nb4  1  0.752287  0.919757  0.667470  1
  Nb  Nb5  1  0.247713  0.915183  0.167470  1
  Re  Re6  1  0.500000  0.250653  0.750653  1
  Re  Re7  1  0.000000  0.250653  0.250653  1
  Si  Si8  1  0.779763  0.549026  0.269263  1
  Si  Si9  1  0.220237  0.489499  0.769263  1
  Si  Si10  1  0.334555  0.820152  0.493011  1
  Si  Si11  1  0.665445  0.158455  0.485597  1
  Si  Si12  1  0.827141  0.820152  0.985597  1
  Si  Si13  1  0.172859  0.158455  0.993011  1
  Ru  Ru14  1  0.159905  0.745043  0.653473  1
  Ru  Ru15  1  0.840095  0.493567  0.585138  1
  Ru  Ru16  1  0.591570  0.745043  0.085138  1
  Ru  Ru17  1  0.408430  0.493567  0.153473  1
