# generated using pymatgen
data_Ce5(RhPb2)2
_symmetry_space_group_name_H-M   'P 1'
_cell_length_a   3.77035300
_cell_length_b   8.24174200
_cell_length_c   18.55637100
_cell_angle_alpha   90.00000000
_cell_angle_beta   90.00000000
_cell_angle_gamma   90.00000000
_symmetry_Int_Tables_number   1
_chemical_formula_structural   Ce5(RhPb2)2
_chemical_formula_sum   'Ce10 Rh4 Pb8'
_cell_volume   576.62580654
_cell_formula_units_Z   2
loop_
 _symmetry_equiv_pos_site_id
 _symmetry_equiv_pos_as_xyz
  1  'x, y, z'
loop_
 _atom_site_type_symbol
 _atom_site_label
 _atom_site_symmetry_multiplicity
 _atom_site_fract_x
 _atom_site_fract_y
 _atom_site_fract_z
 _atom_site_occupancy
  Ce  Ce0  1  0.000000  0.125506  0.414530  1
  Ce  Ce1  1  0.000000  0.874494  0.585470  1
  Ce  Ce2  1  0.000000  0.374494  0.914530  1
  Ce  Ce3  1  0.000000  0.625506  0.085470  1
  Ce  Ce4  1  0.000000  0.241042  0.218859  1
  Ce  Ce5  1  0.000000  0.758958  0.781141  1
  Ce  Ce6  1  0.000000  0.258958  0.718859  1
  Ce  Ce7  1  0.000000  0.741042  0.281141  1
  Ce  Ce8  1  0.000000  0.000000  0.000000  1
  Ce  Ce9  1  0.000000  0.500000  0.500000  1
  Rh  Rh10  1  0.500000  0.029022  0.307221  1
  Rh  Rh11  1  0.500000  0.970978  0.692779  1
  Rh  Rh12  1  0.500000  0.470978  0.807221  1
  Rh  Rh13  1  0.500000  0.529022  0.192779  1
  Pb  Pb14  1  0.500000  0.420137  0.346911  1
  Pb  Pb15  1  0.500000  0.579863  0.653089  1
  Pb  Pb16  1  0.500000  0.079863  0.846911  1
  Pb  Pb17  1  0.500000  0.920137  0.153089  1
  Pb  Pb18  1  0.500000  0.296396  0.067324  1
  Pb  Pb19  1  0.500000  0.703604  0.932676  1
  Pb  Pb20  1  0.500000  0.203604  0.567324  1
  Pb  Pb21  1  0.500000  0.796396  0.432676  1
