# generated using pymatgen
data_HoPa(GeRu)2
_symmetry_space_group_name_H-M   'P 1'
_cell_length_a   4.54758800
_cell_length_b   6.97472770
_cell_length_c   7.28912072
_cell_angle_alpha   94.85234439
_cell_angle_beta   90.00000000
_cell_angle_gamma   90.00000000
_symmetry_Int_Tables_number   1
_chemical_formula_structural   HoPa(GeRu)2
_chemical_formula_sum   'Ho2 Pa2 Ge4 Ru4'
_cell_volume   230.36908792
_cell_formula_units_Z   2
loop_
 _symmetry_equiv_pos_site_id
 _symmetry_equiv_pos_as_xyz
  1  'x, y, z'
loop_
 _atom_site_type_symbol
 _atom_site_label
 _atom_site_symmetry_multiplicity
 _atom_site_fract_x
 _atom_site_fract_y
 _atom_site_fract_z
 _atom_site_occupancy
  Ho  Ho0  1  0.250000  0.981392  0.288497  1
  Ho  Ho1  1  0.750000  0.018608  0.711503  1
  Pa  Pa2  1  0.250000  0.485190  0.197403  1
  Pa  Pa3  1  0.750000  0.514810  0.802597  1
  Ge  Ge4  1  0.250000  0.822899  0.895577  1
  Ge  Ge5  1  0.750000  0.177101  0.104423  1
  Ge  Ge6  1  0.250000  0.286950  0.594335  1
  Ge  Ge7  1  0.750000  0.713050  0.405665  1
  Ru  Ru8  1  0.750000  0.762210  0.054710  1
  Ru  Ru9  1  0.250000  0.237790  0.945290  1
  Ru  Ru10  1  0.750000  0.347522  0.454167  1
  Ru  Ru11  1  0.250000  0.652478  0.545833  1
