# generated using pymatgen
data_PrBi7O16
_symmetry_space_group_name_H-M   'P 1'
_cell_length_a   5.73370963
_cell_length_b   8.05860497
_cell_length_c   8.04915310
_cell_angle_alpha   82.24309471
_cell_angle_beta   90.41720634
_cell_angle_gamma   88.39620335
_symmetry_Int_Tables_number   1
_chemical_formula_structural   PrBi7O16
_chemical_formula_sum   'Pr1 Bi7 O16'
_cell_volume   368.34626366
_cell_formula_units_Z   1
loop_
 _symmetry_equiv_pos_site_id
 _symmetry_equiv_pos_as_xyz
  1  'x, y, z'
loop_
 _atom_site_type_symbol
 _atom_site_label
 _atom_site_symmetry_multiplicity
 _atom_site_fract_x
 _atom_site_fract_y
 _atom_site_fract_z
 _atom_site_occupancy
  Pr  Pr0  1  0.739607  0.132093  0.117581  1
  Bi  Bi1  1  0.270462  0.851980  0.865752  1
  Bi  Bi2  1  0.219940  0.843088  0.365808  1
  Bi  Bi3  1  0.777891  0.161746  0.626602  1
  Bi  Bi4  1  0.763923  0.663899  0.689633  1
  Bi  Bi5  1  0.725941  0.657436  0.189284  1
  Bi  Bi6  1  0.272746  0.339630  0.814372  1
  Bi  Bi7  1  0.241684  0.334302  0.312825  1
  O  O8  1  0.097261  0.580953  0.813789  1
  O  O9  1  0.604215  0.670360  0.934455  1
  O  O10  1  0.395420  0.576389  0.306147  1
  O  O11  1  0.458594  0.812843  0.625054  1
  O  O12  1  0.877455  0.674961  0.435710  1
  O  O13  1  0.992490  0.833513  0.125093  1
  O  O14  1  0.950726  0.893856  0.687112  1
  O  O15  1  0.487094  0.107636  0.822520  1
  O  O16  1  0.513044  0.887102  0.181854  1
  O  O17  1  0.053647  0.107601  0.315203  1
  O  O18  1  0.985311  0.185377  0.876020  1
  O  O19  1  0.118764  0.329146  0.566976  1
  O  O20  1  0.544575  0.189828  0.380733  1
  O  O21  1  0.602301  0.422950  0.691680  1
  O  O22  1  0.397262  0.321099  0.066535  1
  O  O23  1  0.909646  0.422212  0.189260  1
