# generated using pymatgen
data_Ti6Tc2MoRh3
_symmetry_space_group_name_H-M   'P 1'
_cell_length_a   4.39726500
_cell_length_b   6.21533600
_cell_length_c   13.21881600
_cell_angle_alpha   90.00000000
_cell_angle_beta   90.00008243
_cell_angle_gamma   90.00000000
_symmetry_Int_Tables_number   1
_chemical_formula_structural   Ti6Tc2MoRh3
_chemical_formula_sum   'Ti12 Tc4 Mo2 Rh6'
_cell_volume   361.27657912
_cell_formula_units_Z   2
loop_
 _symmetry_equiv_pos_site_id
 _symmetry_equiv_pos_as_xyz
  1  'x, y, z'
loop_
 _atom_site_type_symbol
 _atom_site_label
 _atom_site_symmetry_multiplicity
 _atom_site_fract_x
 _atom_site_fract_y
 _atom_site_fract_z
 _atom_site_occupancy
  Ti  Ti0  1  0.499999  0.250654  0.000037  1
  Ti  Ti1  1  0.499999  0.749345  0.000037  1
  Ti  Ti2  1  0.000101  0.249343  0.166626  1
  Ti  Ti3  1  0.000101  0.750658  0.166626  1
  Ti  Ti4  1  0.500104  0.250195  0.332857  1
  Ti  Ti5  1  0.500104  0.749804  0.332857  1
  Ti  Ti6  1  0.000000  0.249716  0.499702  1
  Ti  Ti7  1  0.000000  0.750285  0.499702  1
  Ti  Ti8  1  0.499896  0.250287  0.666969  1
  Ti  Ti9  1  0.499896  0.749712  0.666969  1
  Ti  Ti10  1  0.999896  0.249803  0.833804  1
  Ti  Ti11  1  0.999896  0.750198  0.833804  1
  Tc  Tc12  1  0.000095  0.000000  0.335025  1
  Tc  Tc13  1  0.500000  0.500000  0.500855  1
  Tc  Tc14  1  0.999912  0.000000  0.665826  1
  Tc  Tc15  1  0.499912  0.500000  0.831638  1
  Mo  Mo16  1  0.999998  0.000000  0.998988  1
  Mo  Mo17  1  0.500094  0.500000  0.167667  1
  Rh  Rh18  1  0.000002  0.500000  0.998607  1
  Rh  Rh19  1  0.500094  0.000000  0.168051  1
  Rh  Rh20  1  0.000100  0.500000  0.335253  1
  Rh  Rh21  1  0.500001  0.000000  0.500512  1
  Rh  Rh22  1  0.999904  0.500000  0.666174  1
  Rh  Rh23  1  0.499901  0.000000  0.831411  1
