# generated using pymatgen
data_Tb4MnSiRu6
_symmetry_space_group_name_H-M   'P 1'
_cell_length_a   5.13865896
_cell_length_b   5.13865825
_cell_length_c   8.92159800
_cell_angle_alpha   90.00000000
_cell_angle_beta   90.00000000
_cell_angle_gamma   115.59766011
_symmetry_Int_Tables_number   1
_chemical_formula_structural   Tb4MnSiRu6
_chemical_formula_sum   'Tb4 Mn1 Si1 Ru6'
_cell_volume   212.45970472
_cell_formula_units_Z   1
loop_
 _symmetry_equiv_pos_site_id
 _symmetry_equiv_pos_as_xyz
  1  'x, y, z'
loop_
 _atom_site_type_symbol
 _atom_site_label
 _atom_site_symmetry_multiplicity
 _atom_site_fract_x
 _atom_site_fract_y
 _atom_site_fract_z
 _atom_site_occupancy
  Tb  Tb0  1  0.328495  0.671505  0.434256  1
  Tb  Tb1  1  0.670459  0.329541  0.567160  1
  Tb  Tb2  1  0.670459  0.329541  0.932840  1
  Tb  Tb3  1  0.328495  0.671505  0.065744  1
  Mn  Mn4  1  0.843454  0.156546  0.250000  1
  Si  Si5  1  0.160718  0.839282  0.750000  1
  Ru  Ru6  1  0.997717  0.002283  0.498842  1
  Ru  Ru7  1  0.997717  0.002283  0.001158  1
  Ru  Ru8  1  0.820548  0.645614  0.250000  1
  Ru  Ru9  1  0.354386  0.179452  0.250000  1
  Ru  Ru10  1  0.176908  0.349359  0.750000  1
  Ru  Ru11  1  0.650641  0.823092  0.750000  1
