# generated using pymatgen
data_Ba9Pr(PN5)2
_symmetry_space_group_name_H-M   'P 1'
_cell_length_a   7.89613224
_cell_length_b   7.89613114
_cell_length_c   9.03966329
_cell_angle_alpha   75.97691748
_cell_angle_beta   75.97691872
_cell_angle_gamma   94.25237074
_symmetry_Int_Tables_number   1
_chemical_formula_structural   Ba9Pr(PN5)2
_chemical_formula_sum   'Ba9 Pr1 P2 N10'
_cell_volume   525.20853081
_cell_formula_units_Z   1
loop_
 _symmetry_equiv_pos_site_id
 _symmetry_equiv_pos_as_xyz
  1  'x, y, z'
loop_
 _atom_site_type_symbol
 _atom_site_label
 _atom_site_symmetry_multiplicity
 _atom_site_fract_x
 _atom_site_fract_y
 _atom_site_fract_z
 _atom_site_occupancy
  Ba  Ba0  1  0.603048  0.603048  0.630094  1
  Ba  Ba1  1  0.680207  0.680207  0.994309  1
  Ba  Ba2  1  0.326699  0.326699  0.998827  1
  Ba  Ba3  1  0.925168  0.925168  0.207181  1
  Ba  Ba4  1  0.075309  0.075309  0.789150  1
  Ba  Ba5  1  0.560308  0.086946  0.753730  1
  Ba  Ba6  1  0.915082  0.434897  0.249778  1
  Ba  Ba7  1  0.434897  0.915082  0.249778  1
  Ba  Ba8  1  0.086946  0.560308  0.753730  1
  Pr  Pr9  1  0.420125  0.420125  0.354506  1
  P  P10  1  0.754077  0.242791  0.004809  1
  P  P11  1  0.242791  0.754077  0.004809  1
  N  N12  1  0.639383  0.639383  0.317497  1
  N  N13  1  0.350392  0.350392  0.647109  1
  N  N14  1  0.717594  0.032213  0.000598  1
  N  N15  1  0.965060  0.275947  0.012320  1
  N  N16  1  0.275947  0.965060  0.012320  1
  N  N17  1  0.032213  0.717594  0.000598  1
  N  N18  1  0.380403  0.724565  0.842720  1
  N  N19  1  0.278597  0.611188  0.166707  1
  N  N20  1  0.611188  0.278597  0.166707  1
  N  N21  1  0.724565  0.380403  0.842720  1
