# generated using pymatgen
data_CeTh3(CdHg2)4
_symmetry_space_group_name_H-M   'P 1'
_cell_length_a   7.52038900
_cell_length_b   5.08881500
_cell_length_c   10.19890100
_cell_angle_alpha   90.00000000
_cell_angle_beta   90.00000000
_cell_angle_gamma   90.00000000
_symmetry_Int_Tables_number   1
_chemical_formula_structural   CeTh3(CdHg2)4
_chemical_formula_sum   'Ce1 Th3 Cd4 Hg8'
_cell_volume   390.31059857
_cell_formula_units_Z   1
loop_
 _symmetry_equiv_pos_site_id
 _symmetry_equiv_pos_as_xyz
  1  'x, y, z'
loop_
 _atom_site_type_symbol
 _atom_site_label
 _atom_site_symmetry_multiplicity
 _atom_site_fract_x
 _atom_site_fract_y
 _atom_site_fract_z
 _atom_site_occupancy
  Ce  Ce0  1  0.249999  0.750000  0.875378  1
  Th  Th1  1  0.750000  0.250000  0.121372  1
  Th  Th2  1  0.250001  0.750000  0.375307  1
  Th  Th3  1  0.750000  0.250000  0.628011  1
  Cd  Cd4  1  0.249999  0.250000  0.125198  1
  Cd  Cd5  1  0.750000  0.750000  0.375223  1
  Cd  Cd6  1  0.250001  0.250000  0.624349  1
  Cd  Cd7  1  0.750001  0.750000  0.875163  1
  Hg  Hg8  1  0.498826  0.750000  0.123510  1
  Hg  Hg9  1  0.001176  0.750000  0.123511  1
  Hg  Hg10  1  0.997988  0.250000  0.374675  1
  Hg  Hg11  1  0.502012  0.250000  0.374675  1
  Hg  Hg12  1  0.001205  0.750000  0.627126  1
  Hg  Hg13  1  0.498795  0.750000  0.627127  1
  Hg  Hg14  1  0.004754  0.250000  0.874687  1
  Hg  Hg15  1  0.495245  0.250000  0.874688  1
