# generated using pymatgen
data_Tb3Er2AlSb2
_symmetry_space_group_name_H-M   'P 1'
_cell_length_a   8.89750900
_cell_length_b   8.90400031
_cell_length_c   6.39833900
_cell_angle_alpha   90.00000000
_cell_angle_beta   90.00000000
_cell_angle_gamma   120.02413230
_symmetry_Int_Tables_number   1
_chemical_formula_structural   Tb3Er2AlSb2
_chemical_formula_sum   'Tb6 Er4 Al2 Sb4'
_cell_volume   438.88003038
_cell_formula_units_Z   2
loop_
 _symmetry_equiv_pos_site_id
 _symmetry_equiv_pos_as_xyz
  1  'x, y, z'
loop_
 _atom_site_type_symbol
 _atom_site_label
 _atom_site_symmetry_multiplicity
 _atom_site_fract_x
 _atom_site_fract_y
 _atom_site_fract_z
 _atom_site_occupancy
  Tb  Tb0  1  0.008532  0.765444  0.750000  1
  Tb  Tb1  1  0.008532  0.243088  0.250000  1
  Tb  Tb2  1  0.755149  0.756273  0.250000  1
  Tb  Tb3  1  0.755149  0.998876  0.750000  1
  Tb  Tb4  1  0.242108  0.232808  0.750000  1
  Tb  Tb5  1  0.242108  0.009300  0.250000  1
  Er  Er6  1  0.335680  0.667840  0.500000  1
  Er  Er7  1  0.656009  0.328004  0.000000  1
  Er  Er8  1  0.656009  0.328004  0.500000  1
  Er  Er9  1  0.335680  0.667840  0.000000  1
  Al  Al10  1  0.398426  0.997213  0.750000  1
  Al  Al11  1  0.398426  0.401213  0.250000  1
  Sb  Sb12  1  0.998878  0.605995  0.250000  1
  Sb  Sb13  1  0.998878  0.392883  0.750000  1
  Sb  Sb14  1  0.605218  0.604245  0.750000  1
  Sb  Sb15  1  0.605218  0.000973  0.250000  1
