# generated using pymatgen
data_ScNb8CrSe16
_symmetry_space_group_name_H-M   'P 1'
_cell_length_a   7.00092400
_cell_length_b   7.00092484
_cell_length_c   13.14756100
_cell_angle_alpha   90.00000000
_cell_angle_beta   90.00000000
_cell_angle_gamma   119.99999605
_symmetry_Int_Tables_number   1
_chemical_formula_structural   ScNb8CrSe16
_chemical_formula_sum   'Sc1 Nb8 Cr1 Se16'
_cell_volume   558.06735888
_cell_formula_units_Z   1
loop_
 _symmetry_equiv_pos_site_id
 _symmetry_equiv_pos_as_xyz
  1  'x, y, z'
loop_
 _atom_site_type_symbol
 _atom_site_label
 _atom_site_symmetry_multiplicity
 _atom_site_fract_x
 _atom_site_fract_y
 _atom_site_fract_z
 _atom_site_occupancy
  Sc  Sc0  1  0.000000  0.000000  0.500000  1
  Nb  Nb1  1  0.000000  0.000000  0.242800  1
  Nb  Nb2  1  0.000000  0.000000  0.757200  1
  Nb  Nb3  1  0.507550  0.015100  0.241307  1
  Nb  Nb4  1  0.984900  0.492450  0.241307  1
  Nb  Nb5  1  0.507550  0.492450  0.241307  1
  Nb  Nb6  1  0.492450  0.984900  0.758693  1
  Nb  Nb7  1  0.015100  0.507550  0.758693  1
  Nb  Nb8  1  0.492450  0.507550  0.758693  1
  Cr  Cr9  1  0.000000  0.000000  0.000000  1
  Se  Se10  1  0.333333  0.666667  0.890099  1
  Se  Se11  1  0.666667  0.333333  0.109901  1
  Se  Se12  1  0.666667  0.333333  0.373595  1
  Se  Se13  1  0.333333  0.666667  0.626405  1
  Se  Se14  1  0.169617  0.830383  0.368952  1
  Se  Se15  1  0.169617  0.339233  0.368952  1
  Se  Se16  1  0.660767  0.830383  0.368952  1
  Se  Se17  1  0.830383  0.169617  0.631048  1
  Se  Se18  1  0.830383  0.660767  0.631048  1
  Se  Se19  1  0.339233  0.169617  0.631048  1
  Se  Se20  1  0.832569  0.167431  0.884406  1
  Se  Se21  1  0.832569  0.665137  0.884406  1
  Se  Se22  1  0.334863  0.167431  0.884406  1
  Se  Se23  1  0.167431  0.832569  0.115594  1
  Se  Se24  1  0.167431  0.334863  0.115594  1
  Se  Se25  1  0.665137  0.832569  0.115594  1
