# generated using pymatgen
data_PrPaNi10
_symmetry_space_group_name_H-M   'P 1'
_cell_length_a   3.99382300
_cell_length_b   4.90034339
_cell_length_c   8.45768465
_cell_angle_alpha   90.04549821
_cell_angle_beta   90.00007016
_cell_angle_gamma   89.99989583
_symmetry_Int_Tables_number   1
_chemical_formula_structural   PrPaNi10
_chemical_formula_sum   'Pr1 Pa1 Ni10'
_cell_volume   165.52617507
_cell_formula_units_Z   1
loop_
 _symmetry_equiv_pos_site_id
 _symmetry_equiv_pos_as_xyz
  1  'x, y, z'
loop_
 _atom_site_type_symbol
 _atom_site_label
 _atom_site_symmetry_multiplicity
 _atom_site_fract_x
 _atom_site_fract_y
 _atom_site_fract_z
 _atom_site_occupancy
  Pr  Pr0  1  0.000000  0.500000  0.500000  1
  Pa  Pa1  1  0.000000  0.000000  0.000000  1
  Ni  Ni2  1  0.000000  0.000056  0.319341  1
  Ni  Ni3  1  0.000000  0.500021  0.841493  1
  Ni  Ni4  1  0.000000  0.499979  0.158507  1
  Ni  Ni5  1  0.000000  0.999944  0.680659  1
  Ni  Ni6  1  0.500000  0.000000  0.500000  1
  Ni  Ni7  1  0.500000  0.500000  0.000000  1
  Ni  Ni8  1  0.500000  0.245659  0.243162  1
  Ni  Ni9  1  0.500000  0.754341  0.756838  1
  Ni  Ni10  1  0.499999  0.754196  0.243154  1
  Ni  Ni11  1  0.500001  0.245804  0.756846  1
