# generated using pymatgen
data_Er10In8AgIr3
_symmetry_space_group_name_H-M   'P 1'
_cell_length_a   3.60656000
_cell_length_b   8.09810615
_cell_length_c   18.25744762
_cell_angle_alpha   90.06127940
_cell_angle_beta   90.00000000
_cell_angle_gamma   90.00000000
_symmetry_Int_Tables_number   1
_chemical_formula_structural   Er10In8AgIr3
_chemical_formula_sum   'Er10 In8 Ag1 Ir3'
_cell_volume   533.23229206
_cell_formula_units_Z   1
loop_
 _symmetry_equiv_pos_site_id
 _symmetry_equiv_pos_as_xyz
  1  'x, y, z'
loop_
 _atom_site_type_symbol
 _atom_site_label
 _atom_site_symmetry_multiplicity
 _atom_site_fract_x
 _atom_site_fract_y
 _atom_site_fract_z
 _atom_site_occupancy
  Er  Er0  1  0.000000  0.499839  0.501409  1
  Er  Er1  1  0.000000  0.999811  0.997922  1
  Er  Er2  1  0.000000  0.768003  0.283876  1
  Er  Er3  1  0.000000  0.253310  0.723363  1
  Er  Er4  1  0.000000  0.754293  0.776582  1
  Er  Er5  1  0.000000  0.220497  0.222131  1
  Er  Er6  1  0.000000  0.622030  0.077995  1
  Er  Er7  1  0.000000  0.383990  0.909318  1
  Er  Er8  1  0.000000  0.882389  0.590346  1
  Er  Er9  1  0.000000  0.118777  0.415141  1
  In  In10  1  0.500000  0.707142  0.929381  1
  In  In11  1  0.500000  0.293682  0.065712  1
  In  In12  1  0.500000  0.794450  0.435230  1
  In  In13  1  0.500000  0.205396  0.568592  1
  In  In14  1  0.500000  0.567665  0.649307  1
  In  In15  1  0.500000  0.424150  0.351623  1
  In  In16  1  0.500000  0.920732  0.147617  1
  In  In17  1  0.500000  0.068896  0.851005  1
  Ag  Ag18  1  0.500000  0.526517  0.198227  1
  Ir  Ir19  1  0.500000  0.480750  0.802986  1
  Ir  Ir20  1  0.500000  0.979869  0.696407  1
  Ir  Ir21  1  0.500000  0.027812  0.305829  1
