# generated using pymatgen
data_LiTbSi2Au
_symmetry_space_group_name_H-M   'P 1'
_cell_length_a   6.05014862
_cell_length_b   6.05014904
_cell_length_c   6.05014961
_cell_angle_alpha   140.80260826
_cell_angle_beta   140.80261775
_cell_angle_gamma   56.63664793
_symmetry_Int_Tables_number   1
_chemical_formula_structural   LiTbSi2Au
_chemical_formula_sum   'Li1 Tb1 Si2 Au1'
_cell_volume   87.74161612
_cell_formula_units_Z   1
loop_
 _symmetry_equiv_pos_site_id
 _symmetry_equiv_pos_as_xyz
  1  'x, y, z'
loop_
 _atom_site_type_symbol
 _atom_site_label
 _atom_site_symmetry_multiplicity
 _atom_site_fract_x
 _atom_site_fract_y
 _atom_site_fract_z
 _atom_site_occupancy
  Li  Li0  1  0.250000  0.750000  0.500000  1
  Tb  Tb1  1  0.000000  0.000000  0.000000  1
  Si  Si2  1  0.391483  0.391483  0.000000  1
  Si  Si3  1  0.608517  0.608517  0.000000  1
  Au  Au4  1  0.750000  0.250000  0.500000  1
