# generated using pymatgen
data_Ca2Ir2O6F
_symmetry_space_group_name_H-M   'P 1'
_cell_length_a   7.26904420
_cell_length_b   7.26904346
_cell_length_c   7.26904500
_cell_angle_alpha   59.99999754
_cell_angle_beta   60.00000093
_cell_angle_gamma   59.99999986
_symmetry_Int_Tables_number   1
_chemical_formula_structural   Ca2Ir2O6F
_chemical_formula_sum   'Ca4 Ir4 O12 F2'
_cell_volume   271.59197249
_cell_formula_units_Z   2
loop_
 _symmetry_equiv_pos_site_id
 _symmetry_equiv_pos_as_xyz
  1  'x, y, z'
loop_
 _atom_site_type_symbol
 _atom_site_label
 _atom_site_symmetry_multiplicity
 _atom_site_fract_x
 _atom_site_fract_y
 _atom_site_fract_z
 _atom_site_occupancy
  Ca  Ca0  1  0.125000  0.125000  0.625000  1
  Ca  Ca1  1  0.125000  0.625000  0.125000  1
  Ca  Ca2  1  0.625000  0.125000  0.125000  1
  Ca  Ca3  1  0.125000  0.125000  0.125000  1
  Ir  Ir4  1  0.625000  0.625000  0.125000  1
  Ir  Ir5  1  0.625000  0.125000  0.625000  1
  Ir  Ir6  1  0.125000  0.625000  0.625000  1
  Ir  Ir7  1  0.625000  0.625000  0.625000  1
  O  O8  1  0.294422  0.294422  0.705578  1
  O  O9  1  0.705578  0.705578  0.294422  1
  O  O10  1  0.955578  0.544422  0.544422  1
  O  O11  1  0.705578  0.294422  0.294422  1
  O  O12  1  0.544422  0.955578  0.544422  1
  O  O13  1  0.544422  0.544422  0.955578  1
  O  O14  1  0.294422  0.705578  0.705578  1
  O  O15  1  0.955578  0.544422  0.955578  1
  O  O16  1  0.544422  0.955578  0.955578  1
  O  O17  1  0.705578  0.294422  0.705578  1
  O  O18  1  0.294422  0.705578  0.294422  1
  O  O19  1  0.955578  0.955578  0.544422  1
  F  F20  1  0.250000  0.250000  0.250000  1
  F  F21  1  0.000000  0.000000  0.000000  1
