# generated using pymatgen
data_TmHf5Ga7Cu16
_symmetry_space_group_name_H-M   'P 1'
_cell_length_a   8.43535943
_cell_length_b   8.43535947
_cell_length_c   8.44800000
_cell_angle_alpha   59.95040920
_cell_angle_beta   59.95040904
_cell_angle_gamma   60.09917139
_symmetry_Int_Tables_number   1
_chemical_formula_structural   TmHf5Ga7Cu16
_chemical_formula_sum   'Tm1 Hf5 Ga7 Cu16'
_cell_volume   425.05399891
_cell_formula_units_Z   1
loop_
 _symmetry_equiv_pos_site_id
 _symmetry_equiv_pos_as_xyz
  1  'x, y, z'
loop_
 _atom_site_type_symbol
 _atom_site_label
 _atom_site_symmetry_multiplicity
 _atom_site_fract_x
 _atom_site_fract_y
 _atom_site_fract_z
 _atom_site_occupancy
  Tm  Tm0  1  0.703516  0.703516  0.296484  1
  Hf  Hf1  1  0.702892  0.293504  0.297108  1
  Hf  Hf2  1  0.293504  0.702892  0.706496  1
  Hf  Hf3  1  0.293504  0.702892  0.297108  1
  Hf  Hf4  1  0.301001  0.301001  0.698999  1
  Hf  Hf5  1  0.702892  0.293504  0.706496  1
  Ga  Ga6  1  0.496890  0.001526  0.998474  1
  Ga  Ga7  1  0.001526  0.496890  0.503110  1
  Ga  Ga8  1  0.001526  0.496890  0.998474  1
  Ga  Ga9  1  0.000417  0.000417  0.499583  1
  Ga  Ga10  1  0.496890  0.001526  0.503110  1
  Ga  Ga11  1  0.500417  0.500417  0.999583  1
  Ga  Ga12  1  0.997862  0.997862  0.002138  1
  Cu  Cu13  1  0.331236  0.331236  0.331486  1
  Cu  Cu14  1  0.331236  0.331236  0.006042  1
  Cu  Cu15  1  0.009341  0.329623  0.330518  1
  Cu  Cu16  1  0.329623  0.009341  0.330518  1
  Cu  Cu17  1  0.669482  0.669482  0.670377  1
  Cu  Cu18  1  0.669482  0.669482  0.990659  1
  Cu  Cu19  1  0.668514  0.993958  0.668764  1
  Cu  Cu20  1  0.993958  0.668514  0.668764  1
  Cu  Cu21  1  0.118684  0.118684  0.118788  1
  Cu  Cu22  1  0.118684  0.118684  0.643843  1
  Cu  Cu23  1  0.639817  0.124959  0.117612  1
  Cu  Cu24  1  0.124959  0.639817  0.117612  1
  Cu  Cu25  1  0.882388  0.882388  0.875041  1
  Cu  Cu26  1  0.882388  0.882388  0.360183  1
  Cu  Cu27  1  0.881212  0.356157  0.881316  1
  Cu  Cu28  1  0.356157  0.881212  0.881316  1
