# generated using pymatgen
data_HfV3Ni20(BO5)8
_symmetry_space_group_name_H-M   'P 1'
_cell_length_a   6.09472300
_cell_length_b   9.29928462
_cell_length_c   12.31860783
_cell_angle_alpha   89.95801309
_cell_angle_beta   90.00000000
_cell_angle_gamma   90.00000000
_symmetry_Int_Tables_number   1
_chemical_formula_structural   HfV3Ni20(BO5)8
_chemical_formula_sum   'Hf1 V3 Ni20 B8 O40'
_cell_volume   698.17617598
_cell_formula_units_Z   1
loop_
 _symmetry_equiv_pos_site_id
 _symmetry_equiv_pos_as_xyz
  1  'x, y, z'
loop_
 _atom_site_type_symbol
 _atom_site_label
 _atom_site_symmetry_multiplicity
 _atom_site_fract_x
 _atom_site_fract_y
 _atom_site_fract_z
 _atom_site_occupancy
  Hf  Hf0  1  0.750000  0.260866  0.883792  1
  V  V1  1  0.250000  0.741357  0.114384  1
  V  V2  1  0.750000  0.759584  0.613210  1
  V  V3  1  0.250000  0.240690  0.386386  1
  Ni  Ni4  1  0.001705  0.000938  0.218453  1
  Ni  Ni5  1  0.750000  0.991047  0.003715  1
  Ni  Ni6  1  0.750000  0.240514  0.385545  1
  Ni  Ni7  1  0.498295  0.000938  0.218453  1
  Ni  Ni8  1  0.002052  0.502453  0.717040  1
  Ni  Ni9  1  0.250000  0.759829  0.613169  1
  Ni  Ni10  1  0.498111  0.500813  0.282528  1
  Ni  Ni11  1  0.001889  0.500813  0.282528  1
  Ni  Ni12  1  0.001195  0.996135  0.781616  1
  Ni  Ni13  1  0.497948  0.502453  0.717040  1
  Ni  Ni14  1  0.498805  0.996135  0.781616  1
  Ni  Ni15  1  0.496736  0.503012  0.000730  1
  Ni  Ni16  1  0.250000  0.260872  0.885993  1
  Ni  Ni17  1  0.250000  0.505366  0.502327  1
  Ni  Ni18  1  0.750000  0.493954  0.497480  1
  Ni  Ni19  1  0.250000  0.003226  0.997859  1
  Ni  Ni20  1  0.000188  0.999727  0.499219  1
  Ni  Ni21  1  0.499812  0.999727  0.499219  1
  Ni  Ni22  1  0.750000  0.739456  0.115384  1
  Ni  Ni23  1  0.003264  0.503012  0.000730  1
  B  B24  1  0.250000  0.274140  0.138541  1
  B  B25  1  0.250000  0.774315  0.362152  1
  B  B26  1  0.750000  0.725359  0.862027  1
  B  B27  1  0.750000  0.222969  0.634558  1
  B  B28  1  0.750000  0.272455  0.144080  1
  B  B29  1  0.250000  0.727792  0.858377  1
  B  B30  1  0.750000  0.771908  0.358964  1
  B  B31  1  0.250000  0.227991  0.640584  1
  O  O32  1  0.486512  0.881760  0.078595  1
  O  O33  1  0.750000  0.147205  0.733267  1
  O  O34  1  0.250000  0.152919  0.541155  1
  O  O35  1  0.750000  0.846618  0.458417  1
  O  O36  1  0.750000  0.851088  0.263989  1
  O  O37  1  0.506161  0.111068  0.924355  1
  O  O38  1  0.250000  0.149079  0.735854  1
  O  O39  1  0.515622  0.888254  0.642661  1
  O  O40  1  0.250000  0.626174  0.361503  1
  O  O41  1  0.250000  0.654859  0.958662  1
  O  O42  1  0.750000  0.371117  0.639442  1
  O  O43  1  0.014768  0.383039  0.422890  1
  O  O44  1  0.750000  0.873697  0.861431  1
  O  O45  1  0.993839  0.111068  0.924355  1
  O  O46  1  0.483586  0.611264  0.144209  1
  O  O47  1  0.515099  0.617260  0.576449  1
  O  O48  1  0.483521  0.111447  0.356441  1
  O  O49  1  0.750000  0.350684  0.239006  1
  O  O50  1  0.998636  0.398878  0.856075  1
  O  O51  1  0.016479  0.111447  0.356441  1
  O  O52  1  0.750000  0.123267  0.144005  1
  O  O53  1  0.750000  0.146328  0.538745  1
  O  O54  1  0.750000  0.347780  0.045199  1
  O  O55  1  0.250000  0.376905  0.641822  1
  O  O56  1  0.250000  0.125825  0.139440  1
  O  O57  1  0.485232  0.383039  0.422890  1
  O  O58  1  0.250000  0.845709  0.261901  1
  O  O59  1  0.013488  0.881760  0.078595  1
  O  O60  1  0.016414  0.611264  0.144209  1
  O  O61  1  0.984378  0.888254  0.642661  1
  O  O62  1  0.750000  0.622979  0.357087  1
  O  O63  1  0.250000  0.353557  0.043380  1
  O  O64  1  0.250000  0.853530  0.457508  1
  O  O65  1  0.501364  0.398878  0.856075  1
  O  O66  1  0.250000  0.876351  0.856615  1
  O  O67  1  0.250000  0.345575  0.238959  1
  O  O68  1  0.984901  0.617260  0.576449  1
  O  O69  1  0.250000  0.650989  0.762490  1
  O  O70  1  0.750000  0.655189  0.761274  1
  O  O71  1  0.750000  0.646789  0.957802  1
