# generated using pymatgen
data_TmLu7(BBr6)2
_symmetry_space_group_name_H-M   'P 1'
_cell_length_a   3.87764600
_cell_length_b   12.93582278
_cell_length_c   13.39100792
_cell_angle_alpha   90.08760533
_cell_angle_beta   90.00000000
_cell_angle_gamma   90.00000000
_symmetry_Int_Tables_number   1
_chemical_formula_structural   TmLu7(BBr6)2
_chemical_formula_sum   'Tm1 Lu7 B2 Br12'
_cell_volume   671.69942247
_cell_formula_units_Z   1
loop_
 _symmetry_equiv_pos_site_id
 _symmetry_equiv_pos_as_xyz
  1  'x, y, z'
loop_
 _atom_site_type_symbol
 _atom_site_label
 _atom_site_symmetry_multiplicity
 _atom_site_fract_x
 _atom_site_fract_y
 _atom_site_fract_z
 _atom_site_occupancy
  Tm  Tm0  1  0.500000  0.121754  0.856916  1
  Lu  Lu1  1  0.000000  0.099476  0.079367  1
  Lu  Lu2  1  0.000000  0.900240  0.920972  1
  Lu  Lu3  1  0.000000  0.599694  0.420780  1
  Lu  Lu4  1  0.000000  0.400406  0.579132  1
  Lu  Lu5  1  0.500000  0.878696  0.142564  1
  Lu  Lu6  1  0.500000  0.621248  0.642454  1
  Lu  Lu7  1  0.500000  0.378794  0.357532  1
  B  B8  1  0.500000  0.999630  0.000432  1
  B  B9  1  0.500000  0.500085  0.499950  1
  Br  Br10  1  0.500000  0.268821  0.681360  1
  Br  Br11  1  0.500000  0.731674  0.317948  1
  Br  Br12  1  0.500000  0.768160  0.817887  1
  Br  Br13  1  0.500000  0.231756  0.182224  1
  Br  Br14  1  0.000000  0.261494  0.931856  1
  Br  Br15  1  0.000000  0.739336  0.069254  1
  Br  Br16  1  0.000000  0.479973  0.239633  1
  Br  Br17  1  0.000000  0.520054  0.760362  1
  Br  Br18  1  0.000000  0.980004  0.260538  1
  Br  Br19  1  0.000000  0.018689  0.738870  1
  Br  Br20  1  0.000000  0.239488  0.430717  1
  Br  Br21  1  0.000000  0.760527  0.569251  1
