# generated using pymatgen
data_TbTm3(B6Rh)2
_symmetry_space_group_name_H-M   'P 1'
_cell_length_a   3.63396300
_cell_length_b   9.13000200
_cell_length_c   11.46692300
_cell_angle_alpha   90.00093663
_cell_angle_beta   90.00000000
_cell_angle_gamma   90.00000000
_symmetry_Int_Tables_number   1
_chemical_formula_structural   TbTm3(B6Rh)2
_chemical_formula_sum   'Tb2 Tm6 B24 Rh4'
_cell_volume   380.45059708
_cell_formula_units_Z   2
loop_
 _symmetry_equiv_pos_site_id
 _symmetry_equiv_pos_as_xyz
  1  'x, y, z'
loop_
 _atom_site_type_symbol
 _atom_site_label
 _atom_site_symmetry_multiplicity
 _atom_site_fract_x
 _atom_site_fract_y
 _atom_site_fract_z
 _atom_site_occupancy
  Tb  Tb0  1  0.500000  0.322127  0.413502  1
  Tb  Tb1  1  0.500000  0.677873  0.586498  1
  Tm  Tm2  1  0.500000  0.178288  0.913958  1
  Tm  Tm3  1  0.500000  0.821712  0.086042  1
  Tm  Tm4  1  0.500000  0.444146  0.126082  1
  Tm  Tm5  1  0.500000  0.555854  0.873918  1
  Tm  Tm6  1  0.500000  0.055621  0.627160  1
  Tm  Tm7  1  0.500000  0.944379  0.372840  1
  B  B8  1  0.000000  0.106653  0.471130  1
  B  B9  1  0.000000  0.893347  0.528870  1
  B  B10  1  0.000000  0.390344  0.970394  1
  B  B11  1  0.000000  0.609656  0.029606  1
  B  B12  1  0.000000  0.132438  0.315910  1
  B  B13  1  0.000000  0.867562  0.684090  1
  B  B14  1  0.000000  0.366670  0.817235  1
  B  B15  1  0.000000  0.633330  0.182765  1
  B  B16  1  0.000000  0.053926  0.064661  1
  B  B17  1  0.000000  0.946074  0.935339  1
  B  B18  1  0.000000  0.445523  0.566204  1
  B  B19  1  0.000000  0.554477  0.433796  1
  B  B20  1  0.000000  0.483330  0.285712  1
  B  B21  1  0.000000  0.516670  0.714288  1
  B  B22  1  0.000000  0.017644  0.787233  1
  B  B23  1  0.000000  0.982356  0.212767  1
  B  B24  1  0.000000  0.249704  0.078740  1
  B  B25  1  0.000000  0.750296  0.921260  1
  B  B26  1  0.000000  0.249474  0.580246  1
  B  B27  1  0.000000  0.750526  0.419754  1
  B  B28  1  0.000000  0.293966  0.234876  1
  B  B29  1  0.000000  0.706034  0.765124  1
  B  B30  1  0.000000  0.205058  0.736945  1
  B  B31  1  0.000000  0.794942  0.263055  1
  Rh  Rh32  1  0.500000  0.138733  0.177997  1
  Rh  Rh33  1  0.500000  0.861267  0.822003  1
  Rh  Rh34  1  0.500000  0.358847  0.680665  1
  Rh  Rh35  1  0.500000  0.641153  0.319335  1
