# generated using pymatgen
data_Sm4Ga10PdAu5
_symmetry_space_group_name_H-M   'P 1'
_cell_length_a   8.67957090
_cell_length_b   8.67957207
_cell_length_c   8.67957155
_cell_angle_alpha   138.38071411
_cell_angle_beta   103.67165915
_cell_angle_gamma   90.92066174
_symmetry_Int_Tables_number   1
_chemical_formula_structural   Sm4Ga10PdAu5
_chemical_formula_sum   'Sm4 Ga10 Pd1 Au5'
_cell_volume   402.72074955
_cell_formula_units_Z   1
loop_
 _symmetry_equiv_pos_site_id
 _symmetry_equiv_pos_as_xyz
  1  'x, y, z'
loop_
 _atom_site_type_symbol
 _atom_site_label
 _atom_site_symmetry_multiplicity
 _atom_site_fract_x
 _atom_site_fract_y
 _atom_site_fract_z
 _atom_site_occupancy
  Sm  Sm0  1  0.637162  0.869953  0.764688  1
  Sm  Sm1  1  0.362838  0.127526  0.232791  1
  Sm  Sm2  1  0.105265  0.372474  0.735312  1
  Sm  Sm3  1  0.894735  0.630047  0.267209  1
  Ga  Ga4  1  0.273820  0.023820  0.750000  1
  Ga  Ga5  1  0.728565  0.978565  0.250000  1
  Ga  Ga6  1  0.726180  0.476180  0.750000  1
  Ga  Ga7  1  0.271435  0.521435  0.250000  1
  Ga  Ga8  1  0.463124  0.602630  0.844969  1
  Ga  Ga9  1  0.536876  0.381845  0.139505  1
  Ga  Ga10  1  0.757660  0.118155  0.655031  1
  Ga  Ga11  1  0.242340  0.897370  0.360495  1
  Ga  Ga12  1  0.000000  0.750000  0.750000  1
  Ga  Ga13  1  0.000000  0.250000  0.250000  1
  Pd  Pd14  1  0.500000  0.250000  0.750000  1
  Au  Au15  1  0.257567  0.637729  0.621890  1
  Au  Au16  1  0.742433  0.364322  0.380161  1
  Au  Au17  1  0.015839  0.135678  0.878110  1
  Au  Au18  1  0.984161  0.862271  0.119839  1
  Au  Au19  1  0.500000  0.750000  0.250000  1
