# generated using pymatgen
data_La4Ce(ThTe4)3
_symmetry_space_group_name_H-M   'P 1'
_cell_length_a   4.48572900
_cell_length_b   11.95361817
_cell_length_c   12.28810800
_cell_angle_alpha   90.37437357
_cell_angle_beta   90.00000000
_cell_angle_gamma   90.00000000
_symmetry_Int_Tables_number   1
_chemical_formula_structural   La4Ce(ThTe4)3
_chemical_formula_sum   'La4 Ce1 Th3 Te12'
_cell_volume   658.88278514
_cell_formula_units_Z   1
loop_
 _symmetry_equiv_pos_site_id
 _symmetry_equiv_pos_as_xyz
  1  'x, y, z'
loop_
 _atom_site_type_symbol
 _atom_site_label
 _atom_site_symmetry_multiplicity
 _atom_site_fract_x
 _atom_site_fract_y
 _atom_site_fract_z
 _atom_site_occupancy
  La  La0  1  0.750000  0.501428  0.697665  1
  La  La1  1  0.750000  0.999835  0.196649  1
  La  La2  1  0.250000  0.500952  0.304205  1
  La  La3  1  0.250000  0.997043  0.803765  1
  Ce  Ce4  1  0.750000  0.688977  0.014865  1
  Th  Th5  1  0.250000  0.189311  0.484027  1
  Th  Th6  1  0.250000  0.311762  0.984236  1
  Th  Th7  1  0.750000  0.811133  0.515253  1
  Te  Te8  1  0.250000  0.626625  0.546780  1
  Te  Te9  1  0.250000  0.875188  0.045724  1
  Te  Te10  1  0.750000  0.373925  0.454054  1
  Te  Te11  1  0.750000  0.127438  0.952889  1
  Te  Te12  1  0.250000  0.294932  0.725915  1
  Te  Te13  1  0.250000  0.204605  0.226266  1
  Te  Te14  1  0.750000  0.705543  0.275182  1
  Te  Te15  1  0.750000  0.793201  0.770849  1
  Te  Te16  1  0.750000  0.057343  0.617372  1
  Te  Te17  1  0.750000  0.441838  0.119027  1
  Te  Te18  1  0.250000  0.943900  0.382356  1
  Te  Te19  1  0.250000  0.555022  0.882921  1
