# generated using pymatgen
data_SrMn3(AsO4)3
_symmetry_space_group_name_H-M   'P 1'
_cell_length_a   9.64047847
_cell_length_b   9.64127901
_cell_length_c   9.64136500
_cell_angle_alpha   137.69279733
_cell_angle_beta   112.50841201
_cell_angle_gamma   82.97201804
_symmetry_Int_Tables_number   1
_chemical_formula_structural   SrMn3(AsO4)3
_chemical_formula_sum   'Sr2 Mn6 As6 O24'
_cell_volume   538.29837137
_cell_formula_units_Z   2
loop_
 _symmetry_equiv_pos_site_id
 _symmetry_equiv_pos_as_xyz
  1  'x, y, z'
loop_
 _atom_site_type_symbol
 _atom_site_label
 _atom_site_symmetry_multiplicity
 _atom_site_fract_x
 _atom_site_fract_y
 _atom_site_fract_z
 _atom_site_occupancy
  Sr  Sr0  1  0.749979  0.839573  0.089586  1
  Sr  Sr1  1  0.250021  0.160427  0.910414  1
  Mn  Mn2  1  0.616675  0.616428  0.499992  1
  Mn  Mn3  1  0.883553  0.383515  0.000139  1
  Mn  Mn4  1  0.116447  0.616485  0.999861  1
  Mn  Mn5  1  0.383325  0.383572  0.500008  1
  Mn  Mn6  1  0.500000  0.000000  0.500000  1
  Mn  Mn7  1  0.000000  0.500000  0.500000  1
  As  As8  1  0.749954  0.324538  0.574577  1
  As  As9  1  0.250046  0.675462  0.425423  1
  As  As10  1  0.823747  0.823763  0.500011  1
  As  As11  1  0.676266  0.176199  0.999957  1
  As  As12  1  0.323734  0.823801  0.000043  1
  As  As13  1  0.176253  0.176237  0.499989  1
  O  O14  1  0.654604  0.083688  0.429133  1
  O  O15  1  0.345396  0.916312  0.570867  1
  O  O16  1  0.154625  0.725360  0.570754  1
  O  O17  1  0.845375  0.274640  0.429246  1
  O  O18  1  0.627398  0.487913  0.615425  1
  O  O19  1  0.127509  0.512086  0.139510  1
  O  O20  1  0.372602  0.512087  0.384575  1
  O  O21  1  0.872491  0.487914  0.860490  1
  O  O22  1  0.940735  0.076576  0.741494  1
  O  O23  1  0.664932  0.923407  0.864142  1
  O  O24  1  0.440683  0.699278  0.864143  1
  O  O25  1  0.164885  0.300767  0.741458  1
  O  O26  1  0.059265  0.923424  0.258506  1
  O  O27  1  0.335068  0.076593  0.135858  1
  O  O28  1  0.559317  0.300722  0.135857  1
  O  O29  1  0.835115  0.699233  0.258542  1
  O  O30  1  0.624674  0.795250  0.440796  1
  O  O31  1  0.645522  0.204722  0.829408  1
  O  O32  1  0.124648  0.683926  0.829377  1
  O  O33  1  0.145433  0.316058  0.440732  1
  O  O34  1  0.375326  0.204750  0.559204  1
  O  O35  1  0.354478  0.795278  0.170592  1
  O  O36  1  0.875352  0.316074  0.170623  1
  O  O37  1  0.854567  0.683942  0.559268  1
