# generated using pymatgen
data_HfZr5Be8Al7Pd8
_symmetry_space_group_name_H-M   'P 1'
_cell_length_a   8.42521021
_cell_length_b   8.42521119
_cell_length_c   8.42242100
_cell_angle_alpha   60.01095841
_cell_angle_beta   60.01095452
_cell_angle_gamma   59.97809057
_symmetry_Int_Tables_number   1
_chemical_formula_structural   HfZr5Be8Al7Pd8
_chemical_formula_sum   'Hf1 Zr5 Be8 Al7 Pd8'
_cell_volume   422.74979513
_cell_formula_units_Z   1
loop_
 _symmetry_equiv_pos_site_id
 _symmetry_equiv_pos_as_xyz
  1  'x, y, z'
loop_
 _atom_site_type_symbol
 _atom_site_label
 _atom_site_symmetry_multiplicity
 _atom_site_fract_x
 _atom_site_fract_y
 _atom_site_fract_z
 _atom_site_occupancy
  Hf  Hf0  1  0.699263  0.699263  0.300737  1
  Zr  Zr1  1  0.697836  0.303136  0.302164  1
  Zr  Zr2  1  0.303136  0.697836  0.696864  1
  Zr  Zr3  1  0.303136  0.697836  0.302164  1
  Zr  Zr4  1  0.697836  0.303136  0.696864  1
  Zr  Zr5  1  0.301461  0.301461  0.698539  1
  Be  Be6  1  0.326271  0.326271  0.326200  1
  Be  Be7  1  0.673625  0.673625  0.672974  1
  Be  Be8  1  0.326271  0.326271  0.021258  1
  Be  Be9  1  0.327026  0.020224  0.326375  1
  Be  Be10  1  0.673625  0.673625  0.979776  1
  Be  Be11  1  0.673800  0.978742  0.673729  1
  Be  Be12  1  0.020224  0.327026  0.326375  1
  Be  Be13  1  0.978742  0.673800  0.673729  1
  Al  Al14  1  0.500047  0.000020  0.999980  1
  Al  Al15  1  0.000020  0.500047  0.499953  1
  Al  Al16  1  0.000020  0.500047  0.999980  1
  Al  Al17  1  0.500047  0.000020  0.499953  1
  Al  Al18  1  0.999925  0.999925  0.500075  1
  Al  Al19  1  0.499925  0.499925  0.000075  1
  Al  Al20  1  0.999999  0.999999  0.000001  1
  Pd  Pd21  1  0.126176  0.126176  0.126192  1
  Pd  Pd22  1  0.873265  0.873265  0.875371  1
  Pd  Pd23  1  0.126176  0.126176  0.621456  1
  Pd  Pd24  1  0.124629  0.621901  0.126735  1
  Pd  Pd25  1  0.873265  0.873265  0.378099  1
  Pd  Pd26  1  0.873808  0.378544  0.873824  1
  Pd  Pd27  1  0.621901  0.124629  0.126735  1
  Pd  Pd28  1  0.378544  0.873808  0.873824  1
