# generated using pymatgen
data_RbSb12(IrOs)2
_symmetry_space_group_name_H-M   'P 1'
_cell_length_a   8.19183793
_cell_length_b   8.18114446
_cell_length_c   8.19183671
_cell_angle_alpha   109.54474599
_cell_angle_beta   109.49955013
_cell_angle_gamma   109.42231205
_symmetry_Int_Tables_number   1
_chemical_formula_structural   RbSb12(IrOs)2
_chemical_formula_sum   'Rb1 Sb12 Ir2 Os2'
_cell_volume   422.34788560
_cell_formula_units_Z   1
loop_
 _symmetry_equiv_pos_site_id
 _symmetry_equiv_pos_as_xyz
  1  'x, y, z'
loop_
 _atom_site_type_symbol
 _atom_site_label
 _atom_site_symmetry_multiplicity
 _atom_site_fract_x
 _atom_site_fract_y
 _atom_site_fract_z
 _atom_site_occupancy
  Rb  Rb0  1  0.000000  0.000000  0.000000  1
  Sb  Sb1  1  0.841492  0.655540  0.499672  1
  Sb  Sb2  1  0.158508  0.344460  0.500328  1
  Sb  Sb3  1  0.155868  0.655540  0.814047  1
  Sb  Sb4  1  0.844132  0.344460  0.185953  1
  Sb  Sb5  1  0.658724  0.500293  0.841569  1
  Sb  Sb6  1  0.341276  0.499707  0.158431  1
  Sb  Sb7  1  0.655248  0.811383  0.156135  1
  Sb  Sb8  1  0.344752  0.188617  0.843865  1
  Sb  Sb9  1  0.499839  0.841614  0.655863  1
  Sb  Sb10  1  0.500161  0.158386  0.344137  1
  Sb  Sb11  1  0.185752  0.841614  0.341775  1
  Sb  Sb12  1  0.814248  0.158386  0.658225  1
  Ir  Ir13  1  0.500000  0.000000  0.000000  1
  Ir  Ir14  1  0.000000  0.000000  0.500000  1
  Os  Os15  1  0.500000  0.500000  0.500000  1
  Os  Os16  1  0.000000  0.500000  0.000000  1
