# generated using pymatgen
data_LuCu3P2Pd
_symmetry_space_group_name_H-M   'P 1'
_cell_length_a   7.35103600
_cell_length_b   7.33653791
_cell_length_c   3.82926300
_cell_angle_alpha   90.00000000
_cell_angle_beta   90.00000000
_cell_angle_gamma   90.25544663
_symmetry_Int_Tables_number   1
_chemical_formula_structural   LuCu3P2Pd
_chemical_formula_sum   'Lu2 Cu6 P4 Pd2'
_cell_volume   206.51452133
_cell_formula_units_Z   2
loop_
 _symmetry_equiv_pos_site_id
 _symmetry_equiv_pos_as_xyz
  1  'x, y, z'
loop_
 _atom_site_type_symbol
 _atom_site_label
 _atom_site_symmetry_multiplicity
 _atom_site_fract_x
 _atom_site_fract_y
 _atom_site_fract_z
 _atom_site_occupancy
  Lu  Lu0  1  0.998144  0.005530  0.500000  1
  Lu  Lu1  1  0.501915  0.500316  0.000000  1
  Cu  Cu2  1  0.167081  0.592381  0.500000  1
  Cu  Cu3  1  0.914903  0.672197  0.000000  1
  Cu  Cu4  1  0.413479  0.835001  0.500000  1
  Cu  Cu5  1  0.578452  0.154141  0.500000  1
  Cu  Cu6  1  0.346412  0.076345  0.000000  1
  Cu  Cu7  1  0.665905  0.914000  0.000000  1
  P  P8  1  0.775584  0.209212  0.000000  1
  P  P9  1  0.711418  0.724305  0.500000  1
  P  P10  1  0.291811  0.285105  0.500000  1
  P  P11  1  0.213079  0.785488  0.000000  1
  Pd  Pd12  1  0.096347  0.330428  0.000000  1
  Pd  Pd13  1  0.825467  0.415550  0.500000  1
