# generated using pymatgen
data_Zr2Co11Si7Tc
_symmetry_space_group_name_H-M   'P 1'
_cell_length_a   9.08675502
_cell_length_b   9.10082475
_cell_length_c   3.64360300
_cell_angle_alpha   90.00000000
_cell_angle_beta   90.00000000
_cell_angle_gamma   120.59242216
_symmetry_Int_Tables_number   1
_chemical_formula_structural   Zr2Co11Si7Tc
_chemical_formula_sum   'Zr2 Co11 Si7 Tc1'
_cell_volume   259.37468982
_cell_formula_units_Z   1
loop_
 _symmetry_equiv_pos_site_id
 _symmetry_equiv_pos_as_xyz
  1  'x, y, z'
loop_
 _atom_site_type_symbol
 _atom_site_label
 _atom_site_symmetry_multiplicity
 _atom_site_fract_x
 _atom_site_fract_y
 _atom_site_fract_z
 _atom_site_occupancy
  Zr  Zr0  1  0.999261  0.001278  0.000000  1
  Zr  Zr1  1  0.332815  0.668363  0.500000  1
  Co  Co2  1  0.289913  0.390670  0.000000  1
  Co  Co3  1  0.103979  0.711910  0.000000  1
  Co  Co4  1  0.544812  0.440691  0.500000  1
  Co  Co5  1  0.383563  0.178725  0.000000  1
  Co  Co6  1  0.791127  0.617690  0.000000  1
  Co  Co7  1  0.820046  0.204573  0.000000  1
  Co  Co8  1  0.235491  0.952674  0.500000  1
  Co  Co9  1  0.048906  0.277972  0.500000  1
  Co  Co10  1  0.718382  0.767914  0.500000  1
  Co  Co11  1  0.568527  0.106771  0.500000  1
  Co  Co12  1  0.608599  0.897487  0.000000  1
  Si  Si13  1  0.660752  0.331542  0.000000  1
  Si  Si14  1  0.078114  0.449379  0.000000  1
  Si  Si15  1  0.261999  0.219288  0.500000  1
  Si  Si16  1  0.780512  0.039426  0.500000  1
  Si  Si17  1  0.960771  0.742375  0.500000  1
  Si  Si18  1  0.549535  0.622893  0.000000  1
  Si  Si19  1  0.379748  0.931390  0.000000  1
  Tc  Tc20  1  0.883145  0.446990  0.500000  1
