# generated using pymatgen
data_Dy3Lu(Ni7P4)2
_symmetry_space_group_name_H-M   'P 1'
_cell_length_a   3.69187800
_cell_length_b   9.13489449
_cell_length_c   10.22589442
_cell_angle_alpha   90.14688985
_cell_angle_beta   90.00000000
_cell_angle_gamma   90.00000000
_symmetry_Int_Tables_number   1
_chemical_formula_structural   Dy3Lu(Ni7P4)2
_chemical_formula_sum   'Dy3 Lu1 Ni14 P8'
_cell_volume   344.86629694
_cell_formula_units_Z   1
loop_
 _symmetry_equiv_pos_site_id
 _symmetry_equiv_pos_as_xyz
  1  'x, y, z'
loop_
 _atom_site_type_symbol
 _atom_site_label
 _atom_site_symmetry_multiplicity
 _atom_site_fract_x
 _atom_site_fract_y
 _atom_site_fract_z
 _atom_site_occupancy
  Dy  Dy0  1  0.500000  0.942012  0.895377  1
  Dy  Dy1  1  0.000000  0.436270  0.178373  1
  Dy  Dy2  1  0.500000  0.563771  0.677988  1
  Lu  Lu3  1  0.000000  0.057756  0.395745  1
  Ni  Ni4  1  0.000000  0.056155  0.698255  1
  Ni  Ni5  1  0.500000  0.944988  0.201261  1
  Ni  Ni6  1  0.000000  0.725497  0.510297  1
  Ni  Ni7  1  0.500000  0.273754  0.010334  1
  Ni  Ni8  1  0.000000  0.097339  0.094822  1
  Ni  Ni9  1  0.500000  0.903879  0.592727  1
  Ni  Ni10  1  0.000000  0.746844  0.274307  1
  Ni  Ni11  1  0.500000  0.253602  0.772688  1
  Ni  Ni12  1  0.000000  0.306033  0.602188  1
  Ni  Ni13  1  0.500000  0.694249  0.103771  1
  Ni  Ni14  1  0.000000  0.685786  0.911942  1
  Ni  Ni15  1  0.500000  0.312332  0.411561  1
  Ni  Ni16  1  0.000000  0.417307  0.868993  1
  Ni  Ni17  1  0.500000  0.582695  0.369394  1
  P  P18  1  0.000000  0.180083  0.889425  1
  P  P19  1  0.500000  0.821215  0.389475  1
  P  P20  1  0.000000  0.845790  0.084265  1
  P  P21  1  0.500000  0.153415  0.581921  1
  P  P22  1  0.000000  0.808968  0.714735  1
  P  P23  1  0.500000  0.190208  0.216061  1
  P  P24  1  0.000000  0.480426  0.461025  1
  P  P25  1  0.500000  0.519626  0.961263  1
