# generated using pymatgen
data_Dy4Y(RhO6)2
_symmetry_space_group_name_H-M   'P 1'
_cell_length_a   6.85620274
_cell_length_b   6.85620129
_cell_length_c   7.29285116
_cell_angle_alpha   74.47064471
_cell_angle_beta   74.47064923
_cell_angle_gamma   51.23999597
_symmetry_Int_Tables_number   1
_chemical_formula_structural   Dy4Y(RhO6)2
_chemical_formula_sum   'Dy4 Y1 Rh2 O12'
_cell_volume   255.26554525
_cell_formula_units_Z   1
loop_
 _symmetry_equiv_pos_site_id
 _symmetry_equiv_pos_as_xyz
  1  'x, y, z'
loop_
 _atom_site_type_symbol
 _atom_site_label
 _atom_site_symmetry_multiplicity
 _atom_site_fract_x
 _atom_site_fract_y
 _atom_site_fract_z
 _atom_site_occupancy
  Dy  Dy0  1  0.302061  0.302061  0.360062  1
  Dy  Dy1  1  0.697939  0.697939  0.639938  1
  Dy  Dy2  1  0.309175  0.309175  0.829407  1
  Dy  Dy3  1  0.690825  0.690825  0.170593  1
  Y  Y4  1  0.000000  0.000000  0.500000  1
  Rh  Rh5  1  0.753068  0.246932  0.000000  1
  Rh  Rh6  1  0.246932  0.753068  0.000000  1
  O  O7  1  0.901519  0.431231  0.915414  1
  O  O8  1  0.431231  0.901519  0.915414  1
  O  O9  1  0.098481  0.568769  0.084586  1
  O  O10  1  0.568769  0.098481  0.084586  1
  O  O11  1  0.097020  0.597343  0.573872  1
  O  O12  1  0.597343  0.097020  0.573872  1
  O  O13  1  0.902980  0.402657  0.426128  1
  O  O14  1  0.402657  0.902980  0.426128  1
  O  O15  1  0.999903  0.999903  0.817809  1
  O  O16  1  0.000097  0.000097  0.182191  1
  O  O17  1  0.500239  0.500239  0.809862  1
  O  O18  1  0.499761  0.499761  0.190138  1
