# generated using pymatgen
data_Li4CaW7N12
_symmetry_space_group_name_H-M   'P 1'
_cell_length_a   5.05488300
_cell_length_b   5.05488181
_cell_length_c   10.54045100
_cell_angle_alpha   90.00000000
_cell_angle_beta   90.00000000
_cell_angle_gamma   120.00000128
_symmetry_Int_Tables_number   1
_chemical_formula_structural   Li4CaW7N12
_chemical_formula_sum   'Li4 Ca1 W7 N12'
_cell_volume   233.24477992
_cell_formula_units_Z   1
loop_
 _symmetry_equiv_pos_site_id
 _symmetry_equiv_pos_as_xyz
  1  'x, y, z'
loop_
 _atom_site_type_symbol
 _atom_site_label
 _atom_site_symmetry_multiplicity
 _atom_site_fract_x
 _atom_site_fract_y
 _atom_site_fract_z
 _atom_site_occupancy
  Li  Li0  1  0.333333  0.666667  0.000000  1
  Li  Li1  1  0.333333  0.666667  0.500000  1
  Li  Li2  1  0.666667  0.333333  0.500000  1
  Li  Li3  1  0.666667  0.333333  0.000000  1
  Ca  Ca4  1  0.000000  0.000000  0.000000  1
  W  W5  1  0.000000  0.336120  0.260835  1
  W  W6  1  0.663880  0.000000  0.739165  1
  W  W7  1  0.336120  0.336120  0.739165  1
  W  W8  1  0.000000  0.000000  0.500000  1
  W  W9  1  0.663880  0.663880  0.260835  1
  W  W10  1  0.336120  0.000000  0.260835  1
  W  W11  1  0.000000  0.663880  0.739165  1
  N  N12  1  0.669957  0.669957  0.615554  1
  N  N13  1  0.659380  0.659380  0.858051  1
  N  N14  1  0.340620  0.340620  0.141949  1
  N  N15  1  0.330043  0.330043  0.384446  1
  N  N16  1  0.340620  0.000000  0.858051  1
  N  N17  1  0.330043  0.000000  0.615554  1
  N  N18  1  0.000000  0.669957  0.384446  1
  N  N19  1  0.000000  0.659380  0.141949  1
  N  N20  1  0.659380  0.000000  0.141949  1
  N  N21  1  0.669957  0.000000  0.384446  1
  N  N22  1  0.000000  0.340620  0.858051  1
  N  N23  1  0.000000  0.330043  0.615554  1
