# generated using pymatgen
data_Tb5Yb3(HfIr3)2
_symmetry_space_group_name_H-M   'P 1'
_cell_length_a   6.25663876
_cell_length_b   10.86133000
_cell_length_c   10.81238100
_cell_angle_alpha   90.00000000
_cell_angle_beta   89.75167265
_cell_angle_gamma   90.00000000
_symmetry_Int_Tables_number   1
_chemical_formula_structural   Tb5Yb3(HfIr3)2
_chemical_formula_sum   'Tb10 Yb6 Hf4 Ir12'
_cell_volume   734.75297269
_cell_formula_units_Z   2
loop_
 _symmetry_equiv_pos_site_id
 _symmetry_equiv_pos_as_xyz
  1  'x, y, z'
loop_
 _atom_site_type_symbol
 _atom_site_label
 _atom_site_symmetry_multiplicity
 _atom_site_fract_x
 _atom_site_fract_y
 _atom_site_fract_z
 _atom_site_occupancy
  Tb  Tb0  1  0.364667  0.834693  0.536655  1
  Tb  Tb1  1  0.864667  0.665307  0.536655  1
  Tb  Tb2  1  0.862403  0.834571  0.963116  1
  Tb  Tb3  1  0.362403  0.665429  0.963116  1
  Tb  Tb4  1  0.864774  0.536888  0.834240  1
  Tb  Tb5  1  0.364774  0.963112  0.834240  1
  Tb  Tb6  1  0.365057  0.536814  0.665569  1
  Tb  Tb7  1  0.865057  0.963186  0.665569  1
  Tb  Tb8  1  0.633193  0.167286  0.456787  1
  Tb  Tb9  1  0.133193  0.332714  0.456787  1
  Yb  Yb10  1  0.137093  0.166205  0.042605  1
  Yb  Yb11  1  0.637093  0.333795  0.042605  1
  Yb  Yb12  1  0.135885  0.459308  0.166159  1
  Yb  Yb13  1  0.635885  0.040693  0.166159  1
  Yb  Yb14  1  0.635570  0.461611  0.331926  1
  Yb  Yb15  1  0.135570  0.038390  0.331926  1
  Hf  Hf16  1  0.502763  0.750125  0.249758  1
  Hf  Hf17  1  0.002763  0.749875  0.249758  1
  Hf  Hf18  1  0.002762  0.250062  0.750596  1
  Hf  Hf19  1  0.502762  0.249938  0.750596  1
  Ir  Ir20  1  0.251877  0.884324  0.103187  1
  Ir  Ir21  1  0.751877  0.615676  0.103187  1
  Ir  Ir22  1  0.747796  0.887078  0.395847  1
  Ir  Ir23  1  0.247796  0.612922  0.395847  1
  Ir  Ir24  1  0.749954  0.104935  0.886281  1
  Ir  Ir25  1  0.249954  0.395065  0.886281  1
  Ir  Ir26  1  0.252779  0.108217  0.611322  1
  Ir  Ir27  1  0.752779  0.391783  0.611322  1
  Ir  Ir28  1  0.107170  0.749961  0.749970  1
  Ir  Ir29  1  0.607170  0.750039  0.749970  1
  Ir  Ir30  1  0.886255  0.250205  0.255982  1
  Ir  Ir31  1  0.386255  0.249795  0.255982  1
