# generated using pymatgen
data_BaLi2Gd4O8
_symmetry_space_group_name_H-M   'P 1'
_cell_length_a   6.97507756
_cell_length_b   6.97507898
_cell_length_c   9.73190316
_cell_angle_alpha   61.52401507
_cell_angle_beta   61.52400818
_cell_angle_gamma   29.91065787
_symmetry_Int_Tables_number   1
_chemical_formula_structural   BaLi2Gd4O8
_chemical_formula_sum   'Ba1 Li2 Gd4 O8'
_cell_volume   205.34365895
_cell_formula_units_Z   1
loop_
 _symmetry_equiv_pos_site_id
 _symmetry_equiv_pos_as_xyz
  1  'x, y, z'
loop_
 _atom_site_type_symbol
 _atom_site_label
 _atom_site_symmetry_multiplicity
 _atom_site_fract_x
 _atom_site_fract_y
 _atom_site_fract_z
 _atom_site_occupancy
  Ba  Ba0  1  0.500000  0.500000  0.000000  1
  Li  Li1  1  0.190594  0.190594  0.736589  1
  Li  Li2  1  0.809406  0.809406  0.263411  1
  Gd  Gd3  1  0.609859  0.609859  0.561254  1
  Gd  Gd4  1  0.390141  0.390141  0.438746  1
  Gd  Gd5  1  0.164078  0.164078  0.188233  1
  Gd  Gd6  1  0.835922  0.835922  0.811767  1
  O  O7  1  0.044736  0.044736  0.744618  1
  O  O8  1  0.955264  0.955264  0.255382  1
  O  O9  1  0.238564  0.238564  0.377424  1
  O  O10  1  0.761436  0.761436  0.622576  1
  O  O11  1  0.811935  0.811935  0.064879  1
  O  O12  1  0.188065  0.188065  0.935121  1
  O  O13  1  0.582976  0.582976  0.342805  1
  O  O14  1  0.417024  0.417024  0.657195  1
