# generated using pymatgen
data_Er12ZnInSi4
_symmetry_space_group_name_H-M   'P 1'
_cell_length_a   8.38855317
_cell_length_b   8.38855278
_cell_length_c   8.38855286
_cell_angle_alpha   111.88556762
_cell_angle_beta   111.92878214
_cell_angle_gamma   104.70201571
_symmetry_Int_Tables_number   1
_chemical_formula_structural   Er12ZnInSi4
_chemical_formula_sum   'Er12 Zn1 In1 Si4'
_cell_volume   452.06571969
_cell_formula_units_Z   1
loop_
 _symmetry_equiv_pos_site_id
 _symmetry_equiv_pos_as_xyz
  1  'x, y, z'
loop_
 _atom_site_type_symbol
 _atom_site_label
 _atom_site_symmetry_multiplicity
 _atom_site_fract_x
 _atom_site_fract_y
 _atom_site_fract_z
 _atom_site_occupancy
  Er  Er0  1  0.182214  0.272780  0.454994  1
  Er  Er1  1  0.817786  0.727220  0.545006  1
  Er  Er2  1  0.182214  0.727220  0.909433  1
  Er  Er3  1  0.817786  0.272780  0.090567  1
  Er  Er4  1  0.319308  0.615652  0.296344  1
  Er  Er5  1  0.680692  0.384348  0.703656  1
  Er  Er6  1  0.319308  0.022964  0.703656  1
  Er  Er7  1  0.680692  0.977036  0.296344  1
  Er  Er8  1  0.433672  0.235080  0.198592  1
  Er  Er9  1  0.566328  0.764920  0.801408  1
  Er  Er10  1  0.036488  0.235080  0.801408  1
  Er  Er11  1  0.963512  0.764920  0.198592  1
  Zn  Zn12  1  0.000000  0.000000  0.000000  1
  In  In13  1  0.500000  0.500000  0.000000  1
  Si  Si14  1  0.117241  0.617241  0.500000  1
  Si  Si15  1  0.882759  0.382759  0.500000  1
  Si  Si16  1  0.364519  0.000000  0.364519  1
  Si  Si17  1  0.635481  0.000000  0.635481  1
