# generated using pymatgen
data_Ta2MnSi(BRu2)2
_symmetry_space_group_name_H-M   'P 1'
_cell_length_a   9.11674200
_cell_length_b   9.11674200
_cell_length_c   2.96987800
_cell_angle_alpha   90.00000000
_cell_angle_beta   90.00000000
_cell_angle_gamma   90.00000000
_symmetry_Int_Tables_number   1
_chemical_formula_structural   Ta2MnSi(BRu2)2
_chemical_formula_sum   'Ta4 Mn2 Si2 B4 Ru8'
_cell_volume   246.84136451
_cell_formula_units_Z   2
loop_
 _symmetry_equiv_pos_site_id
 _symmetry_equiv_pos_as_xyz
  1  'x, y, z'
loop_
 _atom_site_type_symbol
 _atom_site_label
 _atom_site_symmetry_multiplicity
 _atom_site_fract_x
 _atom_site_fract_y
 _atom_site_fract_z
 _atom_site_occupancy
  Ta  Ta0  1  0.829764  0.670236  0.000000  1
  Ta  Ta1  1  0.170236  0.329764  0.000000  1
  Ta  Ta2  1  0.329764  0.829764  0.000000  1
  Ta  Ta3  1  0.670236  0.170236  0.000000  1
  Mn  Mn4  1  0.500000  0.000000  0.500000  1
  Mn  Mn5  1  0.000000  0.500000  0.500000  1
  Si  Si6  1  0.500000  0.500000  0.000000  1
  Si  Si7  1  0.000000  0.000000  0.000000  1
  B  B8  1  0.617300  0.882700  0.000000  1
  B  B9  1  0.382700  0.117300  0.000000  1
  B  B10  1  0.117300  0.617300  0.000000  1
  B  B11  1  0.882700  0.382700  0.000000  1
  Ru  Ru12  1  0.567523  0.712659  0.500000  1
  Ru  Ru13  1  0.432477  0.287341  0.500000  1
  Ru  Ru14  1  0.067523  0.787341  0.500000  1
  Ru  Ru15  1  0.932477  0.212659  0.500000  1
  Ru  Ru16  1  0.287341  0.567523  0.500000  1
  Ru  Ru17  1  0.712659  0.432477  0.500000  1
  Ru  Ru18  1  0.212659  0.067523  0.500000  1
  Ru  Ru19  1  0.787341  0.932477  0.500000  1
