# generated using pymatgen
data_Tm2Si13GeIr6
_symmetry_space_group_name_H-M   'P 1'
_cell_length_a   8.03503447
_cell_length_b   8.04797053
_cell_length_c   8.02959000
_cell_angle_alpha   56.72414870
_cell_angle_beta   57.01343642
_cell_angle_gamma   57.00306729
_symmetry_Int_Tables_number   1
_chemical_formula_structural   Tm2Si13GeIr6
_chemical_formula_sum   'Tm2 Si13 Ge1 Ir6'
_cell_volume   341.01099566
_cell_formula_units_Z   1
loop_
 _symmetry_equiv_pos_site_id
 _symmetry_equiv_pos_as_xyz
  1  'x, y, z'
loop_
 _atom_site_type_symbol
 _atom_site_label
 _atom_site_symmetry_multiplicity
 _atom_site_fract_x
 _atom_site_fract_y
 _atom_site_fract_z
 _atom_site_occupancy
  Tm  Tm0  1  0.499258  0.499320  0.500033  1
  Tm  Tm1  1  0.999101  0.000303  0.000072  1
  Si  Si2  1  0.567016  0.352254  0.169236  1
  Si  Si3  1  0.170875  0.568211  0.349509  1
  Si  Si4  1  0.063818  0.673159  0.851766  1
  Si  Si5  1  0.851032  0.063806  0.672798  1
  Si  Si6  1  0.673605  0.850378  0.063413  1
  Si  Si7  1  0.651690  0.824869  0.433669  1
  Si  Si8  1  0.436014  0.648399  0.826300  1
  Si  Si9  1  0.826626  0.436529  0.649856  1
  Si  Si10  1  0.934768  0.328696  0.149366  1
  Si  Si11  1  0.150555  0.933237  0.326794  1
  Si  Si12  1  0.323065  0.152109  0.940958  1
  Si  Si13  1  0.249366  0.249329  0.248430  1
  Si  Si14  1  0.749255  0.751447  0.749936  1
  Ge  Ge15  1  0.351620  0.169104  0.571513  1
  Ir  Ir16  1  0.929213  0.570479  0.249955  1
  Ir  Ir17  1  0.249820  0.924470  0.570084  1
  Ir  Ir18  1  0.571997  0.249833  0.927902  1
  Ir  Ir19  1  0.756887  0.068901  0.425226  1
  Ir  Ir20  1  0.428880  0.751171  0.069639  1
  Ir  Ir21  1  0.065540  0.433993  0.753545  1
