# generated using pymatgen
data_Ti12GaCu8Si3O4
_symmetry_space_group_name_H-M   'P 1'
_cell_length_a   7.93386139
_cell_length_b   7.93386120
_cell_length_c   7.93386102
_cell_angle_alpha   60.00202357
_cell_angle_beta   60.00202600
_cell_angle_gamma   60.00201984
_symmetry_Int_Tables_number   1
_chemical_formula_structural   Ti12GaCu8Si3O4
_chemical_formula_sum   'Ti12 Ga1 Cu8 Si3 O4'
_cell_volume   353.14959946
_cell_formula_units_Z   1
loop_
 _symmetry_equiv_pos_site_id
 _symmetry_equiv_pos_as_xyz
  1  'x, y, z'
loop_
 _atom_site_type_symbol
 _atom_site_label
 _atom_site_symmetry_multiplicity
 _atom_site_fract_x
 _atom_site_fract_y
 _atom_site_fract_z
 _atom_site_occupancy
  Ti  Ti0  1  0.937281  0.563263  0.563263  1
  Ti  Ti1  1  0.686737  0.312719  0.686737  1
  Ti  Ti2  1  0.935858  0.565004  0.935858  1
  Ti  Ti3  1  0.565004  0.935858  0.935858  1
  Ti  Ti4  1  0.314142  0.684996  0.314142  1
  Ti  Ti5  1  0.563263  0.937281  0.563263  1
  Ti  Ti6  1  0.686737  0.686737  0.312719  1
  Ti  Ti7  1  0.935858  0.935858  0.565004  1
  Ti  Ti8  1  0.314142  0.314142  0.684996  1
  Ti  Ti9  1  0.684996  0.314142  0.314142  1
  Ti  Ti10  1  0.563263  0.563263  0.937281  1
  Ti  Ti11  1  0.312719  0.686737  0.686737  1
  Ga  Ga12  1  0.125000  0.125000  0.125000  1
  Cu  Cu13  1  0.249875  0.914145  0.914145  1
  Cu  Cu14  1  0.332350  0.332350  0.332350  1
  Cu  Cu15  1  0.335855  0.335855  0.000125  1
  Cu  Cu16  1  0.914145  0.249875  0.914145  1
  Cu  Cu17  1  0.917650  0.917650  0.917650  1
  Cu  Cu18  1  0.000125  0.335855  0.335855  1
  Cu  Cu19  1  0.914145  0.914145  0.249875  1
  Cu  Cu20  1  0.335855  0.000125  0.335855  1
  Si  Si21  1  0.125000  0.625000  0.125000  1
  Si  Si22  1  0.125000  0.125000  0.625000  1
  Si  Si23  1  0.625000  0.125000  0.125000  1
  O  O24  1  0.625000  0.125000  0.625000  1
  O  O25  1  0.625000  0.625000  0.125000  1
  O  O26  1  0.125000  0.625000  0.625000  1
  O  O27  1  0.625000  0.625000  0.625000  1
