# generated using pymatgen
data_Zr6Ti16Ir5Os2
_symmetry_space_group_name_H-M   'P 1'
_cell_length_a   8.96648493
_cell_length_b   8.96569435
_cell_length_c   8.96569431
_cell_angle_alpha   60.05623235
_cell_angle_beta   59.99708774
_cell_angle_gamma   59.99708959
_symmetry_Int_Tables_number   1
_chemical_formula_structural   Zr6Ti16Ir5Os2
_chemical_formula_sum   'Zr6 Ti16 Ir5 Os2'
_cell_volume   509.84736314
_cell_formula_units_Z   1
loop_
 _symmetry_equiv_pos_site_id
 _symmetry_equiv_pos_as_xyz
  1  'x, y, z'
loop_
 _atom_site_type_symbol
 _atom_site_label
 _atom_site_symmetry_multiplicity
 _atom_site_fract_x
 _atom_site_fract_y
 _atom_site_fract_z
 _atom_site_occupancy
  Zr  Zr0  1  0.686636  0.686088  0.313912  1
  Zr  Zr1  1  0.313364  0.686088  0.313912  1
  Zr  Zr2  1  0.686585  0.313415  0.313415  1
  Zr  Zr3  1  0.313364  0.313912  0.686088  1
  Zr  Zr4  1  0.686636  0.313912  0.686088  1
  Zr  Zr5  1  0.313415  0.686585  0.686585  1
  Ti  Ti6  1  0.883715  0.881152  0.351419  1
  Ti  Ti7  1  0.883715  0.351419  0.881152  1
  Ti  Ti8  1  0.352117  0.882528  0.882528  1
  Ti  Ti9  1  0.882827  0.882528  0.882528  1
  Ti  Ti10  1  0.116285  0.118848  0.648581  1
  Ti  Ti11  1  0.116285  0.648581  0.118848  1
  Ti  Ti12  1  0.647883  0.117472  0.117472  1
  Ti  Ti13  1  0.117173  0.117472  0.117472  1
  Ti  Ti14  1  0.669497  0.669404  0.991600  1
  Ti  Ti15  1  0.669497  0.991600  0.669404  1
  Ti  Ti16  1  0.992663  0.668546  0.668546  1
  Ti  Ti17  1  0.670242  0.668546  0.668546  1
  Ti  Ti18  1  0.330503  0.330596  0.008400  1
  Ti  Ti19  1  0.330503  0.008400  0.330596  1
  Ti  Ti20  1  0.007337  0.331454  0.331454  1
  Ti  Ti21  1  0.329758  0.331454  0.331454  1
  Ir  Ir22  1  0.000000  0.000000  0.500000  1
  Ir  Ir23  1  0.500000  0.000000  0.500000  1
  Ir  Ir24  1  0.500000  0.500000  0.000000  1
  Ir  Ir25  1  0.000000  0.500000  0.000000  1
  Ir  Ir26  1  0.500000  0.000000  0.000000  1
  Os  Os27  1  0.000000  0.000000  0.000000  1
  Os  Os28  1  0.000000  0.500000  0.500000  1
