# generated using pymatgen
data_Rb4Ba(NbSe4)2
_symmetry_space_group_name_H-M   'P 1'
_cell_length_a   12.47471624
_cell_length_b   12.47471641
_cell_length_c   12.47471657
_cell_angle_alpha   133.22235446
_cell_angle_beta   128.48599144
_cell_angle_gamma   72.11215534
_symmetry_Int_Tables_number   1
_chemical_formula_structural   Rb4Ba(NbSe4)2
_chemical_formula_sum   'Rb8 Ba2 Nb4 Se16'
_cell_volume   1082.93422047
_cell_formula_units_Z   2
loop_
 _symmetry_equiv_pos_site_id
 _symmetry_equiv_pos_as_xyz
  1  'x, y, z'
loop_
 _atom_site_type_symbol
 _atom_site_label
 _atom_site_symmetry_multiplicity
 _atom_site_fract_x
 _atom_site_fract_y
 _atom_site_fract_z
 _atom_site_occupancy
  Rb  Rb0  1  0.499930  0.249930  0.250000  1
  Rb  Rb1  1  0.000070  0.750070  0.250000  1
  Rb  Rb2  1  0.576800  0.703255  0.126455  1
  Rb  Rb3  1  0.423200  0.296745  0.873545  1
  Rb  Rb4  1  0.500070  0.750070  0.750000  1
  Rb  Rb5  1  0.076800  0.450345  0.373545  1
  Rb  Rb6  1  0.923200  0.549655  0.626455  1
  Rb  Rb7  1  0.999930  0.249930  0.750000  1
  Ba  Ba8  1  0.250000  0.000000  0.250000  1
  Ba  Ba9  1  0.750000  0.000000  0.750000  1
  Nb  Nb10  1  0.131428  0.926426  0.794999  1
  Nb  Nb11  1  0.868572  0.073574  0.205001  1
  Nb  Nb12  1  0.368572  0.663572  0.294999  1
  Nb  Nb13  1  0.631428  0.336428  0.705001  1
  Se  Se14  1  0.598369  0.609143  0.376274  1
  Se  Se15  1  0.749591  0.980897  0.231306  1
  Se  Se16  1  0.897988  0.865495  0.967508  1
  Se  Se17  1  0.767131  0.390857  0.989226  1
  Se  Se18  1  0.732869  0.222095  0.123726  1
  Se  Se19  1  0.750409  0.481716  0.731306  1
  Se  Se20  1  0.250409  0.019103  0.768694  1
  Se  Se21  1  0.232869  0.609143  0.010774  1
  Se  Se22  1  0.249591  0.518284  0.268694  1
  Se  Se23  1  0.267131  0.777905  0.876274  1
  Se  Se24  1  0.102012  0.134505  0.032492  1
  Se  Se25  1  0.901631  0.777905  0.510774  1
  Se  Se26  1  0.098369  0.222095  0.489226  1
  Se  Se27  1  0.602012  0.069519  0.467508  1
  Se  Se28  1  0.401631  0.390857  0.623726  1
  Se  Se29  1  0.397988  0.930481  0.532492  1
