# generated using pymatgen
data_Ta5NbAl4(PdC)2
_symmetry_space_group_name_H-M   'P 1'
_cell_length_a   8.36591582
_cell_length_b   8.36591706
_cell_length_c   8.36278604
_cell_angle_alpha   59.94023733
_cell_angle_beta   59.94023257
_cell_angle_gamma   59.97400407
_symmetry_Int_Tables_number   1
_chemical_formula_structural   Ta5NbAl4(PdC)2
_chemical_formula_sum   'Ta10 Nb2 Al8 Pd4 C4'
_cell_volume   413.41371537
_cell_formula_units_Z   2
loop_
 _symmetry_equiv_pos_site_id
 _symmetry_equiv_pos_as_xyz
  1  'x, y, z'
loop_
 _atom_site_type_symbol
 _atom_site_label
 _atom_site_symmetry_multiplicity
 _atom_site_fract_x
 _atom_site_fract_y
 _atom_site_fract_z
 _atom_site_occupancy
  Ta  Ta0  1  0.681834  0.318300  0.318313  1
  Ta  Ta1  1  0.318037  0.681969  0.317692  1
  Ta  Ta2  1  0.682134  0.681477  0.318031  1
  Ta  Ta3  1  0.318410  0.317979  0.681806  1
  Ta  Ta4  1  0.568523  0.567866  0.931969  1
  Ta  Ta5  1  0.932607  0.567478  0.567740  1
  Ta  Ta6  1  0.568031  0.931963  0.932308  1
  Ta  Ta7  1  0.932021  0.931590  0.568194  1
  Ta  Ta8  1  0.682522  0.317393  0.682260  1
  Ta  Ta9  1  0.931700  0.568166  0.931687  1
  Nb  Nb10  1  0.567569  0.932526  0.567287  1
  Nb  Nb11  1  0.317474  0.682431  0.682713  1
  Al  Al12  1  0.916644  0.915007  0.915717  1
  Al  Al13  1  0.997350  0.334231  0.333458  1
  Al  Al14  1  0.334221  0.997095  0.335355  1
  Al  Al15  1  0.333441  0.335323  0.997061  1
  Al  Al16  1  0.915769  0.252650  0.916542  1
  Al  Al17  1  0.914677  0.916559  0.252939  1
  Al  Al18  1  0.252905  0.915779  0.914645  1
  Al  Al19  1  0.334993  0.333356  0.334283  1
  Pd  Pd20  1  0.125522  0.124478  0.125000  1
  Pd  Pd21  1  0.625292  0.125960  0.122323  1
  Pd  Pd22  1  0.124040  0.624708  0.127677  1
  Pd  Pd23  1  0.121427  0.128573  0.625000  1
  C  C24  1  0.627249  0.622751  0.625000  1
  C  C25  1  0.124641  0.624286  0.624633  1
  C  C26  1  0.625714  0.125359  0.625367  1
  C  C27  1  0.625256  0.624744  0.125000  1
