# generated using pymatgen
data_DyY4Ho(RuI3)2
_symmetry_space_group_name_H-M   'P 1'
_cell_length_a   4.23775500
_cell_length_b   8.90914932
_cell_length_c   12.33671510
_cell_angle_alpha   86.16779085
_cell_angle_beta   90.00000000
_cell_angle_gamma   90.00000000
_symmetry_Int_Tables_number   1
_chemical_formula_structural   DyY4Ho(RuI3)2
_chemical_formula_sum   'Dy1 Y4 Ho1 Ru2 I6'
_cell_volume   464.72867684
_cell_formula_units_Z   1
loop_
 _symmetry_equiv_pos_site_id
 _symmetry_equiv_pos_as_xyz
  1  'x, y, z'
loop_
 _atom_site_type_symbol
 _atom_site_label
 _atom_site_symmetry_multiplicity
 _atom_site_fract_x
 _atom_site_fract_y
 _atom_site_fract_z
 _atom_site_occupancy
  Dy  Dy0  1  0.750000  0.130770  0.125051  1
  Y  Y1  1  0.750000  0.098402  0.684810  1
  Y  Y2  1  0.250000  0.901468  0.315353  1
  Y  Y3  1  0.250000  0.261251  0.897362  1
  Y  Y4  1  0.750000  0.738671  0.102506  1
  Ho  Ho5  1  0.250000  0.869905  0.875095  1
  Ru  Ru6  1  0.750000  0.051829  0.907831  1
  Ru  Ru7  1  0.250000  0.947525  0.091878  1
  I  I8  1  0.250000  0.352289  0.636848  1
  I  I9  1  0.750000  0.647706  0.363163  1
  I  I10  1  0.750000  0.141585  0.392570  1
  I  I11  1  0.250000  0.858383  0.607551  1
  I  I12  1  0.250000  0.426324  0.132689  1
  I  I13  1  0.750000  0.573893  0.867292  1
