# generated using pymatgen
data_Sc8Al14Rh7Se
_symmetry_space_group_name_H-M   'P 1'
_cell_length_a   8.89639084
_cell_length_b   8.89650578
_cell_length_c   8.89635400
_cell_angle_alpha   120.07710338
_cell_angle_beta   119.84611016
_cell_angle_gamma   90.06599198
_symmetry_Int_Tables_number   1
_chemical_formula_structural   Sc8Al14Rh7Se
_chemical_formula_sum   'Sc8 Al14 Rh7 Se1'
_cell_volume   498.17533808
_cell_formula_units_Z   1
loop_
 _symmetry_equiv_pos_site_id
 _symmetry_equiv_pos_as_xyz
  1  'x, y, z'
loop_
 _atom_site_type_symbol
 _atom_site_label
 _atom_site_symmetry_multiplicity
 _atom_site_fract_x
 _atom_site_fract_y
 _atom_site_fract_z
 _atom_site_occupancy
  Sc  Sc0  1  0.799283  0.292593  0.080057  1
  Sc  Sc1  1  0.212548  0.292637  0.493333  1
  Sc  Sc2  1  0.203302  0.703280  0.499974  1
  Sc  Sc3  1  0.212540  0.719227  0.919953  1
  Sc  Sc4  1  0.799285  0.719225  0.506677  1
  Sc  Sc5  1  0.782713  0.282713  0.499991  1
  Sc  Sc6  1  0.380492  0.119904  0.739396  1
  Sc  Sc7  1  0.380509  0.641094  0.260600  1
  Al  Al8  1  0.164745  0.330616  0.165867  1
  Al  Al9  1  0.164750  0.998850  0.834108  1
  Al  Al10  1  0.159914  0.334310  0.825601  1
  Al  Al11  1  0.508696  0.334311  0.174395  1
  Al  Al12  1  0.833500  0.665021  0.831519  1
  Al  Al13  1  0.833510  0.001983  0.168480  1
  Al  Al14  1  0.832587  0.666093  0.166493  1
  Al  Al15  1  0.499612  0.666109  0.833526  1
  Al  Al16  1  0.380748  0.120380  0.260373  1
  Al  Al17  1  0.860014  0.120376  0.739624  1
  Al  Al18  1  0.620928  0.877893  0.256974  1
  Al  Al19  1  0.620924  0.363953  0.743029  1
  Al  Al20  1  0.621696  0.879395  0.742281  1
  Al  Al21  1  0.137118  0.879426  0.257723  1
  Rh  Rh22  1  0.994825  0.999806  0.499010  1
  Rh  Rh23  1  0.500748  0.999832  0.004946  1
  Rh  Rh24  1  0.500434  0.500417  0.999995  1
  Rh  Rh25  1  0.500803  0.495836  0.501003  1
  Rh  Rh26  1  0.994872  0.495827  0.995072  1
  Rh  Rh27  1  0.999889  0.999881  0.999993  1
  Rh  Rh28  1  0.506518  0.006510  0.500004  1
  Se  Se29  1  0.992489  0.492499  0.500003  1
