# generated using pymatgen
data_Sm2Dy4NiCl10
_symmetry_space_group_name_H-M   'P 1'
_cell_length_a   7.09824778
_cell_length_b   8.87426050
_cell_length_c   9.00823129
_cell_angle_alpha   108.39331459
_cell_angle_beta   96.15284021
_cell_angle_gamma   106.16843084
_symmetry_Int_Tables_number   1
_chemical_formula_structural   Sm2Dy4NiCl10
_chemical_formula_sum   'Sm2 Dy4 Ni1 Cl10'
_cell_volume   505.17534039
_cell_formula_units_Z   1
loop_
 _symmetry_equiv_pos_site_id
 _symmetry_equiv_pos_as_xyz
  1  'x, y, z'
loop_
 _atom_site_type_symbol
 _atom_site_label
 _atom_site_symmetry_multiplicity
 _atom_site_fract_x
 _atom_site_fract_y
 _atom_site_fract_z
 _atom_site_occupancy
  Sm  Sm0  1  0.638121  0.056589  0.754485  1
  Sm  Sm1  1  0.361879  0.943411  0.245515  1
  Dy  Dy2  1  0.859781  0.137821  0.182798  1
  Dy  Dy3  1  0.140219  0.862179  0.817202  1
  Dy  Dy4  1  0.531793  0.699230  0.901028  1
  Dy  Dy5  1  0.468207  0.300770  0.098972  1
  Ni  Ni6  1  0.500000  0.000000  0.000000  1
  Cl  Cl7  1  0.745317  0.078311  0.445514  1
  Cl  Cl8  1  0.254683  0.921689  0.554486  1
  Cl  Cl9  1  0.946821  0.826090  0.074205  1
  Cl  Cl10  1  0.053179  0.173910  0.925795  1
  Cl  Cl11  1  0.277170  0.250369  0.338130  1
  Cl  Cl12  1  0.722830  0.749631  0.661870  1
  Cl  Cl13  1  0.586730  0.375312  0.840991  1
  Cl  Cl14  1  0.413270  0.624688  0.159009  1
  Cl  Cl15  1  0.843114  0.448587  0.273482  1
  Cl  Cl16  1  0.156886  0.551413  0.726518  1
