# generated using pymatgen
data_Sr8Nb2AlCoO16
_symmetry_space_group_name_H-M   'P 1'
_cell_length_a   7.25542760
_cell_length_b   5.89593500
_cell_length_c   20.09378333
_cell_angle_alpha   90.00000000
_cell_angle_beta   97.80726487
_cell_angle_gamma   90.00000000
_symmetry_Int_Tables_number   1
_chemical_formula_structural   Sr8Nb2AlCoO16
_chemical_formula_sum   'Sr16 Nb4 Al2 Co2 O32'
_cell_volume   851.59480243
_cell_formula_units_Z   2
loop_
 _symmetry_equiv_pos_site_id
 _symmetry_equiv_pos_as_xyz
  1  'x, y, z'
loop_
 _atom_site_type_symbol
 _atom_site_label
 _atom_site_symmetry_multiplicity
 _atom_site_fract_x
 _atom_site_fract_y
 _atom_site_fract_z
 _atom_site_occupancy
  Sr  Sr0  1  0.698640  0.277919  0.044464  1
  Sr  Sr1  1  0.972022  0.754962  0.099134  1
  Sr  Sr2  1  0.496338  0.751272  0.136005  1
  Sr  Sr3  1  0.144293  0.288847  0.210362  1
  Sr  Sr4  1  0.855707  0.788845  0.289638  1
  Sr  Sr5  1  0.503662  0.251270  0.363995  1
  Sr  Sr6  1  0.027977  0.254961  0.400866  1
  Sr  Sr7  1  0.301361  0.777921  0.455536  1
  Sr  Sr8  1  0.711076  0.220330  0.547320  1
  Sr  Sr9  1  0.974711  0.748000  0.598787  1
  Sr  Sr10  1  0.496415  0.749000  0.636536  1
  Sr  Sr11  1  0.140620  0.212986  0.708464  1
  Sr  Sr12  1  0.859381  0.712984  0.791536  1
  Sr  Sr13  1  0.503585  0.248998  0.863464  1
  Sr  Sr14  1  0.025290  0.247999  0.901213  1
  Sr  Sr15  1  0.288923  0.720332  0.952680  1
  Nb  Nb16  1  0.660681  0.262560  0.210626  1
  Nb  Nb17  1  0.339321  0.762560  0.289374  1
  Nb  Nb18  1  0.660779  0.240952  0.710657  1
  Nb  Nb19  1  0.339221  0.740952  0.789343  1
  Al  Al20  1  0.264118  0.282751  0.557256  1
  Al  Al21  1  0.735883  0.782753  0.942743  1
  Co  Co22  1  0.255808  0.219787  0.055001  1
  Co  Co23  1  0.744194  0.719789  0.445000  1
  O  O24  1  0.665511  0.696015  0.021076  1
  O  O25  1  0.245654  0.900225  0.055331  1
  O  O26  1  0.048455  0.337436  0.081952  1
  O  O27  1  0.452817  0.305353  0.126920  1
  O  O28  1  0.785608  0.035145  0.160393  1
  O  O29  1  0.800450  0.516295  0.181736  1
  O  O30  1  0.182249  0.717271  0.204475  1
  O  O31  1  0.500484  0.988463  0.242272  1
  O  O32  1  0.499515  0.488463  0.257728  1
  O  O33  1  0.817753  0.217271  0.295525  1
  O  O34  1  0.199550  0.016295  0.318264  1
  O  O35  1  0.214390  0.535145  0.339607  1
  O  O36  1  0.547183  0.805353  0.373080  1
  O  O37  1  0.951544  0.837436  0.418048  1
  O  O38  1  0.754346  0.400225  0.444668  1
  O  O39  1  0.334489  0.196014  0.478923  1
  O  O40  1  0.657230  0.794749  0.526222  1
  O  O41  1  0.245606  0.583713  0.557215  1
  O  O42  1  0.059849  0.157020  0.580303  1
  O  O43  1  0.448774  0.209280  0.625167  1
  O  O44  1  0.788041  0.466418  0.660844  1
  O  O45  1  0.797365  0.988321  0.679882  1
  O  O46  1  0.179991  0.781683  0.705324  1
  O  O47  1  0.502499  0.513249  0.743840  1
  O  O48  1  0.497502  0.013249  0.756161  1
  O  O49  1  0.820010  0.281682  0.794676  1
  O  O50  1  0.202635  0.488321  0.820118  1
  O  O51  1  0.211960  0.966418  0.839156  1
  O  O52  1  0.551225  0.709280  0.874833  1
  O  O53  1  0.940152  0.657020  0.919697  1
  O  O54  1  0.754395  0.083713  0.942785  1
  O  O55  1  0.342771  0.294749  0.973778  1
