# generated using pymatgen
data_CaEu3Sc8O16
_symmetry_space_group_name_H-M   'P 1'
_cell_length_a   3.19177100
_cell_length_b   9.64657060
_cell_length_c   11.30501570
_cell_angle_alpha   90.04026148
_cell_angle_beta   90.00000000
_cell_angle_gamma   90.00000000
_symmetry_Int_Tables_number   1
_chemical_formula_structural   CaEu3Sc8O16
_chemical_formula_sum   'Ca1 Eu3 Sc8 O16'
_cell_volume   348.07732593
_cell_formula_units_Z   1
loop_
 _symmetry_equiv_pos_site_id
 _symmetry_equiv_pos_as_xyz
  1  'x, y, z'
loop_
 _atom_site_type_symbol
 _atom_site_label
 _atom_site_symmetry_multiplicity
 _atom_site_fract_x
 _atom_site_fract_y
 _atom_site_fract_z
 _atom_site_occupancy
  Ca  Ca0  1  0.250000  0.243717  0.348344  1
  Eu  Eu1  1  0.750000  0.255671  0.845274  1
  Eu  Eu2  1  0.250000  0.745326  0.154030  1
  Eu  Eu3  1  0.750000  0.755213  0.653006  1
  Sc  Sc4  1  0.250000  0.578734  0.893582  1
  Sc  Sc5  1  0.750000  0.419645  0.108409  1
  Sc  Sc6  1  0.250000  0.080619  0.604815  1
  Sc  Sc7  1  0.750000  0.922268  0.392493  1
  Sc  Sc8  1  0.750000  0.931098  0.889758  1
  Sc  Sc9  1  0.250000  0.072123  0.113216  1
  Sc  Sc10  1  0.750000  0.428747  0.608468  1
  Sc  Sc11  1  0.250000  0.567003  0.387624  1
  O  O12  1  0.250000  0.576272  0.572768  1
  O  O13  1  0.750000  0.417685  0.423112  1
  O  O14  1  0.250000  0.078430  0.926672  1
  O  O15  1  0.750000  0.924268  0.075259  1
  O  O16  1  0.250000  0.477878  0.216304  1
  O  O17  1  0.750000  0.521241  0.783191  1
  O  O18  1  0.250000  0.978294  0.283285  1
  O  O19  1  0.750000  0.023301  0.715333  1
  O  O20  1  0.250000  0.882011  0.521464  1
  O  O21  1  0.750000  0.122206  0.474324  1
  O  O22  1  0.250000  0.379071  0.979189  1
  O  O23  1  0.750000  0.618965  0.022347  1
  O  O24  1  0.750000  0.706481  0.336754  1
  O  O25  1  0.250000  0.292561  0.663027  1
  O  O26  1  0.750000  0.208365  0.171412  1
  O  O27  1  0.250000  0.792807  0.836541  1
