# generated using pymatgen
data_CsMg3(In3Rh)2
_symmetry_space_group_name_H-M   'P 1'
_cell_length_a   9.11905900
_cell_length_b   9.11906033
_cell_length_c   4.09202800
_cell_angle_alpha   90.00000000
_cell_angle_beta   90.00000000
_cell_angle_gamma   119.99999880
_symmetry_Int_Tables_number   1
_chemical_formula_structural   CsMg3(In3Rh)2
_chemical_formula_sum   'Cs1 Mg3 In6 Rh2'
_cell_volume   294.69267990
_cell_formula_units_Z   1
loop_
 _symmetry_equiv_pos_site_id
 _symmetry_equiv_pos_as_xyz
  1  'x, y, z'
loop_
 _atom_site_type_symbol
 _atom_site_label
 _atom_site_symmetry_multiplicity
 _atom_site_fract_x
 _atom_site_fract_y
 _atom_site_fract_z
 _atom_site_occupancy
  Cs  Cs0  1  0.000000  0.000000  0.000000  1
  Mg  Mg1  1  0.000000  0.500000  0.000000  1
  Mg  Mg2  1  0.500000  0.500000  0.000000  1
  Mg  Mg3  1  0.500000  0.000000  0.000000  1
  In  In4  1  0.583920  0.791959  0.500000  1
  In  In5  1  0.208041  0.791959  0.500000  1
  In  In6  1  0.208041  0.416080  0.500000  1
  In  In7  1  0.791959  0.583920  0.500000  1
  In  In8  1  0.791959  0.208041  0.500000  1
  In  In9  1  0.416080  0.208041  0.500000  1
  Rh  Rh10  1  0.333333  0.666667  0.000000  1
  Rh  Rh11  1  0.666667  0.333333  0.000000  1
