# generated using pymatgen
data_CeHo7(HgIr)2
_symmetry_space_group_name_H-M   'P 1'
_cell_length_a   9.58103916
_cell_length_b   9.58103862
_cell_length_c   9.60775600
_cell_angle_alpha   59.90771885
_cell_angle_beta   59.90772075
_cell_angle_gamma   59.88517829
_symmetry_Int_Tables_number   1
_chemical_formula_structural   CeHo7(HgIr)2
_chemical_formula_sum   'Ce2 Ho14 Hg4 Ir4'
_cell_volume   622.22545276
_cell_formula_units_Z   2
loop_
 _symmetry_equiv_pos_site_id
 _symmetry_equiv_pos_as_xyz
  1  'x, y, z'
loop_
 _atom_site_type_symbol
 _atom_site_label
 _atom_site_symmetry_multiplicity
 _atom_site_fract_x
 _atom_site_fract_y
 _atom_site_fract_z
 _atom_site_occupancy
  Ce  Ce0  1  0.597502  0.597502  0.600016  1
  Ce  Ce1  1  0.597502  0.597502  0.204982  1
  Ho  Ho2  1  0.604548  0.191747  0.601853  1
  Ho  Ho3  1  0.191747  0.604548  0.601853  1
  Ho  Ho4  1  0.061451  0.439006  0.440115  1
  Ho  Ho5  1  0.439006  0.061451  0.059427  1
  Ho  Ho6  1  0.439006  0.061451  0.440115  1
  Ho  Ho7  1  0.061451  0.439006  0.059427  1
  Ho  Ho8  1  0.437780  0.437780  0.062220  1
  Ho  Ho9  1  0.061299  0.061299  0.438701  1
  Ho  Ho10  1  0.189077  0.812611  0.812757  1
  Ho  Ho11  1  0.812611  0.189077  0.185555  1
  Ho  Ho12  1  0.812611  0.189077  0.812757  1
  Ho  Ho13  1  0.189077  0.812611  0.185555  1
  Ho  Ho14  1  0.813001  0.813001  0.186999  1
  Ho  Ho15  1  0.190067  0.190067  0.809933  1
  Hg  Hg16  1  0.834684  0.834684  0.834512  1
  Hg  Hg17  1  0.834684  0.834684  0.496119  1
  Hg  Hg18  1  0.834718  0.493409  0.835936  1
  Hg  Hg19  1  0.493409  0.834718  0.835936  1
  Ir  Ir20  1  0.393216  0.393216  0.392338  1
  Ir  Ir21  1  0.393216  0.393216  0.821232  1
  Ir  Ir22  1  0.395772  0.822569  0.390830  1
  Ir  Ir23  1  0.822569  0.395772  0.390830  1
