# generated using pymatgen
data_PrIn2FeIr8
_symmetry_space_group_name_H-M   'P 1'
_cell_length_a   5.25517300
_cell_length_b   8.82515000
_cell_length_c   8.82515000
_cell_angle_alpha   90.00000000
_cell_angle_beta   90.00000000
_cell_angle_gamma   90.00000000
_symmetry_Int_Tables_number   1
_chemical_formula_structural   PrIn2FeIr8
_chemical_formula_sum   'Pr2 In4 Fe2 Ir16'
_cell_volume   409.29007091
_cell_formula_units_Z   2
loop_
 _symmetry_equiv_pos_site_id
 _symmetry_equiv_pos_as_xyz
  1  'x, y, z'
loop_
 _atom_site_type_symbol
 _atom_site_label
 _atom_site_symmetry_multiplicity
 _atom_site_fract_x
 _atom_site_fract_y
 _atom_site_fract_z
 _atom_site_occupancy
  Pr  Pr0  1  0.000000  0.500000  0.500000  1
  Pr  Pr1  1  0.000000  0.000000  0.000000  1
  In  In2  1  0.000000  0.623138  0.123138  1
  In  In3  1  0.000000  0.376862  0.876862  1
  In  In4  1  0.000000  0.876862  0.623138  1
  In  In5  1  0.000000  0.123138  0.376862  1
  Fe  Fe6  1  0.500000  0.000000  0.500000  1
  Fe  Fe7  1  0.500000  0.500000  0.000000  1
  Ir  Ir8  1  0.757007  0.174754  0.674754  1
  Ir  Ir9  1  0.757007  0.825246  0.325246  1
  Ir  Ir10  1  0.757007  0.325246  0.174754  1
  Ir  Ir11  1  0.757007  0.674754  0.825246  1
  Ir  Ir12  1  0.242993  0.825246  0.325246  1
  Ir  Ir13  1  0.242993  0.174754  0.674754  1
  Ir  Ir14  1  0.242993  0.674754  0.825246  1
  Ir  Ir15  1  0.242993  0.325246  0.174754  1
  Ir  Ir16  1  0.500000  0.707546  0.563632  1
  Ir  Ir17  1  0.500000  0.292454  0.436368  1
  Ir  Ir18  1  0.500000  0.792454  0.063632  1
  Ir  Ir19  1  0.500000  0.207546  0.936368  1
  Ir  Ir20  1  0.500000  0.563632  0.292454  1
  Ir  Ir21  1  0.500000  0.436368  0.707546  1
  Ir  Ir22  1  0.500000  0.063632  0.207546  1
  Ir  Ir23  1  0.500000  0.936368  0.792454  1
