# generated using pymatgen
data_DyLu3(Fe2Br)2
_symmetry_space_group_name_H-M   'P 1'
_cell_length_a   3.88420000
_cell_length_b   3.88420011
_cell_length_c   16.24269900
_cell_angle_alpha   90.00000000
_cell_angle_beta   90.00000000
_cell_angle_gamma   119.99999907
_symmetry_Int_Tables_number   1
_chemical_formula_structural   DyLu3(Fe2Br)2
_chemical_formula_sum   'Dy1 Lu3 Fe4 Br2'
_cell_volume   212.22278632
_cell_formula_units_Z   1
loop_
 _symmetry_equiv_pos_site_id
 _symmetry_equiv_pos_as_xyz
  1  'x, y, z'
loop_
 _atom_site_type_symbol
 _atom_site_label
 _atom_site_symmetry_multiplicity
 _atom_site_fract_x
 _atom_site_fract_y
 _atom_site_fract_z
 _atom_site_occupancy
  Dy  Dy0  1  0.000000  0.000000  0.890220  1
  Lu  Lu1  1  0.000000  0.000000  0.108806  1
  Lu  Lu2  1  0.000000  0.000000  0.392669  1
  Lu  Lu3  1  0.000000  0.000000  0.606138  1
  Fe  Fe4  1  0.333334  0.666667  0.008667  1
  Fe  Fe5  1  0.333334  0.666667  0.493378  1
  Fe  Fe6  1  0.666666  0.333334  0.505920  1
  Fe  Fe7  1  0.666666  0.333334  0.995469  1
  Br  Br8  1  0.666666  0.333334  0.250716  1
  Br  Br9  1  0.333334  0.666667  0.748017  1
