# generated using pymatgen
data_Ho2Sc3In4PtAu
_symmetry_space_group_name_H-M   'P 1'
_cell_length_a   3.54828800
_cell_length_b   7.92407803
_cell_length_c   17.87508887
_cell_angle_alpha   90.22436798
_cell_angle_beta   90.00000000
_cell_angle_gamma   90.00000000
_symmetry_Int_Tables_number   1
_chemical_formula_structural   Ho2Sc3In4PtAu
_chemical_formula_sum   'Ho4 Sc6 In8 Pt2 Au2'
_cell_volume   502.58842926
_cell_formula_units_Z   2
loop_
 _symmetry_equiv_pos_site_id
 _symmetry_equiv_pos_as_xyz
  1  'x, y, z'
loop_
 _atom_site_type_symbol
 _atom_site_label
 _atom_site_symmetry_multiplicity
 _atom_site_fract_x
 _atom_site_fract_y
 _atom_site_fract_z
 _atom_site_occupancy
  Ho  Ho0  1  0.000000  0.249831  0.215036  1
  Ho  Ho1  1  0.000000  0.750169  0.784964  1
  Ho  Ho2  1  0.000000  0.267450  0.720300  1
  Ho  Ho3  1  0.000000  0.732550  0.279700  1
  Sc  Sc4  1  0.000000  0.120986  0.421380  1
  Sc  Sc5  1  0.000000  0.879014  0.578620  1
  Sc  Sc6  1  0.000000  0.383967  0.917768  1
  Sc  Sc7  1  0.000000  0.616033  0.082232  1
  Sc  Sc8  1  0.000000  0.000000  0.000000  1
  Sc  Sc9  1  0.000000  0.500000  0.500000  1
  In  In10  1  0.500000  0.417792  0.356011  1
  In  In11  1  0.500000  0.582208  0.643989  1
  In  In12  1  0.500000  0.082815  0.856589  1
  In  In13  1  0.500000  0.917185  0.143411  1
  In  In14  1  0.500000  0.293902  0.059573  1
  In  In15  1  0.500000  0.706098  0.940427  1
  In  In16  1  0.500000  0.208310  0.561803  1
  In  In17  1  0.500000  0.791690  0.438197  1
  Pt  Pt18  1  0.500000  0.468357  0.809197  1
  Pt  Pt19  1  0.500000  0.531643  0.190803  1
  Au  Au20  1  0.500000  0.032167  0.306963  1
  Au  Au21  1  0.500000  0.967833  0.693037  1
