# generated using pymatgen
data_Dy4HoSi6P6Ir19
_symmetry_space_group_name_H-M   'P 1'
_cell_length_a   12.80005601
_cell_length_b   12.80121088
_cell_length_c   3.95238800
_cell_angle_alpha   90.00000000
_cell_angle_beta   90.00000000
_cell_angle_gamma   119.99202631
_symmetry_Int_Tables_number   1
_chemical_formula_structural   Dy4HoSi6P6Ir19
_chemical_formula_sum   'Dy4 Ho1 Si6 P6 Ir19'
_cell_volume   560.90332565
_cell_formula_units_Z   1
loop_
 _symmetry_equiv_pos_site_id
 _symmetry_equiv_pos_as_xyz
  1  'x, y, z'
loop_
 _atom_site_type_symbol
 _atom_site_label
 _atom_site_symmetry_multiplicity
 _atom_site_fract_x
 _atom_site_fract_y
 _atom_site_fract_z
 _atom_site_occupancy
  Dy  Dy0  1  0.333345  0.666666  0.500000  1
  Dy  Dy1  1  0.666660  0.333323  0.500000  1
  Dy  Dy2  1  0.183906  0.185461  0.000000  1
  Dy  Dy3  1  0.814523  0.998419  0.000000  1
  Ho  Ho4  1  0.001618  0.816129  0.000000  1
  Si  Si5  1  0.000710  0.635965  0.500000  1
  Si  Si6  1  0.364173  0.364916  0.500000  1
  Si  Si7  1  0.635088  0.999265  0.500000  1
  Si  Si8  1  0.519597  0.682203  0.000000  1
  Si  Si9  1  0.317825  0.837401  0.000000  1
  Si  Si10  1  0.162607  0.480431  0.000000  1
  P  P11  1  0.483679  0.177786  0.000000  1
  P  P12  1  0.694069  0.516323  0.000000  1
  P  P13  1  0.822216  0.305922  0.000000  1
  P  P14  1  0.996256  0.176401  0.500000  1
  P  P15  1  0.823664  0.819802  0.500000  1
  P  P16  1  0.180098  0.003634  0.500000  1
  Ir  Ir17  1  0.515481  0.868983  0.000000  1
  Ir  Ir18  1  0.130972  0.646523  0.000000  1
  Ir  Ir19  1  0.353588  0.484560  0.000000  1
  Ir  Ir20  1  0.494456  0.368454  0.000000  1
  Ir  Ir21  1  0.873969  0.505601  0.000000  1
  Ir  Ir22  1  0.631583  0.126033  0.000000  1
  Ir  Ir23  1  0.014882  0.457887  0.500000  1
  Ir  Ir24  1  0.542271  0.557081  0.500000  1
  Ir  Ir25  1  0.442926  0.985087  0.500000  1
  Ir  Ir26  1  0.993621  0.277784  0.000000  1
  Ir  Ir27  1  0.722347  0.715817  0.000000  1
  Ir  Ir28  1  0.284041  0.006312  0.000000  1
  Ir  Ir29  1  0.632734  0.808784  0.500000  1
  Ir  Ir30  1  0.190839  0.823898  0.500000  1
  Ir  Ir31  1  0.176093  0.367257  0.500000  1
  Ir  Ir32  1  0.381946  0.182703  0.500000  1
  Ir  Ir33  1  0.800931  0.618234  0.500000  1
  Ir  Ir34  1  0.817281  0.199228  0.500000  1
  Ir  Ir35  1  0.000007  0.999730  0.500000  1
