# generated using pymatgen
data_LiTa5TiH16
_symmetry_space_group_name_H-M   'P 1'
_cell_length_a   6.36737365
_cell_length_b   6.18930055
_cell_length_c   6.36737355
_cell_angle_alpha   60.92088412
_cell_angle_beta   58.03305653
_cell_angle_gamma   60.92087846
_symmetry_Int_Tables_number   1
_chemical_formula_structural   LiTa5TiH16
_chemical_formula_sum   'Li1 Ta5 Ti1 H16'
_cell_volume   176.97541152
_cell_formula_units_Z   1
loop_
 _symmetry_equiv_pos_site_id
 _symmetry_equiv_pos_as_xyz
  1  'x, y, z'
loop_
 _atom_site_type_symbol
 _atom_site_label
 _atom_site_symmetry_multiplicity
 _atom_site_fract_x
 _atom_site_fract_y
 _atom_site_fract_z
 _atom_site_occupancy
  Li  Li0  1  0.500000  0.000000  0.500000  1
  Ta  Ta1  1  0.000000  0.000000  0.500000  1
  Ta  Ta2  1  0.000000  0.500000  0.500000  1
  Ta  Ta3  1  0.500000  0.500000  0.000000  1
  Ta  Ta4  1  0.000000  0.500000  0.000000  1
  Ta  Ta5  1  0.500000  0.000000  0.000000  1
  Ti  Ti6  1  0.000000  0.000000  0.000000  1
  H  H7  1  0.869629  0.877457  0.375457  1
  H  H8  1  0.879534  0.366384  0.879534  1
  H  H9  1  0.375457  0.877457  0.869629  1
  H  H10  1  0.879534  0.874548  0.879534  1
  H  H11  1  0.130371  0.122543  0.624543  1
  H  H12  1  0.120466  0.633616  0.120466  1
  H  H13  1  0.624543  0.122543  0.130371  1
  H  H14  1  0.120466  0.125452  0.120466  1
  H  H15  1  0.617182  0.617074  0.148672  1
  H  H16  1  0.626600  0.128918  0.626600  1
  H  H17  1  0.148672  0.617074  0.617182  1
  H  H18  1  0.626600  0.617882  0.626600  1
  H  H19  1  0.382818  0.382926  0.851328  1
  H  H20  1  0.373400  0.871082  0.373400  1
  H  H21  1  0.851328  0.382926  0.382818  1
  H  H22  1  0.373400  0.382118  0.373400  1
