# generated using pymatgen
data_Lu20Bi8RuPt3
_symmetry_space_group_name_H-M   'P 1'
_cell_length_a   7.85406000
_cell_length_b   8.81949800
_cell_length_c   12.12568600
_cell_angle_alpha   90.00000000
_cell_angle_beta   90.06467065
_cell_angle_gamma   90.00000000
_symmetry_Int_Tables_number   1
_chemical_formula_structural   Lu20Bi8RuPt3
_chemical_formula_sum   'Lu20 Bi8 Ru1 Pt3'
_cell_volume   839.93198958
_cell_formula_units_Z   1
loop_
 _symmetry_equiv_pos_site_id
 _symmetry_equiv_pos_as_xyz
  1  'x, y, z'
loop_
 _atom_site_type_symbol
 _atom_site_label
 _atom_site_symmetry_multiplicity
 _atom_site_fract_x
 _atom_site_fract_y
 _atom_site_fract_z
 _atom_site_occupancy
  Lu  Lu0  1  0.832738  0.750000  0.785439  1
  Lu  Lu1  1  0.164694  0.250000  0.211824  1
  Lu  Lu2  1  0.338456  0.250000  0.709262  1
  Lu  Lu3  1  0.658110  0.750000  0.295082  1
  Lu  Lu4  1  0.378397  0.750000  0.695205  1
  Lu  Lu5  1  0.624903  0.250000  0.302181  1
  Lu  Lu6  1  0.874402  0.250000  0.803903  1
  Lu  Lu7  1  0.124681  0.750000  0.195070  1
  Lu  Lu8  1  0.946391  0.750000  0.500417  1
  Lu  Lu9  1  0.053147  0.250000  0.499838  1
  Lu  Lu10  1  0.449288  0.250000  0.001770  1
  Lu  Lu11  1  0.552702  0.750000  0.000041  1
  Lu  Lu12  1  0.675652  0.041474  0.564655  1
  Lu  Lu13  1  0.324792  0.949228  0.435861  1
  Lu  Lu14  1  0.177701  0.953420  0.932353  1
  Lu  Lu15  1  0.324792  0.550772  0.435861  1
  Lu  Lu16  1  0.823049  0.047443  0.066597  1
  Lu  Lu17  1  0.675652  0.458526  0.564655  1
  Lu  Lu18  1  0.823049  0.452557  0.066597  1
  Lu  Lu19  1  0.177701  0.546580  0.932353  1
  Bi  Bi20  1  0.568613  0.488058  0.828609  1
  Bi  Bi21  1  0.430816  0.511639  0.172462  1
  Bi  Bi22  1  0.068037  0.509803  0.672744  1
  Bi  Bi23  1  0.430816  0.988361  0.172462  1
  Bi  Bi24  1  0.932808  0.489874  0.327314  1
  Bi  Bi25  1  0.568613  0.011942  0.828609  1
  Bi  Bi26  1  0.932808  0.010126  0.327314  1
  Bi  Bi27  1  0.068037  0.990197  0.672744  1
  Ru  Ru28  1  0.576503  0.750000  0.513810  1
  Pt  Pt29  1  0.421660  0.250000  0.487002  1
  Pt  Pt30  1  0.076746  0.250000  0.989097  1
  Pt  Pt31  1  0.924245  0.750000  0.008869  1
