# generated using pymatgen
data_Pr4Al15(GaIr2)3
_symmetry_space_group_name_H-M   'P 1'
_cell_length_a   7.61722917
_cell_length_b   7.61544177
_cell_length_c   9.69809800
_cell_angle_alpha   90.00000000
_cell_angle_beta   90.00000000
_cell_angle_gamma   119.35334955
_symmetry_Int_Tables_number   1
_chemical_formula_structural   Pr4Al15(GaIr2)3
_chemical_formula_sum   'Pr4 Al15 Ga3 Ir6'
_cell_volume   490.34584483
_cell_formula_units_Z   1
loop_
 _symmetry_equiv_pos_site_id
 _symmetry_equiv_pos_as_xyz
  1  'x, y, z'
loop_
 _atom_site_type_symbol
 _atom_site_label
 _atom_site_symmetry_multiplicity
 _atom_site_fract_x
 _atom_site_fract_y
 _atom_site_fract_z
 _atom_site_occupancy
  Pr  Pr0  1  0.998161  0.673568  0.250000  1
  Pr  Pr1  1  0.005639  0.326510  0.750000  1
  Pr  Pr2  1  0.668946  0.990629  0.250000  1
  Pr  Pr3  1  0.326322  0.004278  0.750000  1
  Al  Al4  1  0.002771  0.335205  0.069926  1
  Al  Al5  1  0.996831  0.664046  0.928929  1
  Al  Al6  1  0.996831  0.664046  0.571071  1
  Al  Al7  1  0.336242  0.004904  0.429665  1
  Al  Al8  1  0.002771  0.335205  0.430074  1
  Al  Al9  1  0.664384  0.997540  0.570926  1
  Al  Al10  1  0.664384  0.997540  0.929074  1
  Al  Al11  1  0.336242  0.004904  0.070335  1
  Al  Al12  1  0.335368  0.335488  0.550395  1
  Al  Al13  1  0.665538  0.664964  0.453994  1
  Al  Al14  1  0.665538  0.664964  0.046006  1
  Al  Al15  1  0.335368  0.335488  0.949605  1
  Al  Al16  1  0.662925  0.454180  0.750000  1
  Al  Al17  1  0.546539  0.339229  0.250000  1
  Al  Al18  1  0.454009  0.662420  0.750000  1
  Ga  Ga19  1  0.133155  0.134099  0.250000  1
  Ga  Ga20  1  0.863614  0.863426  0.750000  1
  Ga  Ga21  1  0.338257  0.542654  0.250000  1
  Ir  Ir22  1  0.670232  0.330407  0.000468  1
  Ir  Ir23  1  0.329774  0.671563  0.997407  1
  Ir  Ir24  1  0.329774  0.671563  0.502593  1
  Ir  Ir25  1  0.670232  0.330407  0.499532  1
  Ir  Ir26  1  0.000075  0.000386  0.999989  1
  Ir  Ir27  1  0.000075  0.000386  0.500011  1
