# generated using pymatgen
data_Tb2Ti3P7Pd9
_symmetry_space_group_name_H-M   'P 1'
_cell_length_a   3.89316800
_cell_length_b   9.88340057
_cell_length_c   9.88276002
_cell_angle_alpha   120.00345383
_cell_angle_beta   89.99969582
_cell_angle_gamma   90.00002542
_symmetry_Int_Tables_number   1
_chemical_formula_structural   Tb2Ti3P7Pd9
_chemical_formula_sum   'Tb2 Ti3 P7 Pd9'
_cell_volume   329.30877845
_cell_formula_units_Z   1
loop_
 _symmetry_equiv_pos_site_id
 _symmetry_equiv_pos_as_xyz
  1  'x, y, z'
loop_
 _atom_site_type_symbol
 _atom_site_label
 _atom_site_symmetry_multiplicity
 _atom_site_fract_x
 _atom_site_fract_y
 _atom_site_fract_z
 _atom_site_occupancy
  Tb  Tb0  1  0.261944  0.666750  0.333389  1
  Tb  Tb1  1  0.761928  0.333209  0.666488  1
  Ti  Ti2  1  0.761921  0.098452  0.871840  1
  Ti  Ti3  1  0.761926  0.127929  0.226503  1
  Ti  Ti4  1  0.761923  0.773526  0.901567  1
  P  P5  1  0.262117  0.000020  0.000032  1
  P  P6  1  0.761869  0.882859  0.592726  1
  P  P7  1  0.761859  0.407117  0.290121  1
  P  P8  1  0.761857  0.709908  0.117155  1
  P  P9  1  0.261823  0.120422  0.408309  1
  P  P10  1  0.261825  0.591792  0.712105  1
  P  P11  1  0.261827  0.288044  0.879773  1
  Pd  Pd12  1  0.261905  0.877652  0.153306  1
  Pd  Pd13  1  0.261916  0.846664  0.724458  1
  Pd  Pd14  1  0.261908  0.275550  0.122083  1
  Pd  Pd15  1  0.761907  0.615245  0.556565  1
  Pd  Pd16  1  0.761895  0.443548  0.058923  1
  Pd  Pd17  1  0.761893  0.941334  0.384696  1
  Pd  Pd18  1  0.261928  0.373648  0.443913  1
  Pd  Pd19  1  0.261919  0.555811  0.929393  1
  Pd  Pd20  1  0.261908  0.070517  0.626655  1
