# generated using pymatgen
data_NaTbNd5RhI12
_symmetry_space_group_name_H-M   'P 1'
_cell_length_a   10.06515294
_cell_length_b   10.00072756
_cell_length_c   9.98984323
_cell_angle_alpha   106.85095444
_cell_angle_beta   107.08230278
_cell_angle_gamma   106.69910602
_symmetry_Int_Tables_number   1
_chemical_formula_structural   NaTbNd5RhI12
_chemical_formula_sum   'Na1 Tb1 Nd5 Rh1 I12'
_cell_volume   840.22151063
_cell_formula_units_Z   1
loop_
 _symmetry_equiv_pos_site_id
 _symmetry_equiv_pos_as_xyz
  1  'x, y, z'
loop_
 _atom_site_type_symbol
 _atom_site_label
 _atom_site_symmetry_multiplicity
 _atom_site_fract_x
 _atom_site_fract_y
 _atom_site_fract_z
 _atom_site_occupancy
  Na  Na0  1  0.500305  0.500129  0.499942  1
  Tb  Tb1  1  0.311158  0.103969  0.029252  1
  Nd  Nd2  1  0.901149  0.972222  0.696975  1
  Nd  Nd3  1  0.972475  0.697707  0.899501  1
  Nd  Nd4  1  0.681747  0.894263  0.970747  1
  Nd  Nd5  1  0.101961  0.028660  0.303901  1
  Nd  Nd6  1  0.027423  0.302476  0.100546  1
  Rh  Rh7  1  0.000486  0.000495  0.000829  1
  I  I8  1  0.547977  0.854811  0.624505  1
  I  I9  1  0.853217  0.624514  0.544423  1
  I  I10  1  0.627633  0.545515  0.853986  1
  I  I11  1  0.452549  0.144919  0.367224  1
  I  I12  1  0.147274  0.375466  0.455737  1
  I  I13  1  0.372894  0.446038  0.141981  1
  I  I14  1  0.676795  0.225597  0.073984  1
  I  I15  1  0.228803  0.075455  0.688316  1
  I  I16  1  0.075299  0.681034  0.227020  1
  I  I17  1  0.318384  0.780936  0.927522  1
  I  I18  1  0.777088  0.926690  0.320301  1
  I  I19  1  0.925381  0.319105  0.773309  1
