# generated using pymatgen
data_Tm6Mn2Al13Si11Os6
_symmetry_space_group_name_H-M   'P 1'
_cell_length_a   8.66432500
_cell_length_b   8.66432563
_cell_length_c   9.11868000
_cell_angle_alpha   90.00000000
_cell_angle_beta   90.00000000
_cell_angle_gamma   120.00000140
_symmetry_Int_Tables_number   1
_chemical_formula_structural   Tm6Mn2Al13Si11Os6
_chemical_formula_sum   'Tm6 Mn2 Al13 Si11 Os6'
_cell_volume   592.83263259
_cell_formula_units_Z   1
loop_
 _symmetry_equiv_pos_site_id
 _symmetry_equiv_pos_as_xyz
  1  'x, y, z'
loop_
 _atom_site_type_symbol
 _atom_site_label
 _atom_site_symmetry_multiplicity
 _atom_site_fract_x
 _atom_site_fract_y
 _atom_site_fract_z
 _atom_site_occupancy
  Tm  Tm0  1  0.192334  0.384667  0.249390  1
  Tm  Tm1  1  0.807490  0.614982  0.750192  1
  Tm  Tm2  1  0.615333  0.807666  0.249390  1
  Tm  Tm3  1  0.385018  0.192510  0.750192  1
  Tm  Tm4  1  0.192334  0.807666  0.249390  1
  Tm  Tm5  1  0.807490  0.192510  0.750192  1
  Mn  Mn6  1  0.000000  0.000000  0.999730  1
  Mn  Mn7  1  0.000000  0.000000  0.499695  1
  Al  Al8  1  0.333333  0.666667  0.470299  1
  Al  Al9  1  0.161257  0.322515  0.578364  1
  Al  Al10  1  0.838058  0.676116  0.420257  1
  Al  Al11  1  0.677485  0.838743  0.578364  1
  Al  Al12  1  0.838219  0.676438  0.079152  1
  Al  Al13  1  0.323884  0.161942  0.420257  1
  Al  Al14  1  0.162302  0.324604  0.919695  1
  Al  Al15  1  0.161257  0.838743  0.578364  1
  Al  Al16  1  0.323562  0.161781  0.079152  1
  Al  Al17  1  0.838058  0.161942  0.420257  1
  Al  Al18  1  0.675396  0.837698  0.919695  1
  Al  Al19  1  0.838219  0.161781  0.079152  1
  Al  Al20  1  0.162302  0.837698  0.919695  1
  Si  Si21  1  0.333333  0.666667  0.048684  1
  Si  Si22  1  0.666667  0.333333  0.954471  1
  Si  Si23  1  0.666667  0.333333  0.544598  1
  Si  Si24  1  0.562027  0.124053  0.249447  1
  Si  Si25  1  0.438410  0.876821  0.748215  1
  Si  Si26  1  0.875947  0.437973  0.249447  1
  Si  Si27  1  0.123179  0.561590  0.748215  1
  Si  Si28  1  0.562027  0.437973  0.249447  1
  Si  Si29  1  0.438410  0.561590  0.748215  1
  Si  Si30  1  0.000000  0.000000  0.249467  1
  Si  Si31  1  0.000000  0.000000  0.749893  1
  Os  Os32  1  0.500442  0.000884  0.998494  1
  Os  Os33  1  0.999116  0.499558  0.998494  1
  Os  Os34  1  0.503736  0.007471  0.501181  1
  Os  Os35  1  0.500442  0.499558  0.998494  1
  Os  Os36  1  0.992529  0.496264  0.501181  1
  Os  Os37  1  0.503736  0.496264  0.501181  1
