# generated using pymatgen
data_DyHo2Co7(P3Rh)2
_symmetry_space_group_name_H-M   'P 1'
_cell_length_a   3.72207400
_cell_length_b   10.66337800
_cell_length_c   12.38142100
_cell_angle_alpha   90.00000000
_cell_angle_beta   90.00000000
_cell_angle_gamma   90.00000000
_symmetry_Int_Tables_number   1
_chemical_formula_structural   DyHo2Co7(P3Rh)2
_chemical_formula_sum   'Dy2 Ho4 Co14 P12 Rh4'
_cell_volume   491.41713856
_cell_formula_units_Z   2
loop_
 _symmetry_equiv_pos_site_id
 _symmetry_equiv_pos_as_xyz
  1  'x, y, z'
loop_
 _atom_site_type_symbol
 _atom_site_label
 _atom_site_symmetry_multiplicity
 _atom_site_fract_x
 _atom_site_fract_y
 _atom_site_fract_z
 _atom_site_occupancy
  Dy  Dy0  1  0.000000  0.500000  0.520322  1
  Dy  Dy1  1  0.500000  0.000000  0.479678  1
  Ho  Ho2  1  0.500000  0.813861  0.205703  1
  Ho  Ho3  1  0.500000  0.186139  0.205703  1
  Ho  Ho4  1  0.000000  0.686139  0.794297  1
  Ho  Ho5  1  0.000000  0.313861  0.794297  1
  Co  Co6  1  0.000000  0.500000  0.987856  1
  Co  Co7  1  0.500000  0.000000  0.012144  1
  Co  Co8  1  0.500000  0.332169  0.993579  1
  Co  Co9  1  0.500000  0.667831  0.993579  1
  Co  Co10  1  0.000000  0.167831  0.006421  1
  Co  Co11  1  0.000000  0.832169  0.006421  1
  Co  Co12  1  0.500000  0.299748  0.429790  1
  Co  Co13  1  0.500000  0.700252  0.429790  1
  Co  Co14  1  0.000000  0.200252  0.570210  1
  Co  Co15  1  0.000000  0.799748  0.570210  1
  Co  Co16  1  0.500000  0.880098  0.709677  1
  Co  Co17  1  0.500000  0.119902  0.709677  1
  Co  Co18  1  0.000000  0.619902  0.290323  1
  Co  Co19  1  0.000000  0.380098  0.290323  1
  P  P20  1  0.500000  0.500000  0.889615  1
  P  P21  1  0.000000  0.000000  0.110385  1
  P  P22  1  0.500000  0.500000  0.349809  1
  P  P23  1  0.000000  0.000000  0.650191  1
  P  P24  1  0.500000  0.302297  0.613543  1
  P  P25  1  0.500000  0.697703  0.613543  1
  P  P26  1  0.000000  0.197703  0.386457  1
  P  P27  1  0.000000  0.802297  0.386457  1
  P  P28  1  0.500000  0.844563  0.894627  1
  P  P29  1  0.500000  0.155437  0.894627  1
  P  P30  1  0.000000  0.655437  0.105373  1
  P  P31  1  0.000000  0.344563  0.105373  1
  Rh  Rh32  1  0.500000  0.500000  0.159948  1
  Rh  Rh33  1  0.000000  0.000000  0.840052  1
  Rh  Rh34  1  0.500000  0.500000  0.703434  1
  Rh  Rh35  1  0.000000  0.000000  0.296566  1
