# generated using pymatgen
data_HoEr9(Si2Hg)2
_symmetry_space_group_name_H-M   'P 1'
_cell_length_a   7.51551321
_cell_length_b   7.51551316
_cell_length_c   8.90272400
_cell_angle_alpha   114.99221844
_cell_angle_beta   114.99222666
_cell_angle_gamma   90.22822282
_symmetry_Int_Tables_number   1
_chemical_formula_structural   HoEr9(Si2Hg)2
_chemical_formula_sum   'Ho1 Er9 Si4 Hg2'
_cell_volume   402.77085666
_cell_formula_units_Z   1
loop_
 _symmetry_equiv_pos_site_id
 _symmetry_equiv_pos_as_xyz
  1  'x, y, z'
loop_
 _atom_site_type_symbol
 _atom_site_label
 _atom_site_symmetry_multiplicity
 _atom_site_fract_x
 _atom_site_fract_y
 _atom_site_fract_z
 _atom_site_occupancy
  Ho  Ho0  1  0.530544  0.030544  0.718755  1
  Er  Er1  1  0.500778  0.500062  0.001133  1
  Er  Er2  1  0.000062  0.000778  0.001133  1
  Er  Er3  1  0.968876  0.811852  0.279856  1
  Er  Er4  1  0.311852  0.468876  0.279856  1
  Er  Er5  1  0.810684  0.310684  0.278780  1
  Er  Er6  1  0.468666  0.968666  0.278993  1
  Er  Er7  1  0.031470  0.189243  0.721133  1
  Er  Er8  1  0.689243  0.531470  0.721133  1
  Er  Er9  1  0.188467  0.688467  0.722124  1
  Si  Si10  1  0.625646  0.873687  0.999817  1
  Si  Si11  1  0.373687  0.125646  0.999817  1
  Si  Si12  1  0.874416  0.374416  0.000094  1
  Si  Si13  1  0.125907  0.625907  0.001035  1
  Hg  Hg14  1  0.751947  0.747757  0.498171  1
  Hg  Hg15  1  0.247757  0.251947  0.498171  1
