# generated using pymatgen
data_DyYB6Ir4Rh5
_symmetry_space_group_name_H-M   'P 1'
_cell_length_a   5.62384600
_cell_length_b   5.62999027
_cell_length_c   8.61162200
_cell_angle_alpha   90.00000000
_cell_angle_beta   90.00000000
_cell_angle_gamma   119.96390514
_symmetry_Int_Tables_number   1
_chemical_formula_structural   DyYB6Ir4Rh5
_chemical_formula_sum   'Dy1 Y1 B6 Ir4 Rh5'
_cell_volume   236.21882169
_cell_formula_units_Z   1
loop_
 _symmetry_equiv_pos_site_id
 _symmetry_equiv_pos_as_xyz
  1  'x, y, z'
loop_
 _atom_site_type_symbol
 _atom_site_label
 _atom_site_symmetry_multiplicity
 _atom_site_fract_x
 _atom_site_fract_y
 _atom_site_fract_z
 _atom_site_occupancy
  Dy  Dy0  1  0.000000  0.000000  0.298029  1
  Y  Y1  1  0.000000  0.000000  0.702673  1
  B  B2  1  0.666000  0.331999  0.999877  1
  B  B3  1  0.334000  0.668001  0.999877  1
  B  B4  1  0.666292  0.332583  0.667849  1
  B  B5  1  0.333708  0.667417  0.667849  1
  B  B6  1  0.333334  0.666669  0.331904  1
  B  B7  1  0.666666  0.333331  0.331904  1
  Ir  Ir8  1  0.500000  0.000000  0.836813  1
  Ir  Ir9  1  0.500000  0.500000  0.499731  1
  Ir  Ir10  1  0.500000  0.000000  0.498814  1
  Ir  Ir11  1  0.000000  0.500000  0.499731  1
  Rh  Rh12  1  0.500000  0.500000  0.836826  1
  Rh  Rh13  1  0.000000  0.500000  0.836826  1
  Rh  Rh14  1  0.500000  0.500000  0.163593  1
  Rh  Rh15  1  0.500000  0.000000  0.164109  1
  Rh  Rh16  1  0.000000  0.500000  0.163593  1
