# generated using pymatgen
data_Mg4Zr6Sc4Al8Pt7
_symmetry_space_group_name_H-M   'P 1'
_cell_length_a   9.04908349
_cell_length_b   9.04902412
_cell_length_c   9.04905100
_cell_angle_alpha   60.00001066
_cell_angle_beta   60.00015602
_cell_angle_gamma   60.00015022
_symmetry_Int_Tables_number   1
_chemical_formula_structural   Mg4Zr6Sc4Al8Pt7
_chemical_formula_sum   'Mg4 Zr6 Sc4 Al8 Pt7'
_cell_volume   523.95672500
_cell_formula_units_Z   1
loop_
 _symmetry_equiv_pos_site_id
 _symmetry_equiv_pos_as_xyz
  1  'x, y, z'
loop_
 _atom_site_type_symbol
 _atom_site_label
 _atom_site_symmetry_multiplicity
 _atom_site_fract_x
 _atom_site_fract_y
 _atom_site_fract_z
 _atom_site_occupancy
  Mg  Mg0  1  0.879075  0.879074  0.362775  1
  Mg  Mg1  1  0.879074  0.362776  0.879074  1
  Mg  Mg2  1  0.362791  0.879069  0.879069  1
  Mg  Mg3  1  0.879080  0.879080  0.879081  1
  Zr  Zr4  1  0.679548  0.679550  0.320450  1
  Zr  Zr5  1  0.320449  0.679549  0.320451  1
  Zr  Zr6  1  0.679549  0.320451  0.320450  1
  Zr  Zr7  1  0.320448  0.320452  0.679550  1
  Zr  Zr8  1  0.679549  0.320451  0.679549  1
  Zr  Zr9  1  0.320450  0.679548  0.679549  1
  Sc  Sc10  1  0.119983  0.119981  0.640055  1
  Sc  Sc11  1  0.119982  0.640054  0.119981  1
  Sc  Sc12  1  0.640056  0.119980  0.119981  1
  Sc  Sc13  1  0.119982  0.119980  0.119981  1
  Al  Al14  1  0.663510  0.663512  0.009466  1
  Al  Al15  1  0.663510  0.009465  0.663512  1
  Al  Al16  1  0.009467  0.663511  0.663510  1
  Al  Al17  1  0.663510  0.663512  0.663511  1
  Al  Al18  1  0.337824  0.337827  0.986519  1
  Al  Al19  1  0.337825  0.986518  0.337827  1
  Al  Al20  1  0.986521  0.337826  0.337826  1
  Al  Al21  1  0.337824  0.337828  0.337827  1
  Pt  Pt22  1  0.999997  0.000001  0.000002  1
  Pt  Pt23  1  0.002111  0.002113  0.497888  1
  Pt  Pt24  1  0.497887  0.002113  0.497886  1
  Pt  Pt25  1  0.002111  0.497888  0.497888  1
  Pt  Pt26  1  0.497887  0.497887  0.002113  1
  Pt  Pt27  1  0.002111  0.497887  0.002113  1
  Pt  Pt28  1  0.497888  0.002113  0.002112  1
