# generated using pymatgen
data_La8Nd2Dy10Si15As
_symmetry_space_group_name_H-M   'P 1'
_cell_length_a   7.76279155
_cell_length_b   7.92784672
_cell_length_c   15.15586300
_cell_angle_alpha   89.76410498
_cell_angle_beta   86.59655458
_cell_angle_gamma   89.64304216
_symmetry_Int_Tables_number   1
_chemical_formula_structural   La8Nd2Dy10Si15As
_chemical_formula_sum   'La8 Nd2 Dy10 Si15 As1'
_cell_volume   931.05576205
_cell_formula_units_Z   1
loop_
 _symmetry_equiv_pos_site_id
 _symmetry_equiv_pos_as_xyz
  1  'x, y, z'
loop_
 _atom_site_type_symbol
 _atom_site_label
 _atom_site_symmetry_multiplicity
 _atom_site_fract_x
 _atom_site_fract_y
 _atom_site_fract_z
 _atom_site_occupancy
  La  La0  1  0.022756  0.184316  0.101841  1
  La  La1  1  0.977268  0.817120  0.897746  1
  La  La2  1  0.477939  0.683181  0.897697  1
  La  La3  1  0.000860  0.820241  0.597978  1
  La  La4  1  0.522830  0.317675  0.102749  1
  La  La5  1  0.997512  0.178160  0.401517  1
  La  La6  1  0.501184  0.314870  0.400920  1
  La  La7  1  0.503314  0.683829  0.598430  1
  Nd  Nd8  1  0.825559  0.320361  0.876197  1
  Nd  Nd9  1  0.174135  0.679829  0.123007  1
  Dy  Dy10  1  0.170435  0.504305  0.747667  1
  Dy  Dy11  1  0.829504  0.496705  0.256242  1
  Dy  Dy12  1  0.327266  0.004032  0.255974  1
  Dy  Dy13  1  0.673178  0.995882  0.744385  1
  Dy  Dy14  1  0.354427  0.162547  0.619200  1
  Dy  Dy15  1  0.646502  0.835591  0.381121  1
  Dy  Dy16  1  0.146212  0.663362  0.382082  1
  Dy  Dy17  1  0.673410  0.823243  0.124281  1
  Dy  Dy18  1  0.850929  0.336820  0.617755  1
  Dy  Dy19  1  0.326583  0.176625  0.875346  1
  Si  Si20  1  0.049325  0.113294  0.748598  1
  Si  Si21  1  0.951003  0.887284  0.250328  1
  Si  Si22  1  0.456622  0.614912  0.251474  1
  Si  Si23  1  0.541702  0.384962  0.747792  1
  Si  Si24  1  0.287216  0.879062  0.750384  1
  Si  Si25  1  0.714223  0.119750  0.249297  1
  Si  Si26  1  0.214551  0.377209  0.250989  1
  Si  Si27  1  0.787012  0.624258  0.748522  1
  Si  Si28  1  0.797886  0.537935  0.454058  1
  Si  Si29  1  0.302403  0.959319  0.455872  1
  Si  Si30  1  0.856660  0.531267  0.040815  1
  Si  Si31  1  0.696710  0.039748  0.545337  1
  Si  Si32  1  0.142785  0.470219  0.957783  1
  Si  Si33  1  0.638459  0.028187  0.959690  1
  Si  Si34  1  0.361302  0.973080  0.040413  1
  As  As35  1  0.200341  0.460822  0.546514  1
