# generated using pymatgen
data_KSrGa2F9
_symmetry_space_group_name_H-M   'P 1'
_cell_length_a   7.60959600
_cell_length_b   7.60959671
_cell_length_c   24.15963600
_cell_angle_alpha   90.00000000
_cell_angle_beta   90.00000000
_cell_angle_gamma   119.80701611
_symmetry_Int_Tables_number   1
_chemical_formula_structural   KSrGa2F9
_chemical_formula_sum   'K6 Sr6 Ga12 F54'
_cell_volume   1213.90729997
_cell_formula_units_Z   6
loop_
 _symmetry_equiv_pos_site_id
 _symmetry_equiv_pos_as_xyz
  1  'x, y, z'
loop_
 _atom_site_type_symbol
 _atom_site_label
 _atom_site_symmetry_multiplicity
 _atom_site_fract_x
 _atom_site_fract_y
 _atom_site_fract_z
 _atom_site_occupancy
  K  K0  1  0.012025  0.987975  0.250000  1
  K  K1  1  0.961217  0.005614  0.083737  1
  K  K2  1  0.987975  0.012025  0.750000  1
  K  K3  1  0.005614  0.961217  0.916263  1
  K  K4  1  0.994386  0.038783  0.416263  1
  K  K5  1  0.038783  0.994386  0.583737  1
  Sr  Sr6  1  0.500766  0.990075  0.833387  1
  Sr  Sr7  1  0.516240  0.516240  0.500000  1
  Sr  Sr8  1  0.990075  0.500766  0.166613  1
  Sr  Sr9  1  0.483760  0.483760  0.000000  1
  Sr  Sr10  1  0.009925  0.499234  0.666613  1
  Sr  Sr11  1  0.499234  0.009925  0.333387  1
  Ga  Ga12  1  0.002703  0.482621  0.837066  1
  Ga  Ga13  1  0.523955  0.019037  0.504151  1
  Ga  Ga14  1  0.980963  0.476045  0.995849  1
  Ga  Ga15  1  0.482621  0.002703  0.162934  1
  Ga  Ga16  1  0.495755  0.512068  0.329162  1
  Ga  Ga17  1  0.997297  0.517379  0.337066  1
  Ga  Ga18  1  0.476045  0.980963  0.004151  1
  Ga  Ga19  1  0.019037  0.523955  0.495849  1
  Ga  Ga20  1  0.487932  0.504245  0.170838  1
  Ga  Ga21  1  0.512068  0.495755  0.670838  1
  Ga  Ga22  1  0.504245  0.487932  0.829162  1
  Ga  Ga23  1  0.517379  0.997297  0.662934  1
  F  F24  1  0.455441  0.526136  0.095004  1
  F  F25  1  0.226774  0.321246  0.666396  1
  F  F26  1  0.795955  0.673748  0.679333  1
  F  F27  1  0.526136  0.455441  0.904996  1
  F  F28  1  0.259055  0.697789  0.012095  1
  F  F29  1  0.401234  0.963384  0.928640  1
  F  F30  1  0.479883  0.520117  0.750000  1
  F  F31  1  0.897180  0.683141  0.479599  1
  F  F32  1  0.473864  0.544559  0.404996  1
  F  F33  1  0.204045  0.326252  0.179333  1
  F  F34  1  0.795582  0.120234  0.644442  1
  F  F35  1  0.544559  0.473864  0.595004  1
  F  F36  1  0.740945  0.302211  0.512095  1
  F  F37  1  0.651315  0.873134  0.992412  1
  F  F38  1  0.285486  0.548253  0.846610  1
  F  F39  1  0.007938  0.454989  0.416353  1
  F  F40  1  0.714514  0.451747  0.346610  1
  F  F41  1  0.598766  0.036616  0.428640  1
  F  F42  1  0.236450  0.887885  0.676478  1
  F  F43  1  0.520117  0.479883  0.250000  1
  F  F44  1  0.548253  0.285486  0.153390  1
  F  F45  1  0.683141  0.897180  0.520401  1
  F  F46  1  0.112115  0.763550  0.823522  1
  F  F47  1  0.980286  0.581878  0.262168  1
  F  F48  1  0.725241  0.426505  0.818744  1
  F  F49  1  0.879766  0.204418  0.855558  1
  F  F50  1  0.451747  0.714514  0.653390  1
  F  F51  1  0.673748  0.795955  0.320667  1
  F  F52  1  0.773226  0.678754  0.166396  1
  F  F53  1  0.887885  0.236450  0.323522  1
  F  F54  1  0.573495  0.274759  0.681256  1
  F  F55  1  0.302211  0.740945  0.487905  1
  F  F56  1  0.697789  0.259055  0.987905  1
  F  F57  1  0.120234  0.795582  0.355558  1
  F  F58  1  0.963384  0.401234  0.071360  1
  F  F59  1  0.992062  0.545011  0.916353  1
  F  F60  1  0.316859  0.102820  0.020401  1
  F  F61  1  0.454989  0.007938  0.583647  1
  F  F62  1  0.036616  0.598766  0.571360  1
  F  F63  1  0.019714  0.418122  0.762168  1
  F  F64  1  0.763550  0.112115  0.176478  1
  F  F65  1  0.678754  0.773226  0.833604  1
  F  F66  1  0.348685  0.126866  0.492412  1
  F  F67  1  0.321246  0.226774  0.333604  1
  F  F68  1  0.873134  0.651315  0.007588  1
  F  F69  1  0.426505  0.725241  0.181256  1
  F  F70  1  0.326252  0.204045  0.820667  1
  F  F71  1  0.102820  0.316859  0.979599  1
  F  F72  1  0.126866  0.348685  0.507588  1
  F  F73  1  0.204418  0.879766  0.144442  1
  F  F74  1  0.418122  0.019714  0.237832  1
  F  F75  1  0.581878  0.980286  0.737832  1
  F  F76  1  0.545011  0.992062  0.083647  1
  F  F77  1  0.274759  0.573495  0.318744  1
