# generated using pymatgen
data_Tm8Si7GePd8
_symmetry_space_group_name_H-M   'P 1'
_cell_length_a   4.34266700
_cell_length_b   7.50834646
_cell_length_c   13.85686200
_cell_angle_alpha   89.96429481
_cell_angle_beta   90.00000000
_cell_angle_gamma   90.00000000
_symmetry_Int_Tables_number   1
_chemical_formula_structural   Tm8Si7GePd8
_chemical_formula_sum   'Tm8 Si7 Ge1 Pd8'
_cell_volume   451.82019651
_cell_formula_units_Z   1
loop_
 _symmetry_equiv_pos_site_id
 _symmetry_equiv_pos_as_xyz
  1  'x, y, z'
loop_
 _atom_site_type_symbol
 _atom_site_label
 _atom_site_symmetry_multiplicity
 _atom_site_fract_x
 _atom_site_fract_y
 _atom_site_fract_z
 _atom_site_occupancy
  Tm  Tm0  1  0.000000  0.211438  0.750014  1
  Tm  Tm1  1  0.000000  0.211918  0.249825  1
  Tm  Tm2  1  0.500000  0.787763  0.748428  1
  Tm  Tm3  1  0.500000  0.787943  0.251275  1
  Tm  Tm4  1  0.000000  0.289441  0.499976  1
  Tm  Tm5  1  0.500000  0.710571  0.000472  1
  Tm  Tm6  1  0.000000  0.298584  0.000839  1
  Tm  Tm7  1  0.500000  0.701628  0.499883  1
  Si  Si8  1  0.000000  0.589565  0.856958  1
  Si  Si9  1  0.000000  0.591519  0.143215  1
  Si  Si10  1  0.500000  0.408595  0.643255  1
  Si  Si11  1  0.500000  0.408640  0.357182  1
  Si  Si12  1  0.000000  0.909148  0.405816  1
  Si  Si13  1  0.000000  0.909181  0.593896  1
  Si  Si14  1  0.500000  0.091539  0.097900  1
  Ge  Ge15  1  0.500000  0.093071  0.904599  1
  Pd  Pd16  1  0.000000  0.915381  0.889873  1
  Pd  Pd17  1  0.000000  0.924210  0.109216  1
  Pd  Pd18  1  0.500000  0.076050  0.609273  1
  Pd  Pd19  1  0.500000  0.075772  0.390849  1
  Pd  Pd20  1  0.000000  0.579611  0.343784  1
  Pd  Pd21  1  0.000000  0.579572  0.655523  1
  Pd  Pd22  1  0.500000  0.420652  0.156716  1
  Pd  Pd23  1  0.500000  0.428210  0.841230  1
