# generated using pymatgen
data_Th8Zr12Si13As3
_symmetry_space_group_name_H-M   'P 1'
_cell_length_a   7.37461174
_cell_length_b   7.44896667
_cell_length_c   14.13002800
_cell_angle_alpha   90.05476545
_cell_angle_beta   89.40717414
_cell_angle_gamma   89.98523775
_symmetry_Int_Tables_number   1
_chemical_formula_structural   Th8Zr12Si13As3
_chemical_formula_sum   'Th8 Zr12 Si13 As3'
_cell_volume   776.16624731
_cell_formula_units_Z   1
loop_
 _symmetry_equiv_pos_site_id
 _symmetry_equiv_pos_as_xyz
  1  'x, y, z'
loop_
 _atom_site_type_symbol
 _atom_site_label
 _atom_site_symmetry_multiplicity
 _atom_site_fract_x
 _atom_site_fract_y
 _atom_site_fract_z
 _atom_site_occupancy
  Th  Th0  1  0.004193  0.678194  0.598468  1
  Th  Th1  1  0.991275  0.321868  0.401585  1
  Th  Th2  1  0.493520  0.179830  0.401035  1
  Th  Th3  1  0.002934  0.328481  0.096400  1
  Th  Th4  1  0.507468  0.818935  0.599266  1
  Th  Th5  1  0.996706  0.671608  0.903447  1
  Th  Th6  1  0.497423  0.828683  0.903680  1
  Th  Th7  1  0.502354  0.170935  0.096440  1
  Zr  Zr8  1  0.174131  0.999665  0.751766  1
  Zr  Zr9  1  0.825816  0.000490  0.248273  1
  Zr  Zr10  1  0.325572  0.499604  0.248592  1
  Zr  Zr11  1  0.673863  0.500892  0.750086  1
  Zr  Zr12  1  0.353910  0.332796  0.625500  1
  Zr  Zr13  1  0.649211  0.666889  0.375672  1
  Zr  Zr14  1  0.149995  0.832049  0.376081  1
  Zr  Zr15  1  0.658860  0.676743  0.124173  1
  Zr  Zr16  1  0.848385  0.169868  0.623336  1
  Zr  Zr17  1  0.341677  0.323229  0.875731  1
  Zr  Zr18  1  0.841602  0.176058  0.875588  1
  Zr  Zr19  1  0.159081  0.823943  0.124328  1
  Si  Si20  1  0.053295  0.372033  0.749227  1
  Si  Si21  1  0.947006  0.628417  0.250572  1
  Si  Si22  1  0.445929  0.871430  0.250847  1
  Si  Si23  1  0.554559  0.127869  0.749652  1
  Si  Si24  1  0.300582  0.620085  0.752252  1
  Si  Si25  1  0.698254  0.379745  0.247731  1
  Si  Si26  1  0.197929  0.119881  0.248340  1
  Si  Si27  1  0.801167  0.880397  0.751699  1
  Si  Si28  1  0.835287  0.963645  0.041931  1
  Si  Si29  1  0.689205  0.456661  0.544207  1
  Si  Si30  1  0.164511  0.035908  0.957739  1
  Si  Si31  1  0.664784  0.463582  0.958174  1
  Si  Si32  1  0.335352  0.536050  0.041793  1
  As  As33  1  0.192716  0.044861  0.545079  1
  As  As34  1  0.808218  0.955818  0.454833  1
  As  As35  1  0.313228  0.542862  0.456473  1
