# generated using pymatgen
data_Y5V(P2Ir3)6
_symmetry_space_group_name_H-M   'P 1'
_cell_length_a   12.65458919
_cell_length_b   12.79677045
_cell_length_c   3.98530500
_cell_angle_alpha   90.00000000
_cell_angle_beta   90.00000000
_cell_angle_gamma   120.37237166
_symmetry_Int_Tables_number   1
_chemical_formula_structural   Y5V(P2Ir3)6
_chemical_formula_sum   'Y5 V1 P12 Ir18'
_cell_volume   556.79942614
_cell_formula_units_Z   1
loop_
 _symmetry_equiv_pos_site_id
 _symmetry_equiv_pos_as_xyz
  1  'x, y, z'
loop_
 _atom_site_type_symbol
 _atom_site_label
 _atom_site_symmetry_multiplicity
 _atom_site_fract_x
 _atom_site_fract_y
 _atom_site_fract_z
 _atom_site_occupancy
  Y  Y0  1  0.329331  0.664314  0.500000  1
  Y  Y1  1  0.670669  0.334982  0.500000  1
  Y  Y2  1  0.000000  0.811967  0.000000  1
  Y  Y3  1  0.183546  0.186218  0.000000  1
  Y  Y4  1  0.816454  0.002671  0.000000  1
  V  V5  1  0.000000  0.451566  0.500000  1
  P  P6  1  0.000000  0.632945  0.500000  1
  P  P7  1  0.355445  0.354616  0.500000  1
  P  P8  1  0.644555  0.999170  0.500000  1
  P  P9  1  0.515049  0.688933  0.000000  1
  P  P10  1  0.310806  0.828792  0.000000  1
  P  P11  1  0.164406  0.483604  0.000000  1
  P  P12  1  0.484951  0.173885  0.000000  1
  P  P13  1  0.689194  0.517984  0.000000  1
  P  P14  1  0.835594  0.319198  0.000000  1
  P  P15  1  0.000000  0.175817  0.500000  1
  P  P16  1  0.820558  0.820781  0.500000  1
  P  P17  1  0.179442  0.000223  0.500000  1
  Ir  Ir18  1  0.507611  0.869625  0.000000  1
  Ir  Ir19  1  0.129752  0.640405  0.000000  1
  Ir  Ir20  1  0.356618  0.494379  0.000000  1
  Ir  Ir21  1  0.492389  0.362011  0.000000  1
  Ir  Ir22  1  0.870248  0.510653  0.000000  1
  Ir  Ir23  1  0.643382  0.137761  0.000000  1
  Ir  Ir24  1  0.534177  0.535501  0.500000  1
  Ir  Ir25  1  0.465823  0.001325  0.500000  1
  Ir  Ir26  1  0.000000  0.287318  0.000000  1
  Ir  Ir27  1  0.713057  0.713929  0.000000  1
  Ir  Ir28  1  0.286943  0.000872  0.000000  1
  Ir  Ir29  1  0.621649  0.803820  0.500000  1
  Ir  Ir30  1  0.197882  0.822707  0.500000  1
  Ir  Ir31  1  0.179246  0.373175  0.500000  1
  Ir  Ir32  1  0.378351  0.182171  0.500000  1
  Ir  Ir33  1  0.802118  0.624824  0.500000  1
  Ir  Ir34  1  0.820754  0.193929  0.500000  1
  Ir  Ir35  1  0.000000  0.997930  0.500000  1
