# generated using pymatgen
data_Ce2Zn19Au3
_symmetry_space_group_name_H-M   'P 1'
_cell_length_a   8.34900476
_cell_length_b   8.36780729
_cell_length_c   8.34451900
_cell_angle_alpha   100.10887485
_cell_angle_beta   99.77356548
_cell_angle_gamma   130.85053023
_symmetry_Int_Tables_number   1
_chemical_formula_structural   Ce2Zn19Au3
_chemical_formula_sum   'Ce2 Zn19 Au3'
_cell_volume   401.17954498
_cell_formula_units_Z   1
loop_
 _symmetry_equiv_pos_site_id
 _symmetry_equiv_pos_as_xyz
  1  'x, y, z'
loop_
 _atom_site_type_symbol
 _atom_site_label
 _atom_site_symmetry_multiplicity
 _atom_site_fract_x
 _atom_site_fract_y
 _atom_site_fract_z
 _atom_site_occupancy
  Ce  Ce0  1  0.995185  0.995426  0.992199  1
  Ce  Ce1  1  0.251592  0.751954  0.506311  1
  Zn  Zn2  1  0.834806  0.246432  0.171957  1
  Zn  Zn3  1  0.751473  0.249919  0.501211  1
  Zn  Zn4  1  0.499224  0.498930  0.998934  1
  Zn  Zn5  1  0.621048  0.372098  0.747995  1
  Zn  Zn6  1  0.125956  0.370412  0.751179  1
  Zn  Zn7  1  0.824828  0.659701  0.585462  1
  Zn  Zn8  1  0.913432  0.824991  0.328999  1
  Zn  Zn9  1  0.489422  0.573229  0.673097  1
  Zn  Zn10  1  0.073577  0.246511  0.417549  1
  Zn  Zn11  1  0.756114  0.929332  0.589700  1
  Zn  Zn12  1  0.343803  0.171040  0.416914  1
  Zn  Zn13  1  0.415608  0.504454  0.328734  1
  Zn  Zn14  1  0.181931  0.098758  0.672107  1
  Zn  Zn15  1  0.424850  0.097683  0.912378  1
  Zn  Zn16  1  0.339414  0.925839  0.173486  1
  Zn  Zn17  1  0.759695  0.176435  0.827010  1
  Zn  Zn18  1  0.177728  0.504941  0.082612  1
  Zn  Zn19  1  0.496437  0.821722  0.912860  1
  Zn  Zn20  1  0.904163  0.577135  0.084822  1
  Au  Au21  1  0.069017  0.652755  0.822227  1
  Au  Au22  1  0.623936  0.374232  0.250683  1
  Au  Au23  1  0.626761  0.876069  0.251574  1
