# generated using pymatgen
data_Ho3TmPd3RuO14
_symmetry_space_group_name_H-M   'P 1'
_cell_length_a   7.19383400
_cell_length_b   7.24875652
_cell_length_c   7.19383400
_cell_angle_alpha   60.25032425
_cell_angle_beta   60.00000002
_cell_angle_gamma   60.25032424
_symmetry_Int_Tables_number   1
_chemical_formula_structural   Ho3TmPd3RuO14
_chemical_formula_sum   'Ho3 Tm1 Pd3 Ru1 O14'
_cell_volume   266.25773697
_cell_formula_units_Z   1
loop_
 _symmetry_equiv_pos_site_id
 _symmetry_equiv_pos_as_xyz
  1  'x, y, z'
loop_
 _atom_site_type_symbol
 _atom_site_label
 _atom_site_symmetry_multiplicity
 _atom_site_fract_x
 _atom_site_fract_y
 _atom_site_fract_z
 _atom_site_occupancy
  Ho  Ho0  1  0.125000  0.125000  0.625000  1
  Ho  Ho1  1  0.125000  0.125000  0.125000  1
  Ho  Ho2  1  0.625000  0.125000  0.125000  1
  Tm  Tm3  1  0.125000  0.625000  0.125000  1
  Pd  Pd4  1  0.625000  0.625000  0.625000  1
  Pd  Pd5  1  0.125000  0.625000  0.625000  1
  Pd  Pd6  1  0.625000  0.625000  0.125000  1
  Ru  Ru7  1  0.625000  0.125000  0.625000  1
  O  O8  1  0.532789  0.530721  0.968245  1
  O  O9  1  0.968245  0.530721  0.968245  1
  O  O10  1  0.290103  0.285245  0.712326  1
  O  O11  1  0.000981  0.997055  0.000981  1
  O  O12  1  0.281755  0.719279  0.717211  1
  O  O13  1  0.717211  0.719279  0.281755  1
  O  O14  1  0.712326  0.285245  0.290103  1
  O  O15  1  0.537674  0.964755  0.537674  1
  O  O16  1  0.712326  0.285245  0.712326  1
  O  O17  1  0.537674  0.964755  0.959897  1
  O  O18  1  0.959897  0.964755  0.537674  1
  O  O19  1  0.249019  0.252945  0.249019  1
  O  O20  1  0.281755  0.719279  0.281755  1
  O  O21  1  0.968245  0.530721  0.532789  1
