# generated using pymatgen
data_Th3Ir7Rh2
_symmetry_space_group_name_H-M   'P 1'
_cell_length_a   5.37157600
_cell_length_b   5.37157663
_cell_length_c   17.78800800
_cell_angle_alpha   90.00000000
_cell_angle_beta   90.00000000
_cell_angle_gamma   119.99999613
_symmetry_Int_Tables_number   1
_chemical_formula_structural   Th3Ir7Rh2
_chemical_formula_sum   'Th6 Ir14 Rh4'
_cell_volume   444.48945780
_cell_formula_units_Z   2
loop_
 _symmetry_equiv_pos_site_id
 _symmetry_equiv_pos_as_xyz
  1  'x, y, z'
loop_
 _atom_site_type_symbol
 _atom_site_label
 _atom_site_symmetry_multiplicity
 _atom_site_fract_x
 _atom_site_fract_y
 _atom_site_fract_z
 _atom_site_occupancy
  Th  Th0  1  0.333333  0.666667  0.957843  1
  Th  Th1  1  0.666667  0.333333  0.042157  1
  Th  Th2  1  0.666667  0.333333  0.457843  1
  Th  Th3  1  0.333333  0.666667  0.542157  1
  Th  Th4  1  0.333333  0.666667  0.750000  1
  Th  Th5  1  0.666667  0.333333  0.250000  1
  Ir  Ir6  1  0.167381  0.832619  0.373686  1
  Ir  Ir7  1  0.167381  0.334762  0.373686  1
  Ir  Ir8  1  0.665238  0.832619  0.373686  1
  Ir  Ir9  1  0.832619  0.167381  0.626314  1
  Ir  Ir10  1  0.832619  0.665238  0.626314  1
  Ir  Ir11  1  0.334762  0.167381  0.626314  1
  Ir  Ir12  1  0.832619  0.167381  0.873686  1
  Ir  Ir13  1  0.832619  0.665238  0.873686  1
  Ir  Ir14  1  0.334762  0.167381  0.873686  1
  Ir  Ir15  1  0.167381  0.832619  0.126314  1
  Ir  Ir16  1  0.167381  0.334762  0.126314  1
  Ir  Ir17  1  0.665238  0.832619  0.126314  1
  Ir  Ir18  1  0.000000  0.000000  0.500000  1
  Ir  Ir19  1  0.000000  0.000000  0.000000  1
  Rh  Rh20  1  0.333333  0.666667  0.250000  1
  Rh  Rh21  1  0.666667  0.333333  0.750000  1
  Rh  Rh22  1  0.000000  0.000000  0.250000  1
  Rh  Rh23  1  0.000000  0.000000  0.750000  1
