# generated using pymatgen
data_Yb4Al4CuPt3
_symmetry_space_group_name_H-M   'P 1'
_cell_length_a   4.17369700
_cell_length_b   7.13374020
_cell_length_c   7.92003966
_cell_angle_alpha   90.55253778
_cell_angle_beta   90.00000000
_cell_angle_gamma   90.00000000
_symmetry_Int_Tables_number   1
_chemical_formula_structural   Yb4Al4CuPt3
_chemical_formula_sum   'Yb4 Al4 Cu1 Pt3'
_cell_volume   235.80085101
_cell_formula_units_Z   1
loop_
 _symmetry_equiv_pos_site_id
 _symmetry_equiv_pos_as_xyz
  1  'x, y, z'
loop_
 _atom_site_type_symbol
 _atom_site_label
 _atom_site_symmetry_multiplicity
 _atom_site_fract_x
 _atom_site_fract_y
 _atom_site_fract_z
 _atom_site_occupancy
  Yb  Yb0  1  0.250000  0.030535  0.327374  1
  Yb  Yb1  1  0.250000  0.529828  0.170229  1
  Yb  Yb2  1  0.750000  0.969680  0.675362  1
  Yb  Yb3  1  0.750000  0.467304  0.824907  1
  Al  Al4  1  0.250000  0.134263  0.941474  1
  Al  Al5  1  0.250000  0.635679  0.560015  1
  Al  Al6  1  0.750000  0.864014  0.060913  1
  Al  Al7  1  0.750000  0.365319  0.438464  1
  Cu  Cu8  1  0.250000  0.282490  0.632190  1
  Pt  Pt9  1  0.250000  0.776525  0.871268  1
  Pt  Pt10  1  0.750000  0.722355  0.371970  1
  Pt  Pt11  1  0.750000  0.222006  0.125832  1
