# generated using pymatgen
data_Rb2U(SiO3)3
_symmetry_space_group_name_H-M   'P 1'
_cell_length_a   7.24974700
_cell_length_b   7.24974669
_cell_length_c   10.61862400
_cell_angle_alpha   90.00000000
_cell_angle_beta   90.00000000
_cell_angle_gamma   119.99999687
_symmetry_Int_Tables_number   1
_chemical_formula_structural   Rb2U(SiO3)3
_chemical_formula_sum   'Rb4 U2 Si6 O18'
_cell_volume   483.33091154
_cell_formula_units_Z   2
loop_
 _symmetry_equiv_pos_site_id
 _symmetry_equiv_pos_as_xyz
  1  'x, y, z'
loop_
 _atom_site_type_symbol
 _atom_site_label
 _atom_site_symmetry_multiplicity
 _atom_site_fract_x
 _atom_site_fract_y
 _atom_site_fract_z
 _atom_site_occupancy
  Rb  Rb0  1  0.333333  0.666667  0.060310  1
  Rb  Rb1  1  0.666667  0.333333  0.560310  1
  Rb  Rb2  1  0.333333  0.666667  0.439690  1
  Rb  Rb3  1  0.666667  0.333333  0.939690  1
  U  U4  1  0.000000  0.000000  0.000000  1
  U  U5  1  0.000000  0.000000  0.500000  1
  Si  Si6  1  0.603763  0.736903  0.750000  1
  Si  Si7  1  0.866862  0.603763  0.250000  1
  Si  Si8  1  0.736903  0.133138  0.250000  1
  Si  Si9  1  0.263097  0.866862  0.750000  1
  Si  Si10  1  0.133138  0.396237  0.750000  1
  Si  Si11  1  0.396237  0.263097  0.250000  1
  O  O12  1  0.267983  0.238754  0.379196  1
  O  O13  1  0.029229  0.267983  0.879196  1
  O  O14  1  0.238754  0.970771  0.879196  1
  O  O15  1  0.761246  0.029229  0.379196  1
  O  O16  1  0.970771  0.732017  0.379196  1
  O  O17  1  0.732017  0.761246  0.879196  1
  O  O18  1  0.732017  0.761246  0.620804  1
  O  O19  1  0.970771  0.732017  0.120804  1
  O  O20  1  0.761246  0.029229  0.120804  1
  O  O21  1  0.238754  0.970771  0.620804  1
  O  O22  1  0.029229  0.267983  0.620804  1
  O  O23  1  0.267983  0.238754  0.120804  1
  O  O24  1  0.490726  0.096401  0.250000  1
  O  O25  1  0.394324  0.490726  0.750000  1
  O  O26  1  0.096401  0.605676  0.750000  1
  O  O27  1  0.903599  0.394324  0.250000  1
  O  O28  1  0.605676  0.509274  0.250000  1
  O  O29  1  0.509274  0.903599  0.750000  1
