# generated using pymatgen
data_Rb2Tm2BiSb3Se10
_symmetry_space_group_name_H-M   'P 1'
_cell_length_a   4.10072600
_cell_length_b   12.29267995
_cell_length_c   22.17926050
_cell_angle_alpha   90.40315421
_cell_angle_beta   90.00000000
_cell_angle_gamma   90.00000000
_symmetry_Int_Tables_number   1
_chemical_formula_structural   Rb2Tm2BiSb3Se10
_chemical_formula_sum   'Rb4 Tm4 Bi2 Sb6 Se20'
_cell_volume   1118.00471956
_cell_formula_units_Z   2
loop_
 _symmetry_equiv_pos_site_id
 _symmetry_equiv_pos_as_xyz
  1  'x, y, z'
loop_
 _atom_site_type_symbol
 _atom_site_label
 _atom_site_symmetry_multiplicity
 _atom_site_fract_x
 _atom_site_fract_y
 _atom_site_fract_z
 _atom_site_occupancy
  Rb  Rb0  1  0.250000  0.488729  0.209867  1
  Rb  Rb1  1  0.750000  0.511271  0.790133  1
  Rb  Rb2  1  0.750000  0.989465  0.290727  1
  Rb  Rb3  1  0.250000  0.010535  0.709273  1
  Tm  Tm4  1  0.250000  0.365635  0.023641  1
  Tm  Tm5  1  0.750000  0.634365  0.976359  1
  Tm  Tm6  1  0.750000  0.864192  0.477249  1
  Tm  Tm7  1  0.250000  0.135808  0.522751  1
  Bi  Bi8  1  0.750000  0.096195  0.075261  1
  Bi  Bi9  1  0.250000  0.903805  0.924739  1
  Sb  Sb10  1  0.250000  0.804548  0.126724  1
  Sb  Sb11  1  0.750000  0.195452  0.873276  1
  Sb  Sb12  1  0.750000  0.306988  0.374768  1
  Sb  Sb13  1  0.250000  0.693012  0.625232  1
  Sb  Sb14  1  0.250000  0.597994  0.425799  1
  Sb  Sb15  1  0.750000  0.402006  0.574201  1
  Se  Se16  1  0.250000  0.806917  0.390865  1
  Se  Se17  1  0.750000  0.193083  0.609135  1
  Se  Se18  1  0.750000  0.314582  0.109606  1
  Se  Se19  1  0.250000  0.685418  0.890394  1
  Se  Se20  1  0.250000  0.250466  0.298333  1
  Se  Se21  1  0.750000  0.749534  0.701667  1
  Se  Se22  1  0.750000  0.749483  0.202492  1
  Se  Se23  1  0.250000  0.250517  0.797508  1
  Se  Se24  1  0.250000  0.354535  0.482145  1
  Se  Se25  1  0.750000  0.645465  0.517855  1
  Se  Se26  1  0.750000  0.854098  0.019944  1
  Se  Se27  1  0.250000  0.145902  0.980056  1
  Se  Se28  1  0.250000  0.021599  0.160640  1
  Se  Se29  1  0.750000  0.978401  0.839360  1
  Se  Se30  1  0.750000  0.524285  0.342440  1
  Se  Se31  1  0.250000  0.475715  0.657560  1
  Se  Se32  1  0.250000  0.584008  0.059833  1
  Se  Se33  1  0.750000  0.415992  0.940167  1
  Se  Se34  1  0.750000  0.082305  0.439915  1
  Se  Se35  1  0.250000  0.917695  0.560085  1
