# generated using pymatgen
data_Hf2P2OsRu
_symmetry_space_group_name_H-M   'P 1'
_cell_length_a   3.89421200
_cell_length_b   6.39927700
_cell_length_c   7.33664300
_cell_angle_alpha   90.00000000
_cell_angle_beta   90.00000000
_cell_angle_gamma   90.00000000
_symmetry_Int_Tables_number   1
_chemical_formula_structural   Hf2P2OsRu
_chemical_formula_sum   'Hf4 P4 Os2 Ru2'
_cell_volume   182.83018012
_cell_formula_units_Z   2
loop_
 _symmetry_equiv_pos_site_id
 _symmetry_equiv_pos_as_xyz
  1  'x, y, z'
loop_
 _atom_site_type_symbol
 _atom_site_label
 _atom_site_symmetry_multiplicity
 _atom_site_fract_x
 _atom_site_fract_y
 _atom_site_fract_z
 _atom_site_occupancy
  Hf  Hf0  1  0.750000  0.522547  0.320428  1
  Hf  Hf1  1  0.250000  0.977538  0.821842  1
  Hf  Hf2  1  0.750000  0.022547  0.179572  1
  Hf  Hf3  1  0.250000  0.477538  0.678158  1
  P  P4  1  0.250000  0.725307  0.123815  1
  P  P5  1  0.250000  0.225307  0.376185  1
  P  P6  1  0.750000  0.274140  0.875892  1
  P  P7  1  0.750000  0.774140  0.624108  1
  Os  Os8  1  0.250000  0.344999  0.059874  1
  Os  Os9  1  0.250000  0.844999  0.440126  1
  Ru  Ru10  1  0.750000  0.155467  0.560889  1
  Ru  Ru11  1  0.750000  0.655467  0.939111  1
