# generated using pymatgen
data_Zr10Sn3Bi4Au
_symmetry_space_group_name_H-M   'P 1'
_cell_length_a   8.89725890
_cell_length_b   8.90354576
_cell_length_c   6.01960640
_cell_angle_alpha   89.95730492
_cell_angle_beta   90.02136388
_cell_angle_gamma   120.02338123
_symmetry_Int_Tables_number   1
_chemical_formula_structural   Zr10Sn3Bi4Au
_chemical_formula_sum   'Zr10 Sn3 Bi4 Au1'
_cell_volume   412.87202733
_cell_formula_units_Z   1
loop_
 _symmetry_equiv_pos_site_id
 _symmetry_equiv_pos_as_xyz
  1  'x, y, z'
loop_
 _atom_site_type_symbol
 _atom_site_label
 _atom_site_symmetry_multiplicity
 _atom_site_fract_x
 _atom_site_fract_y
 _atom_site_fract_z
 _atom_site_occupancy
  Zr  Zr0  1  0.334493  0.667247  0.000000  1
  Zr  Zr1  1  0.660723  0.330361  0.500000  1
  Zr  Zr2  1  0.661367  0.330683  0.000000  1
  Zr  Zr3  1  0.334500  0.667251  0.500000  1
  Zr  Zr4  1  0.279436  0.006068  0.246710  1
  Zr  Zr5  1  0.279436  0.273368  0.753290  1
  Zr  Zr6  1  0.005208  0.726847  0.752179  1
  Zr  Zr7  1  0.005208  0.278361  0.247821  1
  Zr  Zr8  1  0.720471  0.721059  0.248502  1
  Zr  Zr9  1  0.720471  0.999413  0.751498  1
  Sn  Sn10  1  0.999769  0.999884  0.500000  1
  Sn  Sn11  1  0.383487  0.384284  0.250071  1
  Sn  Sn12  1  0.383487  0.999202  0.749929  1
  Bi  Bi13  1  0.615995  0.000606  0.248937  1
  Bi  Bi14  1  0.615995  0.615389  0.751063  1
  Bi  Bi15  1  0.999886  0.383266  0.750251  1
  Bi  Bi16  1  0.999886  0.616620  0.249749  1
  Au  Au17  1  0.000181  0.000090  0.000000  1
