# generated using pymatgen
data_Pr3Sb4Pd2Au
_symmetry_space_group_name_H-M   'P 1'
_cell_length_a   8.68040239
_cell_length_b   8.68040238
_cell_length_c   8.68040200
_cell_angle_alpha   109.24714427
_cell_angle_beta   109.92029920
_cell_angle_gamma   109.24715077
_symmetry_Int_Tables_number   1
_chemical_formula_structural   Pr3Sb4Pd2Au
_chemical_formula_sum   'Pr6 Sb8 Pd4 Au2'
_cell_volume   503.47469889
_cell_formula_units_Z   2
loop_
 _symmetry_equiv_pos_site_id
 _symmetry_equiv_pos_as_xyz
  1  'x, y, z'
loop_
 _atom_site_type_symbol
 _atom_site_label
 _atom_site_symmetry_multiplicity
 _atom_site_fract_x
 _atom_site_fract_y
 _atom_site_fract_z
 _atom_site_occupancy
  Pr  Pr0  1  0.875000  0.250000  0.125000  1
  Pr  Pr1  1  0.625000  0.750000  0.375000  1
  Pr  Pr2  1  0.250000  0.123335  0.873335  1
  Pr  Pr3  1  0.750000  0.376665  0.626665  1
  Pr  Pr4  1  0.126665  0.876665  0.250000  1
  Pr  Pr5  1  0.373335  0.623335  0.750000  1
  Sb  Sb6  1  0.669040  0.506017  0.009945  1
  Sb  Sb7  1  0.503928  0.993983  0.663024  1
  Sb  Sb8  1  0.996072  0.659096  0.490055  1
  Sb  Sb9  1  0.830960  0.840904  0.836976  1
  Sb  Sb10  1  0.509945  0.006017  0.169040  1
  Sb  Sb11  1  0.163024  0.493983  0.003928  1
  Sb  Sb12  1  0.990055  0.159096  0.496072  1
  Sb  Sb13  1  0.336976  0.340904  0.330960  1
  Pd  Pd14  1  0.250000  0.627390  0.377390  1
  Pd  Pd15  1  0.750000  0.872610  0.122610  1
  Pd  Pd16  1  0.622610  0.372610  0.250000  1
  Pd  Pd17  1  0.877390  0.127390  0.750000  1
  Au  Au18  1  0.375000  0.250000  0.625000  1
  Au  Au19  1  0.125000  0.750000  0.875000  1
