# generated using pymatgen
data_Ho3Tm17Bi12
_symmetry_space_group_name_H-M   'P 1'
_cell_length_a   8.17989411
_cell_length_b   9.45433700
_cell_length_c   11.89813416
_cell_angle_alpha   90.00000000
_cell_angle_beta   90.01900653
_cell_angle_gamma   90.00000000
_symmetry_Int_Tables_number   1
_chemical_formula_structural   Ho3Tm17Bi12
_chemical_formula_sum   'Ho3 Tm17 Bi12'
_cell_volume   920.14781324
_cell_formula_units_Z   1
loop_
 _symmetry_equiv_pos_site_id
 _symmetry_equiv_pos_as_xyz
  1  'x, y, z'
loop_
 _atom_site_type_symbol
 _atom_site_label
 _atom_site_symmetry_multiplicity
 _atom_site_fract_x
 _atom_site_fract_y
 _atom_site_fract_z
 _atom_site_occupancy
  Ho  Ho0  1  0.813753  0.250000  0.281907  1
  Ho  Ho1  1  0.686097  0.750000  0.781899  1
  Ho  Ho2  1  0.186057  0.750000  0.718151  1
  Tm  Tm3  1  0.353672  0.750000  0.217271  1
  Tm  Tm4  1  0.853607  0.750000  0.282754  1
  Tm  Tm5  1  0.646339  0.250000  0.782767  1
  Tm  Tm6  1  0.146435  0.250000  0.717261  1
  Tm  Tm7  1  0.692481  0.565682  0.059443  1
  Tm  Tm8  1  0.192375  0.934365  0.440493  1
  Tm  Tm9  1  0.307564  0.065656  0.940663  1
  Tm  Tm10  1  0.807662  0.434391  0.559420  1
  Tm  Tm11  1  0.307564  0.434344  0.940663  1
  Tm  Tm12  1  0.807662  0.065609  0.559420  1
  Tm  Tm13  1  0.692481  0.934318  0.059443  1
  Tm  Tm14  1  0.192375  0.565635  0.440493  1
  Tm  Tm15  1  0.476758  0.250000  0.489209  1
  Tm  Tm16  1  0.977103  0.250000  0.010742  1
  Tm  Tm17  1  0.523058  0.750000  0.510562  1
  Tm  Tm18  1  0.023135  0.750000  0.989465  1
  Tm  Tm19  1  0.313753  0.250000  0.217723  1
  Bi  Bi20  1  0.404538  0.750000  0.958144  1
  Bi  Bi21  1  0.904474  0.750000  0.541854  1
  Bi  Bi22  1  0.594904  0.250000  0.042415  1
  Bi  Bi23  1  0.095832  0.250000  0.457946  1
  Bi  Bi24  1  0.565656  0.995893  0.325632  1
  Bi  Bi25  1  0.066562  0.503961  0.174244  1
  Bi  Bi26  1  0.434014  0.495582  0.674208  1
  Bi  Bi27  1  0.933927  0.004445  0.825864  1
  Bi  Bi28  1  0.434014  0.004418  0.674208  1
  Bi  Bi29  1  0.933927  0.495555  0.825864  1
  Bi  Bi30  1  0.565656  0.504107  0.325632  1
  Bi  Bi31  1  0.066562  0.996039  0.174244  1
