# generated using pymatgen
data_Eu10Si5TeH2
_symmetry_space_group_name_H-M   'P 1'
_cell_length_a   9.20564001
_cell_length_b   9.20564017
_cell_length_c   9.20564058
_cell_angle_alpha   128.84277572
_cell_angle_beta   128.84277814
_cell_angle_gamma   75.26368297
_symmetry_Int_Tables_number   1
_chemical_formula_structural   Eu10Si5TeH2
_chemical_formula_sum   'Eu10 Si5 Te1 H2'
_cell_volume   460.66244122
_cell_formula_units_Z   1
loop_
 _symmetry_equiv_pos_site_id
 _symmetry_equiv_pos_as_xyz
  1  'x, y, z'
loop_
 _atom_site_type_symbol
 _atom_site_label
 _atom_site_symmetry_multiplicity
 _atom_site_fract_x
 _atom_site_fract_y
 _atom_site_fract_z
 _atom_site_occupancy
  Eu  Eu0  1  0.498216  0.498216  0.000000  1
  Eu  Eu1  1  0.001784  0.001784  0.000000  1
  Eu  Eu2  1  0.530282  0.012071  0.834645  1
  Eu  Eu3  1  0.177426  0.695637  0.165355  1
  Eu  Eu4  1  0.012071  0.177426  0.481789  1
  Eu  Eu5  1  0.695637  0.530282  0.518211  1
  Eu  Eu6  1  0.487929  0.969718  0.165355  1
  Eu  Eu7  1  0.804363  0.322574  0.834645  1
  Eu  Eu8  1  0.969718  0.804363  0.481789  1
  Eu  Eu9  1  0.322574  0.487929  0.518211  1
  Si  Si10  1  0.750000  0.750000  0.000000  1
  Si  Si11  1  0.887302  0.387302  0.274603  1
  Si  Si12  1  0.112698  0.612698  0.725397  1
  Si  Si13  1  0.387302  0.112698  0.500000  1
  Si  Si14  1  0.612698  0.887302  0.500000  1
  Te  Te15  1  0.250000  0.250000  0.000000  1
  H  H16  1  0.250000  0.750000  0.500000  1
  H  H17  1  0.750000  0.250000  0.500000  1
