# generated using pymatgen
data_Ce2ReTcC3
_symmetry_space_group_name_H-M   'P 1'
_cell_length_a   6.26700631
_cell_length_b   6.26700643
_cell_length_c   5.71155363
_cell_angle_alpha   65.40433864
_cell_angle_beta   65.40433614
_cell_angle_gamma   30.61880906
_symmetry_Int_Tables_number   1
_chemical_formula_structural   Ce2ReTcC3
_chemical_formula_sum   'Ce2 Re1 Tc1 C3'
_cell_volume   103.06798407
_cell_formula_units_Z   1
loop_
 _symmetry_equiv_pos_site_id
 _symmetry_equiv_pos_as_xyz
  1  'x, y, z'
loop_
 _atom_site_type_symbol
 _atom_site_label
 _atom_site_symmetry_multiplicity
 _atom_site_fract_x
 _atom_site_fract_y
 _atom_site_fract_z
 _atom_site_occupancy
  Ce  Ce0  1  0.396781  0.396781  0.798454  1
  Ce  Ce1  1  0.603593  0.603593  0.197253  1
  Re  Re2  1  0.841945  0.841945  0.323805  1
  Tc  Tc3  1  0.157248  0.157248  0.679258  1
  C  C4  1  0.999001  0.999001  0.002617  1
  C  C5  1  0.252879  0.252879  0.261834  1
  C  C6  1  0.748553  0.748553  0.736776  1
