# generated using pymatgen
data_Er11Th5(CdFe)4
_symmetry_space_group_name_H-M   'P 1'
_cell_length_a   9.48017715
_cell_length_b   9.53760386
_cell_length_c   9.53760365
_cell_angle_alpha   59.81046704
_cell_angle_beta   60.19896906
_cell_angle_gamma   60.19897709
_symmetry_Int_Tables_number   1
_chemical_formula_structural   Er11Th5(CdFe)4
_chemical_formula_sum   'Er11 Th5 Cd4 Fe4'
_cell_volume   610.73100425
_cell_formula_units_Z   1
loop_
 _symmetry_equiv_pos_site_id
 _symmetry_equiv_pos_as_xyz
  1  'x, y, z'
loop_
 _atom_site_type_symbol
 _atom_site_label
 _atom_site_symmetry_multiplicity
 _atom_site_fract_x
 _atom_site_fract_y
 _atom_site_fract_z
 _atom_site_occupancy
  Er  Er0  1  0.436193  0.063807  0.063807  1
  Er  Er1  1  0.442735  0.058610  0.435550  1
  Er  Er2  1  0.063106  0.435550  0.058610  1
  Er  Er3  1  0.442735  0.435550  0.058610  1
  Er  Er4  1  0.063106  0.058610  0.435550  1
  Er  Er5  1  0.183952  0.816048  0.816048  1
  Er  Er6  1  0.814412  0.185588  0.185588  1
  Er  Er7  1  0.812095  0.187706  0.811899  1
  Er  Er8  1  0.188301  0.811899  0.187706  1
  Er  Er9  1  0.812095  0.811899  0.187706  1
  Er  Er10  1  0.188301  0.187706  0.811899  1
  Th  Th11  1  0.589663  0.597315  0.597315  1
  Th  Th12  1  0.594112  0.596831  0.214944  1
  Th  Th13  1  0.594112  0.214944  0.596831  1
  Th  Th14  1  0.215707  0.597315  0.597315  1
  Th  Th15  1  0.067690  0.432310  0.432310  1
  Cd  Cd16  1  0.831967  0.831303  0.831303  1
  Cd  Cd17  1  0.830772  0.833728  0.504727  1
  Cd  Cd18  1  0.830772  0.504727  0.833728  1
  Cd  Cd19  1  0.505427  0.831303  0.831303  1
  Fe  Fe20  1  0.370730  0.399514  0.399514  1
  Fe  Fe21  1  0.395889  0.392386  0.815836  1
  Fe  Fe22  1  0.395889  0.815836  0.392386  1
  Fe  Fe23  1  0.830241  0.399514  0.399514  1
