# generated using pymatgen
data_Dy3Lu4Th(InAu2)4
_symmetry_space_group_name_H-M   'P 1'
_cell_length_a   7.98805802
_cell_length_b   7.98805861
_cell_length_c   7.35300100
_cell_angle_alpha   90.00000000
_cell_angle_beta   90.00000000
_cell_angle_gamma   90.06547940
_symmetry_Int_Tables_number   1
_chemical_formula_structural   Dy3Lu4Th(InAu2)4
_chemical_formula_sum   'Dy3 Lu4 Th1 In4 Au8'
_cell_volume   469.18789037
_cell_formula_units_Z   1
loop_
 _symmetry_equiv_pos_site_id
 _symmetry_equiv_pos_as_xyz
  1  'x, y, z'
loop_
 _atom_site_type_symbol
 _atom_site_label
 _atom_site_symmetry_multiplicity
 _atom_site_fract_x
 _atom_site_fract_y
 _atom_site_fract_z
 _atom_site_occupancy
  Dy  Dy0  1  0.161036  0.838964  0.500000  1
  Dy  Dy1  1  0.679810  0.680623  0.500000  1
  Dy  Dy2  1  0.319377  0.320190  0.500000  1
  Lu  Lu3  1  0.339520  0.343259  0.000000  1
  Lu  Lu4  1  0.656741  0.660480  0.000000  1
  Lu  Lu5  1  0.181536  0.818464  0.000000  1
  Lu  Lu6  1  0.820976  0.179024  0.000000  1
  Th  Th7  1  0.840350  0.159650  0.500000  1
  In  In8  1  0.497209  0.997885  0.248304  1
  In  In9  1  0.002115  0.502791  0.751696  1
  In  In10  1  0.497209  0.997885  0.751696  1
  In  In11  1  0.002115  0.502791  0.248304  1
  Au  Au12  1  0.627020  0.372980  0.257906  1
  Au  Au13  1  0.370388  0.629612  0.264685  1
  Au  Au14  1  0.131595  0.128000  0.780804  1
  Au  Au15  1  0.872000  0.868405  0.780804  1
  Au  Au16  1  0.370388  0.629612  0.735315  1
  Au  Au17  1  0.627020  0.372980  0.742094  1
  Au  Au18  1  0.872000  0.868405  0.219196  1
  Au  Au19  1  0.131595  0.128000  0.219196  1
