# generated using pymatgen
data_Nd2Th(AlCu)3
_symmetry_space_group_name_H-M   'P 1'
_cell_length_a   7.30047600
_cell_length_b   7.19817319
_cell_length_c   4.10830900
_cell_angle_alpha   90.00000000
_cell_angle_beta   90.00000000
_cell_angle_gamma   120.47125512
_symmetry_Int_Tables_number   1
_chemical_formula_structural   Nd2Th(AlCu)3
_chemical_formula_sum   'Nd2 Th1 Al3 Cu3'
_cell_volume   186.07380032
_cell_formula_units_Z   1
loop_
 _symmetry_equiv_pos_site_id
 _symmetry_equiv_pos_as_xyz
  1  'x, y, z'
loop_
 _atom_site_type_symbol
 _atom_site_label
 _atom_site_symmetry_multiplicity
 _atom_site_fract_x
 _atom_site_fract_y
 _atom_site_fract_z
 _atom_site_occupancy
  Nd  Nd0  1  0.999465  0.419325  0.500000  1
  Nd  Nd1  1  0.580140  0.580675  0.500000  1
  Th  Th2  1  0.419220  0.000000  0.500000  1
  Al  Al3  1  0.999847  0.769900  0.000000  1
  Al  Al4  1  0.229948  0.230100  0.000000  1
  Al  Al5  1  0.770513  0.000000  0.000000  1
  Cu  Cu6  1  0.334636  0.674446  0.000000  1
  Cu  Cu7  1  0.660190  0.325554  0.000000  1
  Cu  Cu8  1  0.006040  0.000000  0.500000  1
