# generated using pymatgen
data_Dy3Tm2Os2C7
_symmetry_space_group_name_H-M   'P 1'
_cell_length_a   8.16817094
_cell_length_b   8.11185195
_cell_length_c   3.50135000
_cell_angle_alpha   90.00000000
_cell_angle_beta   90.00000000
_cell_angle_gamma   121.83769140
_symmetry_Int_Tables_number   1
_chemical_formula_structural   Dy3Tm2Os2C7
_chemical_formula_sum   'Dy3 Tm2 Os2 C7'
_cell_volume   197.09117819
_cell_formula_units_Z   1
loop_
 _symmetry_equiv_pos_site_id
 _symmetry_equiv_pos_as_xyz
  1  'x, y, z'
loop_
 _atom_site_type_symbol
 _atom_site_label
 _atom_site_symmetry_multiplicity
 _atom_site_fract_x
 _atom_site_fract_y
 _atom_site_fract_z
 _atom_site_occupancy
  Dy  Dy0  1  0.500000  0.500000  0.000000  1
  Dy  Dy1  1  0.076705  0.333749  0.500000  1
  Dy  Dy2  1  0.923295  0.666251  0.500000  1
  Tm  Tm3  1  0.657882  0.922260  0.500000  1
  Tm  Tm4  1  0.342118  0.077740  0.500000  1
  Os  Os5  1  0.715090  0.286199  0.000000  1
  Os  Os6  1  0.284910  0.713801  0.000000  1
  C  C7  1  0.632575  0.368171  0.500000  1
  C  C8  1  0.367425  0.631829  0.500000  1
  C  C9  1  0.000000  0.000000  0.000000  1
  C  C10  1  0.175265  0.168034  0.000000  1
  C  C11  1  0.824735  0.831966  0.000000  1
  C  C12  1  0.000000  0.500000  0.000000  1
  C  C13  1  0.500000  0.000000  0.000000  1
