# generated using pymatgen
data_NpHg3(SBr3)2
_symmetry_space_group_name_H-M   'P 1'
_cell_length_a   7.67246200
_cell_length_b   7.55679559
_cell_length_c   13.83369650
_cell_angle_alpha   90.97098784
_cell_angle_beta   90.00000000
_cell_angle_gamma   90.00000000
_symmetry_Int_Tables_number   1
_chemical_formula_structural   NpHg3(SBr3)2
_chemical_formula_sum   'Np2 Hg6 S4 Br12'
_cell_volume   801.95185632
_cell_formula_units_Z   2
loop_
 _symmetry_equiv_pos_site_id
 _symmetry_equiv_pos_as_xyz
  1  'x, y, z'
loop_
 _atom_site_type_symbol
 _atom_site_label
 _atom_site_symmetry_multiplicity
 _atom_site_fract_x
 _atom_site_fract_y
 _atom_site_fract_z
 _atom_site_occupancy
  Np  Np0  1  0.000000  0.000000  0.000000  1
  Np  Np1  1  0.500000  0.000000  0.500000  1
  Hg  Hg2  1  0.715961  0.497177  0.253120  1
  Hg  Hg3  1  0.284039  0.502823  0.746880  1
  Hg  Hg4  1  0.215961  0.502823  0.246880  1
  Hg  Hg5  1  0.784039  0.497177  0.753120  1
  Hg  Hg6  1  0.000000  0.500000  0.500000  1
  Hg  Hg7  1  0.500000  0.500000  0.000000  1
  S  S8  1  0.967832  0.627163  0.335396  1
  S  S9  1  0.032168  0.372837  0.664604  1
  S  S10  1  0.467832  0.372837  0.164604  1
  S  S11  1  0.532168  0.627163  0.835396  1
  Br  Br12  1  0.462996  0.836953  0.320011  1
  Br  Br13  1  0.537004  0.163047  0.679989  1
  Br  Br14  1  0.962996  0.163047  0.179989  1
  Br  Br15  1  0.037004  0.836953  0.820011  1
  Br  Br16  1  0.312548  0.860597  0.059626  1
  Br  Br17  1  0.687452  0.139403  0.940374  1
  Br  Br18  1  0.812548  0.139403  0.440374  1
  Br  Br19  1  0.187452  0.860597  0.559626  1
  Br  Br20  1  0.843346  0.688259  0.064509  1
  Br  Br21  1  0.156654  0.311741  0.935491  1
  Br  Br22  1  0.343346  0.311741  0.435491  1
  Br  Br23  1  0.656654  0.688259  0.564509  1
