# generated using pymatgen
data_YbY3(Rh2O7)2
_symmetry_space_group_name_H-M   'P 1'
_cell_length_a   7.22963562
_cell_length_b   7.23778111
_cell_length_c   7.22963600
_cell_angle_alpha   60.03721962
_cell_angle_beta   59.99999827
_cell_angle_gamma   60.03722020
_symmetry_Int_Tables_number   1
_chemical_formula_structural   YbY3(Rh2O7)2
_chemical_formula_sum   'Yb1 Y3 Rh4 O14'
_cell_volume   267.65008027
_cell_formula_units_Z   1
loop_
 _symmetry_equiv_pos_site_id
 _symmetry_equiv_pos_as_xyz
  1  'x, y, z'
loop_
 _atom_site_type_symbol
 _atom_site_label
 _atom_site_symmetry_multiplicity
 _atom_site_fract_x
 _atom_site_fract_y
 _atom_site_fract_z
 _atom_site_occupancy
  Yb  Yb0  1  0.125000  0.625000  0.125000  1
  Y  Y1  1  0.125000  0.125000  0.625000  1
  Y  Y2  1  0.625000  0.125000  0.125000  1
  Y  Y3  1  0.125000  0.125000  0.125000  1
  Rh  Rh4  1  0.625000  0.625000  0.625000  1
  Rh  Rh5  1  0.125000  0.625000  0.625000  1
  Rh  Rh6  1  0.625000  0.625000  0.125000  1
  Rh  Rh7  1  0.625000  0.125000  0.625000  1
  O  O8  1  0.292672  0.712076  0.702580  1
  O  O9  1  0.540142  0.960464  0.959253  1
  O  O10  1  0.702580  0.712076  0.292672  1
  O  O11  1  0.290747  0.289536  0.709858  1
  O  O12  1  0.998344  0.004968  0.998344  1
  O  O13  1  0.292672  0.712076  0.292672  1
  O  O14  1  0.709858  0.289536  0.709858  1
  O  O15  1  0.957328  0.537924  0.957328  1
  O  O16  1  0.547420  0.537924  0.957328  1
  O  O17  1  0.959253  0.960464  0.540142  1
  O  O18  1  0.251656  0.245032  0.251656  1
  O  O19  1  0.540142  0.960464  0.540142  1
  O  O20  1  0.709858  0.289536  0.290747  1
  O  O21  1  0.957328  0.537924  0.547420  1
