# generated using pymatgen
data_La6IrCl11
_symmetry_space_group_name_H-M   'P 1'
_cell_length_a   7.49250325
_cell_length_b   8.41395163
_cell_length_c   8.41395133
_cell_angle_alpha   102.19061744
_cell_angle_beta   92.99578711
_cell_angle_gamma   92.99579131
_symmetry_Int_Tables_number   1
_chemical_formula_structural   La6IrCl11
_chemical_formula_sum   'La6 Ir1 Cl11'
_cell_volume   516.66937505
_cell_formula_units_Z   1
loop_
 _symmetry_equiv_pos_site_id
 _symmetry_equiv_pos_as_xyz
  1  'x, y, z'
loop_
 _atom_site_type_symbol
 _atom_site_label
 _atom_site_symmetry_multiplicity
 _atom_site_fract_x
 _atom_site_fract_y
 _atom_site_fract_z
 _atom_site_occupancy
  La  La0  1  0.229398  0.706992  0.017103  1
  La  La1  1  0.238814  0.192710  0.192710  1
  La  La2  1  0.770602  0.982897  0.293007  1
  La  La3  1  0.229398  0.017103  0.706992  1
  La  La4  1  0.761186  0.807290  0.807290  1
  La  La5  1  0.770602  0.293007  0.982897  1
  Ir  Ir6  1  0.000000  0.000000  0.000000  1
  Cl  Cl7  1  0.500000  0.000000  0.000000  1
  Cl  Cl8  1  0.636598  0.661146  0.093520  1
  Cl  Cl9  1  0.056446  0.490556  0.201567  1
  Cl  Cl10  1  0.635015  0.305714  0.305714  1
  Cl  Cl11  1  0.363402  0.906480  0.338855  1
  Cl  Cl12  1  0.056446  0.201567  0.490556  1
  Cl  Cl13  1  0.943555  0.798433  0.509444  1
  Cl  Cl14  1  0.636598  0.093520  0.661146  1
  Cl  Cl15  1  0.364986  0.694286  0.694286  1
  Cl  Cl16  1  0.943555  0.509444  0.798433  1
  Cl  Cl17  1  0.363402  0.338855  0.906480  1
