# generated using pymatgen
data_Nb(Pd3Pt)2
_symmetry_space_group_name_H-M   'P 1'
_cell_length_a   6.34864091
_cell_length_b   6.34864151
_cell_length_c   6.23118928
_cell_angle_alpha   95.66703843
_cell_angle_beta   95.66704294
_cell_angle_gamma   143.72233283
_symmetry_Int_Tables_number   1
_chemical_formula_structural   Nb(Pd3Pt)2
_chemical_formula_sum   'Nb1 Pd6 Pt2'
_cell_volume   140.93138360
_cell_formula_units_Z   1
loop_
 _symmetry_equiv_pos_site_id
 _symmetry_equiv_pos_as_xyz
  1  'x, y, z'
loop_
 _atom_site_type_symbol
 _atom_site_label
 _atom_site_symmetry_multiplicity
 _atom_site_fract_x
 _atom_site_fract_y
 _atom_site_fract_z
 _atom_site_occupancy
  Nb  Nb0  1  0.000000  0.000000  0.000000  1
  Pd  Pd1  1  0.664731  0.664731  0.329460  1
  Pd  Pd2  1  0.329996  0.999556  0.329552  1
  Pd  Pd3  1  0.999556  0.329996  0.329552  1
  Pd  Pd4  1  0.670004  0.000444  0.670448  1
  Pd  Pd5  1  0.000444  0.670004  0.670448  1
  Pd  Pd6  1  0.335269  0.335269  0.670539  1
  Pt  Pt7  1  0.662194  0.337808  0.000000  1
  Pt  Pt8  1  0.337808  0.662194  0.000000  1
