# generated using pymatgen
data_Ho7ErGa12CoPd3
_symmetry_space_group_name_H-M   'P 1'
_cell_length_a   7.00164702
_cell_length_b   8.85276310
_cell_length_c   8.84916624
_cell_angle_alpha   120.01251873
_cell_angle_beta   89.99412239
_cell_angle_gamma   89.99766340
_symmetry_Int_Tables_number   1
_chemical_formula_structural   Ho7ErGa12CoPd3
_chemical_formula_sum   'Ho7 Er1 Ga12 Co1 Pd3'
_cell_volume   474.96021991
_cell_formula_units_Z   1
loop_
 _symmetry_equiv_pos_site_id
 _symmetry_equiv_pos_as_xyz
  1  'x, y, z'
loop_
 _atom_site_type_symbol
 _atom_site_label
 _atom_site_symmetry_multiplicity
 _atom_site_fract_x
 _atom_site_fract_y
 _atom_site_fract_z
 _atom_site_occupancy
  Ho  Ho0  1  0.743281  0.999995  0.999928  1
  Ho  Ho1  1  0.247550  0.000055  0.000069  1
  Ho  Ho2  1  0.751011  0.482200  0.517820  1
  Ho  Ho3  1  0.255243  0.523336  0.476497  1
  Ho  Ho4  1  0.751078  0.035750  0.517850  1
  Ho  Ho5  1  0.255298  0.953167  0.476461  1
  Ho  Ho6  1  0.751048  0.482301  0.964548  1
  Er  Er7  1  0.255504  0.523463  0.046875  1
  Ga  Ga8  1  0.955839  0.833728  0.166176  1
  Ga  Ga9  1  0.047428  0.168067  0.832276  1
  Ga  Ga10  1  0.955875  0.332280  0.166077  1
  Ga  Ga11  1  0.455023  0.166843  0.833398  1
  Ga  Ga12  1  0.047267  0.664573  0.832453  1
  Ga  Ga13  1  0.545134  0.826366  0.173328  1
  Ga  Ga14  1  0.955755  0.833752  0.667425  1
  Ga  Ga15  1  0.455006  0.666085  0.833207  1
  Ga  Ga16  1  0.046839  0.167846  0.335738  1
  Ga  Ga17  1  0.545059  0.346984  0.173402  1
  Ga  Ga18  1  0.455296  0.166877  0.333890  1
  Ga  Ga19  1  0.545427  0.826369  0.652831  1
  Co  Co20  1  0.515875  0.666485  0.332904  1
  Pd  Pd21  1  0.962379  0.666370  0.332816  1
  Pd  Pd22  1  0.032198  0.333674  0.667026  1
  Pd  Pd23  1  0.469590  0.333436  0.667002  1
