# generated using pymatgen
data_CeDy3AlB4Ir9
_symmetry_space_group_name_H-M   'P 1'
_cell_length_a   10.80232290
_cell_length_b   10.80232230
_cell_length_c   10.80232281
_cell_angle_alpha   29.63956095
_cell_angle_beta   29.63956476
_cell_angle_gamma   29.63956495
_symmetry_Int_Tables_number   1
_chemical_formula_structural   CeDy3AlB4Ir9
_chemical_formula_sum   'Ce1 Dy3 Al1 B4 Ir9'
_cell_volume   272.93180474
_cell_formula_units_Z   1
loop_
 _symmetry_equiv_pos_site_id
 _symmetry_equiv_pos_as_xyz
  1  'x, y, z'
loop_
 _atom_site_type_symbol
 _atom_site_label
 _atom_site_symmetry_multiplicity
 _atom_site_fract_x
 _atom_site_fract_y
 _atom_site_fract_z
 _atom_site_occupancy
  Ce  Ce0  1  0.050866  0.050866  0.050866  1
  Dy  Dy1  1  0.150844  0.150844  0.150844  1
  Dy  Dy2  1  0.949823  0.949823  0.949823  1
  Dy  Dy3  1  0.849688  0.849688  0.849688  1
  Al  Al4  1  0.500233  0.500233  0.500233  1
  B  B5  1  0.615260  0.615260  0.615260  1
  B  B6  1  0.717601  0.717601  0.717601  1
  B  B7  1  0.384289  0.384289  0.384289  1
  B  B8  1  0.281832  0.281832  0.281832  1
  Ir  Ir9  1  0.401793  0.901880  0.401793  1
  Ir  Ir10  1  0.901880  0.401793  0.401793  1
  Ir  Ir11  1  0.499670  0.499670  0.999519  1
  Ir  Ir12  1  0.499670  0.999519  0.499670  1
  Ir  Ir13  1  0.999519  0.499670  0.499670  1
  Ir  Ir14  1  0.598529  0.098181  0.598529  1
  Ir  Ir15  1  0.598529  0.598529  0.098181  1
  Ir  Ir16  1  0.098181  0.598529  0.598529  1
  Ir  Ir17  1  0.401793  0.401793  0.901880  1
