# generated using pymatgen
data_TbDy2Hf(Al3Rh)6
_symmetry_space_group_name_H-M   'P 1'
_cell_length_a   7.53374974
_cell_length_b   7.51587015
_cell_length_c   9.40374700
_cell_angle_alpha   90.00000000
_cell_angle_beta   90.00000000
_cell_angle_gamma   119.47947432
_symmetry_Int_Tables_number   1
_chemical_formula_structural   TbDy2Hf(Al3Rh)6
_chemical_formula_sum   'Tb1 Dy2 Hf1 Al18 Rh6'
_cell_volume   463.52819615
_cell_formula_units_Z   1
loop_
 _symmetry_equiv_pos_site_id
 _symmetry_equiv_pos_as_xyz
  1  'x, y, z'
loop_
 _atom_site_type_symbol
 _atom_site_label
 _atom_site_symmetry_multiplicity
 _atom_site_fract_x
 _atom_site_fract_y
 _atom_site_fract_z
 _atom_site_occupancy
  Tb  Tb0  1  0.328539  0.006214  0.750000  1
  Dy  Dy1  1  0.006174  0.327890  0.750000  1
  Dy  Dy2  1  0.672124  0.995438  0.250000  1
  Hf  Hf3  1  0.996205  0.672561  0.250000  1
  Al  Al4  1  0.124970  0.122161  0.250000  1
  Al  Al5  1  0.871290  0.870080  0.750000  1
  Al  Al6  1  0.000106  0.339121  0.080360  1
  Al  Al7  1  0.999410  0.664680  0.928787  1
  Al  Al8  1  0.999410  0.664680  0.571213  1
  Al  Al9  1  0.332041  0.997160  0.419583  1
  Al  Al10  1  0.000106  0.339121  0.419640  1
  Al  Al11  1  0.664603  0.998544  0.575051  1
  Al  Al12  1  0.664603  0.998544  0.924949  1
  Al  Al13  1  0.332041  0.997160  0.080417  1
  Al  Al14  1  0.333437  0.333509  0.547680  1
  Al  Al15  1  0.669617  0.667058  0.444317  1
  Al  Al16  1  0.669617  0.667058  0.055683  1
  Al  Al17  1  0.333437  0.333509  0.952320  1
  Al  Al18  1  0.335796  0.551292  0.250000  1
  Al  Al19  1  0.660958  0.451227  0.750000  1
  Al  Al20  1  0.556975  0.345472  0.250000  1
  Al  Al21  1  0.449709  0.658949  0.750000  1
  Rh  Rh22  1  0.672919  0.328558  0.001603  1
  Rh  Rh23  1  0.327471  0.672325  0.002084  1
  Rh  Rh24  1  0.327471  0.672325  0.497916  1
  Rh  Rh25  1  0.672919  0.328558  0.498397  1
  Rh  Rh26  1  0.999024  0.998404  0.001854  1
  Rh  Rh27  1  0.999024  0.998404  0.498146  1
