# generated using pymatgen
data_K3Rb6AlBi4
_symmetry_space_group_name_H-M   'P 1'
_cell_length_a   11.19714700
_cell_length_b   11.19715116
_cell_length_c   11.54852400
_cell_angle_alpha   90.00000000
_cell_angle_beta   90.00000000
_cell_angle_gamma   119.99996270
_symmetry_Int_Tables_number   1
_chemical_formula_structural   K3Rb6AlBi4
_chemical_formula_sum   'K6 Rb12 Al2 Bi8'
_cell_volume   1253.92683631
_cell_formula_units_Z   2
loop_
 _symmetry_equiv_pos_site_id
 _symmetry_equiv_pos_as_xyz
  1  'x, y, z'
loop_
 _atom_site_type_symbol
 _atom_site_label
 _atom_site_symmetry_multiplicity
 _atom_site_fract_x
 _atom_site_fract_y
 _atom_site_fract_z
 _atom_site_occupancy
  K  K0  1  0.239451  0.119725  0.750000  1
  K  K1  1  0.880273  0.119726  0.750000  1
  K  K2  1  0.760549  0.880275  0.250000  1
  K  K3  1  0.119724  0.239450  0.250000  1
  K  K4  1  0.119727  0.880274  0.250000  1
  K  K5  1  0.880276  0.760550  0.750000  1
  Rb  Rb6  1  0.208798  0.791201  0.957135  1
  Rb  Rb7  1  0.208799  0.417596  0.957134  1
  Rb  Rb8  1  0.582404  0.791201  0.957135  1
  Rb  Rb9  1  0.417596  0.208799  0.457135  1
  Rb  Rb10  1  0.791201  0.582404  0.042866  1
  Rb  Rb11  1  0.791202  0.208799  0.457135  1
  Rb  Rb12  1  0.791201  0.582404  0.457134  1
  Rb  Rb13  1  0.208798  0.791201  0.542865  1
  Rb  Rb14  1  0.582404  0.791201  0.542865  1
  Rb  Rb15  1  0.417596  0.208799  0.042865  1
  Rb  Rb16  1  0.791202  0.208799  0.042865  1
  Rb  Rb17  1  0.208799  0.417596  0.542866  1
  Al  Al18  1  0.333333  0.666666  0.250000  1
  Al  Al19  1  0.666667  0.333334  0.750000  1
  Bi  Bi20  1  0.000000  0.000000  0.000000  1
  Bi  Bi21  1  0.046810  0.523405  0.250000  1
  Bi  Bi22  1  0.476595  0.953191  0.250000  1
  Bi  Bi23  1  0.523405  0.046809  0.750000  1
  Bi  Bi24  1  0.523405  0.476595  0.750000  1
  Bi  Bi25  1  0.000000  0.000000  0.500000  1
  Bi  Bi26  1  0.476595  0.523405  0.250000  1
  Bi  Bi27  1  0.953190  0.476595  0.750000  1
