# generated using pymatgen
data_Lu4Ga5GeIr7
_symmetry_space_group_name_H-M   'P 1'
_cell_length_a   7.22517060
_cell_length_b   7.22517178
_cell_length_c   7.22517128
_cell_angle_alpha   109.73837629
_cell_angle_beta   109.33781326
_cell_angle_gamma   109.33780278
_symmetry_Int_Tables_number   1
_chemical_formula_structural   Lu4Ga5GeIr7
_chemical_formula_sum   'Lu4 Ga5 Ge1 Ir7'
_cell_volume   290.34573802
_cell_formula_units_Z   1
loop_
 _symmetry_equiv_pos_site_id
 _symmetry_equiv_pos_as_xyz
  1  'x, y, z'
loop_
 _atom_site_type_symbol
 _atom_site_label
 _atom_site_symmetry_multiplicity
 _atom_site_fract_x
 _atom_site_fract_y
 _atom_site_fract_z
 _atom_site_occupancy
  Lu  Lu0  1  0.000000  0.001026  0.505864  1
  Lu  Lu1  1  0.000000  0.505864  0.001026  1
  Lu  Lu2  1  0.495162  0.001026  0.001026  1
  Lu  Lu3  1  0.504838  0.505864  0.505864  1
  Ga  Ga4  1  0.687568  0.691186  0.003617  1
  Ga  Ga5  1  0.312432  0.003617  0.316050  1
  Ga  Ga6  1  0.000000  0.305199  0.305199  1
  Ga  Ga7  1  0.312432  0.316050  0.003617  1
  Ga  Ga8  1  0.687568  0.003617  0.691186  1
  Ge  Ge9  1  0.000000  0.679405  0.679405  1
  Ir  Ir10  1  0.750117  0.249053  0.498937  1
  Ir  Ir11  1  0.750117  0.498937  0.249053  1
  Ir  Ir12  1  0.500000  0.252252  0.752252  1
  Ir  Ir13  1  0.249883  0.498937  0.748820  1
  Ir  Ir14  1  0.249883  0.748820  0.498937  1
  Ir  Ir15  1  0.500000  0.752252  0.252252  1
  Ir  Ir16  1  0.000000  0.986896  0.986896  1
