# generated using pymatgen
data_Hf6TiNb3(GaGe2)2
_symmetry_space_group_name_H-M   'P 1'
_cell_length_a   7.91446680
_cell_length_b   7.91446765
_cell_length_c   5.39992900
_cell_angle_alpha   89.99792862
_cell_angle_beta   89.99792239
_cell_angle_gamma   120.11084888
_symmetry_Int_Tables_number   1
_chemical_formula_structural   Hf6TiNb3(GaGe2)2
_chemical_formula_sum   'Hf6 Ti1 Nb3 Ga2 Ge4'
_cell_volume   292.60103929
_cell_formula_units_Z   1
loop_
 _symmetry_equiv_pos_site_id
 _symmetry_equiv_pos_as_xyz
  1  'x, y, z'
loop_
 _atom_site_type_symbol
 _atom_site_label
 _atom_site_symmetry_multiplicity
 _atom_site_fract_x
 _atom_site_fract_y
 _atom_site_fract_z
 _atom_site_occupancy
  Hf  Hf0  1  0.253254  0.002458  0.248374  1
  Hf  Hf1  1  0.747806  0.999682  0.752252  1
  Hf  Hf2  1  0.000318  0.252194  0.247748  1
  Hf  Hf3  1  0.997542  0.746746  0.751626  1
  Hf  Hf4  1  0.751728  0.750898  0.247728  1
  Hf  Hf5  1  0.249102  0.248272  0.752272  1
  Ti  Ti6  1  0.331657  0.668343  0.500000  1
  Nb  Nb7  1  0.331393  0.668607  0.000000  1
  Nb  Nb8  1  0.668606  0.331394  0.000000  1
  Nb  Nb9  1  0.668449  0.331551  0.500000  1
  Ga  Ga10  1  0.397659  0.399742  0.252115  1
  Ga  Ga11  1  0.600258  0.602341  0.747885  1
  Ge  Ge12  1  0.605427  0.996631  0.252225  1
  Ge  Ge13  1  0.392135  0.998704  0.747893  1
  Ge  Ge14  1  0.001296  0.607865  0.252107  1
  Ge  Ge15  1  0.003369  0.394573  0.747775  1
