# generated using pymatgen
data_Dy5NiIrO12
_symmetry_space_group_name_H-M   'P 1'
_cell_length_a   6.80505122
_cell_length_b   6.80505148
_cell_length_c   7.29309400
_cell_angle_alpha   74.39913652
_cell_angle_beta   74.39913592
_cell_angle_gamma   51.11562072
_symmetry_Int_Tables_number   1
_chemical_formula_structural   Dy5NiIrO12
_chemical_formula_sum   'Dy5 Ni1 Ir1 O12'
_cell_volume   250.94388673
_cell_formula_units_Z   1
loop_
 _symmetry_equiv_pos_site_id
 _symmetry_equiv_pos_as_xyz
  1  'x, y, z'
loop_
 _atom_site_type_symbol
 _atom_site_label
 _atom_site_symmetry_multiplicity
 _atom_site_fract_x
 _atom_site_fract_y
 _atom_site_fract_z
 _atom_site_occupancy
  Dy  Dy0  1  0.313464  0.292737  0.359038  1
  Dy  Dy1  1  0.707263  0.686536  0.640962  1
  Dy  Dy2  1  0.309722  0.306714  0.831156  1
  Dy  Dy3  1  0.693286  0.690278  0.168844  1
  Dy  Dy4  1  0.004284  0.995716  0.500000  1
  Ni  Ni5  1  0.747479  0.252521  0.000000  1
  Ir  Ir6  1  0.237617  0.762383  0.000000  1
  O  O7  1  0.899430  0.425865  0.918752  1
  O  O8  1  0.425996  0.903342  0.916854  1
  O  O9  1  0.096658  0.574004  0.083146  1
  O  O10  1  0.574135  0.100570  0.081248  1
  O  O11  1  0.101155  0.594498  0.573635  1
  O  O12  1  0.600798  0.092670  0.576022  1
  O  O13  1  0.907330  0.399202  0.423978  1
  O  O14  1  0.405502  0.898845  0.426365  1
  O  O15  1  0.005560  0.994972  0.816311  1
  O  O16  1  0.005028  0.994440  0.183689  1
  O  O17  1  0.482794  0.517501  0.813852  1
  O  O18  1  0.482499  0.517206  0.186148  1
