# generated using pymatgen
data_Dy3Pa(TcB4)4
_symmetry_space_group_name_H-M   'P 1'
_cell_length_a   3.61728200
_cell_length_b   5.97004862
_cell_length_c   11.55180800
_cell_angle_alpha   89.95827820
_cell_angle_beta   90.00000000
_cell_angle_gamma   90.00000000
_symmetry_Int_Tables_number   1
_chemical_formula_structural   Dy3Pa(TcB4)4
_chemical_formula_sum   'Dy3 Pa1 Tc4 B16'
_cell_volume   249.46526403
_cell_formula_units_Z   1
loop_
 _symmetry_equiv_pos_site_id
 _symmetry_equiv_pos_as_xyz
  1  'x, y, z'
loop_
 _atom_site_type_symbol
 _atom_site_label
 _atom_site_symmetry_multiplicity
 _atom_site_fract_x
 _atom_site_fract_y
 _atom_site_fract_z
 _atom_site_occupancy
  Dy  Dy0  1  0.000000  0.370986  0.650616  1
  Dy  Dy1  1  0.000000  0.126587  0.148748  1
  Dy  Dy2  1  0.000000  0.874967  0.849615  1
  Pa  Pa3  1  0.000000  0.626856  0.350578  1
  Tc  Tc4  1  0.000000  0.631716  0.089691  1
  Tc  Tc5  1  0.000000  0.366028  0.912230  1
  Tc  Tc6  1  0.000000  0.138306  0.407193  1
  Tc  Tc7  1  0.000000  0.861780  0.589023  1
  B  B8  1  0.500000  0.786493  0.185585  1
  B  B9  1  0.500000  0.212301  0.815313  1
  B  B10  1  0.500000  0.289362  0.314601  1
  B  B11  1  0.500000  0.713602  0.686197  1
  B  B12  1  0.500000  0.863244  0.031614  1
  B  B13  1  0.500000  0.135747  0.968583  1
  B  B14  1  0.500000  0.364788  0.468422  1
  B  B15  1  0.500000  0.636927  0.531031  1
  B  B16  1  0.500000  0.888640  0.453812  1
  B  B17  1  0.500000  0.113381  0.547462  1
  B  B18  1  0.500000  0.386024  0.046175  1
  B  B19  1  0.500000  0.613015  0.952997  1
  B  B20  1  0.500000  0.973679  0.308611  1
  B  B21  1  0.500000  0.024007  0.692176  1
  B  B22  1  0.500000  0.478447  0.191796  1
  B  B23  1  0.500000  0.523116  0.807926  1
