# generated using pymatgen
data_LaYHo2(MoN3)4
_symmetry_space_group_name_H-M   'P 1'
_cell_length_a   7.24812647
_cell_length_b   7.24812514
_cell_length_c   6.19542700
_cell_angle_alpha   75.44603595
_cell_angle_beta   75.44603052
_cell_angle_gamma   82.51014312
_symmetry_Int_Tables_number   1
_chemical_formula_structural   LaYHo2(MoN3)4
_chemical_formula_sum   'La1 Y1 Ho2 Mo4 N12'
_cell_volume   304.14007037
_cell_formula_units_Z   1
loop_
 _symmetry_equiv_pos_site_id
 _symmetry_equiv_pos_as_xyz
  1  'x, y, z'
loop_
 _atom_site_type_symbol
 _atom_site_label
 _atom_site_symmetry_multiplicity
 _atom_site_fract_x
 _atom_site_fract_y
 _atom_site_fract_z
 _atom_site_occupancy
  La  La0  1  0.690592  0.309408  0.250000  1
  Y  Y1  1  0.305497  0.694503  0.750000  1
  Ho  Ho2  1  0.918761  0.081239  0.750000  1
  Ho  Ho3  1  0.090374  0.909626  0.250000  1
  Mo  Mo4  1  0.802182  0.620185  0.746362  1
  Mo  Mo5  1  0.195654  0.382420  0.248498  1
  Mo  Mo6  1  0.617580  0.804346  0.251502  1
  Mo  Mo7  1  0.379815  0.197818  0.753638  1
  N  N8  1  0.221962  0.994889  0.853856  1
  N  N9  1  0.339589  0.370085  0.479182  1
  N  N10  1  0.647903  0.628923  0.527436  1
  N  N11  1  0.620990  0.110628  0.664097  1
  N  N12  1  0.005111  0.778038  0.646144  1
  N  N13  1  0.788304  0.994434  0.145713  1
  N  N14  1  0.100928  0.621173  0.154149  1
  N  N15  1  0.889372  0.379010  0.835903  1
  N  N16  1  0.005566  0.211696  0.354287  1
  N  N17  1  0.371077  0.352097  0.972564  1
  N  N18  1  0.629915  0.660411  0.020818  1
  N  N19  1  0.378827  0.899072  0.345851  1
