# generated using pymatgen
data_Nb12Co8Mo3RuN4
_symmetry_space_group_name_H-M   'P 1'
_cell_length_a   8.16077701
_cell_length_b   8.16077673
_cell_length_c   8.16077683
_cell_angle_alpha   59.83583768
_cell_angle_beta   59.83583812
_cell_angle_gamma   59.83584237
_symmetry_Int_Tables_number   1
_chemical_formula_structural   Nb12Co8Mo3RuN4
_chemical_formula_sum   'Nb12 Co8 Mo3 Ru1 N4'
_cell_volume   382.87623744
_cell_formula_units_Z   1
loop_
 _symmetry_equiv_pos_site_id
 _symmetry_equiv_pos_as_xyz
  1  'x, y, z'
loop_
 _atom_site_type_symbol
 _atom_site_label
 _atom_site_symmetry_multiplicity
 _atom_site_fract_x
 _atom_site_fract_y
 _atom_site_fract_z
 _atom_site_occupancy
  Nb  Nb0  1  0.689756  0.309734  0.689756  1
  Nb  Nb1  1  0.560244  0.560244  0.940266  1
  Nb  Nb2  1  0.560244  0.940266  0.560244  1
  Nb  Nb3  1  0.941967  0.941967  0.555852  1
  Nb  Nb4  1  0.940266  0.560244  0.560244  1
  Nb  Nb5  1  0.941967  0.555852  0.941967  1
  Nb  Nb6  1  0.694148  0.308033  0.308033  1
  Nb  Nb7  1  0.308033  0.694148  0.308033  1
  Nb  Nb8  1  0.308033  0.308033  0.694148  1
  Nb  Nb9  1  0.309734  0.689756  0.689756  1
  Nb  Nb10  1  0.689756  0.689756  0.309734  1
  Nb  Nb11  1  0.555852  0.941967  0.941967  1
  Co  Co12  1  0.230074  0.923735  0.923735  1
  Co  Co13  1  0.923735  0.230074  0.923735  1
  Co  Co14  1  0.921966  0.921966  0.921966  1
  Co  Co15  1  0.923735  0.923735  0.230074  1
  Co  Co16  1  0.019926  0.326265  0.326265  1
  Co  Co17  1  0.326265  0.326265  0.019926  1
  Co  Co18  1  0.326265  0.019926  0.326265  1
  Co  Co19  1  0.328034  0.328034  0.328034  1
  Mo  Mo20  1  0.625000  0.125000  0.125000  1
  Mo  Mo21  1  0.125000  0.125000  0.625000  1
  Mo  Mo22  1  0.125000  0.625000  0.125000  1
  Ru  Ru23  1  0.125000  0.125000  0.125000  1
  N  N24  1  0.625000  0.625000  0.625000  1
  N  N25  1  0.125000  0.625000  0.625000  1
  N  N26  1  0.625000  0.125000  0.625000  1
  N  N27  1  0.625000  0.625000  0.125000  1
