# generated using pymatgen
data_Ho2Ti3Si7Pt9
_symmetry_space_group_name_H-M   'P 1'
_cell_length_a   9.91706700
_cell_length_b   9.91706729
_cell_length_c   3.94515700
_cell_angle_alpha   90.00000000
_cell_angle_beta   90.00000000
_cell_angle_gamma   120.00000237
_symmetry_Int_Tables_number   1
_chemical_formula_structural   Ho2Ti3Si7Pt9
_chemical_formula_sum   'Ho2 Ti3 Si7 Pt9'
_cell_volume   336.01713123
_cell_formula_units_Z   1
loop_
 _symmetry_equiv_pos_site_id
 _symmetry_equiv_pos_as_xyz
  1  'x, y, z'
loop_
 _atom_site_type_symbol
 _atom_site_label
 _atom_site_symmetry_multiplicity
 _atom_site_fract_x
 _atom_site_fract_y
 _atom_site_fract_z
 _atom_site_occupancy
  Ho  Ho0  1  0.000000  0.000000  0.000000  1
  Ho  Ho1  1  0.333333  0.666667  0.500000  1
  Ti  Ti2  1  0.885369  0.453756  0.500000  1
  Ti  Ti3  1  0.568387  0.114631  0.500000  1
  Ti  Ti4  1  0.546244  0.431613  0.500000  1
  Si  Si5  1  0.254392  0.208214  0.500000  1
  Si  Si6  1  0.791786  0.046180  0.500000  1
  Si  Si7  1  0.953820  0.745608  0.500000  1
  Si  Si8  1  0.553879  0.637423  0.000000  1
  Si  Si9  1  0.362577  0.916455  0.000000  1
  Si  Si10  1  0.083545  0.446121  0.000000  1
  Si  Si11  1  0.666667  0.333333  0.000000  1
  Pt  Pt12  1  0.223316  0.942054  0.500000  1
  Pt  Pt13  1  0.057946  0.281263  0.500000  1
  Pt  Pt14  1  0.718737  0.776684  0.500000  1
  Pt  Pt15  1  0.307813  0.409285  0.000000  1
  Pt  Pt16  1  0.590715  0.898528  0.000000  1
  Pt  Pt17  1  0.101472  0.692187  0.000000  1
  Pt  Pt18  1  0.389222  0.175113  0.000000  1
  Pt  Pt19  1  0.824887  0.214109  0.000000  1
  Pt  Pt20  1  0.785891  0.610778  0.000000  1
