# generated using pymatgen
data_HfZr11(TaSi2)8
_symmetry_space_group_name_H-M   'P 1'
_cell_length_a   6.96450438
_cell_length_b   6.96439593
_cell_length_c   12.82753845
_cell_angle_alpha   89.98007327
_cell_angle_beta   89.68757651
_cell_angle_gamma   89.97757179
_symmetry_Int_Tables_number   1
_chemical_formula_structural   HfZr11(TaSi2)8
_chemical_formula_sum   'Hf1 Zr11 Ta8 Si16'
_cell_volume   622.17202302
_cell_formula_units_Z   1
loop_
 _symmetry_equiv_pos_site_id
 _symmetry_equiv_pos_as_xyz
  1  'x, y, z'
loop_
 _atom_site_type_symbol
 _atom_site_label
 _atom_site_symmetry_multiplicity
 _atom_site_fract_x
 _atom_site_fract_y
 _atom_site_fract_z
 _atom_site_occupancy
  Hf  Hf0  1  0.349262  0.505821  0.376143  1
  Zr  Zr1  1  0.501121  0.351528  0.622822  1
  Zr  Zr2  1  0.500849  0.650516  0.124901  1
  Zr  Zr3  1  0.147674  0.998772  0.874063  1
  Zr  Zr4  1  0.000394  0.654092  0.032769  1
  Zr  Zr5  1  0.997274  0.344787  0.530863  1
  Zr  Zr6  1  0.657886  0.000021  0.968302  1
  Zr  Zr7  1  0.153217  0.498578  0.780974  1
  Zr  Zr8  1  0.846186  0.502840  0.281731  1
  Zr  Zr9  1  0.501222  0.156566  0.219047  1
  Zr  Zr10  1  0.501189  0.844348  0.718252  1
  Zr  Zr11  1  0.342453  0.001508  0.468047  1
  Ta  Ta12  1  0.851937  0.997597  0.374058  1
  Ta  Ta13  1  0.006023  0.151366  0.125585  1
  Ta  Ta14  1  0.991256  0.851043  0.626439  1
  Ta  Ta15  1  0.651513  0.490635  0.875676  1
  Ta  Ta16  1  0.672852  0.674668  0.500053  1
  Ta  Ta17  1  0.827375  0.169589  0.749608  1
  Ta  Ta18  1  0.170507  0.832559  0.251184  1
  Ta  Ta19  1  0.329706  0.326704  0.000049  1
  Si  Si20  1  0.043255  0.704391  0.437041  1
  Si  Si21  1  0.953669  0.299487  0.936476  1
  Si  Si22  1  0.701555  0.044452  0.562607  1
  Si  Si23  1  0.200241  0.451915  0.185851  1
  Si  Si24  1  0.799574  0.546847  0.686126  1
  Si  Si25  1  0.454959  0.199707  0.814667  1
  Si  Si26  1  0.550008  0.803039  0.315686  1
  Si  Si27  1  0.300245  0.956301  0.065340  1
  Si  Si28  1  0.855598  0.788885  0.821492  1
  Si  Si29  1  0.137204  0.206269  0.321853  1
  Si  Si30  1  0.800007  0.865052  0.179263  1
  Si  Si31  1  0.288509  0.645207  0.573203  1
  Si  Si32  1  0.709446  0.356423  0.071584  1
  Si  Si33  1  0.641370  0.291935  0.425323  1
  Si  Si34  1  0.363345  0.699427  0.926647  1
  Si  Si35  1  0.201122  0.137124  0.676272  1
