# generated using pymatgen
data_Ca4Al7Os
_symmetry_space_group_name_H-M   'P 1'
_cell_length_a   5.68055700
_cell_length_b   5.68055654
_cell_length_c   8.86917600
_cell_angle_alpha   90.00000000
_cell_angle_beta   90.00000000
_cell_angle_gamma   119.99998523
_symmetry_Int_Tables_number   1
_chemical_formula_structural   Ca4Al7Os
_chemical_formula_sum   'Ca4 Al7 Os1'
_cell_volume   247.85391201
_cell_formula_units_Z   1
loop_
 _symmetry_equiv_pos_site_id
 _symmetry_equiv_pos_as_xyz
  1  'x, y, z'
loop_
 _atom_site_type_symbol
 _atom_site_label
 _atom_site_symmetry_multiplicity
 _atom_site_fract_x
 _atom_site_fract_y
 _atom_site_fract_z
 _atom_site_occupancy
  Ca  Ca0  1  0.333333  0.666667  0.449675  1
  Ca  Ca1  1  0.666667  0.333333  0.936168  1
  Ca  Ca2  1  0.666667  0.333333  0.550325  1
  Ca  Ca3  1  0.333333  0.666667  0.063832  1
  Al  Al4  1  0.164251  0.328502  0.763434  1
  Al  Al5  1  0.835749  0.164251  0.236566  1
  Al  Al6  1  0.328502  0.164251  0.236566  1
  Al  Al7  1  0.671498  0.835749  0.763434  1
  Al  Al8  1  0.000000  0.000000  0.500000  1
  Al  Al9  1  0.835749  0.671498  0.236566  1
  Al  Al10  1  0.164251  0.835749  0.763434  1
  Os  Os11  1  0.000000  0.000000  0.000000  1
