# generated using pymatgen
data_DyY6Tm13Cd4(InRu)2
_symmetry_space_group_name_H-M   'P 1'
_cell_length_a   9.52734848
_cell_length_b   9.52734782
_cell_length_c   9.74031500
_cell_angle_alpha   89.98184427
_cell_angle_beta   90.01815573
_cell_angle_gamma   120.01171415
_symmetry_Int_Tables_number   1
_chemical_formula_structural   DyY6Tm13Cd4(InRu)2
_chemical_formula_sum   'Dy1 Y6 Tm13 Cd4 In2 Ru2'
_cell_volume   765.59026057
_cell_formula_units_Z   1
loop_
 _symmetry_equiv_pos_site_id
 _symmetry_equiv_pos_as_xyz
  1  'x, y, z'
loop_
 _atom_site_type_symbol
 _atom_site_label
 _atom_site_symmetry_multiplicity
 _atom_site_fract_x
 _atom_site_fract_y
 _atom_site_fract_z
 _atom_site_occupancy
  Dy  Dy0  1  0.209378  0.790466  0.439125  1
  Y  Y1  1  0.535904  0.458158  0.250174  1
  Y  Y2  1  0.537130  0.079029  0.249412  1
  Y  Y3  1  0.919424  0.459281  0.249447  1
  Y  Y4  1  0.459743  0.540860  0.750055  1
  Y  Y5  1  0.460248  0.919377  0.750534  1
  Y  Y6  1  0.079691  0.539675  0.750462  1
  Tm  Tm7  1  0.002176  0.001910  0.503505  1
  Tm  Tm8  1  0.002922  0.001540  0.996939  1
  Tm  Tm9  1  0.209474  0.418398  0.439262  1
  Tm  Tm10  1  0.581915  0.790556  0.438820  1
  Tm  Tm11  1  0.789774  0.209636  0.559771  1
  Tm  Tm12  1  0.789231  0.580015  0.560032  1
  Tm  Tm13  1  0.420442  0.210573  0.561079  1
  Tm  Tm14  1  0.789820  0.209589  0.940173  1
  Tm  Tm15  1  0.789605  0.580150  0.940146  1
  Tm  Tm16  1  0.420235  0.210336  0.939116  1
  Tm  Tm17  1  0.209495  0.790242  0.059971  1
  Tm  Tm18  1  0.209614  0.419237  0.060594  1
  Tm  Tm19  1  0.581020  0.790240  0.061137  1
  Cd  Cd20  1  0.227227  0.113866  0.250035  1
  Cd  Cd21  1  0.113477  0.886553  0.750485  1
  Cd  Cd22  1  0.113727  0.227179  0.750115  1
  Cd  Cd23  1  0.773619  0.886748  0.750055  1
  In  In24  1  0.886636  0.114020  0.249814  1
  In  In25  1  0.886209  0.772387  0.250108  1
  Ru  Ru26  1  0.334338  0.666342  0.249579  1
  Ru  Ru27  1  0.667526  0.333640  0.750056  1
