# generated using pymatgen
data_Lu3Zn3CuRh2
_symmetry_space_group_name_H-M   'P 1'
_cell_length_a   7.18542600
_cell_length_b   7.18542597
_cell_length_c   3.67446800
_cell_angle_alpha   90.00000000
_cell_angle_beta   90.00000000
_cell_angle_gamma   119.99999091
_symmetry_Int_Tables_number   1
_chemical_formula_structural   Lu3Zn3CuRh2
_chemical_formula_sum   'Lu3 Zn3 Cu1 Rh2'
_cell_volume   164.29720739
_cell_formula_units_Z   1
loop_
 _symmetry_equiv_pos_site_id
 _symmetry_equiv_pos_as_xyz
  1  'x, y, z'
loop_
 _atom_site_type_symbol
 _atom_site_label
 _atom_site_symmetry_multiplicity
 _atom_site_fract_x
 _atom_site_fract_y
 _atom_site_fract_z
 _atom_site_occupancy
  Lu  Lu0  1  0.592925  0.592925  0.000000  1
  Lu  Lu1  1  0.407075  0.000000  0.000000  1
  Lu  Lu2  1  0.000000  0.407075  0.000000  1
  Zn  Zn3  1  0.249547  0.249547  0.500000  1
  Zn  Zn4  1  0.750453  0.000000  0.500000  1
  Zn  Zn5  1  0.000000  0.750453  0.500000  1
  Cu  Cu6  1  0.000000  0.000000  0.000000  1
  Rh  Rh7  1  0.666667  0.333333  0.500000  1
  Rh  Rh8  1  0.333333  0.666667  0.500000  1
