# generated using pymatgen
data_SrY5(Si3Pt2)4
_symmetry_space_group_name_H-M   'P 1'
_cell_length_a   4.26223900
_cell_length_b   8.59059275
_cell_length_c   12.92308400
_cell_angle_alpha   80.09984348
_cell_angle_beta   90.00000000
_cell_angle_gamma   90.00000000
_symmetry_Int_Tables_number   1
_chemical_formula_structural   SrY5(Si3Pt2)4
_chemical_formula_sum   'Sr1 Y5 Si12 Pt8'
_cell_volume   466.13457832
_cell_formula_units_Z   1
loop_
 _symmetry_equiv_pos_site_id
 _symmetry_equiv_pos_as_xyz
  1  'x, y, z'
loop_
 _atom_site_type_symbol
 _atom_site_label
 _atom_site_symmetry_multiplicity
 _atom_site_fract_x
 _atom_site_fract_y
 _atom_site_fract_z
 _atom_site_occupancy
  Sr  Sr0  1  0.250000  0.072349  0.187183  1
  Y  Y1  1  0.250000  0.765899  0.439936  1
  Y  Y2  1  0.250000  0.587653  0.183831  1
  Y  Y3  1  0.750000  0.234389  0.561769  1
  Y  Y4  1  0.750000  0.416837  0.811906  1
  Y  Y5  1  0.750000  0.926687  0.815352  1
  Si  Si6  1  0.750000  0.586383  0.571270  1
  Si  Si7  1  0.750000  0.129930  0.003738  1
  Si  Si8  1  0.750000  0.867040  0.580304  1
  Si  Si9  1  0.250000  0.697586  0.712719  1
  Si  Si10  1  0.750000  0.306206  0.287954  1
  Si  Si11  1  0.750000  0.802014  0.276399  1
  Si  Si12  1  0.250000  0.872651  0.990784  1
  Si  Si13  1  0.250000  0.193186  0.722857  1
  Si  Si14  1  0.250000  0.379208  0.000745  1
  Si  Si15  1  0.250000  0.124445  0.430776  1
  Si  Si16  1  0.750000  0.621400  0.996215  1
  Si  Si17  1  0.250000  0.411087  0.429135  1
  Pt  Pt18  1  0.750000  0.356809  0.099256  1
  Pt  Pt19  1  0.250000  0.971835  0.622678  1
  Pt  Pt20  1  0.750000  0.848047  0.085381  1
  Pt  Pt21  1  0.750000  0.029507  0.379237  1
  Pt  Pt22  1  0.250000  0.647048  0.899593  1
  Pt  Pt23  1  0.250000  0.151626  0.910042  1
  Pt  Pt24  1  0.750000  0.532402  0.376851  1
  Pt  Pt25  1  0.250000  0.467775  0.624085  1
