# generated using pymatgen
data_Pr3NdGa18(PdRu)3
_symmetry_space_group_name_H-M   'P 1'
_cell_length_a   7.68899295
_cell_length_b   7.68951955
_cell_length_c   9.73907659
_cell_angle_alpha   89.94395812
_cell_angle_beta   89.93905474
_cell_angle_gamma   119.71965508
_symmetry_Int_Tables_number   1
_chemical_formula_structural   Pr3NdGa18(PdRu)3
_chemical_formula_sum   'Pr3 Nd1 Ga18 Pd3 Ru3'
_cell_volume   500.07612456
_cell_formula_units_Z   1
loop_
 _symmetry_equiv_pos_site_id
 _symmetry_equiv_pos_as_xyz
  1  'x, y, z'
loop_
 _atom_site_type_symbol
 _atom_site_label
 _atom_site_symmetry_multiplicity
 _atom_site_fract_x
 _atom_site_fract_y
 _atom_site_fract_z
 _atom_site_occupancy
  Pr  Pr0  1  0.995379  0.669310  0.250334  1
  Pr  Pr1  1  0.001132  0.328155  0.749609  1
  Pr  Pr2  1  0.671784  0.998801  0.250422  1
  Nd  Nd3  1  0.330672  0.004446  0.749613  1
  Ga  Ga4  1  0.135416  0.132945  0.250013  1
  Ga  Ga5  1  0.867627  0.864809  0.749979  1
  Ga  Ga6  1  0.010067  0.339499  0.077957  1
  Ga  Ga7  1  0.002060  0.665856  0.922000  1
  Ga  Ga8  1  0.998280  0.660986  0.575757  1
  Ga  Ga9  1  0.339556  0.002122  0.425249  1
  Ga  Ga10  1  0.004008  0.339989  0.423896  1
  Ga  Ga11  1  0.659479  0.996085  0.576634  1
  Ga  Ga12  1  0.660094  0.990133  0.921541  1
  Ga  Ga13  1  0.334793  0.998528  0.076934  1
  Ga  Ga14  1  0.341898  0.341657  0.559040  1
  Ga  Ga15  1  0.657799  0.657964  0.441641  1
  Ga  Ga16  1  0.657098  0.662367  0.062035  1
  Ga  Ga17  1  0.337638  0.342386  0.937286  1
  Ga  Ga18  1  0.337011  0.549075  0.250824  1
  Ga  Ga19  1  0.663918  0.456670  0.745774  1
  Ga  Ga20  1  0.542551  0.335404  0.254316  1
  Ga  Ga21  1  0.450805  0.663438  0.749157  1
  Pd  Pd22  1  0.671826  0.328332  0.999839  1
  Pd  Pd23  1  0.000673  0.999517  0.999813  1
  Pd  Pd24  1  0.999686  0.000394  0.500153  1
  Ru  Ru25  1  0.328460  0.671602  0.999744  1
  Ru  Ru26  1  0.327962  0.671983  0.500228  1
  Ru  Ru27  1  0.672330  0.327546  0.500213  1
