# generated using pymatgen
data_Yb2ErLu(B6Os)2
_symmetry_space_group_name_H-M   'P 1'
_cell_length_a   3.61992100
_cell_length_b   9.10999404
_cell_length_c   11.49546806
_cell_angle_alpha   90.01136755
_cell_angle_beta   90.00000000
_cell_angle_gamma   90.00000000
_symmetry_Int_Tables_number   1
_chemical_formula_structural   Yb2ErLu(B6Os)2
_chemical_formula_sum   'Yb4 Er2 Lu2 B24 Os4'
_cell_volume   379.09131622
_cell_formula_units_Z   2
loop_
 _symmetry_equiv_pos_site_id
 _symmetry_equiv_pos_as_xyz
  1  'x, y, z'
loop_
 _atom_site_type_symbol
 _atom_site_label
 _atom_site_symmetry_multiplicity
 _atom_site_fract_x
 _atom_site_fract_y
 _atom_site_fract_z
 _atom_site_occupancy
  Yb  Yb0  1  0.000000  0.323980  0.414850  1
  Yb  Yb1  1  0.000000  0.676020  0.585150  1
  Yb  Yb2  1  0.000000  0.824467  0.085298  1
  Yb  Yb3  1  0.000000  0.175533  0.914702  1
  Er  Er4  1  0.000000  0.442123  0.132735  1
  Er  Er5  1  0.000000  0.557877  0.867265  1
  Lu  Lu6  1  0.000000  0.942182  0.368014  1
  Lu  Lu7  1  0.000000  0.057818  0.631986  1
  B  B8  1  0.500000  0.554240  0.433139  1
  B  B9  1  0.500000  0.445760  0.566861  1
  B  B10  1  0.500000  0.053382  0.067487  1
  B  B11  1  0.500000  0.946618  0.932513  1
  B  B12  1  0.500000  0.750235  0.417778  1
  B  B13  1  0.500000  0.249765  0.582222  1
  B  B14  1  0.500000  0.248150  0.083159  1
  B  B15  1  0.500000  0.751850  0.916841  1
  B  B16  1  0.500000  0.792248  0.264546  1
  B  B17  1  0.500000  0.207752  0.735454  1
  B  B18  1  0.500000  0.290493  0.236449  1
  B  B19  1  0.500000  0.709507  0.763551  1
  B  B20  1  0.500000  0.631241  0.185920  1
  B  B21  1  0.500000  0.368759  0.814080  1
  B  B22  1  0.500000  0.129615  0.315472  1
  B  B23  1  0.500000  0.870385  0.684528  1
  B  B24  1  0.500000  0.982042  0.211815  1
  B  B25  1  0.500000  0.017958  0.788185  1
  B  B26  1  0.500000  0.483460  0.289473  1
  B  B27  1  0.500000  0.516540  0.710527  1
  B  B28  1  0.500000  0.596619  0.026481  1
  B  B29  1  0.500000  0.403381  0.973519  1
  B  B30  1  0.500000  0.094918  0.473871  1
  B  B31  1  0.500000  0.905082  0.526129  1
  Os  Os32  1  0.000000  0.640269  0.320536  1
  Os  Os33  1  0.000000  0.359731  0.679464  1
  Os  Os34  1  0.000000  0.137817  0.181325  1
  Os  Os35  1  0.000000  0.862183  0.818675  1
