# generated using pymatgen
data_Ta2Ti6Co7Si14Pd
_symmetry_space_group_name_H-M   'P 1'
_cell_length_a   9.23658704
_cell_length_b   9.25122665
_cell_length_c   9.19984275
_cell_angle_alpha   94.27099105
_cell_angle_beta   94.18646495
_cell_angle_gamma   148.58170894
_symmetry_Int_Tables_number   1
_chemical_formula_structural   Ta2Ti6Co7Si14Pd
_chemical_formula_sum   'Ta2 Ti6 Co7 Si14 Pd1'
_cell_volume   394.30226215
_cell_formula_units_Z   1
loop_
 _symmetry_equiv_pos_site_id
 _symmetry_equiv_pos_as_xyz
  1  'x, y, z'
loop_
 _atom_site_type_symbol
 _atom_site_label
 _atom_site_symmetry_multiplicity
 _atom_site_fract_x
 _atom_site_fract_y
 _atom_site_fract_z
 _atom_site_occupancy
  Ta  Ta0  1  0.133810  0.133811  0.267613  1
  Ta  Ta1  1  0.866814  0.866836  0.733658  1
  Ti  Ti2  1  0.865721  0.132562  0.001781  1
  Ti  Ti3  1  0.136100  0.869242  0.001791  1
  Ti  Ti4  1  0.501506  0.690522  0.193827  1
  Ti  Ti5  1  0.496319  0.307709  0.807646  1
  Ti  Ti6  1  0.311324  0.499931  0.807627  1
  Ti  Ti7  1  0.692298  0.503316  0.193801  1
  Co  Co8  1  0.103668  0.603654  0.207381  1
  Co  Co9  1  0.103918  0.899591  0.502492  1
  Co  Co10  1  0.398589  0.602914  0.502496  1
  Co  Co11  1  0.597182  0.399656  0.495059  1
  Co  Co12  1  0.897853  0.095423  0.495079  1
  Co  Co13  1  0.898546  0.398558  0.797314  1
  Co  Co14  1  0.598039  0.098063  0.196085  1
  Si  Si15  1  0.293216  0.293350  0.585991  1
  Si  Si16  1  0.706150  0.706244  0.412975  1
  Si  Si17  1  0.727360  0.321968  0.006398  1
  Si  Si18  1  0.279057  0.684410  0.006408  1
  Si  Si19  1  0.997070  0.292162  0.293397  1
  Si  Si20  1  0.980115  0.692104  0.704808  1
  Si  Si21  1  0.724441  0.012431  0.704706  1
  Si  Si22  1  0.296448  0.001319  0.293298  1
  Si  Si23  1  0.502605  0.907245  0.406431  1
  Si  Si24  1  0.520065  0.118511  0.586274  1
  Si  Si25  1  0.066409  0.467838  0.586245  1
  Si  Si26  1  0.903753  0.498984  0.406403  1
  Si  Si27  1  0.749084  0.749349  0.000644  1
  Si  Si28  1  0.251551  0.251328  0.000638  1
  Pd  Pd29  1  0.400990  0.900973  0.801732  1
