# generated using pymatgen
data_Dy11Hg9Ir4
_symmetry_space_group_name_H-M   'P 1'
_cell_length_a   3.72565900
_cell_length_b   13.07572002
_cell_length_c   13.07572074
_cell_angle_alpha   114.94891427
_cell_angle_beta   90.00000000
_cell_angle_gamma   90.00000000
_symmetry_Int_Tables_number   1
_chemical_formula_structural   Dy11Hg9Ir4
_chemical_formula_sum   'Dy11 Hg9 Ir4'
_cell_volume   577.55110407
_cell_formula_units_Z   1
loop_
 _symmetry_equiv_pos_site_id
 _symmetry_equiv_pos_as_xyz
  1  'x, y, z'
loop_
 _atom_site_type_symbol
 _atom_site_label
 _atom_site_symmetry_multiplicity
 _atom_site_fract_x
 _atom_site_fract_y
 _atom_site_fract_z
 _atom_site_occupancy
  Dy  Dy0  1  0.000000  0.912714  0.581867  1
  Dy  Dy1  1  0.000000  0.087286  0.418133  1
  Dy  Dy2  1  0.000000  0.581867  0.912714  1
  Dy  Dy3  1  0.000000  0.418133  0.087286  1
  Dy  Dy4  1  0.000000  0.165336  0.834664  1
  Dy  Dy5  1  0.000000  0.834664  0.165336  1
  Dy  Dy6  1  0.000000  0.366243  0.633757  1
  Dy  Dy7  1  0.000000  0.633757  0.366243  1
  Dy  Dy8  1  0.000000  0.705175  0.705175  1
  Dy  Dy9  1  0.000000  0.294825  0.294825  1
  Dy  Dy10  1  0.000000  0.000000  0.000000  1
  Hg  Hg11  1  0.500000  0.145817  0.631863  1
  Hg  Hg12  1  0.500000  0.854183  0.368137  1
  Hg  Hg13  1  0.500000  0.631863  0.145817  1
  Hg  Hg14  1  0.500000  0.368137  0.854183  1
  Hg  Hg15  1  0.500000  0.942506  0.789497  1
  Hg  Hg16  1  0.500000  0.057494  0.210503  1
  Hg  Hg17  1  0.500000  0.789497  0.942506  1
  Hg  Hg18  1  0.500000  0.210503  0.057494  1
  Hg  Hg19  1  0.500000  0.500000  0.500000  1
  Ir  Ir20  1  0.500000  0.740511  0.549919  1
  Ir  Ir21  1  0.500000  0.259489  0.450081  1
  Ir  Ir22  1  0.500000  0.549919  0.740511  1
  Ir  Ir23  1  0.500000  0.450081  0.259489  1
