# generated using pymatgen
data_Dy4TcCl4
_symmetry_space_group_name_H-M   'P 1'
_cell_length_a   8.61995788
_cell_length_b   8.61995816
_cell_length_c   6.53917245
_cell_angle_alpha   89.87646413
_cell_angle_beta   89.87645958
_cell_angle_gamma   89.52677801
_symmetry_Int_Tables_number   1
_chemical_formula_structural   Dy4TcCl4
_chemical_formula_sum   'Dy8 Tc2 Cl8'
_cell_volume   485.86573961
_cell_formula_units_Z   2
loop_
 _symmetry_equiv_pos_site_id
 _symmetry_equiv_pos_as_xyz
  1  'x, y, z'
loop_
 _atom_site_type_symbol
 _atom_site_label
 _atom_site_symmetry_multiplicity
 _atom_site_fract_x
 _atom_site_fract_y
 _atom_site_fract_z
 _atom_site_occupancy
  Dy  Dy0  1  0.104921  0.742296  0.987285  1
  Dy  Dy1  1  0.257704  0.895079  0.512715  1
  Dy  Dy2  1  0.895079  0.257704  0.012715  1
  Dy  Dy3  1  0.742296  0.104921  0.487285  1
  Dy  Dy4  1  0.743401  0.896173  0.006015  1
  Dy  Dy5  1  0.103827  0.256599  0.493985  1
  Dy  Dy6  1  0.256599  0.103827  0.993985  1
  Dy  Dy7  1  0.896173  0.743401  0.506015  1
  Tc  Tc8  1  0.007180  0.992820  0.250000  1
  Tc  Tc9  1  0.992820  0.007180  0.750000  1
  Cl  Cl10  1  0.419831  0.820728  0.903412  1
  Cl  Cl11  1  0.179272  0.580169  0.596588  1
  Cl  Cl12  1  0.580169  0.179272  0.096588  1
  Cl  Cl13  1  0.820728  0.419831  0.403412  1
  Cl  Cl14  1  0.813619  0.582638  0.903994  1
  Cl  Cl15  1  0.417362  0.186381  0.596006  1
  Cl  Cl16  1  0.186381  0.417362  0.096006  1
  Cl  Cl17  1  0.582638  0.813619  0.403994  1
