# generated using pymatgen
data_YHo3Ga18Ir5Ru
_symmetry_space_group_name_H-M   'P 1'
_cell_length_a   7.56509492
_cell_length_b   7.56565654
_cell_length_c   9.54549505
_cell_angle_alpha   89.96672499
_cell_angle_beta   89.96967345
_cell_angle_gamma   119.82286760
_symmetry_Int_Tables_number   1
_chemical_formula_structural   YHo3Ga18Ir5Ru
_chemical_formula_sum   'Y1 Ho3 Ga18 Ir5 Ru1'
_cell_volume   473.98242091
_cell_formula_units_Z   1
loop_
 _symmetry_equiv_pos_site_id
 _symmetry_equiv_pos_as_xyz
  1  'x, y, z'
loop_
 _atom_site_type_symbol
 _atom_site_label
 _atom_site_symmetry_multiplicity
 _atom_site_fract_x
 _atom_site_fract_y
 _atom_site_fract_z
 _atom_site_occupancy
  Y  Y0  1  0.997807  0.669772  0.249273  1
  Ho  Ho1  1  0.001776  0.330688  0.751212  1
  Ho  Ho2  1  0.669322  0.998236  0.248785  1
  Ho  Ho3  1  0.330238  0.002156  0.750736  1
  Ga  Ga4  1  0.129094  0.129807  0.249361  1
  Ga  Ga5  1  0.870446  0.870957  0.750638  1
  Ga  Ga6  1  0.000277  0.334868  0.079258  1
  Ga  Ga7  1  0.999148  0.665502  0.919890  1
  Ga  Ga8  1  0.997422  0.662706  0.579241  1
  Ga  Ga9  1  0.337519  0.002798  0.421104  1
  Ga  Ga10  1  0.997971  0.334295  0.421125  1
  Ga  Ga11  1  0.665460  0.002028  0.579058  1
  Ga  Ga12  1  0.664900  0.999729  0.920556  1
  Ga  Ga13  1  0.334737  0.001093  0.079755  1
  Ga  Ga14  1  0.335596  0.332885  0.563380  1
  Ga  Ga15  1  0.666903  0.664395  0.436810  1
  Ga  Ga16  1  0.666660  0.667065  0.064175  1
  Ga  Ga17  1  0.332936  0.333132  0.935632  1
  Ga  Ga18  1  0.338313  0.546391  0.249508  1
  Ga  Ga19  1  0.661641  0.451219  0.748929  1
  Ga  Ga20  1  0.548490  0.338096  0.251076  1
  Ga  Ga21  1  0.453579  0.661867  0.750491  1
  Ir  Ir22  1  0.671860  0.327985  0.999925  1
  Ir  Ir23  1  0.327664  0.672422  0.999906  1
  Ir  Ir24  1  0.328276  0.671817  0.500087  1
  Ir  Ir25  1  0.999837  0.000284  0.999906  1
  Ir  Ir26  1  0.000153  0.999979  0.500092  1
  Ru  Ru27  1  0.671974  0.327829  0.500091  1
