# generated using pymatgen
data_La3ZnGaSi4
_symmetry_space_group_name_H-M   'P 1'
_cell_length_a   4.34985807
_cell_length_b   4.28312234
_cell_length_c   21.65829778
_cell_angle_alpha   84.32534755
_cell_angle_beta   95.76335932
_cell_angle_gamma   90.00000349
_symmetry_Int_Tables_number   1
_chemical_formula_structural   La3ZnGaSi4
_chemical_formula_sum   'La6 Zn2 Ga2 Si8'
_cell_volume   399.48791383
_cell_formula_units_Z   2
loop_
 _symmetry_equiv_pos_site_id
 _symmetry_equiv_pos_as_xyz
  1  'x, y, z'
loop_
 _atom_site_type_symbol
 _atom_site_label
 _atom_site_symmetry_multiplicity
 _atom_site_fract_x
 _atom_site_fract_y
 _atom_site_fract_z
 _atom_site_occupancy
  La  La0  1  0.373774  0.876226  0.247547  1
  La  La1  1  0.040119  0.209881  0.580237  1
  La  La2  1  0.705592  0.544408  0.911186  1
  La  La3  1  0.293304  0.456696  0.086605  1
  La  La4  1  0.959805  0.790195  0.419610  1
  La  La5  1  0.626330  0.123670  0.752661  1
  Zn  Zn6  1  0.903341  0.346659  0.306683  1
  Zn  Zn7  1  0.569994  0.680006  0.639987  1
  Ga  Ga8  1  0.235430  0.014570  0.970860  1
  Ga  Ga9  1  0.763989  0.986011  0.027978  1
  Si  Si10  1  0.431389  0.318611  0.362778  1
  Si  Si11  1  0.097586  0.652414  0.695172  1
  Si  Si12  1  0.846862  0.403138  0.193724  1
  Si  Si13  1  0.513350  0.736650  0.526700  1
  Si  Si14  1  0.179043  0.070957  0.858083  1
  Si  Si15  1  0.820759  0.929241  0.141521  1
  Si  Si16  1  0.486697  0.263303  0.473394  1
  Si  Si17  1  0.152638  0.597362  0.805274  1
