# generated using pymatgen
data_Tb3Zn2Pt3Au
_symmetry_space_group_name_H-M   'P 1'
_cell_length_a   3.87930200
_cell_length_b   7.45553816
_cell_length_c   7.33245797
_cell_angle_alpha   120.55683689
_cell_angle_beta   90.00000000
_cell_angle_gamma   90.00000000
_symmetry_Int_Tables_number   1
_chemical_formula_structural   Tb3Zn2Pt3Au
_chemical_formula_sum   'Tb3 Zn2 Pt3 Au1'
_cell_volume   182.62006830
_cell_formula_units_Z   1
loop_
 _symmetry_equiv_pos_site_id
 _symmetry_equiv_pos_as_xyz
  1  'x, y, z'
loop_
 _atom_site_type_symbol
 _atom_site_label
 _atom_site_symmetry_multiplicity
 _atom_site_fract_x
 _atom_site_fract_y
 _atom_site_fract_z
 _atom_site_occupancy
  Tb  Tb0  1  0.000000  0.407932  0.000000  1
  Tb  Tb1  1  0.000000  0.600599  0.608376  1
  Tb  Tb2  1  0.000000  0.992224  0.391624  1
  Zn  Zn3  1  0.500000  0.255143  0.254337  1
  Zn  Zn4  1  0.500000  0.000806  0.745663  1
  Pt  Pt5  1  0.500000  0.661631  0.349223  1
  Pt  Pt6  1  0.500000  0.312408  0.650777  1
  Pt  Pt7  1  0.000000  0.027613  0.000000  1
  Au  Au8  1  0.500000  0.741744  0.000000  1
