# generated using pymatgen
data_Nd3Ho5Tc2(B12Os)2
_symmetry_space_group_name_H-M   'P 1'
_cell_length_a   3.70286100
_cell_length_b   9.20925867
_cell_length_c   11.63899200
_cell_angle_alpha   89.91710642
_cell_angle_beta   90.00000000
_cell_angle_gamma   90.00000000
_symmetry_Int_Tables_number   1
_chemical_formula_structural   Nd3Ho5Tc2(B12Os)2
_chemical_formula_sum   'Nd3 Ho5 Tc2 B24 Os2'
_cell_volume   396.89625067
_cell_formula_units_Z   1
loop_
 _symmetry_equiv_pos_site_id
 _symmetry_equiv_pos_as_xyz
  1  'x, y, z'
loop_
 _atom_site_type_symbol
 _atom_site_label
 _atom_site_symmetry_multiplicity
 _atom_site_fract_x
 _atom_site_fract_y
 _atom_site_fract_z
 _atom_site_occupancy
  Nd  Nd0  1  0.000000  0.323963  0.415158  1
  Nd  Nd1  1  0.000000  0.675787  0.585370  1
  Nd  Nd2  1  0.000000  0.821381  0.086455  1
  Ho  Ho3  1  0.000000  0.179111  0.912858  1
  Ho  Ho4  1  0.000000  0.941864  0.369920  1
  Ho  Ho5  1  0.000000  0.058626  0.630096  1
  Ho  Ho6  1  0.000000  0.443211  0.129461  1
  Ho  Ho7  1  0.000000  0.555782  0.870124  1
  Tc  Tc8  1  0.000000  0.639245  0.319005  1
  Tc  Tc9  1  0.000000  0.359388  0.682532  1
  B  B10  1  0.500000  0.554615  0.430731  1
  B  B11  1  0.500000  0.444649  0.570108  1
  B  B12  1  0.500000  0.055930  0.066985  1
  B  B13  1  0.500000  0.947202  0.931188  1
  B  B14  1  0.500000  0.749270  0.416545  1
  B  B15  1  0.500000  0.250625  0.584522  1
  B  B16  1  0.500000  0.249224  0.080802  1
  B  B17  1  0.500000  0.751398  0.916457  1
  B  B18  1  0.500000  0.790459  0.265863  1
  B  B19  1  0.500000  0.208199  0.736174  1
  B  B20  1  0.500000  0.289702  0.232281  1
  B  B21  1  0.500000  0.710713  0.766853  1
  B  B22  1  0.500000  0.629833  0.185651  1
  B  B23  1  0.500000  0.368022  0.816002  1
  B  B24  1  0.500000  0.129797  0.312595  1
  B  B25  1  0.500000  0.871367  0.687321  1
  B  B26  1  0.500000  0.984956  0.211992  1
  B  B27  1  0.500000  0.018014  0.788314  1
  B  B28  1  0.500000  0.484171  0.286102  1
  B  B29  1  0.500000  0.514615  0.714395  1
  B  B30  1  0.500000  0.599690  0.027180  1
  B  B31  1  0.500000  0.396701  0.971795  1
  B  B32  1  0.500000  0.098835  0.472646  1
  B  B33  1  0.500000  0.901541  0.527604  1
  Os  Os34  1  0.000000  0.138532  0.177916  1
  Os  Os35  1  0.000000  0.863579  0.821000  1
