# generated using pymatgen
data_Pr16SmY3Si16
_symmetry_space_group_name_H-M   'P 1'
_cell_length_a   7.84246211
_cell_length_b   7.84246211
_cell_length_c   15.35385339
_cell_angle_alpha   89.98174773
_cell_angle_beta   90.01825227
_cell_angle_gamma   89.99455130
_symmetry_Int_Tables_number   1
_chemical_formula_structural   Pr16SmY3Si16
_chemical_formula_sum   'Pr16 Sm1 Y3 Si16'
_cell_volume   944.32655256
_cell_formula_units_Z   1
loop_
 _symmetry_equiv_pos_site_id
 _symmetry_equiv_pos_as_xyz
  1  'x, y, z'
loop_
 _atom_site_type_symbol
 _atom_site_label
 _atom_site_symmetry_multiplicity
 _atom_site_fract_x
 _atom_site_fract_y
 _atom_site_fract_z
 _atom_site_occupancy
  Pr  Pr0  1  0.378408  0.013301  0.445191  1
  Pr  Pr1  1  0.486664  0.878446  0.695181  1
  Pr  Pr2  1  0.513551  0.121555  0.195441  1
  Pr  Pr3  1  0.878446  0.486664  0.304819  1
  Pr  Pr4  1  0.121555  0.513551  0.804559  1
  Pr  Pr5  1  0.621379  0.986845  0.945199  1
  Pr  Pr6  1  0.013301  0.378408  0.554809  1
  Pr  Pr7  1  0.986845  0.621379  0.054801  1
  Pr  Pr8  1  0.125113  0.975795  0.878588  1
  Pr  Pr9  1  0.524527  0.624864  0.128789  1
  Pr  Pr10  1  0.475754  0.374774  0.628528  1
  Pr  Pr11  1  0.624864  0.524527  0.871211  1
  Pr  Pr12  1  0.374774  0.475754  0.371472  1
  Pr  Pr13  1  0.874864  0.024350  0.378694  1
  Pr  Pr14  1  0.975795  0.125113  0.121412  1
  Pr  Pr15  1  0.024350  0.874864  0.621306  1
  Sm  Sm16  1  0.308597  0.308597  0.000000  1
  Y  Y17  1  0.190309  0.809402  0.250070  1
  Y  Y18  1  0.809402  0.190309  0.749930  1
  Y  Y19  1  0.690348  0.690348  0.500000  1
  Si  Si20  1  0.188016  0.171663  0.708591  1
  Si  Si21  1  0.328563  0.689377  0.958742  1
  Si  Si22  1  0.671806  0.312103  0.458892  1
  Si  Si23  1  0.689377  0.328563  0.041258  1
  Si  Si24  1  0.312103  0.671806  0.541108  1
  Si  Si25  1  0.812016  0.828436  0.208829  1
  Si  Si26  1  0.171663  0.188016  0.291409  1
  Si  Si27  1  0.828436  0.812016  0.791171  1
  Si  Si28  1  0.286670  0.920084  0.063735  1
  Si  Si29  1  0.578954  0.786865  0.313592  1
  Si  Si30  1  0.421764  0.212754  0.812389  1
  Si  Si31  1  0.786865  0.578954  0.686408  1
  Si  Si32  1  0.212754  0.421764  0.187611  1
  Si  Si33  1  0.713267  0.078819  0.563451  1
  Si  Si34  1  0.920084  0.286670  0.936265  1
  Si  Si35  1  0.078819  0.713267  0.436549  1
