# generated using pymatgen
data_Dy3BiRh3Pb2
_symmetry_space_group_name_H-M   'P 1'
_cell_length_a   7.71234625
_cell_length_b   7.75212236
_cell_length_c   3.88462100
_cell_angle_alpha   90.00000000
_cell_angle_beta   90.00000000
_cell_angle_gamma   120.17074912
_symmetry_Int_Tables_number   1
_chemical_formula_structural   Dy3BiRh3Pb2
_chemical_formula_sum   'Dy3 Bi1 Rh3 Pb2'
_cell_volume   200.78747120
_cell_formula_units_Z   1
loop_
 _symmetry_equiv_pos_site_id
 _symmetry_equiv_pos_as_xyz
  1  'x, y, z'
loop_
 _atom_site_type_symbol
 _atom_site_label
 _atom_site_symmetry_multiplicity
 _atom_site_fract_x
 _atom_site_fract_y
 _atom_site_fract_z
 _atom_site_occupancy
  Dy  Dy0  1  0.591447  0.995132  0.000000  1
  Dy  Dy1  1  0.408553  0.403685  0.000000  1
  Dy  Dy2  1  0.000000  0.599987  0.000000  1
  Bi  Bi3  1  0.000000  0.264743  0.500000  1
  Rh  Rh4  1  0.668053  0.334699  0.500000  1
  Rh  Rh5  1  0.000000  0.002718  0.000000  1
  Rh  Rh6  1  0.331947  0.666647  0.500000  1
  Pb  Pb7  1  0.265288  0.998838  0.500000  1
  Pb  Pb8  1  0.734712  0.733551  0.500000  1
