# generated using pymatgen
data_DyPaCoNi
_symmetry_space_group_name_H-M   'P 1'
_cell_length_a   5.99564456
_cell_length_b   5.99564506
_cell_length_c   3.81114800
_cell_angle_alpha   90.00000000
_cell_angle_beta   90.00000000
_cell_angle_gamma   145.03987072
_symmetry_Int_Tables_number   1
_chemical_formula_structural   DyPaCoNi
_chemical_formula_sum   'Dy1 Pa1 Co1 Ni1'
_cell_volume   78.50313161
_cell_formula_units_Z   1
loop_
 _symmetry_equiv_pos_site_id
 _symmetry_equiv_pos_as_xyz
  1  'x, y, z'
loop_
 _atom_site_type_symbol
 _atom_site_label
 _atom_site_symmetry_multiplicity
 _atom_site_fract_x
 _atom_site_fract_y
 _atom_site_fract_z
 _atom_site_occupancy
  Dy  Dy0  1  0.150164  0.849836  0.000000  1
  Pa  Pa1  1  0.883771  0.116229  0.500000  1
  Co  Co2  1  0.402901  0.597099  0.000000  1
  Ni  Ni3  1  0.563164  0.436836  0.500000  1
