# generated using pymatgen
data_Zr3U2Sb3C
_symmetry_space_group_name_H-M   'P 1'
_cell_length_a   8.66785333
_cell_length_b   8.66785463
_cell_length_c   5.95258800
_cell_angle_alpha   90.00000000
_cell_angle_beta   90.00000000
_cell_angle_gamma   119.93654466
_symmetry_Int_Tables_number   1
_chemical_formula_structural   Zr3U2Sb3C
_chemical_formula_sum   'Zr6 U4 Sb6 C2'
_cell_volume   387.55823556
_cell_formula_units_Z   2
loop_
 _symmetry_equiv_pos_site_id
 _symmetry_equiv_pos_as_xyz
  1  'x, y, z'
loop_
 _atom_site_type_symbol
 _atom_site_label
 _atom_site_symmetry_multiplicity
 _atom_site_fract_x
 _atom_site_fract_y
 _atom_site_fract_z
 _atom_site_occupancy
  Zr  Zr0  1  0.665814  0.333036  0.499281  1
  Zr  Zr1  1  0.333036  0.665814  0.499281  1
  Zr  Zr2  1  0.333036  0.665814  0.000719  1
  Zr  Zr3  1  0.665814  0.333036  0.000719  1
  Zr  Zr4  1  0.779158  0.000542  0.750000  1
  Zr  Zr5  1  0.000542  0.779158  0.750000  1
  U  U6  1  0.779223  0.779223  0.250000  1
  U  U7  1  0.219811  0.000165  0.250000  1
  U  U8  1  0.000165  0.219811  0.250000  1
  U  U9  1  0.225209  0.225209  0.750000  1
  Sb  Sb10  1  0.406984  0.406984  0.250000  1
  Sb  Sb11  1  0.592878  0.999773  0.250000  1
  Sb  Sb12  1  0.999773  0.592878  0.250000  1
  Sb  Sb13  1  0.603819  0.603819  0.750000  1
  Sb  Sb14  1  0.404101  0.996710  0.750000  1
  Sb  Sb15  1  0.996710  0.404101  0.750000  1
  C  C16  1  0.996963  0.996963  0.506727  1
  C  C17  1  0.996963  0.996963  0.993273  1
