# generated using pymatgen
data_Ca5Ga2BiH
_symmetry_space_group_name_H-M   'P 1'
_cell_length_a   9.36991426
_cell_length_b   9.36991425
_cell_length_c   9.36991541
_cell_angle_alpha   129.32278693
_cell_angle_beta   129.32278880
_cell_angle_gamma   74.49174691
_symmetry_Int_Tables_number   1
_chemical_formula_structural   Ca5Ga2BiH
_chemical_formula_sum   'Ca10 Ga4 Bi2 H2'
_cell_volume   479.76137529
_cell_formula_units_Z   2
loop_
 _symmetry_equiv_pos_site_id
 _symmetry_equiv_pos_as_xyz
  1  'x, y, z'
loop_
 _atom_site_type_symbol
 _atom_site_label
 _atom_site_symmetry_multiplicity
 _atom_site_fract_x
 _atom_site_fract_y
 _atom_site_fract_z
 _atom_site_occupancy
  Ca  Ca0  1  0.500000  0.500000  0.000000  1
  Ca  Ca1  1  0.000000  0.000000  0.000000  1
  Ca  Ca2  1  0.515542  0.015542  0.820116  1
  Ca  Ca3  1  0.195426  0.695426  0.179884  1
  Ca  Ca4  1  0.015542  0.195426  0.500000  1
  Ca  Ca5  1  0.695426  0.515542  0.500000  1
  Ca  Ca6  1  0.484458  0.984458  0.179884  1
  Ca  Ca7  1  0.804574  0.304574  0.820116  1
  Ca  Ca8  1  0.984458  0.804574  0.500000  1
  Ca  Ca9  1  0.304574  0.484458  0.500000  1
  Ga  Ga10  1  0.884868  0.384868  0.269737  1
  Ga  Ga11  1  0.115132  0.615132  0.730263  1
  Ga  Ga12  1  0.384868  0.115132  0.500000  1
  Ga  Ga13  1  0.615132  0.884868  0.500000  1
  Bi  Bi14  1  0.250000  0.250000  0.000000  1
  Bi  Bi15  1  0.750000  0.750000  0.000000  1
  H  H16  1  0.250000  0.750000  0.500000  1
  H  H17  1  0.750000  0.250000  0.500000  1
