# generated using pymatgen
data_HoTm2In3Pt2Rh
_symmetry_space_group_name_H-M   'P 1'
_cell_length_a   7.65640592
_cell_length_b   7.64989440
_cell_length_c   3.79182800
_cell_angle_alpha   90.00000000
_cell_angle_beta   90.00000000
_cell_angle_gamma   119.97186826
_symmetry_Int_Tables_number   1
_chemical_formula_structural   HoTm2In3Pt2Rh
_chemical_formula_sum   'Ho1 Tm2 In3 Pt2 Rh1'
_cell_volume   192.39008784
_cell_formula_units_Z   1
loop_
 _symmetry_equiv_pos_site_id
 _symmetry_equiv_pos_as_xyz
  1  'x, y, z'
loop_
 _atom_site_type_symbol
 _atom_site_label
 _atom_site_symmetry_multiplicity
 _atom_site_fract_x
 _atom_site_fract_y
 _atom_site_fract_z
 _atom_site_occupancy
  Ho  Ho0  1  0.000000  0.403626  0.500000  1
  Tm  Tm1  1  0.596422  0.596407  0.500000  1
  Tm  Tm2  1  0.403578  0.999985  0.500000  1
  In  In3  1  0.258822  0.258523  0.000000  1
  In  In4  1  0.000000  0.741711  0.000000  1
  In  In5  1  0.741178  0.999702  0.000000  1
  Pt  Pt6  1  0.334150  0.667328  0.000000  1
  Pt  Pt7  1  0.665850  0.333176  0.000000  1
  Rh  Rh8  1  0.000000  0.999543  0.500000  1
