# generated using pymatgen
data_Ho4Zn5Ga4Ag3
_symmetry_space_group_name_H-M   'P 1'
_cell_length_a   4.35305300
_cell_length_b   6.89427925
_cell_length_c   10.13705287
_cell_angle_alpha   90.22370720
_cell_angle_beta   90.00000000
_cell_angle_gamma   90.00000000
_symmetry_Int_Tables_number   1
_chemical_formula_structural   Ho4Zn5Ga4Ag3
_chemical_formula_sum   'Ho4 Zn5 Ga4 Ag3'
_cell_volume   304.22242677
_cell_formula_units_Z   1
loop_
 _symmetry_equiv_pos_site_id
 _symmetry_equiv_pos_as_xyz
  1  'x, y, z'
loop_
 _atom_site_type_symbol
 _atom_site_label
 _atom_site_symmetry_multiplicity
 _atom_site_fract_x
 _atom_site_fract_y
 _atom_site_fract_z
 _atom_site_occupancy
  Ho  Ho0  1  0.250000  0.289091  0.672413  1
  Ho  Ho1  1  0.750000  0.713545  0.327437  1
  Ho  Ho2  1  0.250000  0.784494  0.828933  1
  Ho  Ho3  1  0.750000  0.215132  0.170643  1
  Zn  Zn4  1  0.750000  0.965776  0.599654  1
  Zn  Zn5  1  0.750000  0.294535  0.465704  1
  Zn  Zn6  1  0.750000  0.802341  0.036418  1
  Zn  Zn7  1  0.750000  0.583750  0.647071  1
  Zn  Zn8  1  0.750000  0.078956  0.845602  1
  Ga  Ga9  1  0.250000  0.703465  0.537751  1
  Ga  Ga10  1  0.250000  0.195402  0.961256  1
  Ga  Ga11  1  0.250000  0.417182  0.351608  1
  Ga  Ga12  1  0.250000  0.918243  0.151010  1
  Ag  Ag13  1  0.250000  0.535670  0.098377  1
  Ag  Ag14  1  0.750000  0.465584  0.899968  1
  Ag  Ag15  1  0.250000  0.036833  0.406154  1
