# generated using pymatgen
data_CaNd3(NiSn)4
_symmetry_space_group_name_H-M   'P 1'
_cell_length_a   4.57343100
_cell_length_b   7.42613346
_cell_length_c   7.69315754
_cell_angle_alpha   90.11025225
_cell_angle_beta   90.00000000
_cell_angle_gamma   90.00000000
_symmetry_Int_Tables_number   1
_chemical_formula_structural   CaNd3(NiSn)4
_chemical_formula_sum   'Ca1 Nd3 Ni4 Sn4'
_cell_volume   261.28152544
_cell_formula_units_Z   1
loop_
 _symmetry_equiv_pos_site_id
 _symmetry_equiv_pos_as_xyz
  1  'x, y, z'
loop_
 _atom_site_type_symbol
 _atom_site_label
 _atom_site_symmetry_multiplicity
 _atom_site_fract_x
 _atom_site_fract_y
 _atom_site_fract_z
 _atom_site_occupancy
  Ca  Ca0  1  0.250000  0.016816  0.302443  1
  Nd  Nd1  1  0.250000  0.517966  0.197098  1
  Nd  Nd2  1  0.750000  0.981631  0.693870  1
  Nd  Nd3  1  0.750000  0.481358  0.805091  1
  Ni  Ni4  1  0.250000  0.310536  0.586635  1
  Ni  Ni5  1  0.250000  0.806158  0.913681  1
  Ni  Ni6  1  0.750000  0.689398  0.413312  1
  Ni  Ni7  1  0.750000  0.199099  0.084377  1
  Sn  Sn8  1  0.250000  0.179875  0.913382  1
  Sn  Sn9  1  0.250000  0.684667  0.587522  1
  Sn  Sn10  1  0.750000  0.818946  0.090442  1
  Sn  Sn11  1  0.750000  0.313549  0.412147  1
