# generated using pymatgen
data_AgH4F7
_symmetry_space_group_name_H-M   'P 1'
_cell_length_a   5.64273769
_cell_length_b   5.27215805
_cell_length_c   6.41056037
_cell_angle_alpha   110.30816237
_cell_angle_beta   92.67809175
_cell_angle_gamma   118.46224171
_symmetry_Int_Tables_number   1
_chemical_formula_structural   AgH4F7
_chemical_formula_sum   'Ag1 H4 F7'
_cell_volume   151.94418247
_cell_formula_units_Z   1
loop_
 _symmetry_equiv_pos_site_id
 _symmetry_equiv_pos_as_xyz
  1  'x, y, z'
loop_
 _atom_site_type_symbol
 _atom_site_label
 _atom_site_symmetry_multiplicity
 _atom_site_fract_x
 _atom_site_fract_y
 _atom_site_fract_z
 _atom_site_occupancy
  Ag  Ag0  1  0.707465  0.141276  0.742534  1
  H  H1  1  0.562991  0.422740  0.483698  1
  H  H2  1  0.197524  0.134146  0.209034  1
  H  H3  1  0.210049  0.628408  0.738414  1
  H  H4  1  0.851286  0.751083  0.086559  1
  F  F5  1  0.580340  0.847008  0.426719  1
  F  F6  1  0.906502  0.974487  0.114620  1
  F  F7  1  0.832399  0.465187  0.060253  1
  F  F8  1  0.680522  0.548708  0.645983  1
  F  F9  1  0.312644  0.893271  0.771499  1
  F  F10  1  0.396941  0.203617  0.258662  1
  F  F11  1  0.106473  0.367079  0.708689  1
