# generated using pymatgen
data_HoLu7(Sc3Ga4)4
_symmetry_space_group_name_H-M   'P 1'
_cell_length_a   7.20621402
_cell_length_b   7.51575723
_cell_length_c   14.36226443
_cell_angle_alpha   90.02756576
_cell_angle_beta   89.99501095
_cell_angle_gamma   89.99287847
_symmetry_Int_Tables_number   1
_chemical_formula_structural   HoLu7(Sc3Ga4)4
_chemical_formula_sum   'Ho1 Lu7 Sc12 Ga16'
_cell_volume   777.86237068
_cell_formula_units_Z   1
loop_
 _symmetry_equiv_pos_site_id
 _symmetry_equiv_pos_as_xyz
  1  'x, y, z'
loop_
 _atom_site_type_symbol
 _atom_site_label
 _atom_site_symmetry_multiplicity
 _atom_site_fract_x
 _atom_site_fract_y
 _atom_site_fract_z
 _atom_site_occupancy
  Ho  Ho0  1  0.489262  0.679658  0.594098  1
  Lu  Lu1  1  0.010731  0.180060  0.094259  1
  Lu  Lu2  1  0.989282  0.819941  0.905772  1
  Lu  Lu3  1  0.489316  0.680065  0.905682  1
  Lu  Lu4  1  0.989246  0.820019  0.594220  1
  Lu  Lu5  1  0.510737  0.319947  0.094256  1
  Lu  Lu6  1  0.010691  0.180176  0.405740  1
  Lu  Lu7  1  0.510681  0.319802  0.405610  1
  Sc  Sc8  1  0.162222  0.503767  0.750139  1
  Sc  Sc9  1  0.837643  0.496007  0.250007  1
  Sc  Sc10  1  0.337537  0.004063  0.250017  1
  Sc  Sc11  1  0.662588  0.996278  0.750120  1
  Sc  Sc12  1  0.329464  0.172514  0.624341  1
  Sc  Sc13  1  0.670648  0.827562  0.375522  1
  Sc  Sc14  1  0.170383  0.672408  0.375630  1
  Sc  Sc15  1  0.670442  0.827493  0.124338  1
  Sc  Sc16  1  0.829818  0.327366  0.624337  1
  Sc  Sc17  1  0.329540  0.172531  0.875775  1
  Sc  Sc18  1  0.829560  0.327540  0.875695  1
  Sc  Sc19  1  0.170476  0.672421  0.124376  1
  Ga  Ga20  1  0.029977  0.115603  0.750021  1
  Ga  Ga21  1  0.970017  0.884444  0.250007  1
  Ga  Ga22  1  0.469960  0.615533  0.249997  1
  Ga  Ga23  1  0.529983  0.384074  0.750137  1
  Ga  Ga24  1  0.282443  0.869474  0.750258  1
  Ga  Ga25  1  0.717131  0.130892  0.250014  1
  Ga  Ga26  1  0.217203  0.369098  0.249946  1
  Ga  Ga27  1  0.783315  0.630792  0.750274  1
  Ga  Ga28  1  0.162615  0.464493  0.540379  1
  Ga  Ga29  1  0.836970  0.534957  0.459366  1
  Ga  Ga30  1  0.336530  0.965417  0.459258  1
  Ga  Ga31  1  0.836702  0.534997  0.040570  1
  Ga  Ga32  1  0.663537  0.035703  0.540442  1
  Ga  Ga33  1  0.163342  0.464903  0.959400  1
  Ga  Ga34  1  0.663353  0.035003  0.959438  1
  Ga  Ga35  1  0.336655  0.964995  0.040560  1
