# generated using pymatgen
data_Tb2AlZnPtRh
_symmetry_space_group_name_H-M   'P 1'
_cell_length_a   4.22972600
_cell_length_b   6.94479703
_cell_length_c   8.04452890
_cell_angle_alpha   91.24124059
_cell_angle_beta   90.00000000
_cell_angle_gamma   90.00000000
_symmetry_Int_Tables_number   1
_chemical_formula_structural   Tb2AlZnPtRh
_chemical_formula_sum   'Tb4 Al2 Zn2 Pt2 Rh2'
_cell_volume   236.24927783
_cell_formula_units_Z   2
loop_
 _symmetry_equiv_pos_site_id
 _symmetry_equiv_pos_as_xyz
  1  'x, y, z'
loop_
 _atom_site_type_symbol
 _atom_site_label
 _atom_site_symmetry_multiplicity
 _atom_site_fract_x
 _atom_site_fract_y
 _atom_site_fract_z
 _atom_site_occupancy
  Tb  Tb0  1  0.250000  0.534706  0.185792  1
  Tb  Tb1  1  0.750000  0.465294  0.814208  1
  Tb  Tb2  1  0.250000  0.041792  0.318180  1
  Tb  Tb3  1  0.750000  0.958208  0.681820  1
  Al  Al4  1  0.250000  0.134423  0.940240  1
  Al  Al5  1  0.750000  0.865577  0.059760  1
  Zn  Zn6  1  0.250000  0.637555  0.566197  1
  Zn  Zn7  1  0.750000  0.362445  0.433803  1
  Pt  Pt8  1  0.750000  0.745159  0.369174  1
  Pt  Pt9  1  0.250000  0.254841  0.630826  1
  Rh  Rh10  1  0.750000  0.236651  0.106544  1
  Rh  Rh11  1  0.250000  0.763349  0.893456  1
