# generated using pymatgen
data_Cd2SiB2Rh5
_symmetry_space_group_name_H-M   'P 1'
_cell_length_a   9.54670400
_cell_length_b   9.54670400
_cell_length_c   2.91455100
_cell_angle_alpha   90.00000000
_cell_angle_beta   90.00000000
_cell_angle_gamma   90.00000000
_symmetry_Int_Tables_number   1
_chemical_formula_structural   Cd2SiB2Rh5
_chemical_formula_sum   'Cd4 Si2 B4 Rh10'
_cell_volume   265.63088776
_cell_formula_units_Z   2
loop_
 _symmetry_equiv_pos_site_id
 _symmetry_equiv_pos_as_xyz
  1  'x, y, z'
loop_
 _atom_site_type_symbol
 _atom_site_label
 _atom_site_symmetry_multiplicity
 _atom_site_fract_x
 _atom_site_fract_y
 _atom_site_fract_z
 _atom_site_occupancy
  Cd  Cd0  1  0.824368  0.324368  0.000000  1
  Cd  Cd1  1  0.324368  0.175632  0.000000  1
  Cd  Cd2  1  0.675632  0.824368  0.000000  1
  Cd  Cd3  1  0.175632  0.675632  0.000000  1
  Si  Si4  1  0.000000  0.000000  0.000000  1
  Si  Si5  1  0.500000  0.500000  0.000000  1
  B  B6  1  0.625418  0.125418  0.000000  1
  B  B7  1  0.125418  0.374582  0.000000  1
  B  B8  1  0.874582  0.625418  0.000000  1
  B  B9  1  0.374582  0.874582  0.000000  1
  Rh  Rh10  1  0.069914  0.210070  0.500000  1
  Rh  Rh11  1  0.210070  0.930086  0.500000  1
  Rh  Rh12  1  0.789930  0.069914  0.500000  1
  Rh  Rh13  1  0.930086  0.789930  0.500000  1
  Rh  Rh14  1  0.430086  0.710070  0.500000  1
  Rh  Rh15  1  0.569914  0.289930  0.500000  1
  Rh  Rh16  1  0.710070  0.569914  0.500000  1
  Rh  Rh17  1  0.289930  0.430086  0.500000  1
  Rh  Rh18  1  0.500000  0.000000  0.500000  1
  Rh  Rh19  1  0.000000  0.500000  0.500000  1
