# generated using pymatgen
data_Zr2TcSn2Au
_symmetry_space_group_name_H-M   'P 1'
_cell_length_a   7.58430900
_cell_length_b   7.58430802
_cell_length_c   7.37821900
_cell_angle_alpha   90.00000000
_cell_angle_beta   90.00000000
_cell_angle_gamma   119.99999874
_symmetry_Int_Tables_number   1
_chemical_formula_structural   Zr2TcSn2Au
_chemical_formula_sum   'Zr6 Tc3 Sn6 Au3'
_cell_volume   367.54808168
_cell_formula_units_Z   3
loop_
 _symmetry_equiv_pos_site_id
 _symmetry_equiv_pos_as_xyz
  1  'x, y, z'
loop_
 _atom_site_type_symbol
 _atom_site_label
 _atom_site_symmetry_multiplicity
 _atom_site_fract_x
 _atom_site_fract_y
 _atom_site_fract_z
 _atom_site_occupancy
  Zr  Zr0  1  0.403485  0.036697  0.260898  1
  Zr  Zr1  1  0.614929  0.619156  0.740360  1
  Zr  Zr2  1  0.633214  0.596515  0.260898  1
  Zr  Zr3  1  0.963303  0.366786  0.260898  1
  Zr  Zr4  1  0.004224  0.385071  0.740360  1
  Zr  Zr5  1  0.380844  0.995776  0.740360  1
  Tc  Tc6  1  0.666667  0.333333  0.518824  1
  Tc  Tc7  1  0.000000  0.000000  0.727402  1
  Tc  Tc8  1  0.000000  0.000000  0.280682  1
  Sn  Sn9  1  0.281022  0.282811  0.504229  1
  Sn  Sn10  1  0.254370  0.261093  0.002276  1
  Sn  Sn11  1  0.738907  0.993277  0.002276  1
  Sn  Sn12  1  0.001789  0.718978  0.504229  1
  Sn  Sn13  1  0.717189  0.998211  0.504229  1
  Sn  Sn14  1  0.006723  0.745630  0.002276  1
  Au  Au15  1  0.666667  0.333333  0.952343  1
  Au  Au16  1  0.333333  0.666667  0.039069  1
  Au  Au17  1  0.333333  0.666667  0.458393  1
