# generated using pymatgen
data_LiDy4Er3(B6Os)4
_symmetry_space_group_name_H-M   'P 1'
_cell_length_a   3.61713700
_cell_length_b   9.06357632
_cell_length_c   11.44296192
_cell_angle_alpha   89.91804059
_cell_angle_beta   90.00000000
_cell_angle_gamma   90.00000000
_symmetry_Int_Tables_number   1
_chemical_formula_structural   LiDy4Er3(B6Os)4
_chemical_formula_sum   'Li1 Dy4 Er3 B24 Os4'
_cell_volume   375.14793715
_cell_formula_units_Z   1
loop_
 _symmetry_equiv_pos_site_id
 _symmetry_equiv_pos_as_xyz
  1  'x, y, z'
loop_
 _atom_site_type_symbol
 _atom_site_label
 _atom_site_symmetry_multiplicity
 _atom_site_fract_x
 _atom_site_fract_y
 _atom_site_fract_z
 _atom_site_occupancy
  Li  Li0  1  0.000000  0.944090  0.372191  1
  Dy  Dy1  1  0.000000  0.320216  0.410907  1
  Dy  Dy2  1  0.000000  0.680805  0.581099  1
  Dy  Dy3  1  0.000000  0.823677  0.091738  1
  Dy  Dy4  1  0.000000  0.177175  0.917259  1
  Er  Er5  1  0.000000  0.055671  0.624340  1
  Er  Er6  1  0.000000  0.442742  0.130380  1
  Er  Er7  1  0.000000  0.557072  0.871870  1
  B  B8  1  0.500000  0.556770  0.432356  1
  B  B9  1  0.500000  0.446650  0.565878  1
  B  B10  1  0.500000  0.052756  0.069313  1
  B  B11  1  0.500000  0.946666  0.933122  1
  B  B12  1  0.500000  0.755752  0.417623  1
  B  B13  1  0.500000  0.250096  0.579565  1
  B  B14  1  0.500000  0.247546  0.082658  1
  B  B15  1  0.500000  0.751505  0.918986  1
  B  B16  1  0.500000  0.795286  0.267006  1
  B  B17  1  0.500000  0.208031  0.733465  1
  B  B18  1  0.500000  0.287744  0.235766  1
  B  B19  1  0.500000  0.709311  0.764560  1
  B  B20  1  0.500000  0.631867  0.187077  1
  B  B21  1  0.500000  0.368718  0.814709  1
  B  B22  1  0.500000  0.123804  0.317120  1
  B  B23  1  0.500000  0.869828  0.683152  1
  B  B24  1  0.500000  0.979520  0.215736  1
  B  B25  1  0.500000  0.017958  0.786150  1
  B  B26  1  0.500000  0.483295  0.288643  1
  B  B27  1  0.500000  0.517580  0.711948  1
  B  B28  1  0.500000  0.604983  0.029585  1
  B  B29  1  0.500000  0.395379  0.971901  1
  B  B30  1  0.500000  0.093286  0.468643  1
  B  B31  1  0.500000  0.901880  0.522025  1
  Os  Os32  1  0.000000  0.642374  0.321577  1
  Os  Os33  1  0.000000  0.361300  0.678978  1
  Os  Os34  1  0.000000  0.135389  0.181969  1
  Os  Os35  1  0.000000  0.863277  0.820706  1
