# generated using pymatgen
data_KRb3MgCoH9
_symmetry_space_group_name_H-M   'P 1'
_cell_length_a   9.06561156
_cell_length_b   9.06561237
_cell_length_c   9.06561186
_cell_angle_alpha   39.52462412
_cell_angle_beta   39.52461916
_cell_angle_gamma   39.52463763
_symmetry_Int_Tables_number   1
_chemical_formula_structural   KRb3MgCoH9
_chemical_formula_sum   'K1 Rb3 Mg1 Co1 H9'
_cell_volume   271.64906721
_cell_formula_units_Z   1
loop_
 _symmetry_equiv_pos_site_id
 _symmetry_equiv_pos_as_xyz
  1  'x, y, z'
loop_
 _atom_site_type_symbol
 _atom_site_label
 _atom_site_symmetry_multiplicity
 _atom_site_fract_x
 _atom_site_fract_y
 _atom_site_fract_z
 _atom_site_occupancy
  K  K0  1  0.617630  0.617630  0.617630  1
  Rb  Rb1  1  0.033858  0.033858  0.033858  1
  Rb  Rb2  1  0.780367  0.780367  0.780367  1
  Rb  Rb3  1  0.200696  0.200696  0.200696  1
  Mg  Mg4  1  0.386861  0.386861  0.386861  1
  Co  Co5  1  0.488641  0.488641  0.488641  1
  H  H6  1  0.037286  0.510066  0.510066  1
  H  H7  1  0.510066  0.037286  0.510066  1
  H  H8  1  0.510066  0.510066  0.037286  1
  H  H9  1  0.703151  0.329331  0.329331  1
  H  H10  1  0.329331  0.703151  0.329331  1
  H  H11  1  0.329331  0.329331  0.703151  1
  H  H12  1  0.644848  0.644848  0.283019  1
  H  H13  1  0.644848  0.283019  0.644848  1
  H  H14  1  0.283019  0.644848  0.644848  1
