# generated using pymatgen
data_Pr2B4IrRuRh2
_symmetry_space_group_name_H-M   'P 1'
_cell_length_a   6.99665629
_cell_length_b   6.06993520
_cell_length_c   5.69108434
_cell_angle_alpha   72.93087015
_cell_angle_beta   56.03034906
_cell_angle_gamma   49.66894845
_symmetry_Int_Tables_number   1
_chemical_formula_structural   Pr2B4IrRuRh2
_chemical_formula_sum   'Pr2 B4 Ir1 Ru1 Rh2'
_cell_volume   151.91495171
_cell_formula_units_Z   1
loop_
 _symmetry_equiv_pos_site_id
 _symmetry_equiv_pos_as_xyz
  1  'x, y, z'
loop_
 _atom_site_type_symbol
 _atom_site_label
 _atom_site_symmetry_multiplicity
 _atom_site_fract_x
 _atom_site_fract_y
 _atom_site_fract_z
 _atom_site_occupancy
  Pr  Pr0  1  0.999430  0.999430  0.000570  1
  Pr  Pr1  1  0.248294  0.248294  0.251706  1
  B  B2  1  0.661209  0.326441  0.695904  1
  B  B3  1  0.326441  0.661209  0.316447  1
  B  B4  1  0.921971  0.592036  0.930628  1
  B  B5  1  0.592036  0.921971  0.555364  1
  Ir  Ir6  1  0.364937  0.364938  0.635062  1
  Ru  Ru7  1  0.885356  0.885355  0.614644  1
  Rh  Rh8  1  0.619358  0.619358  0.880642  1
  Rh  Rh9  1  0.630968  0.630968  0.369031  1
