# generated using pymatgen
data_Sc5Co4Ni
_symmetry_space_group_name_H-M   'P 1'
_cell_length_a   3.14042300
_cell_length_b   3.14042300
_cell_length_c   15.48027900
_cell_angle_alpha   90.00000000
_cell_angle_beta   90.00000000
_cell_angle_gamma   90.00000000
_symmetry_Int_Tables_number   1
_chemical_formula_structural   Sc5Co4Ni
_chemical_formula_sum   'Sc5 Co4 Ni1'
_cell_volume   152.67048403
_cell_formula_units_Z   1
loop_
 _symmetry_equiv_pos_site_id
 _symmetry_equiv_pos_as_xyz
  1  'x, y, z'
loop_
 _atom_site_type_symbol
 _atom_site_label
 _atom_site_symmetry_multiplicity
 _atom_site_fract_x
 _atom_site_fract_y
 _atom_site_fract_z
 _atom_site_occupancy
  Sc  Sc0  1  0.500000  0.500000  0.100975  1
  Sc  Sc1  1  0.500000  0.500000  0.300300  1
  Sc  Sc2  1  0.500000  0.500000  0.500000  1
  Sc  Sc3  1  0.500000  0.500000  0.699700  1
  Sc  Sc4  1  0.500000  0.500000  0.899025  1
  Co  Co5  1  0.000000  0.000000  0.199318  1
  Co  Co6  1  0.000000  0.000000  0.399962  1
  Co  Co7  1  0.000000  0.000000  0.600038  1
  Co  Co8  1  0.000000  0.000000  0.800682  1
  Ni  Ni9  1  0.000000  0.000000  0.000000  1
