# generated using pymatgen
data_Yb3Y5(ErRu2)2
_symmetry_space_group_name_H-M   'P 1'
_cell_length_a   6.40258141
_cell_length_b   7.26294851
_cell_length_c   8.53038789
_cell_angle_alpha   96.73998605
_cell_angle_beta   112.32530230
_cell_angle_gamma   90.24110027
_symmetry_Int_Tables_number   1
_chemical_formula_structural   Yb3Y5(ErRu2)2
_chemical_formula_sum   'Yb3 Y5 Er2 Ru4'
_cell_volume   363.89250261
_cell_formula_units_Z   1
loop_
 _symmetry_equiv_pos_site_id
 _symmetry_equiv_pos_as_xyz
  1  'x, y, z'
loop_
 _atom_site_type_symbol
 _atom_site_label
 _atom_site_symmetry_multiplicity
 _atom_site_fract_x
 _atom_site_fract_y
 _atom_site_fract_z
 _atom_site_occupancy
  Yb  Yb0  1  0.797665  0.582903  0.818739  1
  Yb  Yb1  1  0.978368  0.918111  0.184546  1
  Yb  Yb2  1  0.207641  0.419407  0.184719  1
  Y  Y3  1  0.022925  0.083675  0.817924  1
  Y  Y4  1  0.199102  0.684965  0.565954  1
  Y  Y5  1  0.637319  0.817914  0.432735  1
  Y  Y6  1  0.795721  0.315744  0.433492  1
  Y  Y7  1  0.362599  0.183692  0.567449  1
  Er  Er8  1  0.429561  0.750952  0.001617  1
  Er  Er9  1  0.576233  0.249542  0.000932  1
  Ru  Ru10  1  0.592889  0.926435  0.772655  1
  Ru  Ru11  1  0.814502  0.573159  0.227981  1
  Ru  Ru12  1  0.403196  0.071613  0.216068  1
  Ru  Ru13  1  0.182281  0.421888  0.775191  1
