# generated using pymatgen
data_RbBeAlAs2
_symmetry_space_group_name_H-M   'P 1'
_cell_length_a   8.00980230
_cell_length_b   8.00980246
_cell_length_c   8.00980145
_cell_angle_alpha   151.28666525
_cell_angle_beta   151.28666950
_cell_angle_gamma   41.05592405
_symmetry_Int_Tables_number   1
_chemical_formula_structural   RbBeAlAs2
_chemical_formula_sum   'Rb1 Be1 Al1 As2'
_cell_volume   118.35519619
_cell_formula_units_Z   1
loop_
 _symmetry_equiv_pos_site_id
 _symmetry_equiv_pos_as_xyz
  1  'x, y, z'
loop_
 _atom_site_type_symbol
 _atom_site_label
 _atom_site_symmetry_multiplicity
 _atom_site_fract_x
 _atom_site_fract_y
 _atom_site_fract_z
 _atom_site_occupancy
  Rb  Rb0  1  0.000000  0.000000  0.000000  1
  Be  Be1  1  0.250000  0.750000  0.500000  1
  Al  Al2  1  0.750000  0.250000  0.500000  1
  As  As3  1  0.346624  0.346624  0.000000  1
  As  As4  1  0.653376  0.653376  0.000000  1
