# generated using pymatgen
data_Pr6Ho5Tm5(CdIr)4
_symmetry_space_group_name_H-M   'P 1'
_cell_length_a   9.74771850
_cell_length_b   9.73247578
_cell_length_c   9.73247474
_cell_angle_alpha   59.92279474
_cell_angle_beta   59.94818039
_cell_angle_gamma   59.94817628
_symmetry_Int_Tables_number   1
_chemical_formula_structural   Pr6Ho5Tm5(CdIr)4
_chemical_formula_sum   'Pr6 Ho5 Tm5 Cd4 Ir4'
_cell_volume   651.98909592
_cell_formula_units_Z   1
loop_
 _symmetry_equiv_pos_site_id
 _symmetry_equiv_pos_as_xyz
  1  'x, y, z'
loop_
 _atom_site_type_symbol
 _atom_site_label
 _atom_site_symmetry_multiplicity
 _atom_site_fract_x
 _atom_site_fract_y
 _atom_site_fract_z
 _atom_site_occupancy
  Pr  Pr0  1  0.941341  0.558659  0.558659  1
  Pr  Pr1  1  0.558044  0.941956  0.941956  1
  Pr  Pr2  1  0.558184  0.941157  0.558570  1
  Pr  Pr3  1  0.942089  0.558570  0.941157  1
  Pr  Pr4  1  0.558184  0.558570  0.941157  1
  Pr  Pr5  1  0.942089  0.941157  0.558570  1
  Ho  Ho6  1  0.345963  0.347497  0.347497  1
  Ho  Ho7  1  0.346834  0.347828  0.958504  1
  Ho  Ho8  1  0.346834  0.958504  0.347828  1
  Ho  Ho9  1  0.959043  0.347497  0.347497  1
  Ho  Ho10  1  0.813890  0.186110  0.186110  1
  Tm  Tm11  1  0.185898  0.814102  0.814102  1
  Tm  Tm12  1  0.187196  0.813129  0.185286  1
  Tm  Tm13  1  0.814389  0.185286  0.813129  1
  Tm  Tm14  1  0.187196  0.185286  0.813129  1
  Tm  Tm15  1  0.814389  0.813129  0.185286  1
  Cd  Cd16  1  0.579038  0.579078  0.579078  1
  Cd  Cd17  1  0.579012  0.579363  0.262612  1
  Cd  Cd18  1  0.579012  0.262612  0.579363  1
  Cd  Cd19  1  0.262803  0.579078  0.579078  1
  Ir  Ir20  1  0.140961  0.140930  0.140930  1
  Ir  Ir21  1  0.140216  0.141391  0.578175  1
  Ir  Ir22  1  0.140216  0.578175  0.141391  1
  Ir  Ir23  1  0.577177  0.140930  0.140930  1
