# generated using pymatgen
data_Ba2HfZr3F20
_symmetry_space_group_name_H-M   'P 1'
_cell_length_a   8.53285688
_cell_length_b   8.53076298
_cell_length_c   8.90587314
_cell_angle_alpha   84.00354133
_cell_angle_beta   84.07599363
_cell_angle_gamma   137.34611354
_symmetry_Int_Tables_number   1
_chemical_formula_structural   Ba2HfZr3F20
_chemical_formula_sum   'Ba2 Hf1 Zr3 F20'
_cell_volume   420.96593872
_cell_formula_units_Z   1
loop_
 _symmetry_equiv_pos_site_id
 _symmetry_equiv_pos_as_xyz
  1  'x, y, z'
loop_
 _atom_site_type_symbol
 _atom_site_label
 _atom_site_symmetry_multiplicity
 _atom_site_fract_x
 _atom_site_fract_y
 _atom_site_fract_z
 _atom_site_occupancy
  Ba  Ba0  1  0.429099  0.567354  0.750381  1
  Ba  Ba1  1  0.572448  0.431616  0.247831  1
  Hf  Hf2  1  0.344665  0.033933  0.902662  1
  Zr  Zr3  1  0.968110  0.658640  0.597417  1
  Zr  Zr4  1  0.657371  0.967628  0.095986  1
  Zr  Zr5  1  0.032175  0.341664  0.403742  1
  F  F6  1  0.137381  0.553664  0.574749  1
  F  F7  1  0.444400  0.862811  0.926366  1
  F  F8  1  0.861869  0.445620  0.427472  1
  F  F9  1  0.552253  0.136821  0.071771  1
  F  F10  1  0.693266  0.301319  0.751570  1
  F  F11  1  0.302858  0.696716  0.250312  1
  F  F12  1  0.200457  0.803771  0.751922  1
  F  F13  1  0.800331  0.199467  0.249534  1
  F  F14  1  0.971152  0.245574  0.935498  1
  F  F15  1  0.754263  0.028200  0.564511  1
  F  F16  1  0.034724  0.760395  0.060417  1
  F  F17  1  0.245224  0.971362  0.436154  1
  F  F18  1  0.258450  0.372840  0.499518  1
  F  F19  1  0.625539  0.740921  0.000219  1
  F  F20  1  0.741890  0.626968  0.500866  1
  F  F21  1  0.373770  0.255644  0.998481  1
  F  F22  1  0.296050  0.165753  0.742986  1
  F  F23  1  0.830900  0.702965  0.760114  1
  F  F24  1  0.702854  0.831491  0.259137  1
  F  F25  1  0.168503  0.296862  0.240386  1
