# generated using pymatgen
data_ErTm3Co3Si4Ru
_symmetry_space_group_name_H-M   'P 1'
_cell_length_a   4.18440900
_cell_length_b   6.78705253
_cell_length_c   6.97862428
_cell_angle_alpha   90.24591954
_cell_angle_beta   90.00000000
_cell_angle_gamma   90.00000000
_symmetry_Int_Tables_number   1
_chemical_formula_structural   ErTm3Co3Si4Ru
_chemical_formula_sum   'Er1 Tm3 Co3 Si4 Ru1'
_cell_volume   198.18973398
_cell_formula_units_Z   1
loop_
 _symmetry_equiv_pos_site_id
 _symmetry_equiv_pos_as_xyz
  1  'x, y, z'
loop_
 _atom_site_type_symbol
 _atom_site_label
 _atom_site_symmetry_multiplicity
 _atom_site_fract_x
 _atom_site_fract_y
 _atom_site_fract_z
 _atom_site_occupancy
  Er  Er0  1  0.750000  0.012048  0.193645  1
  Tm  Tm1  1  0.250000  0.986624  0.804261  1
  Tm  Tm2  1  0.250000  0.482608  0.686953  1
  Tm  Tm3  1  0.750000  0.510721  0.313958  1
  Co  Co4  1  0.750000  0.851381  0.568812  1
  Co  Co5  1  0.250000  0.155398  0.436054  1
  Co  Co6  1  0.750000  0.349242  0.932770  1
  Si  Si7  1  0.250000  0.297785  0.102621  1
  Si  Si8  1  0.750000  0.696898  0.888217  1
  Si  Si9  1  0.250000  0.805013  0.399722  1
  Si  Si10  1  0.750000  0.196861  0.606614  1
  Ru  Ru11  1  0.250000  0.655421  0.066375  1
