# generated using pymatgen
data_HoTm2Hf(Al8Pt3)3
_symmetry_space_group_name_H-M   'P 1'
_cell_length_a   7.51706588
_cell_length_b   7.52481968
_cell_length_c   13.08272900
_cell_angle_alpha   84.55697497
_cell_angle_beta   79.03223945
_cell_angle_gamma   59.90361161
_symmetry_Int_Tables_number   1
_chemical_formula_structural   HoTm2Hf(Al8Pt3)3
_chemical_formula_sum   'Ho1 Tm2 Hf1 Al24 Pt9'
_cell_volume   628.55705775
_cell_formula_units_Z   1
loop_
 _symmetry_equiv_pos_site_id
 _symmetry_equiv_pos_as_xyz
  1  'x, y, z'
loop_
 _atom_site_type_symbol
 _atom_site_label
 _atom_site_symmetry_multiplicity
 _atom_site_fract_x
 _atom_site_fract_y
 _atom_site_fract_z
 _atom_site_occupancy
  Ho  Ho0  1  0.606316  0.831747  0.192164  1
  Tm  Tm1  1  0.734118  0.498742  0.807198  1
  Tm  Tm2  1  0.266438  0.501132  0.192565  1
  Hf  Hf3  1  0.393711  0.168456  0.807797  1
  Al  Al4  1  0.681689  0.836439  0.941163  1
  Al  Al5  1  0.316744  0.166511  0.054409  1
  Al  Al6  1  0.146428  0.832695  0.562610  1
  Al  Al7  1  0.853107  0.167273  0.438170  1
  Al  Al8  1  0.479866  0.166695  0.560488  1
  Al  Al9  1  0.519448  0.833857  0.441314  1
  Al  Al10  1  0.217274  0.165595  0.329018  1
  Al  Al11  1  0.779808  0.836294  0.674122  1
  Al  Al12  1  0.435612  0.504938  0.674516  1
  Al  Al13  1  0.562804  0.493495  0.328264  1
  Al  Al14  1  0.110309  0.159508  0.673406  1
  Al  Al15  1  0.890673  0.839913  0.329447  1
  Al  Al16  1  0.354717  0.496120  0.941209  1
  Al  Al17  1  0.647099  0.500535  0.055697  1
  Al  Al18  1  0.019280  0.168523  0.949004  1
  Al  Al19  1  0.984392  0.832215  0.047411  1
  Al  Al20  1  0.186779  0.499197  0.441363  1
  Al  Al21  1  0.813702  0.500318  0.559075  1
  Al  Al22  1  0.733467  0.164017  0.183260  1
  Al  Al23  1  0.266506  0.841102  0.816683  1
  Al  Al24  1  0.065833  0.626366  0.815359  1
  Al  Al25  1  0.939318  0.368721  0.184164  1
  Al  Al26  1  0.850305  0.042083  0.815882  1
  Al  Al27  1  0.145072  0.958145  0.183618  1
  Pt  Pt28  1  0.119998  0.489518  0.640218  1
  Pt  Pt29  1  0.879508  0.509096  0.360960  1
  Pt  Pt30  1  0.657137  0.172137  0.998748  1
  Pt  Pt31  1  0.344021  0.827544  0.999316  1
  Pt  Pt32  1  0.536825  0.166922  0.361267  1
  Pt  Pt33  1  0.463816  0.832986  0.640003  1
  Pt  Pt34  1  0.776835  0.176895  0.638500  1
  Pt  Pt35  1  0.221249  0.824097  0.362789  1
  Pt  Pt36  1  0.999800  0.500172  0.998819  1
