# generated using pymatgen
data_DyLuZn4(InPt2)2
_symmetry_space_group_name_H-M   'P 1'
_cell_length_a   4.15423600
_cell_length_b   6.61925607
_cell_length_c   8.18615237
_cell_angle_alpha   92.77083606
_cell_angle_beta   90.00000000
_cell_angle_gamma   90.00000000
_symmetry_Int_Tables_number   1
_chemical_formula_structural   DyLuZn4(InPt2)2
_chemical_formula_sum   'Dy1 Lu1 Zn4 In2 Pt4'
_cell_volume   224.83925058
_cell_formula_units_Z   1
loop_
 _symmetry_equiv_pos_site_id
 _symmetry_equiv_pos_as_xyz
  1  'x, y, z'
loop_
 _atom_site_type_symbol
 _atom_site_label
 _atom_site_symmetry_multiplicity
 _atom_site_fract_x
 _atom_site_fract_y
 _atom_site_fract_z
 _atom_site_occupancy
  Dy  Dy0  1  0.750000  0.961887  0.682465  1
  Lu  Lu1  1  0.250000  0.039492  0.317584  1
  Zn  Zn2  1  0.250000  0.642994  0.553880  1
  Zn  Zn3  1  0.750000  0.358721  0.444292  1
  Zn  Zn4  1  0.750000  0.860768  0.058830  1
  Zn  Zn5  1  0.250000  0.138540  0.942344  1
  In  In6  1  0.250000  0.539609  0.174976  1
  In  In7  1  0.750000  0.458494  0.825887  1
  Pt  Pt8  1  0.250000  0.743692  0.874249  1
  Pt  Pt9  1  0.750000  0.251738  0.129003  1
  Pt  Pt10  1  0.750000  0.742519  0.365967  1
  Pt  Pt11  1  0.250000  0.261547  0.630522  1
