# generated using pymatgen
data_K2Li14Hf3O14
_symmetry_space_group_name_H-M   'P 1'
_cell_length_a   8.22367754
_cell_length_b   8.22367747
_cell_length_c   8.22367732
_cell_angle_alpha   127.34835017
_cell_angle_beta   123.23154973
_cell_angle_gamma   81.10156730
_symmetry_Int_Tables_number   1
_chemical_formula_structural   K2Li14Hf3O14
_chemical_formula_sum   'K2 Li14 Hf3 O14'
_cell_volume   356.35818966
_cell_formula_units_Z   1
loop_
 _symmetry_equiv_pos_site_id
 _symmetry_equiv_pos_as_xyz
  1  'x, y, z'
loop_
 _atom_site_type_symbol
 _atom_site_label
 _atom_site_symmetry_multiplicity
 _atom_site_fract_x
 _atom_site_fract_y
 _atom_site_fract_z
 _atom_site_occupancy
  K  K0  1  0.500000  0.760093  0.260093  1
  K  K1  1  0.500000  0.239907  0.739907  1
  Li  Li2  1  0.704867  0.136084  0.112321  1
  Li  Li3  1  0.976237  0.863916  0.568783  1
  Li  Li4  1  0.023763  0.592546  0.887679  1
  Li  Li5  1  0.295133  0.407454  0.431217  1
  Li  Li6  1  0.023763  0.136084  0.431217  1
  Li  Li7  1  0.844762  0.500000  0.344762  1
  Li  Li8  1  0.155238  0.500000  0.655238  1
  Li  Li9  1  0.413787  0.771247  0.642540  1
  Li  Li10  1  0.586213  0.228753  0.357460  1
  Li  Li11  1  0.871293  0.228753  0.642540  1
  Li  Li12  1  0.128707  0.771247  0.357460  1
  Li  Li13  1  0.704867  0.592546  0.568783  1
  Li  Li14  1  0.295133  0.863916  0.887679  1
  Li  Li15  1  0.976237  0.407454  0.112321  1
  Hf  Hf16  1  0.000000  0.000000  0.000000  1
  Hf  Hf17  1  0.270735  0.270735  0.000000  1
  Hf  Hf18  1  0.729265  0.729265  0.000000  1
  O  O19  1  0.050021  0.872523  0.177498  1
  O  O20  1  0.423156  0.630236  0.792920  1
  O  O21  1  0.837316  0.630236  0.207080  1
  O  O22  1  0.576844  0.369764  0.207080  1
  O  O23  1  0.162684  0.369764  0.792920  1
  O  O24  1  0.744467  0.029075  0.284608  1
  O  O25  1  0.255533  0.540142  0.284608  1
  O  O26  1  0.255533  0.970925  0.715392  1
  O  O27  1  0.744467  0.459858  0.715392  1
  O  O28  1  0.000000  0.713882  0.713882  1
  O  O29  1  0.000000  0.286118  0.286118  1
  O  O30  1  0.695025  0.872523  0.822502  1
  O  O31  1  0.304975  0.127477  0.177498  1
  O  O32  1  0.949979  0.127477  0.822502  1
