# generated using pymatgen
data_Hf12Th8Si15Pd
_symmetry_space_group_name_H-M   'P 1'
_cell_length_a   7.37148595
_cell_length_b   7.43313678
_cell_length_c   13.63623467
_cell_angle_alpha   90.24445425
_cell_angle_beta   89.74376144
_cell_angle_gamma   89.78951030
_symmetry_Int_Tables_number   1
_chemical_formula_structural   Hf12Th8Si15Pd
_chemical_formula_sum   'Hf12 Th8 Si15 Pd1'
_cell_volume   747.15443038
_cell_formula_units_Z   1
loop_
 _symmetry_equiv_pos_site_id
 _symmetry_equiv_pos_as_xyz
  1  'x, y, z'
loop_
 _atom_site_type_symbol
 _atom_site_label
 _atom_site_symmetry_multiplicity
 _atom_site_fract_x
 _atom_site_fract_y
 _atom_site_fract_z
 _atom_site_occupancy
  Hf  Hf0  1  0.173072  0.174139  0.998693  1
  Hf  Hf1  1  0.826088  0.825501  0.500313  1
  Hf  Hf2  1  0.328533  0.681336  0.248529  1
  Hf  Hf3  1  0.673598  0.325063  0.750471  1
  Hf  Hf4  1  0.151627  0.994086  0.375866  1
  Hf  Hf5  1  0.845366  0.003102  0.873725  1
  Hf  Hf6  1  0.504840  0.653019  0.624765  1
  Hf  Hf7  1  0.346177  0.497250  0.874719  1
  Hf  Hf8  1  0.495427  0.346308  0.122933  1
  Hf  Hf9  1  0.655154  0.508854  0.379158  1
  Hf  Hf10  1  0.998509  0.152477  0.625323  1
  Hf  Hf11  1  0.000304  0.847204  0.123894  1
  Th  Th12  1  0.997152  0.343253  0.215740  1
  Th  Th13  1  0.004359  0.655841  0.714983  1
  Th  Th14  1  0.159769  0.495118  0.465925  1
  Th  Th15  1  0.503667  0.843113  0.032884  1
  Th  Th16  1  0.841713  0.504685  0.966550  1
  Th  Th17  1  0.496936  0.156447  0.536750  1
  Th  Th18  1  0.343440  0.996593  0.784151  1
  Th  Th19  1  0.655471  0.002039  0.284517  1
  Si  Si20  1  0.634303  0.701320  0.815551  1
  Si  Si21  1  0.203607  0.866539  0.565428  1
  Si  Si22  1  0.131875  0.797464  0.934215  1
  Si  Si23  1  0.796957  0.133799  0.065056  1
  Si  Si24  1  0.866936  0.201530  0.435438  1
  Si  Si25  1  0.298210  0.367134  0.685122  1
  Si  Si26  1  0.701023  0.633897  0.184939  1
  Si  Si27  1  0.286759  0.045784  0.183485  1
  Si  Si28  1  0.711423  0.951949  0.685106  1
  Si  Si29  1  0.451719  0.792315  0.436021  1
  Si  Si30  1  0.209820  0.548407  0.064480  1
  Si  Si31  1  0.545568  0.210002  0.934699  1
  Si  Si32  1  0.790565  0.450786  0.565732  1
  Si  Si33  1  0.046793  0.290707  0.815063  1
  Si  Si34  1  0.953343  0.709446  0.314129  1
  Pd  Pd35  1  0.369894  0.293491  0.315645  1
