# generated using pymatgen
data_Zr12Zn9Pt3C4
_symmetry_space_group_name_H-M   'P 1'
_cell_length_a   8.66276487
_cell_length_b   8.66276477
_cell_length_c   8.66276523
_cell_angle_alpha   60.08074739
_cell_angle_beta   60.08074708
_cell_angle_gamma   60.08075027
_symmetry_Int_Tables_number   1
_chemical_formula_structural   Zr12Zn9Pt3C4
_chemical_formula_sum   'Zr12 Zn9 Pt3 C4'
_cell_volume   460.52006165
_cell_formula_units_Z   1
loop_
 _symmetry_equiv_pos_site_id
 _symmetry_equiv_pos_as_xyz
  1  'x, y, z'
loop_
 _atom_site_type_symbol
 _atom_site_label
 _atom_site_symmetry_multiplicity
 _atom_site_fract_x
 _atom_site_fract_y
 _atom_site_fract_z
 _atom_site_occupancy
  Zr  Zr0  1  0.440126  0.440126  0.062022  1
  Zr  Zr1  1  0.059642  0.440509  0.059642  1
  Zr  Zr2  1  0.440509  0.059642  0.059642  1
  Zr  Zr3  1  0.059642  0.059642  0.440509  1
  Zr  Zr4  1  0.440126  0.062022  0.440126  1
  Zr  Zr5  1  0.062022  0.440126  0.440126  1
  Zr  Zr6  1  0.809874  0.809874  0.187978  1
  Zr  Zr7  1  0.190358  0.809491  0.190358  1
  Zr  Zr8  1  0.809491  0.190358  0.190358  1
  Zr  Zr9  1  0.190358  0.190358  0.809491  1
  Zr  Zr10  1  0.809874  0.187978  0.809874  1
  Zr  Zr11  1  0.187978  0.809874  0.809874  1
  Zn  Zn12  1  0.832033  0.832033  0.503776  1
  Zn  Zn13  1  0.832033  0.503776  0.832033  1
  Zn  Zn14  1  0.503776  0.832033  0.832033  1
  Zn  Zn15  1  0.831755  0.831755  0.831755  1
  Zn  Zn16  1  0.417967  0.417967  0.746224  1
  Zn  Zn17  1  0.417967  0.746224  0.417967  1
  Zn  Zn18  1  0.746224  0.417967  0.417967  1
  Zn  Zn19  1  0.418245  0.418245  0.418245  1
  Zn  Zn20  1  0.625000  0.625000  0.625000  1
  Pt  Pt21  1  0.625000  0.625000  0.125000  1
  Pt  Pt22  1  0.625000  0.125000  0.625000  1
  Pt  Pt23  1  0.125000  0.625000  0.625000  1
  C  C24  1  0.125000  0.125000  0.625000  1
  C  C25  1  0.125000  0.625000  0.125000  1
  C  C26  1  0.625000  0.125000  0.125000  1
  C  C27  1  0.125000  0.125000  0.125000  1
