# generated using pymatgen
data_Tb4Er8Ga2Ni3Ru
_symmetry_space_group_name_H-M   'P 1'
_cell_length_a   8.29023124
_cell_length_b   8.29023224
_cell_length_c   8.29023258
_cell_angle_alpha   112.93929817
_cell_angle_beta   109.56732760
_cell_angle_gamma   105.98167818
_symmetry_Int_Tables_number   1
_chemical_formula_structural   Tb4Er8Ga2Ni3Ru
_chemical_formula_sum   'Tb4 Er8 Ga2 Ni3 Ru1'
_cell_volume   436.99440951
_cell_formula_units_Z   1
loop_
 _symmetry_equiv_pos_site_id
 _symmetry_equiv_pos_as_xyz
  1  'x, y, z'
loop_
 _atom_site_type_symbol
 _atom_site_label
 _atom_site_symmetry_multiplicity
 _atom_site_fract_x
 _atom_site_fract_y
 _atom_site_fract_z
 _atom_site_occupancy
  Tb  Tb0  1  0.052915  0.746875  0.306039  1
  Tb  Tb1  1  0.959255  0.264748  0.694506  1
  Tb  Tb2  1  0.559164  0.253125  0.306039  1
  Tb  Tb3  1  0.429759  0.735252  0.694506  1
  Er  Er4  1  0.673799  0.862705  0.191479  1
  Er  Er5  1  0.328775  0.517680  0.191479  1
  Er  Er6  1  0.328775  0.137295  0.811095  1
  Er  Er7  1  0.673799  0.482320  0.811095  1
  Er  Er8  1  0.175099  0.221709  0.396809  1
  Er  Er9  1  0.817138  0.220784  0.037922  1
  Er  Er10  1  0.175099  0.778291  0.953391  1
  Er  Er11  1  0.817138  0.779216  0.596354  1
  Ga  Ga12  1  0.989476  0.500000  0.489476  1
  Ga  Ga13  1  0.502688  0.000000  0.502688  1
  Ni  Ni14  1  0.347279  0.500000  0.847279  1
  Ni  Ni15  1  0.882399  0.881529  0.000870  1
  Ni  Ni16  1  0.119340  0.118471  0.000870  1
  Ru  Ru17  1  0.668102  0.500000  0.168102  1
