# generated using pymatgen
data_LaTb3(Fe2Br)2
_symmetry_space_group_name_H-M   'P 1'
_cell_length_a   3.94361900
_cell_length_b   3.94361854
_cell_length_c   16.86311800
_cell_angle_alpha   90.00000000
_cell_angle_beta   90.00000000
_cell_angle_gamma   119.99999543
_symmetry_Int_Tables_number   1
_chemical_formula_structural   LaTb3(Fe2Br)2
_chemical_formula_sum   'La1 Tb3 Fe4 Br2'
_cell_volume   227.12156981
_cell_formula_units_Z   1
loop_
 _symmetry_equiv_pos_site_id
 _symmetry_equiv_pos_as_xyz
  1  'x, y, z'
loop_
 _atom_site_type_symbol
 _atom_site_label
 _atom_site_symmetry_multiplicity
 _atom_site_fract_x
 _atom_site_fract_y
 _atom_site_fract_z
 _atom_site_occupancy
  La  La0  1  0.000000  0.000000  0.888318  1
  Tb  Tb1  1  0.000000  0.000000  0.113133  1
  Tb  Tb2  1  0.000000  0.000000  0.391822  1
  Tb  Tb3  1  0.000000  0.000000  0.606067  1
  Fe  Fe4  1  0.333333  0.666666  0.008821  1
  Fe  Fe5  1  0.333333  0.666666  0.492995  1
  Fe  Fe6  1  0.666667  0.333335  0.504556  1
  Fe  Fe7  1  0.666667  0.333335  0.001886  1
  Br  Br8  1  0.666667  0.333335  0.251301  1
  Br  Br9  1  0.333333  0.666666  0.741100  1
