# generated using pymatgen
data_Dy5Ho3Re2(RuC4)2
_symmetry_space_group_name_H-M   'P 1'
_cell_length_a   5.10149900
_cell_length_b   6.53042620
_cell_length_c   9.81872930
_cell_angle_alpha   90.02832311
_cell_angle_beta   90.00000000
_cell_angle_gamma   90.00000000
_symmetry_Int_Tables_number   1
_chemical_formula_structural   Dy5Ho3Re2(RuC4)2
_chemical_formula_sum   'Dy5 Ho3 Re2 Ru2 C8'
_cell_volume   327.11056068
_cell_formula_units_Z   1
loop_
 _symmetry_equiv_pos_site_id
 _symmetry_equiv_pos_as_xyz
  1  'x, y, z'
loop_
 _atom_site_type_symbol
 _atom_site_label
 _atom_site_symmetry_multiplicity
 _atom_site_fract_x
 _atom_site_fract_y
 _atom_site_fract_z
 _atom_site_occupancy
  Dy  Dy0  1  0.250000  0.467039  0.784352  1
  Dy  Dy1  1  0.750000  0.032965  0.284663  1
  Dy  Dy2  1  0.250000  0.969784  0.714914  1
  Dy  Dy3  1  0.750000  0.530242  0.215386  1
  Dy  Dy4  1  0.250000  0.824368  0.054922  1
  Ho  Ho5  1  0.750000  0.674446  0.555379  1
  Ho  Ho6  1  0.250000  0.320270  0.442561  1
  Ho  Ho7  1  0.750000  0.179882  0.942342  1
  Re  Re8  1  0.250000  0.779696  0.365831  1
  Re  Re9  1  0.750000  0.720443  0.865157  1
  Ru  Ru10  1  0.250000  0.279148  0.133760  1
  Ru  Ru11  1  0.750000  0.220855  0.633587  1
  C  C12  1  0.250000  0.175422  0.948973  1
  C  C13  1  0.750000  0.823869  0.051176  1
  C  C14  1  0.250000  0.675829  0.551601  1
  C  C15  1  0.750000  0.325761  0.449061  1
  C  C16  1  0.250000  0.045141  0.260479  1
  C  C17  1  0.750000  0.455093  0.759985  1
  C  C18  1  0.250000  0.546297  0.243315  1
  C  C19  1  0.750000  0.953449  0.742558  1
