# generated using pymatgen
data_YTm2Mg3Sn2Au
_symmetry_space_group_name_H-M   'P 1'
_cell_length_a   7.48493738
_cell_length_b   7.48493724
_cell_length_c   4.45650500
_cell_angle_alpha   90.00000000
_cell_angle_beta   90.00000000
_cell_angle_gamma   120.36079119
_symmetry_Int_Tables_number   1
_chemical_formula_structural   YTm2Mg3Sn2Au
_chemical_formula_sum   'Y1 Tm2 Mg3 Sn2 Au1'
_cell_volume   215.43236418
_cell_formula_units_Z   1
loop_
 _symmetry_equiv_pos_site_id
 _symmetry_equiv_pos_as_xyz
  1  'x, y, z'
loop_
 _atom_site_type_symbol
 _atom_site_label
 _atom_site_symmetry_multiplicity
 _atom_site_fract_x
 _atom_site_fract_y
 _atom_site_fract_z
 _atom_site_occupancy
  Y  Y0  1  0.409652  0.409652  0.000000  1
  Tm  Tm1  1  0.594100  0.000756  0.000000  1
  Tm  Tm2  1  0.000756  0.594100  0.000000  1
  Mg  Mg3  1  0.236241  0.998937  0.500000  1
  Mg  Mg4  1  0.998937  0.236241  0.500000  1
  Mg  Mg5  1  0.763155  0.763155  0.500000  1
  Sn  Sn6  1  0.332425  0.668757  0.500000  1
  Sn  Sn7  1  0.668757  0.332425  0.500000  1
  Au  Au8  1  0.995975  0.995975  0.000000  1
