# generated using pymatgen
data_Be6V6Fe5Co7
_symmetry_space_group_name_H-M   'P 1'
_cell_length_a   3.88037400
_cell_length_b   5.51278709
_cell_length_c   11.61493119
_cell_angle_alpha   90.02044097
_cell_angle_beta   90.00071447
_cell_angle_gamma   90.00006065
_symmetry_Int_Tables_number   1
_chemical_formula_structural   Be6V6Fe5Co7
_chemical_formula_sum   'Be6 V6 Fe5 Co7'
_cell_volume   248.46282516
_cell_formula_units_Z   1
loop_
 _symmetry_equiv_pos_site_id
 _symmetry_equiv_pos_as_xyz
  1  'x, y, z'
loop_
 _atom_site_type_symbol
 _atom_site_label
 _atom_site_symmetry_multiplicity
 _atom_site_fract_x
 _atom_site_fract_y
 _atom_site_fract_z
 _atom_site_occupancy
  Be  Be0  1  0.999997  0.000114  0.999395  1
  Be  Be1  1  0.499464  0.499919  0.166777  1
  Be  Be2  1  0.999458  0.999943  0.333569  1
  Be  Be3  1  0.499996  0.500354  0.500723  1
  Be  Be4  1  0.000524  0.999633  0.667136  1
  Be  Be5  1  0.500530  0.500042  0.832427  1
  V  V6  1  0.000015  0.500006  0.995445  1
  V  V7  1  0.499739  0.000525  0.166581  1
  V  V8  1  0.999731  0.501707  0.335777  1
  V  V9  1  0.500014  0.996031  0.503956  1
  V  V10  1  0.000227  0.501702  0.668449  1
  V  V11  1  0.500226  0.000363  0.829666  1
  Fe  Fe12  1  0.000005  0.749892  0.497172  1
  Fe  Fe13  1  0.500340  0.249128  0.666019  1
  Fe  Fe14  1  0.500324  0.750722  0.665881  1
  Fe  Fe15  1  0.000329  0.250694  0.835449  1
  Fe  Fe16  1  0.000327  0.749029  0.835591  1
  Co  Co17  1  0.500010  0.250413  0.002286  1
  Co  Co18  1  0.500011  0.749607  0.002362  1
  Co  Co19  1  0.999681  0.249159  0.167111  1
  Co  Co20  1  0.999684  0.750558  0.167128  1
  Co  Co21  1  0.499668  0.250289  0.331764  1
  Co  Co22  1  0.499690  0.749778  0.331396  1
  Co  Co23  1  0.000012  0.250391  0.497944  1
