# generated using pymatgen
data_Tb8Y12Si15Ge
_symmetry_space_group_name_H-M   'P 1'
_cell_length_a   7.70621247
_cell_length_b   7.72197486
_cell_length_c   14.27276800
_cell_angle_alpha   89.67763615
_cell_angle_beta   89.82615429
_cell_angle_gamma   90.27042438
_symmetry_Int_Tables_number   1
_chemical_formula_structural   Tb8Y12Si15Ge
_chemical_formula_sum   'Tb8 Y12 Si15 Ge1'
_cell_volume   849.30527814
_cell_formula_units_Z   1
loop_
 _symmetry_equiv_pos_site_id
 _symmetry_equiv_pos_as_xyz
  1  'x, y, z'
loop_
 _atom_site_type_symbol
 _atom_site_label
 _atom_site_symmetry_multiplicity
 _atom_site_fract_x
 _atom_site_fract_y
 _atom_site_fract_z
 _atom_site_occupancy
  Tb  Tb0  1  0.988535  0.364195  0.205277  1
  Tb  Tb1  1  0.009381  0.636753  0.706613  1
  Tb  Tb2  1  0.134708  0.495719  0.456781  1
  Tb  Tb3  1  0.507438  0.861489  0.043210  1
  Tb  Tb4  1  0.864198  0.506374  0.955219  1
  Tb  Tb5  1  0.493705  0.136330  0.545227  1
  Tb  Tb6  1  0.364025  0.991327  0.793974  1
  Tb  Tb7  1  0.636889  0.007423  0.293705  1
  Y  Y8  1  0.184261  0.182659  0.000015  1
  Y  Y9  1  0.816483  0.816564  0.500753  1
  Y  Y10  1  0.314427  0.686992  0.249172  1
  Y  Y11  1  0.685553  0.315277  0.750298  1
  Y  Y12  1  0.136308  0.010480  0.375391  1
  Y  Y13  1  0.863526  0.988417  0.875876  1
  Y  Y14  1  0.489684  0.636288  0.625643  1
  Y  Y15  1  0.364373  0.510206  0.874632  1
  Y  Y16  1  0.510242  0.363431  0.124500  1
  Y  Y17  1  0.636235  0.490969  0.375647  1
  Y  Y18  1  0.011381  0.138119  0.624086  1
  Y  Y19  1  0.988108  0.861250  0.123352  1
  Si  Si20  1  0.659534  0.700438  0.810465  1
  Si  Si21  1  0.202006  0.843495  0.561387  1
  Si  Si22  1  0.158087  0.797027  0.937759  1
  Si  Si23  1  0.798621  0.157593  0.061127  1
  Si  Si24  1  0.841634  0.202156  0.438350  1
  Si  Si25  1  0.300236  0.341119  0.690146  1
  Si  Si26  1  0.699117  0.658299  0.190276  1
  Si  Si27  1  0.294044  0.059842  0.186363  1
  Si  Si28  1  0.707680  0.936456  0.689102  1
  Si  Si29  1  0.436177  0.794912  0.438448  1
  Si  Si30  1  0.205834  0.561807  0.061333  1
  Si  Si31  1  0.564352  0.205673  0.938537  1
  Si  Si32  1  0.793887  0.437061  0.561646  1
  Si  Si33  1  0.064516  0.293062  0.811318  1
  Si  Si34  1  0.935150  0.707461  0.311686  1
  Ge  Ge35  1  0.339665  0.303334  0.312682  1
