# generated using pymatgen
data_HoLu3CrOs7
_symmetry_space_group_name_H-M   'P 1'
_cell_length_a   5.32637600
_cell_length_b   5.32637693
_cell_length_c   8.61671100
_cell_angle_alpha   90.00000000
_cell_angle_beta   90.00000000
_cell_angle_gamma   119.99999422
_symmetry_Int_Tables_number   1
_chemical_formula_structural   HoLu3CrOs7
_chemical_formula_sum   'Ho1 Lu3 Cr1 Os7'
_cell_volume   211.70733336
_cell_formula_units_Z   1
loop_
 _symmetry_equiv_pos_site_id
 _symmetry_equiv_pos_as_xyz
  1  'x, y, z'
loop_
 _atom_site_type_symbol
 _atom_site_label
 _atom_site_symmetry_multiplicity
 _atom_site_fract_x
 _atom_site_fract_y
 _atom_site_fract_z
 _atom_site_occupancy
  Ho  Ho0  1  0.333333  0.666667  0.436122  1
  Lu  Lu1  1  0.666667  0.333333  0.564073  1
  Lu  Lu2  1  0.666667  0.333333  0.931799  1
  Lu  Lu3  1  0.333333  0.666667  0.067976  1
  Cr  Cr4  1  0.000000  0.000000  0.000112  1
  Os  Os5  1  0.172006  0.344013  0.753763  1
  Os  Os6  1  0.172006  0.827994  0.753763  1
  Os  Os7  1  0.344164  0.172082  0.246141  1
  Os  Os8  1  0.827918  0.655836  0.246141  1
  Os  Os9  1  0.655987  0.827994  0.753763  1
  Os  Os10  1  0.827918  0.172082  0.246141  1
  Os  Os11  1  0.000000  0.000000  0.500204  1
