# generated using pymatgen
data_Gd3Y3NiI10
_symmetry_space_group_name_H-M   'P 1'
_cell_length_a   7.70763937
_cell_length_b   9.68297423
_cell_length_c   9.71285400
_cell_angle_alpha   106.95879751
_cell_angle_beta   96.86150323
_cell_angle_gamma   104.41449750
_symmetry_Int_Tables_number   1
_chemical_formula_structural   Gd3Y3NiI10
_chemical_formula_sum   'Gd3 Y3 Ni1 I10'
_cell_volume   656.95511335
_cell_formula_units_Z   1
loop_
 _symmetry_equiv_pos_site_id
 _symmetry_equiv_pos_as_xyz
  1  'x, y, z'
loop_
 _atom_site_type_symbol
 _atom_site_label
 _atom_site_symmetry_multiplicity
 _atom_site_fract_x
 _atom_site_fract_y
 _atom_site_fract_z
 _atom_site_occupancy
  Gd  Gd0  1  0.884414  0.957304  0.239956  1
  Gd  Gd1  1  0.115040  0.042249  0.761819  1
  Gd  Gd2  1  0.034001  0.715601  0.913570  1
  Y  Y3  1  0.966894  0.280166  0.084261  1
  Y  Y4  1  0.658106  0.879166  0.838724  1
  Y  Y5  1  0.341355  0.121372  0.162600  1
  Ni  Ni6  1  0.999604  0.999590  0.000544  1
  I  I7  1  0.648176  0.549362  0.726230  1
  I  I8  1  0.348266  0.450305  0.271742  1
  I  I9  1  0.737943  0.912926  0.538742  1
  I  I10  1  0.260942  0.089716  0.463119  1
  I  I11  1  0.086214  0.373522  0.819003  1
  I  I12  1  0.914201  0.624256  0.180900  1
  I  I13  1  0.453220  0.814017  0.093116  1
  I  I14  1  0.548526  0.187913  0.908420  1
  I  I15  1  0.230701  0.743861  0.651361  1
  I  I16  1  0.772397  0.258675  0.345891  1
