# generated using pymatgen
data_Ca12Cu12Si11Ge
_symmetry_space_group_name_H-M   'P 1'
_cell_length_a   4.29882000
_cell_length_b   7.34256011
_cell_length_c   21.07219431
_cell_angle_alpha   90.01991247
_cell_angle_beta   90.00000000
_cell_angle_gamma   90.00000000
_symmetry_Int_Tables_number   1
_chemical_formula_structural   Ca12Cu12Si11Ge
_chemical_formula_sum   'Ca12 Cu12 Si11 Ge1'
_cell_volume   665.12995552
_cell_formula_units_Z   1
loop_
 _symmetry_equiv_pos_site_id
 _symmetry_equiv_pos_as_xyz
  1  'x, y, z'
loop_
 _atom_site_type_symbol
 _atom_site_label
 _atom_site_symmetry_multiplicity
 _atom_site_fract_x
 _atom_site_fract_y
 _atom_site_fract_z
 _atom_site_occupancy
  Ca  Ca0  1  0.250000  0.710195  0.002643  1
  Ca  Ca1  1  0.750000  0.289668  0.998620  1
  Ca  Ca2  1  0.750000  0.209740  0.498120  1
  Ca  Ca3  1  0.250000  0.790112  0.501834  1
  Ca  Ca4  1  0.250000  0.797933  0.166624  1
  Ca  Ca5  1  0.750000  0.202089  0.833031  1
  Ca  Ca6  1  0.750000  0.298094  0.333493  1
  Ca  Ca7  1  0.250000  0.702686  0.666084  1
  Ca  Ca8  1  0.250000  0.701596  0.332842  1
  Ca  Ca9  1  0.750000  0.298452  0.666792  1
  Ca  Ca10  1  0.750000  0.201560  0.167231  1
  Ca  Ca11  1  0.250000  0.798426  0.832147  1
  Cu  Cu12  1  0.250000  0.413835  0.097399  1
  Cu  Cu13  1  0.750000  0.593525  0.902972  1
  Cu  Cu14  1  0.750000  0.914000  0.402678  1
  Cu  Cu15  1  0.250000  0.086006  0.597290  1
  Cu  Cu16  1  0.250000  0.413453  0.234955  1
  Cu  Cu17  1  0.750000  0.585801  0.764805  1
  Cu  Cu18  1  0.750000  0.913609  0.265041  1
  Cu  Cu19  1  0.250000  0.086733  0.734661  1
  Cu  Cu20  1  0.250000  0.420075  0.437183  1
  Cu  Cu21  1  0.750000  0.579942  0.562634  1
  Cu  Cu22  1  0.750000  0.919821  0.063132  1
  Cu  Cu23  1  0.250000  0.073407  0.938656  1
  Si  Si24  1  0.250000  0.090562  0.067518  1
  Si  Si25  1  0.750000  0.909974  0.932842  1
  Si  Si26  1  0.750000  0.590773  0.432693  1
  Si  Si27  1  0.250000  0.409476  0.567168  1
  Si  Si28  1  0.250000  0.080117  0.273401  1
  Si  Si29  1  0.750000  0.919541  0.726391  1
  Si  Si30  1  0.750000  0.580228  0.226492  1
  Si  Si31  1  0.250000  0.419228  0.771118  1
  Si  Si32  1  0.250000  0.083201  0.394592  1
  Si  Si33  1  0.750000  0.916889  0.605439  1
  Si  Si34  1  0.750000  0.583361  0.105577  1
  Ge  Ge35  1  0.250000  0.415893  0.895902  1
