# generated using pymatgen
data_Li4Sm2HoPb4
_symmetry_space_group_name_H-M   'P 1'
_cell_length_a   4.71927603
_cell_length_b   7.19461299
_cell_length_c   8.84159156
_cell_angle_alpha   114.00786114
_cell_angle_beta   105.47865595
_cell_angle_gamma   89.99999912
_symmetry_Int_Tables_number   1
_chemical_formula_structural   Li4Sm2HoPb4
_chemical_formula_sum   'Li4 Sm2 Ho1 Pb4'
_cell_volume   262.26688977
_cell_formula_units_Z   1
loop_
 _symmetry_equiv_pos_site_id
 _symmetry_equiv_pos_as_xyz
  1  'x, y, z'
loop_
 _atom_site_type_symbol
 _atom_site_label
 _atom_site_symmetry_multiplicity
 _atom_site_fract_x
 _atom_site_fract_y
 _atom_site_fract_z
 _atom_site_occupancy
  Li  Li0  1  0.672551  0.981995  0.345103  1
  Li  Li1  1  0.327449  0.018005  0.654897  1
  Li  Li2  1  0.327449  0.636892  0.654897  1
  Li  Li3  1  0.672551  0.363108  0.345103  1
  Sm  Sm4  1  0.129110  0.629110  0.258219  1
  Sm  Sm5  1  0.870890  0.370890  0.741781  1
  Ho  Ho6  1  0.000000  0.000000  0.000000  1
  Pb  Pb7  1  0.500000  0.709521  0.000000  1
  Pb  Pb8  1  0.500000  0.290479  0.000000  1
  Pb  Pb9  1  0.787418  0.787418  0.574836  1
  Pb  Pb10  1  0.212582  0.212582  0.425164  1
