# generated using pymatgen
data_La4Nd3Y3Sn8
_symmetry_space_group_name_H-M   'P 1'
_cell_length_a   8.23078200
_cell_length_b   8.39484054
_cell_length_c   15.93635700
_cell_angle_alpha   89.90097431
_cell_angle_beta   90.00000000
_cell_angle_gamma   90.00000000
_symmetry_Int_Tables_number   1
_chemical_formula_structural   La4Nd3Y3Sn8
_chemical_formula_sum   'La8 Nd6 Y6 Sn16'
_cell_volume   1101.13851045
_cell_formula_units_Z   2
loop_
 _symmetry_equiv_pos_site_id
 _symmetry_equiv_pos_as_xyz
  1  'x, y, z'
loop_
 _atom_site_type_symbol
 _atom_site_label
 _atom_site_symmetry_multiplicity
 _atom_site_fract_x
 _atom_site_fract_y
 _atom_site_fract_z
 _atom_site_occupancy
  La  La0  1  0.514904  0.320178  0.901707  1
  La  La1  1  0.014904  0.179822  0.598293  1
  La  La2  1  0.484610  0.680591  0.403787  1
  La  La3  1  0.984610  0.819409  0.096213  1
  La  La4  1  0.484550  0.681154  0.096636  1
  La  La5  1  0.984550  0.818846  0.403364  1
  La  La6  1  0.516195  0.320342  0.598171  1
  La  La7  1  0.016195  0.179658  0.901829  1
  Nd  Nd8  1  0.363346  0.836989  0.878689  1
  Nd  Nd9  1  0.863346  0.663011  0.621311  1
  Nd  Nd10  1  0.637807  0.164167  0.378392  1
  Nd  Nd11  1  0.137807  0.335833  0.121608  1
  Nd  Nd12  1  0.639044  0.163210  0.119377  1
  Nd  Nd13  1  0.139044  0.336790  0.380623  1
  Y  Y14  1  0.359806  0.837675  0.624794  1
  Y  Y15  1  0.859806  0.662325  0.875206  1
  Y  Y16  1  0.194335  0.502911  0.749478  1
  Y  Y17  1  0.694335  0.997089  0.750522  1
  Y  Y18  1  0.806073  0.497955  0.249682  1
  Y  Y19  1  0.306073  0.002045  0.250318  1
  Sn  Sn20  1  0.298082  0.035863  0.044035  1
  Sn  Sn21  1  0.798082  0.464137  0.455965  1
  Sn  Sn22  1  0.693250  0.961576  0.544585  1
  Sn  Sn23  1  0.193250  0.538424  0.955415  1
  Sn  Sn24  1  0.706512  0.958685  0.955218  1
  Sn  Sn25  1  0.206512  0.541315  0.544782  1
  Sn  Sn26  1  0.300217  0.033476  0.459983  1
  Sn  Sn27  1  0.800217  0.466524  0.040017  1
  Sn  Sn28  1  0.559512  0.620793  0.750236  1
  Sn  Sn29  1  0.059512  0.879207  0.749764  1
  Sn  Sn30  1  0.440396  0.381805  0.249628  1
  Sn  Sn31  1  0.940396  0.118195  0.250372  1
  Sn  Sn32  1  0.322275  0.143220  0.749172  1
  Sn  Sn33  1  0.822275  0.356780  0.750828  1
  Sn  Sn34  1  0.679088  0.855452  0.249851  1
  Sn  Sn35  1  0.179088  0.644548  0.250149  1
