# generated using pymatgen
data_Nd8Dy12Si15Pt
_symmetry_space_group_name_H-M   'P 1'
_cell_length_a   7.55541913
_cell_length_b   7.79547657
_cell_length_c   14.81920299
_cell_angle_alpha   89.86848116
_cell_angle_beta   89.74714717
_cell_angle_gamma   90.26840920
_symmetry_Int_Tables_number   1
_chemical_formula_structural   Nd8Dy12Si15Pt
_chemical_formula_sum   'Nd8 Dy12 Si15 Pt1'
_cell_volume   872.80237495
_cell_formula_units_Z   1
loop_
 _symmetry_equiv_pos_site_id
 _symmetry_equiv_pos_as_xyz
  1  'x, y, z'
loop_
 _atom_site_type_symbol
 _atom_site_label
 _atom_site_symmetry_multiplicity
 _atom_site_fract_x
 _atom_site_fract_y
 _atom_site_fract_z
 _atom_site_occupancy
  Nd  Nd0  1  0.975270  0.818748  0.098412  1
  Nd  Nd1  1  0.473516  0.679274  0.401622  1
  Nd  Nd2  1  0.526729  0.323369  0.900232  1
  Nd  Nd3  1  0.027432  0.181108  0.598884  1
  Nd  Nd4  1  0.026464  0.179462  0.901353  1
  Nd  Nd5  1  0.528204  0.320038  0.598862  1
  Nd  Nd6  1  0.474780  0.679446  0.100508  1
  Nd  Nd7  1  0.972401  0.819451  0.400329  1
  Dy  Dy8  1  0.649480  0.992848  0.249421  1
  Dy  Dy9  1  0.149152  0.510385  0.248107  1
  Dy  Dy10  1  0.847428  0.491194  0.756128  1
  Dy  Dy11  1  0.349487  0.010188  0.751416  1
  Dy  Dy12  1  0.679858  0.817268  0.880492  1
  Dy  Dy13  1  0.179469  0.680885  0.621942  1
  Dy  Dy14  1  0.820377  0.330717  0.120197  1
  Dy  Dy15  1  0.316673  0.177576  0.376259  1
  Dy  Dy16  1  0.321079  0.177609  0.123721  1
  Dy  Dy17  1  0.819243  0.320165  0.377061  1
  Dy  Dy18  1  0.177662  0.674476  0.878690  1
  Dy  Dy19  1  0.682352  0.820704  0.622703  1
  Si  Si20  1  0.765714  0.623480  0.251442  1
  Si  Si21  1  0.267611  0.877816  0.250876  1
  Si  Si22  1  0.733017  0.119314  0.749516  1
  Si  Si23  1  0.233222  0.379617  0.747136  1
  Si  Si24  1  0.021958  0.112326  0.248997  1
  Si  Si25  1  0.525076  0.389297  0.251351  1
  Si  Si26  1  0.470897  0.612263  0.746761  1
  Si  Si27  1  0.975030  0.888862  0.748785  1
  Si  Si28  1  0.356963  0.970110  0.539360  1
  Si  Si29  1  0.643712  0.030307  0.041454  1
  Si  Si30  1  0.144375  0.468773  0.460033  1
  Si  Si31  1  0.153476  0.468112  0.042088  1
  Si  Si32  1  0.642929  0.030274  0.459866  1
  Si  Si33  1  0.355379  0.968298  0.961260  1
  Si  Si34  1  0.857262  0.530515  0.538943  1
  Pt  Pt35  1  0.856320  0.525724  0.955791  1
