# generated using pymatgen
data_Li2Ge(BrO3)6
_symmetry_space_group_name_H-M   'P 1'
_cell_length_a   5.64970501
_cell_length_b   9.09667679
_cell_length_c   9.09620003
_cell_angle_alpha   59.99755369
_cell_angle_beta   90.00842389
_cell_angle_gamma   90.00241668
_symmetry_Int_Tables_number   1
_chemical_formula_structural   Li2Ge(BrO3)6
_chemical_formula_sum   'Li2 Ge1 Br6 O18'
_cell_volume   404.84470165
_cell_formula_units_Z   1
loop_
 _symmetry_equiv_pos_site_id
 _symmetry_equiv_pos_as_xyz
  1  'x, y, z'
loop_
 _atom_site_type_symbol
 _atom_site_label
 _atom_site_symmetry_multiplicity
 _atom_site_fract_x
 _atom_site_fract_y
 _atom_site_fract_z
 _atom_site_occupancy
  Li  Li0  1  0.741729  0.333329  0.333338  1
  Li  Li1  1  0.208021  0.666659  0.666672  1
  Ge  Ge2  1  0.668220  0.000003  0.999997  1
  Br  Br3  1  0.811886  0.970908  0.672737  1
  Br  Br4  1  0.811917  0.356367  0.970909  1
  Br  Br5  1  0.811925  0.672711  0.356371  1
  Br  Br6  1  0.338600  0.020295  0.307760  1
  Br  Br7  1  0.338556  0.671947  0.020282  1
  Br  Br8  1  0.338570  0.307784  0.671924  1
  O  O9  1  0.485307  0.246114  0.554951  1
  O  O10  1  0.485335  0.198953  0.246094  1
  O  O11  1  0.485308  0.554939  0.198939  1
  O  O12  1  0.983986  0.753907  0.445222  1
  O  O13  1  0.983980  0.800859  0.753951  1
  O  O14  1  0.983969  0.445222  0.800849  1
  O  O15  1  0.872922  0.056231  0.810776  1
  O  O16  1  0.872958  0.133005  0.056232  1
  O  O17  1  0.872920  0.810752  0.133003  1
  O  O18  1  0.468654  0.920005  0.198694  1
  O  O19  1  0.468621  0.881297  0.919982  1
  O  O20  1  0.468629  0.198713  0.881284  1
  O  O21  1  0.942855  0.118677  0.496771  1
  O  O22  1  0.942887  0.384589  0.118677  1
  O  O23  1  0.942898  0.496722  0.384593  1
  O  O24  1  0.426017  0.883720  0.504169  1
  O  O25  1  0.425936  0.612126  0.883693  1
  O  O26  1  0.425993  0.504169  0.612131  1
