# generated using pymatgen
data_TlZnIr4(PbO7)2
_symmetry_space_group_name_H-M   'P 1'
_cell_length_a   7.30576980
_cell_length_b   7.23568652
_cell_length_c   7.30577172
_cell_angle_alpha   59.87448112
_cell_angle_beta   60.30549920
_cell_angle_gamma   59.87448449
_symmetry_Int_Tables_number   1
_chemical_formula_structural   TlZnIr4(PbO7)2
_chemical_formula_sum   'Tl1 Zn1 Ir4 Pb2 O14'
_cell_volume   273.18642171
_cell_formula_units_Z   1
loop_
 _symmetry_equiv_pos_site_id
 _symmetry_equiv_pos_as_xyz
  1  'x, y, z'
loop_
 _atom_site_type_symbol
 _atom_site_label
 _atom_site_symmetry_multiplicity
 _atom_site_fract_x
 _atom_site_fract_y
 _atom_site_fract_z
 _atom_site_occupancy
  Tl  Tl0  1  0.125000  0.125000  0.125000  1
  Zn  Zn1  1  0.125000  0.625000  0.125000  1
  Ir  Ir2  1  0.125000  0.625000  0.625000  1
  Ir  Ir3  1  0.625000  0.125000  0.625000  1
  Ir  Ir4  1  0.625000  0.625000  0.125000  1
  Ir  Ir5  1  0.625000  0.625000  0.625000  1
  Pb  Pb6  1  0.625000  0.125000  0.125000  1
  Pb  Pb7  1  0.125000  0.125000  0.625000  1
  O  O8  1  0.689816  0.706369  0.302343  1
  O  O9  1  0.296312  0.292986  0.703734  1
  O  O10  1  0.706381  0.292408  0.706381  1
  O  O11  1  0.301735  0.704129  0.301735  1
  O  O12  1  0.302343  0.706369  0.689816  1
  O  O13  1  0.703734  0.292986  0.296312  1
  O  O14  1  0.560184  0.543631  0.947657  1
  O  O15  1  0.953688  0.957014  0.546266  1
  O  O16  1  0.543619  0.957592  0.543619  1
  O  O17  1  0.948265  0.545871  0.948265  1
  O  O18  1  0.947657  0.543631  0.560184  1
  O  O19  1  0.546266  0.957014  0.953688  1
  O  O20  1  0.232704  0.303421  0.232704  1
  O  O21  1  0.017296  0.946579  0.017296  1
