# generated using pymatgen
data_Dy7ErTi11Si16Ir
_symmetry_space_group_name_H-M   'P 1'
_cell_length_a   7.02514170
_cell_length_b   7.02416852
_cell_length_c   12.85880807
_cell_angle_alpha   89.88923553
_cell_angle_beta   90.12001615
_cell_angle_gamma   89.85258911
_symmetry_Int_Tables_number   1
_chemical_formula_structural   Dy7ErTi11Si16Ir
_chemical_formula_sum   'Dy7 Er1 Ti11 Si16 Ir1'
_cell_volume   634.52321967
_cell_formula_units_Z   1
loop_
 _symmetry_equiv_pos_site_id
 _symmetry_equiv_pos_as_xyz
  1  'x, y, z'
loop_
 _atom_site_type_symbol
 _atom_site_label
 _atom_site_symmetry_multiplicity
 _atom_site_fract_x
 _atom_site_fract_y
 _atom_site_fract_z
 _atom_site_occupancy
  Dy  Dy0  1  0.002187  0.341979  0.531385  1
  Dy  Dy1  1  0.659775  0.995663  0.967434  1
  Dy  Dy2  1  0.158588  0.503586  0.781936  1
  Dy  Dy3  1  0.841287  0.499185  0.284937  1
  Dy  Dy4  1  0.503501  0.158693  0.218123  1
  Dy  Dy5  1  0.499158  0.841223  0.715012  1
  Dy  Dy6  1  0.341966  0.002138  0.468594  1
  Er  Er7  1  0.996285  0.659338  0.032636  1
  Ti  Ti8  1  0.343059  0.506159  0.374981  1
  Ti  Ti9  1  0.850203  0.997196  0.376108  1
  Ti  Ti10  1  0.006116  0.151341  0.124832  1
  Ti  Ti11  1  0.997301  0.850108  0.623891  1
  Ti  Ti12  1  0.506145  0.343124  0.624959  1
  Ti  Ti13  1  0.151377  0.006026  0.875228  1
  Ti  Ti14  1  0.824514  0.172824  0.748245  1
  Ti  Ti15  1  0.172788  0.824400  0.251713  1
  Ti  Ti16  1  0.326167  0.326509  0.000015  1
  Ti  Ti17  1  0.493394  0.650835  0.128086  1
  Ti  Ti18  1  0.650885  0.493595  0.871971  1
  Si  Si19  1  0.048509  0.713487  0.435853  1
  Si  Si20  1  0.952119  0.291873  0.934368  1
  Si  Si21  1  0.713497  0.048459  0.564145  1
  Si  Si22  1  0.207640  0.453194  0.184093  1
  Si  Si23  1  0.790081  0.550350  0.681598  1
  Si  Si24  1  0.452755  0.207936  0.815702  1
  Si  Si25  1  0.550339  0.790031  0.318365  1
  Si  Si26  1  0.290975  0.951588  0.065778  1
  Si  Si27  1  0.798236  0.867391  0.185304  1
  Si  Si28  1  0.298808  0.627114  0.566010  1
  Si  Si29  1  0.704456  0.369545  0.065594  1
  Si  Si30  1  0.627112  0.298833  0.433967  1
  Si  Si31  1  0.368517  0.704001  0.934569  1
  Si  Si32  1  0.131361  0.203406  0.315895  1
  Si  Si33  1  0.203372  0.131372  0.684129  1
  Si  Si34  1  0.867838  0.797795  0.814566  1
  Ir  Ir35  1  0.669690  0.669703  0.499978  1
