# generated using pymatgen
data_Dy3Lu(Hg2O)4
_symmetry_space_group_name_H-M   'P 1'
_cell_length_a   5.56390201
_cell_length_b   5.57787725
_cell_length_c   11.06708500
_cell_angle_alpha   86.21644734
_cell_angle_beta   90.00401613
_cell_angle_gamma   89.99898102
_symmetry_Int_Tables_number   1
_chemical_formula_structural   Dy3Lu(Hg2O)4
_chemical_formula_sum   'Dy3 Lu1 Hg8 O4'
_cell_volume   342.71575632
_cell_formula_units_Z   1
loop_
 _symmetry_equiv_pos_site_id
 _symmetry_equiv_pos_as_xyz
  1  'x, y, z'
loop_
 _atom_site_type_symbol
 _atom_site_label
 _atom_site_symmetry_multiplicity
 _atom_site_fract_x
 _atom_site_fract_y
 _atom_site_fract_z
 _atom_site_occupancy
  Dy  Dy0  1  0.574860  0.487361  0.097307  1
  Dy  Dy1  1  0.074885  0.987857  0.097314  1
  Dy  Dy2  1  0.574838  0.012448  0.900732  1
  Lu  Lu3  1  0.074801  0.512008  0.907689  1
  Hg  Hg4  1  0.575017  0.970944  0.274153  1
  Hg  Hg5  1  0.075076  0.965286  0.416794  1
  Hg  Hg6  1  0.575036  0.033461  0.582757  1
  Hg  Hg7  1  0.074844  0.029353  0.726319  1
  Hg  Hg8  1  0.075237  0.459916  0.275810  1
  Hg  Hg9  1  0.575497  0.478644  0.416037  1
  Hg  Hg10  1  0.075466  0.522566  0.586935  1
  Hg  Hg11  1  0.575210  0.539034  0.725779  1
  O  O12  1  0.826284  0.252641  0.997811  1
  O  O13  1  0.827533  0.747992  0.998439  1
  O  O14  1  0.323436  0.252578  0.997419  1
  O  O15  1  0.322019  0.747907  0.998708  1
