# generated using pymatgen
data_PaTa(Ni2Ir)2
_symmetry_space_group_name_H-M   'P 1'
_cell_length_a   5.49140404
_cell_length_b   5.49140475
_cell_length_c   4.37387500
_cell_angle_alpha   90.00000000
_cell_angle_beta   90.00000000
_cell_angle_gamma   119.00268294
_symmetry_Int_Tables_number   1
_chemical_formula_structural   PaTa(Ni2Ir)2
_chemical_formula_sum   'Pa1 Ta1 Ni4 Ir2'
_cell_volume   115.35627052
_cell_formula_units_Z   1
loop_
 _symmetry_equiv_pos_site_id
 _symmetry_equiv_pos_as_xyz
  1  'x, y, z'
loop_
 _atom_site_type_symbol
 _atom_site_label
 _atom_site_symmetry_multiplicity
 _atom_site_fract_x
 _atom_site_fract_y
 _atom_site_fract_z
 _atom_site_occupancy
  Pa  Pa0  1  0.336126  0.663874  0.000000  1
  Ta  Ta1  1  0.666794  0.333206  0.500000  1
  Ni  Ni2  1  0.838003  0.161997  0.000000  1
  Ni  Ni3  1  0.140393  0.303467  0.500000  1
  Ni  Ni4  1  0.696533  0.859607  0.500000  1
  Ni  Ni5  1  0.157439  0.842561  0.500000  1
  Ir  Ir6  1  0.839620  0.675147  0.000000  1
  Ir  Ir7  1  0.324853  0.160380  0.000000  1
