# generated using pymatgen
data_YHo7Si8(PdPt3)2
_symmetry_space_group_name_H-M   'P 1'
_cell_length_a   4.27804000
_cell_length_b   7.48488261
_cell_length_c   14.02197019
_cell_angle_alpha   89.95334094
_cell_angle_beta   90.00000000
_cell_angle_gamma   90.00000000
_symmetry_Int_Tables_number   1
_chemical_formula_structural   YHo7Si8(PdPt3)2
_chemical_formula_sum   'Y1 Ho7 Si8 Pd2 Pt6'
_cell_volume   448.99213095
_cell_formula_units_Z   1
loop_
 _symmetry_equiv_pos_site_id
 _symmetry_equiv_pos_as_xyz
  1  'x, y, z'
loop_
 _atom_site_type_symbol
 _atom_site_label
 _atom_site_symmetry_multiplicity
 _atom_site_fract_x
 _atom_site_fract_y
 _atom_site_fract_z
 _atom_site_occupancy
  Y  Y0  1  0.000000  0.299223  0.000044  1
  Ho  Ho1  1  0.500000  0.794573  0.749754  1
  Ho  Ho2  1  0.000000  0.205202  0.749704  1
  Ho  Ho3  1  0.500000  0.794878  0.250776  1
  Ho  Ho4  1  0.000000  0.204881  0.249753  1
  Ho  Ho5  1  0.500000  0.707472  0.000271  1
  Ho  Ho6  1  0.000000  0.292921  0.499723  1
  Ho  Ho7  1  0.500000  0.701226  0.499876  1
  Si  Si8  1  0.500000  0.404943  0.642586  1
  Si  Si9  1  0.000000  0.595325  0.856863  1
  Si  Si10  1  0.500000  0.407554  0.352280  1
  Si  Si11  1  0.000000  0.592610  0.148074  1
  Si  Si12  1  0.500000  0.092446  0.093022  1
  Si  Si13  1  0.000000  0.907141  0.407532  1
  Si  Si14  1  0.500000  0.091074  0.907563  1
  Si  Si15  1  0.000000  0.908326  0.591913  1
  Pd  Pd16  1  0.500000  0.421272  0.841504  1
  Pd  Pd17  1  0.000000  0.579274  0.657464  1
  Pt  Pt18  1  0.500000  0.075344  0.608994  1
  Pt  Pt19  1  0.000000  0.924208  0.890743  1
  Pt  Pt20  1  0.500000  0.076485  0.391194  1
  Pt  Pt21  1  0.000000  0.923024  0.109096  1
  Pt  Pt22  1  0.500000  0.421132  0.154429  1
  Pt  Pt23  1  0.000000  0.579464  0.346841  1
