# generated using pymatgen
data_Yb3InRu3PtO14
_symmetry_space_group_name_H-M   'P 1'
_cell_length_a   7.11250164
_cell_length_b   7.29654392
_cell_length_c   7.29654400
_cell_angle_alpha   59.99999964
_cell_angle_beta   59.14027607
_cell_angle_gamma   59.14027393
_symmetry_Int_Tables_number   1
_chemical_formula_structural   Yb3InRu3PtO14
_chemical_formula_sum   'Yb3 In1 Ru3 Pt1 O14'
_cell_volume   264.22522959
_cell_formula_units_Z   1
loop_
 _symmetry_equiv_pos_site_id
 _symmetry_equiv_pos_as_xyz
  1  'x, y, z'
loop_
 _atom_site_type_symbol
 _atom_site_label
 _atom_site_symmetry_multiplicity
 _atom_site_fract_x
 _atom_site_fract_y
 _atom_site_fract_z
 _atom_site_occupancy
  Yb  Yb0  1  0.125000  0.125000  0.125000  1
  Yb  Yb1  1  0.125000  0.125000  0.625000  1
  Yb  Yb2  1  0.125000  0.625000  0.125000  1
  In  In3  1  0.625000  0.125000  0.125000  1
  Ru  Ru4  1  0.625000  0.625000  0.625000  1
  Ru  Ru5  1  0.625000  0.625000  0.125000  1
  Ru  Ru6  1  0.625000  0.125000  0.625000  1
  Pt  Pt7  1  0.125000  0.625000  0.625000  1
  O  O8  1  0.973931  0.008690  0.008690  1
  O  O9  1  0.276069  0.241310  0.241310  1
  O  O10  1  0.290706  0.286930  0.711182  1
  O  O11  1  0.565291  0.547859  0.943425  1
  O  O12  1  0.684709  0.306575  0.702141  1
  O  O13  1  0.684709  0.306575  0.306575  1
  O  O14  1  0.290706  0.711182  0.711182  1
  O  O15  1  0.290706  0.711182  0.286930  1
  O  O16  1  0.684709  0.702141  0.306575  1
  O  O17  1  0.959294  0.538818  0.538818  1
  O  O18  1  0.565291  0.943425  0.943425  1
  O  O19  1  0.959294  0.963070  0.538818  1
  O  O20  1  0.959294  0.538818  0.963070  1
  O  O21  1  0.565291  0.943425  0.547859  1
