# generated using pymatgen
data_Lu3MgGa4Pt
_symmetry_space_group_name_H-M   'P 1'
_cell_length_a   6.96261600
_cell_length_b   6.88478994
_cell_length_c   4.32674800
_cell_angle_alpha   90.00000000
_cell_angle_beta   90.00000000
_cell_angle_gamma   120.37465470
_symmetry_Int_Tables_number   1
_chemical_formula_structural   Lu3MgGa4Pt
_chemical_formula_sum   'Lu3 Mg1 Ga4 Pt1'
_cell_volume   178.93833066
_cell_formula_units_Z   1
loop_
 _symmetry_equiv_pos_site_id
 _symmetry_equiv_pos_as_xyz
  1  'x, y, z'
loop_
 _atom_site_type_symbol
 _atom_site_label
 _atom_site_symmetry_multiplicity
 _atom_site_fract_x
 _atom_site_fract_y
 _atom_site_fract_z
 _atom_site_occupancy
  Lu  Lu0  1  0.587827  0.000000  0.500000  1
  Lu  Lu1  1  0.418383  0.417145  0.500000  1
  Lu  Lu2  1  0.001238  0.582855  0.500000  1
  Mg  Mg3  1  0.232196  0.000000  0.000000  1
  Ga  Ga4  1  0.002662  0.244490  0.000000  1
  Ga  Ga5  1  0.672362  0.335115  0.000000  1
  Ga  Ga6  1  0.337246  0.664885  0.000000  1
  Ga  Ga7  1  0.758173  0.755510  0.000000  1
  Pt  Pt8  1  0.989914  0.000000  0.500000  1
