# generated using pymatgen
data_Tb9Dy6Ho5Sn16
_symmetry_space_group_name_H-M   'P 1'
_cell_length_a   8.04769603
_cell_length_b   8.19464269
_cell_length_c   15.48332703
_cell_angle_alpha   90.01002992
_cell_angle_beta   89.99850965
_cell_angle_gamma   90.02635163
_symmetry_Int_Tables_number   1
_chemical_formula_structural   Tb9Dy6Ho5Sn16
_chemical_formula_sum   'Tb9 Dy6 Ho5 Sn16'
_cell_volume   1021.09422553
_cell_formula_units_Z   1
loop_
 _symmetry_equiv_pos_site_id
 _symmetry_equiv_pos_as_xyz
  1  'x, y, z'
loop_
 _atom_site_type_symbol
 _atom_site_label
 _atom_site_symmetry_multiplicity
 _atom_site_fract_x
 _atom_site_fract_y
 _atom_site_fract_z
 _atom_site_occupancy
  Tb  Tb0  1  0.867605  0.663894  0.878287  1
  Tb  Tb1  1  0.520045  0.319947  0.902329  1
  Tb  Tb2  1  0.020174  0.179887  0.597722  1
  Tb  Tb3  1  0.479882  0.680018  0.402374  1
  Tb  Tb4  1  0.979776  0.820003  0.097732  1
  Tb  Tb5  1  0.479889  0.680032  0.097443  1
  Tb  Tb6  1  0.979870  0.820061  0.402333  1
  Tb  Tb7  1  0.520080  0.320080  0.597765  1
  Tb  Tb8  1  0.020190  0.179796  0.902241  1
  Dy  Dy9  1  0.867365  0.663922  0.621982  1
  Dy  Dy10  1  0.632533  0.163875  0.378150  1
  Dy  Dy11  1  0.132647  0.336093  0.121591  1
  Dy  Dy12  1  0.632502  0.163923  0.121936  1
  Dy  Dy13  1  0.132533  0.336082  0.378143  1
  Dy  Dy14  1  0.367492  0.836123  0.621925  1
  Ho  Ho15  1  0.367355  0.836257  0.877902  1
  Ho  Ho16  1  0.198540  0.502611  0.750059  1
  Ho  Ho17  1  0.698249  0.997429  0.749992  1
  Ho  Ho18  1  0.801603  0.497361  0.250032  1
  Ho  Ho19  1  0.301568  0.002628  0.249904  1
  Sn  Sn20  1  0.292853  0.034881  0.041669  1
  Sn  Sn21  1  0.792868  0.464729  0.457900  1
  Sn  Sn22  1  0.707200  0.964712  0.542186  1
  Sn  Sn23  1  0.208100  0.535847  0.957773  1
  Sn  Sn24  1  0.706203  0.964871  0.957830  1
  Sn  Sn25  1  0.207085  0.535285  0.542182  1
  Sn  Sn26  1  0.292830  0.035329  0.457853  1
  Sn  Sn27  1  0.792748  0.464529  0.042378  1
  Sn  Sn28  1  0.564577  0.619210  0.750142  1
  Sn  Sn29  1  0.065313  0.881125  0.750221  1
  Sn  Sn30  1  0.435064  0.381279  0.249980  1
  Sn  Sn31  1  0.935119  0.118728  0.249977  1
  Sn  Sn32  1  0.328471  0.146313  0.750134  1
  Sn  Sn33  1  0.828343  0.353281  0.749952  1
  Sn  Sn34  1  0.671670  0.853434  0.249984  1
  Sn  Sn35  1  0.171657  0.646424  0.249998  1
