# generated using pymatgen
data_NaEu2(H6Pt)2
_symmetry_space_group_name_H-M   'P 1'
_cell_length_a   5.13754100
_cell_length_b   5.13754123
_cell_length_c   9.14470500
_cell_angle_alpha   90.00000000
_cell_angle_beta   90.00000000
_cell_angle_gamma   120.00000493
_symmetry_Int_Tables_number   1
_chemical_formula_structural   NaEu2(H6Pt)2
_chemical_formula_sum   'Na1 Eu2 H12 Pt2'
_cell_volume   209.03111227
_cell_formula_units_Z   1
loop_
 _symmetry_equiv_pos_site_id
 _symmetry_equiv_pos_as_xyz
  1  'x, y, z'
loop_
 _atom_site_type_symbol
 _atom_site_label
 _atom_site_symmetry_multiplicity
 _atom_site_fract_x
 _atom_site_fract_y
 _atom_site_fract_z
 _atom_site_occupancy
  Na  Na0  1  0.666667  0.333333  0.323612  1
  Eu  Eu1  1  0.000000  0.000000  0.988577  1
  Eu  Eu2  1  0.333333  0.666667  0.622348  1
  H  H3  1  0.181749  0.818251  0.350645  1
  H  H4  1  0.636501  0.818251  0.350645  1
  H  H5  1  0.181749  0.363499  0.350645  1
  H  H6  1  0.824565  0.175435  0.662963  1
  H  H7  1  0.350870  0.175435  0.662963  1
  H  H8  1  0.824565  0.649130  0.662963  1
  H  H9  1  0.508616  0.017232  0.871702  1
  H  H10  1  0.508616  0.491384  0.871702  1
  H  H11  1  0.982768  0.491384  0.871702  1
  H  H12  1  0.481678  0.963355  0.132603  1
  H  H13  1  0.481678  0.518322  0.132603  1
  H  H14  1  0.036645  0.518322  0.132603  1
  Pt  Pt15  1  0.666667  0.333333  0.767632  1
  Pt  Pt16  1  0.333333  0.666667  0.244096  1
