# generated using pymatgen
data_Tb4Ga10Ir5Rh
_symmetry_space_group_name_H-M   'P 1'
_cell_length_a   8.59899967
_cell_length_b   8.59899961
_cell_length_c   8.59899980
_cell_angle_alpha   141.26357692
_cell_angle_beta   109.04828766
_cell_angle_gamma   83.89229801
_symmetry_Int_Tables_number   1
_chemical_formula_structural   Tb4Ga10Ir5Rh
_chemical_formula_sum   'Tb4 Ga10 Ir5 Rh1'
_cell_volume   364.08750305
_cell_formula_units_Z   1
loop_
 _symmetry_equiv_pos_site_id
 _symmetry_equiv_pos_as_xyz
  1  'x, y, z'
loop_
 _atom_site_type_symbol
 _atom_site_label
 _atom_site_symmetry_multiplicity
 _atom_site_fract_x
 _atom_site_fract_y
 _atom_site_fract_z
 _atom_site_occupancy
  Tb  Tb0  1  0.411853  0.640454  0.771222  1
  Tb  Tb1  1  0.588147  0.359368  0.228600  1
  Tb  Tb2  1  0.130768  0.859546  0.271400  1
  Tb  Tb3  1  0.869232  0.140632  0.728778  1
  Ga  Ga4  1  0.736518  0.912525  0.823399  1
  Ga  Ga5  1  0.263482  0.086880  0.176006  1
  Ga  Ga6  1  0.910873  0.587475  0.323994  1
  Ga  Ga7  1  0.089127  0.413120  0.676601  1
  Ga  Ga8  1  0.203414  0.953414  0.750000  1
  Ga  Ga9  1  0.796586  0.546586  0.750000  1
  Ga  Ga10  1  0.796648  0.046648  0.250000  1
  Ga  Ga11  1  0.203352  0.453352  0.250000  1
  Ga  Ga12  1  0.500000  0.750000  0.250000  1
  Ga  Ga13  1  0.500000  0.250000  0.750000  1
  Ir  Ir14  1  0.000000  0.250000  0.250000  1
  Ir  Ir15  1  0.441128  0.849438  0.591451  1
  Ir  Ir16  1  0.558872  0.150324  0.408311  1
  Ir  Ir17  1  0.742014  0.650562  0.091689  1
  Ir  Ir18  1  0.257986  0.349676  0.908549  1
  Rh  Rh19  1  0.000000  0.750000  0.750000  1
