# generated using pymatgen
data_La2Pr7Nd(Al2Ru3)2
_symmetry_space_group_name_H-M   'P 1'
_cell_length_a   8.54266925
_cell_length_b   8.68281944
_cell_length_c   8.61536953
_cell_angle_alpha   109.41392754
_cell_angle_beta   109.32436389
_cell_angle_gamma   109.59160146
_symmetry_Int_Tables_number   1
_chemical_formula_structural   La2Pr7Nd(Al2Ru3)2
_chemical_formula_sum   'La2 Pr7 Nd1 Al4 Ru6'
_cell_volume   492.43931275
_cell_formula_units_Z   1
loop_
 _symmetry_equiv_pos_site_id
 _symmetry_equiv_pos_as_xyz
  1  'x, y, z'
loop_
 _atom_site_type_symbol
 _atom_site_label
 _atom_site_symmetry_multiplicity
 _atom_site_fract_x
 _atom_site_fract_y
 _atom_site_fract_z
 _atom_site_occupancy
  La  La0  1  0.751956  0.811453  0.060501  1
  La  La1  1  0.439105  0.245885  0.687913  1
  Pr  Pr2  1  0.688999  0.436409  0.254860  1
  Pr  Pr3  1  0.065072  0.749411  0.810885  1
  Pr  Pr4  1  0.816057  0.063648  0.749132  1
  Pr  Pr5  1  0.216572  0.216861  0.213206  1
  Pr  Pr6  1  0.494778  0.994534  0.281142  1
  Pr  Pr7  1  0.288309  0.502234  0.002975  1
  Pr  Pr8  1  0.002395  0.285352  0.503356  1
  Nd  Nd9  1  0.249483  0.682901  0.434264  1
  Al  Al10  1  0.586511  0.589040  0.588662  1
  Al  Al11  1  0.504287  0.004334  0.913375  1
  Al  Al12  1  0.913740  0.498849  0.000511  1
  Al  Al13  1  0.997316  0.906227  0.497866  1
  Ru  Ru14  1  0.253970  0.124438  0.861234  1
  Ru  Ru15  1  0.736744  0.376619  0.631114  1
  Ru  Ru16  1  0.873835  0.256310  0.121906  1
  Ru  Ru17  1  0.103381  0.863130  0.240883  1
  Ru  Ru18  1  0.626437  0.747544  0.383473  1
  Ru  Ru19  1  0.391055  0.644821  0.762743  1
