# generated using pymatgen
data_YLu9Ag3Ru
_symmetry_space_group_name_H-M   'P 1'
_cell_length_a   9.30428903
_cell_length_b   9.30428979
_cell_length_c   9.45802600
_cell_angle_alpha   90.00000000
_cell_angle_beta   90.00000000
_cell_angle_gamma   119.92434982
_symmetry_Int_Tables_number   1
_chemical_formula_structural   YLu9Ag3Ru
_chemical_formula_sum   'Y2 Lu18 Ag6 Ru2'
_cell_volume   709.62370588
_cell_formula_units_Z   2
loop_
 _symmetry_equiv_pos_site_id
 _symmetry_equiv_pos_as_xyz
  1  'x, y, z'
loop_
 _atom_site_type_symbol
 _atom_site_label
 _atom_site_symmetry_multiplicity
 _atom_site_fract_x
 _atom_site_fract_y
 _atom_site_fract_z
 _atom_site_occupancy
  Y  Y0  1  0.459508  0.916729  0.750000  1
  Y  Y1  1  0.083271  0.540492  0.750000  1
  Lu  Lu2  1  0.999357  0.000643  0.497483  1
  Lu  Lu3  1  0.999357  0.000643  0.002517  1
  Lu  Lu4  1  0.208467  0.791533  0.440965  1
  Lu  Lu5  1  0.210811  0.418934  0.442080  1
  Lu  Lu6  1  0.581066  0.789189  0.442080  1
  Lu  Lu7  1  0.789942  0.210058  0.555569  1
  Lu  Lu8  1  0.789995  0.582039  0.555494  1
  Lu  Lu9  1  0.417961  0.210005  0.555494  1
  Lu  Lu10  1  0.789942  0.210058  0.944431  1
  Lu  Lu11  1  0.789995  0.582039  0.944506  1
  Lu  Lu12  1  0.417961  0.210005  0.944506  1
  Lu  Lu13  1  0.208467  0.791533  0.059035  1
  Lu  Lu14  1  0.210811  0.418934  0.057920  1
  Lu  Lu15  1  0.581066  0.789189  0.057920  1
  Lu  Lu16  1  0.540904  0.459096  0.250000  1
  Lu  Lu17  1  0.540278  0.079789  0.250000  1
  Lu  Lu18  1  0.920211  0.459722  0.250000  1
  Lu  Lu19  1  0.462100  0.537900  0.750000  1
  Ag  Ag20  1  0.882163  0.117837  0.250000  1
  Ag  Ag21  1  0.882984  0.765691  0.250000  1
  Ag  Ag22  1  0.234309  0.117016  0.250000  1
  Ag  Ag23  1  0.113252  0.886748  0.750000  1
  Ag  Ag24  1  0.118199  0.229336  0.750000  1
  Ag  Ag25  1  0.770664  0.881801  0.750000  1
  Ru  Ru26  1  0.332736  0.667264  0.250000  1
  Ru  Ru27  1  0.664223  0.335777  0.750000  1
