# generated using pymatgen
data_Dy7ThCdNi2Hg
_symmetry_space_group_name_H-M   'P 1'
_cell_length_a   9.56818043
_cell_length_b   9.56817944
_cell_length_c   9.58493300
_cell_angle_alpha   59.94205813
_cell_angle_beta   59.94206154
_cell_angle_gamma   59.92850694
_symmetry_Int_Tables_number   1
_chemical_formula_structural   Dy7ThCdNi2Hg
_chemical_formula_sum   'Dy14 Th2 Cd2 Ni4 Hg2'
_cell_volume   619.60806855
_cell_formula_units_Z   2
loop_
 _symmetry_equiv_pos_site_id
 _symmetry_equiv_pos_as_xyz
  1  'x, y, z'
loop_
 _atom_site_type_symbol
 _atom_site_label
 _atom_site_symmetry_multiplicity
 _atom_site_fract_x
 _atom_site_fract_y
 _atom_site_fract_z
 _atom_site_occupancy
  Dy  Dy0  1  0.599670  0.198084  0.601124  1
  Dy  Dy1  1  0.198084  0.599670  0.601124  1
  Dy  Dy2  1  0.062162  0.439219  0.438358  1
  Dy  Dy3  1  0.439219  0.062162  0.060263  1
  Dy  Dy4  1  0.439219  0.062162  0.438358  1
  Dy  Dy5  1  0.062162  0.439219  0.060263  1
  Dy  Dy6  1  0.438489  0.438489  0.061511  1
  Dy  Dy7  1  0.060938  0.060938  0.439062  1
  Dy  Dy8  1  0.185988  0.813821  0.815783  1
  Dy  Dy9  1  0.813821  0.185988  0.184408  1
  Dy  Dy10  1  0.813821  0.185988  0.815783  1
  Dy  Dy11  1  0.185988  0.813821  0.184408  1
  Dy  Dy12  1  0.814017  0.814017  0.185983  1
  Dy  Dy13  1  0.185177  0.185177  0.814823  1
  Th  Th14  1  0.593910  0.593910  0.600937  1
  Th  Th15  1  0.593910  0.593910  0.211242  1
  Cd  Cd16  1  0.833275  0.504839  0.830943  1
  Cd  Cd17  1  0.504839  0.833275  0.830943  1
  Ni  Ni18  1  0.393449  0.393449  0.391702  1
  Ni  Ni19  1  0.393449  0.393449  0.821402  1
  Ni  Ni20  1  0.396714  0.819203  0.392042  1
  Ni  Ni21  1  0.819203  0.396714  0.392042  1
  Hg  Hg22  1  0.836250  0.836250  0.834071  1
  Hg  Hg23  1  0.836250  0.836250  0.493429  1
