# generated using pymatgen
data_Li4LaNi6As7Rh3
_symmetry_space_group_name_H-M   'P 1'
_cell_length_a   9.59116800
_cell_length_b   9.59116715
_cell_length_c   3.94649100
_cell_angle_alpha   90.00000000
_cell_angle_beta   90.00000000
_cell_angle_gamma   120.00001674
_symmetry_Int_Tables_number   1
_chemical_formula_structural   Li4LaNi6As7Rh3
_chemical_formula_sum   'Li4 La1 Ni6 As7 Rh3'
_cell_volume   314.40151707
_cell_formula_units_Z   1
loop_
 _symmetry_equiv_pos_site_id
 _symmetry_equiv_pos_as_xyz
  1  'x, y, z'
loop_
 _atom_site_type_symbol
 _atom_site_label
 _atom_site_symmetry_multiplicity
 _atom_site_fract_x
 _atom_site_fract_y
 _atom_site_fract_z
 _atom_site_occupancy
  Li  Li0  1  0.776538  0.537451  0.500000  1
  Li  Li1  1  0.462549  0.239086  0.500000  1
  Li  Li2  1  0.760914  0.223462  0.500000  1
  Li  Li3  1  0.000000  0.000000  0.500000  1
  La  La4  1  0.333333  0.666667  0.000000  1
  Ni  Ni5  1  0.500727  0.449511  0.000000  1
  Ni  Ni6  1  0.550489  0.051216  0.000000  1
  Ni  Ni7  1  0.948784  0.499273  0.000000  1
  Ni  Ni8  1  0.718522  0.760710  0.000000  1
  Ni  Ni9  1  0.239290  0.957811  0.000000  1
  Ni  Ni10  1  0.042189  0.281478  0.000000  1
  As  As11  1  0.962824  0.756571  0.000000  1
  As  As12  1  0.243429  0.206253  0.000000  1
  As  As13  1  0.793747  0.037176  0.000000  1
  As  As14  1  0.666667  0.333333  0.000000  1
  As  As15  1  0.558876  0.614437  0.500000  1
  As  As16  1  0.385563  0.944440  0.500000  1
  As  As17  1  0.055560  0.441124  0.500000  1
  Rh  Rh18  1  0.273675  0.373504  0.500000  1
  Rh  Rh19  1  0.626496  0.900171  0.500000  1
  Rh  Rh20  1  0.099829  0.726325  0.500000  1
