# generated using pymatgen
data_Nb6Al5ZnRu12
_symmetry_space_group_name_H-M   'P 1'
_cell_length_a   4.38668900
_cell_length_b   6.21856600
_cell_length_c   13.13687100
_cell_angle_alpha   90.00000000
_cell_angle_beta   90.00068851
_cell_angle_gamma   90.00000000
_symmetry_Int_Tables_number   1
_chemical_formula_structural   Nb6Al5ZnRu12
_chemical_formula_sum   'Nb6 Al5 Zn1 Ru12'
_cell_volume   358.35958825
_cell_formula_units_Z   1
loop_
 _symmetry_equiv_pos_site_id
 _symmetry_equiv_pos_as_xyz
  1  'x, y, z'
loop_
 _atom_site_type_symbol
 _atom_site_label
 _atom_site_symmetry_multiplicity
 _atom_site_fract_x
 _atom_site_fract_y
 _atom_site_fract_z
 _atom_site_occupancy
  Nb  Nb0  1  0.999984  0.500000  0.997449  1
  Nb  Nb1  1  0.499824  0.000000  0.166154  1
  Nb  Nb2  1  0.999822  0.500000  0.333331  1
  Nb  Nb3  1  0.500006  0.000000  0.500517  1
  Nb  Nb4  1  0.000181  0.500000  0.669228  1
  Nb  Nb5  1  0.500203  0.000000  0.833347  1
  Al  Al6  1  0.999999  0.000000  0.999909  1
  Al  Al7  1  0.499781  0.500000  0.166566  1
  Al  Al8  1  0.999793  0.000000  0.333330  1
  Al  Al9  1  0.500000  0.500000  0.500091  1
  Al  Al10  1  0.000200  0.000000  0.666759  1
  Zn  Zn11  1  0.500205  0.500000  0.833327  1
  Ru  Ru12  1  0.499991  0.248926  0.001602  1
  Ru  Ru13  1  0.499991  0.751075  0.001602  1
  Ru  Ru14  1  0.999824  0.250195  0.166834  1
  Ru  Ru15  1  0.999824  0.749806  0.166834  1
  Ru  Ru16  1  0.499821  0.250477  0.333338  1
  Ru  Ru17  1  0.499821  0.749522  0.333338  1
  Ru  Ru18  1  0.000001  0.250193  0.499780  1
  Ru  Ru19  1  0.000001  0.749808  0.499780  1
  Ru  Ru20  1  0.500157  0.248919  0.665087  1
  Ru  Ru21  1  0.500157  0.751080  0.665087  1
  Ru  Ru22  1  0.000205  0.246340  0.833355  1
  Ru  Ru23  1  0.000205  0.753661  0.833355  1
