# generated using pymatgen
data_Dy2Er3TlBi2
_symmetry_space_group_name_H-M   'P 1'
_cell_length_a   9.04388500
_cell_length_b   9.04388572
_cell_length_c   6.47716400
_cell_angle_alpha   90.00000000
_cell_angle_beta   90.00000000
_cell_angle_gamma   119.72214109
_symmetry_Int_Tables_number   1
_chemical_formula_structural   Dy2Er3TlBi2
_chemical_formula_sum   'Dy4 Er6 Tl2 Bi4'
_cell_volume   460.08153436
_cell_formula_units_Z   2
loop_
 _symmetry_equiv_pos_site_id
 _symmetry_equiv_pos_as_xyz
  1  'x, y, z'
loop_
 _atom_site_type_symbol
 _atom_site_label
 _atom_site_symmetry_multiplicity
 _atom_site_fract_x
 _atom_site_fract_y
 _atom_site_fract_z
 _atom_site_occupancy
  Dy  Dy0  1  0.761875  0.761875  0.750000  1
  Dy  Dy1  1  0.234697  0.997621  0.750000  1
  Dy  Dy2  1  0.997621  0.234697  0.750000  1
  Dy  Dy3  1  0.234518  0.234518  0.250000  1
  Er  Er4  1  0.669092  0.329127  0.003809  1
  Er  Er5  1  0.329127  0.669092  0.003809  1
  Er  Er6  1  0.329127  0.669092  0.496191  1
  Er  Er7  1  0.669092  0.329127  0.496191  1
  Er  Er8  1  0.765887  0.008767  0.250000  1
  Er  Er9  1  0.008767  0.765887  0.250000  1
  Tl  Tl10  1  0.396225  0.001464  0.250000  1
  Tl  Tl11  1  0.001464  0.396225  0.250000  1
  Bi  Bi12  1  0.394009  0.394009  0.750000  1
  Bi  Bi13  1  0.602135  0.996872  0.750000  1
  Bi  Bi14  1  0.996872  0.602135  0.750000  1
  Bi  Bi15  1  0.609491  0.609491  0.250000  1
