# generated using pymatgen
data_Ac4La8Co5Sn
_symmetry_space_group_name_H-M   'P 1'
_cell_length_a   8.84828116
_cell_length_b   8.84828156
_cell_length_c   8.84828182
_cell_angle_alpha   108.16687324
_cell_angle_beta   109.60006248
_cell_angle_gamma   110.65632642
_symmetry_Int_Tables_number   1
_chemical_formula_structural   Ac4La8Co5Sn
_chemical_formula_sum   'Ac4 La8 Co5 Sn1'
_cell_volume   533.02643802
_cell_formula_units_Z   1
loop_
 _symmetry_equiv_pos_site_id
 _symmetry_equiv_pos_as_xyz
  1  'x, y, z'
loop_
 _atom_site_type_symbol
 _atom_site_label
 _atom_site_symmetry_multiplicity
 _atom_site_fract_x
 _atom_site_fract_y
 _atom_site_fract_z
 _atom_site_occupancy
  Ac  Ac0  1  0.492759  0.308519  0.184240  1
  Ac  Ac1  1  0.124279  0.308519  0.815760  1
  Ac  Ac2  1  0.875721  0.691481  0.184240  1
  Ac  Ac3  1  0.507241  0.691481  0.815760  1
  La  La4  1  0.319953  0.646690  0.326736  1
  La  La5  1  0.319953  0.993218  0.673264  1
  La  La6  1  0.680047  0.353310  0.673264  1
  La  La7  1  0.680047  0.006782  0.326736  1
  La  La8  1  0.183089  0.192480  0.375569  1
  La  La9  1  0.816911  0.807520  0.624431  1
  La  La10  1  0.183089  0.807520  0.990608  1
  La  La11  1  0.816911  0.192480  0.009392  1
  Co  Co12  1  0.500000  0.632033  0.132033  1
  Co  Co13  1  0.500000  0.367967  0.867967  1
  Co  Co14  1  0.358473  0.000000  0.358473  1
  Co  Co15  1  0.641527  0.000000  0.641527  1
  Co  Co16  1  0.000000  0.000000  0.000000  1
  Sn  Sn17  1  0.000000  0.500000  0.500000  1
