# generated using pymatgen
data_Tb11In(Hg2Pt)4
_symmetry_space_group_name_H-M   'P 1'
_cell_length_a   13.14557696
_cell_length_b   13.14557657
_cell_length_c   3.73346000
_cell_angle_alpha   90.00000000
_cell_angle_beta   90.00000000
_cell_angle_gamma   113.00299701
_symmetry_Int_Tables_number   1
_chemical_formula_structural   Tb11In(Hg2Pt)4
_chemical_formula_sum   'Tb11 In1 Hg8 Pt4'
_cell_volume   593.86431987
_cell_formula_units_Z   1
loop_
 _symmetry_equiv_pos_site_id
 _symmetry_equiv_pos_as_xyz
  1  'x, y, z'
loop_
 _atom_site_type_symbol
 _atom_site_label
 _atom_site_symmetry_multiplicity
 _atom_site_fract_x
 _atom_site_fract_y
 _atom_site_fract_z
 _atom_site_occupancy
  Tb  Tb0  1  0.415597  0.077965  0.000000  1
  Tb  Tb1  1  0.584403  0.922035  0.000000  1
  Tb  Tb2  1  0.077965  0.415597  0.000000  1
  Tb  Tb3  1  0.922035  0.584403  0.000000  1
  Tb  Tb4  1  0.167326  0.832674  0.000000  1
  Tb  Tb5  1  0.832674  0.167326  0.000000  1
  Tb  Tb6  1  0.373196  0.626804  0.000000  1
  Tb  Tb7  1  0.626804  0.373196  0.000000  1
  Tb  Tb8  1  0.298934  0.298934  0.000000  1
  Tb  Tb9  1  0.701066  0.701066  0.000000  1
  Tb  Tb10  1  0.000000  0.000000  0.000000  1
  In  In11  1  0.500000  0.500000  0.500000  1
  Hg  Hg12  1  0.366989  0.845761  0.500000  1
  Hg  Hg13  1  0.633011  0.154239  0.500000  1
  Hg  Hg14  1  0.845763  0.366989  0.500000  1
  Hg  Hg15  1  0.154237  0.633011  0.500000  1
  Hg  Hg16  1  0.210213  0.061894  0.500000  1
  Hg  Hg17  1  0.789787  0.938106  0.500000  1
  Hg  Hg18  1  0.061893  0.210212  0.500000  1
  Hg  Hg19  1  0.938107  0.789788  0.500000  1
  Pt  Pt20  1  0.447869  0.250411  0.500000  1
  Pt  Pt21  1  0.552131  0.749589  0.500000  1
  Pt  Pt22  1  0.250412  0.447869  0.500000  1
  Pt  Pt23  1  0.749588  0.552131  0.500000  1
