# generated using pymatgen
data_SrP12Os3Rh
_symmetry_space_group_name_H-M   'P 1'
_cell_length_a   7.01309171
_cell_length_b   7.01309194
_cell_length_c   7.04834300
_cell_angle_alpha   109.57307729
_cell_angle_beta   109.57307793
_cell_angle_gamma   109.36917908
_symmetry_Int_Tables_number   1
_chemical_formula_structural   SrP12Os3Rh
_chemical_formula_sum   'Sr1 P12 Os3 Rh1'
_cell_volume   266.52421701
_cell_formula_units_Z   1
loop_
 _symmetry_equiv_pos_site_id
 _symmetry_equiv_pos_as_xyz
  1  'x, y, z'
loop_
 _atom_site_type_symbol
 _atom_site_label
 _atom_site_symmetry_multiplicity
 _atom_site_fract_x
 _atom_site_fract_y
 _atom_site_fract_z
 _atom_site_occupancy
  Sr  Sr0  1  0.000000  0.000000  0.000000  1
  P  P1  1  0.361044  0.216875  0.859782  1
  P  P2  1  0.638956  0.783125  0.140218  1
  P  P3  1  0.641281  0.498634  0.856386  1
  P  P4  1  0.358719  0.501366  0.143614  1
  P  P5  1  0.216875  0.855829  0.357093  1
  P  P6  1  0.783125  0.144171  0.642907  1
  P  P7  1  0.498634  0.857353  0.642248  1
  P  P8  1  0.501366  0.142647  0.357752  1
  P  P9  1  0.857353  0.358719  0.215104  1
  P  P10  1  0.142647  0.641281  0.784896  1
  P  P11  1  0.855829  0.638956  0.498737  1
  P  P12  1  0.144171  0.361044  0.501263  1
  Os  Os13  1  0.500000  0.000000  0.000000  1
  Os  Os14  1  0.000000  0.500000  0.000000  1
  Os  Os15  1  0.500000  0.500000  0.500000  1
  Rh  Rh16  1  0.000000  0.000000  0.500000  1
