# generated using pymatgen
data_Gd3Dy(CdPd2)2
_symmetry_space_group_name_H-M   'P 1'
_cell_length_a   7.76230700
_cell_length_b   7.76230704
_cell_length_c   3.77497900
_cell_angle_alpha   90.00000000
_cell_angle_beta   90.00000000
_cell_angle_gamma   90.00572788
_symmetry_Int_Tables_number   1
_chemical_formula_structural   Gd3Dy(CdPd2)2
_chemical_formula_sum   'Gd3 Dy1 Cd2 Pd4'
_cell_volume   227.45535729
_cell_formula_units_Z   1
loop_
 _symmetry_equiv_pos_site_id
 _symmetry_equiv_pos_as_xyz
  1  'x, y, z'
loop_
 _atom_site_type_symbol
 _atom_site_label
 _atom_site_symmetry_multiplicity
 _atom_site_fract_x
 _atom_site_fract_y
 _atom_site_fract_z
 _atom_site_occupancy
  Gd  Gd0  1  0.327852  0.827852  0.500000  1
  Gd  Gd1  1  0.826828  0.672439  0.500000  1
  Gd  Gd2  1  0.172439  0.326828  0.500000  1
  Dy  Dy3  1  0.672457  0.172457  0.500000  1
  Cd  Cd4  1  0.998898  0.000351  0.000000  1
  Cd  Cd5  1  0.500351  0.498898  0.000000  1
  Pd  Pd6  1  0.373524  0.129570  0.000000  1
  Pd  Pd7  1  0.869783  0.369783  0.000000  1
  Pd  Pd8  1  0.128300  0.628300  0.000000  1
  Pd  Pd9  1  0.629570  0.873524  0.000000  1
