# generated using pymatgen
data_Tm16In4NiRu3
_symmetry_space_group_name_H-M   'P 1'
_cell_length_a   9.49310821
_cell_length_b   9.49310805
_cell_length_c   9.49846561
_cell_angle_alpha   60.01865792
_cell_angle_beta   60.01865514
_cell_angle_gamma   60.00000224
_symmetry_Int_Tables_number   1
_chemical_formula_structural   Tm16In4NiRu3
_chemical_formula_sum   'Tm16 In4 Ni1 Ru3'
_cell_volume   605.44922847
_cell_formula_units_Z   1
loop_
 _symmetry_equiv_pos_site_id
 _symmetry_equiv_pos_as_xyz
  1  'x, y, z'
loop_
 _atom_site_type_symbol
 _atom_site_label
 _atom_site_symmetry_multiplicity
 _atom_site_fract_x
 _atom_site_fract_y
 _atom_site_fract_z
 _atom_site_occupancy
  Tm  Tm0  1  0.061708  0.061708  0.441492  1
  Tm  Tm1  1  0.435093  0.061708  0.441492  1
  Tm  Tm2  1  0.056791  0.442757  0.057696  1
  Tm  Tm3  1  0.042634  0.653733  0.649901  1
  Tm  Tm4  1  0.442757  0.442757  0.057696  1
  Tm  Tm5  1  0.653733  0.042634  0.649901  1
  Tm  Tm6  1  0.190791  0.809199  0.190811  1
  Tm  Tm7  1  0.191192  0.191192  0.809195  1
  Tm  Tm8  1  0.809199  0.809199  0.190811  1
  Tm  Tm9  1  0.442757  0.056791  0.057696  1
  Tm  Tm10  1  0.809199  0.190791  0.190811  1
  Tm  Tm11  1  0.061708  0.435093  0.441492  1
  Tm  Tm12  1  0.808421  0.191192  0.809195  1
  Tm  Tm13  1  0.191192  0.808421  0.809195  1
  Tm  Tm14  1  0.651071  0.651071  0.046789  1
  Tm  Tm15  1  0.653733  0.653733  0.649901  1
  In  In16  1  0.416398  0.416398  0.418668  1
  In  In17  1  0.748536  0.416398  0.418668  1
  In  In18  1  0.416398  0.748536  0.418668  1
  In  In19  1  0.416574  0.416574  0.750279  1
  Ni  Ni20  1  0.860194  0.860194  0.419418  1
  Ru  Ru21  1  0.859425  0.859425  0.860078  1
  Ru  Ru22  1  0.421072  0.859425  0.860078  1
  Ru  Ru23  1  0.859425  0.421072  0.860078  1
