# generated using pymatgen
data_Sr3PrPt6O18F
_symmetry_space_group_name_H-M   'P 1'
_cell_length_a   8.04049201
_cell_length_b   8.04049134
_cell_length_c   8.01347100
_cell_angle_alpha   109.40316020
_cell_angle_beta   109.40315852
_cell_angle_gamma   109.53919886
_symmetry_Int_Tables_number   1
_chemical_formula_structural   Sr3PrPt6O18F
_chemical_formula_sum   'Sr3 Pr1 Pt6 O18 F1'
_cell_volume   399.14259878
_cell_formula_units_Z   1
loop_
 _symmetry_equiv_pos_site_id
 _symmetry_equiv_pos_as_xyz
  1  'x, y, z'
loop_
 _atom_site_type_symbol
 _atom_site_label
 _atom_site_symmetry_multiplicity
 _atom_site_fract_x
 _atom_site_fract_y
 _atom_site_fract_z
 _atom_site_occupancy
  Sr  Sr0  1  0.667078  0.665394  0.665990  1
  Sr  Sr1  1  0.998316  0.332922  0.998912  1
  Sr  Sr2  1  0.334606  0.001684  0.000596  1
  Pr  Pr3  1  0.000000  0.000000  0.349149  1
  Pt  Pt4  1  0.499878  0.659349  0.157018  1
  Pt  Pt5  1  0.340651  0.840529  0.497670  1
  Pt  Pt6  1  0.840716  0.500231  0.339921  1
  Pt  Pt7  1  0.499769  0.340485  0.839691  1
  Pt  Pt8  1  0.159471  0.500122  0.657140  1
  Pt  Pt9  1  0.659515  0.159284  0.499206  1
  O  O10  1  0.655645  0.959470  0.265953  1
  O  O11  1  0.382939  0.733506  0.690065  1
  O  O12  1  0.690147  0.308081  0.039937  1
  O  O13  1  0.691919  0.382066  0.731857  1
  O  O14  1  0.040530  0.696175  0.306483  1
  O  O15  1  0.266494  0.649433  0.956558  1
  O  O16  1  0.295280  0.039962  0.679890  1
  O  O17  1  0.960038  0.255317  0.639927  1
  O  O18  1  0.744683  0.704720  0.384610  1
  O  O19  1  0.350567  0.617061  0.307125  1
  O  O20  1  0.617934  0.309853  0.349791  1
  O  O21  1  0.303825  0.344355  0.610308  1
  O  O22  1  0.653462  0.651951  0.001696  1
  O  O23  1  0.648665  0.999811  0.648370  1
  O  O24  1  0.998489  0.346538  0.348234  1
  O  O25  1  0.348049  0.001511  0.349746  1
  O  O26  1  0.000189  0.648854  0.648559  1
  O  O27  1  0.351146  0.351335  0.999706  1
  F  F28  1  0.000000  0.000000  0.035890  1
