# generated using pymatgen
data_AcLaTh2(MgSi2)2
_symmetry_space_group_name_H-M   'P 1'
_cell_length_a   7.53597522
_cell_length_b   7.46981609
_cell_length_c   4.43576300
_cell_angle_alpha   90.00000000
_cell_angle_beta   90.00000000
_cell_angle_gamma   89.31521264
_symmetry_Int_Tables_number   1
_chemical_formula_structural   AcLaTh2(MgSi2)2
_chemical_formula_sum   'Ac1 La1 Th2 Mg2 Si4'
_cell_volume   249.68168467
_cell_formula_units_Z   1
loop_
 _symmetry_equiv_pos_site_id
 _symmetry_equiv_pos_as_xyz
  1  'x, y, z'
loop_
 _atom_site_type_symbol
 _atom_site_label
 _atom_site_symmetry_multiplicity
 _atom_site_fract_x
 _atom_site_fract_y
 _atom_site_fract_z
 _atom_site_occupancy
  Ac  Ac0  1  0.678758  0.180265  0.500000  1
  La  La1  1  0.823149  0.679958  0.500000  1
  Th  Th2  1  0.318952  0.821526  0.500000  1
  Th  Th3  1  0.180775  0.323785  0.500000  1
  Mg  Mg4  1  0.006198  0.998388  0.000000  1
  Mg  Mg5  1  0.495486  0.506480  0.000000  1
  Si  Si6  1  0.125028  0.616049  0.000000  1
  Si  Si7  1  0.900502  0.388367  0.000000  1
  Si  Si8  1  0.600626  0.876140  0.000000  1
  Si  Si9  1  0.370525  0.109042  0.000000  1
