# generated using pymatgen
data_BeNb4P3Rh4
_symmetry_space_group_name_H-M   'P 1'
_cell_length_a   3.69986000
_cell_length_b   6.35846525
_cell_length_c   7.25763882
_cell_angle_alpha   90.13230106
_cell_angle_beta   90.00000000
_cell_angle_gamma   90.00000000
_symmetry_Int_Tables_number   1
_chemical_formula_structural   BeNb4P3Rh4
_chemical_formula_sum   'Be1 Nb4 P3 Rh4'
_cell_volume   170.73862792
_cell_formula_units_Z   1
loop_
 _symmetry_equiv_pos_site_id
 _symmetry_equiv_pos_as_xyz
  1  'x, y, z'
loop_
 _atom_site_type_symbol
 _atom_site_label
 _atom_site_symmetry_multiplicity
 _atom_site_fract_x
 _atom_site_fract_y
 _atom_site_fract_z
 _atom_site_occupancy
  Be  Be0  1  0.250000  0.768093  0.375227  1
  Nb  Nb1  1  0.250000  0.024285  0.826357  1
  Nb  Nb2  1  0.250000  0.532022  0.668667  1
  Nb  Nb3  1  0.750000  0.967112  0.176530  1
  Nb  Nb4  1  0.750000  0.480510  0.331308  1
  P  P5  1  0.250000  0.262179  0.128250  1
  P  P6  1  0.750000  0.232352  0.623768  1
  P  P7  1  0.750000  0.736827  0.872227  1
  Rh  Rh8  1  0.250000  0.145591  0.438100  1
  Rh  Rh9  1  0.250000  0.646881  0.062943  1
  Rh  Rh10  1  0.750000  0.853137  0.558270  1
  Rh  Rh11  1  0.750000  0.351011  0.938353  1
