# generated using pymatgen
data_Er2Tm8Cd3Ru
_symmetry_space_group_name_H-M   'P 1'
_cell_length_a   9.45981904
_cell_length_b   9.45981878
_cell_length_c   9.71693200
_cell_angle_alpha   90.00000000
_cell_angle_beta   90.00000000
_cell_angle_gamma   120.01076703
_symmetry_Int_Tables_number   1
_chemical_formula_structural   Er2Tm8Cd3Ru
_chemical_formula_sum   'Er4 Tm16 Cd6 Ru2'
_cell_volume   752.97110670
_cell_formula_units_Z   2
loop_
 _symmetry_equiv_pos_site_id
 _symmetry_equiv_pos_as_xyz
  1  'x, y, z'
loop_
 _atom_site_type_symbol
 _atom_site_label
 _atom_site_symmetry_multiplicity
 _atom_site_fract_x
 _atom_site_fract_y
 _atom_site_fract_z
 _atom_site_occupancy
  Er  Er0  1  0.540583  0.459417  0.250000  1
  Er  Er1  1  0.540539  0.081180  0.250000  1
  Er  Er2  1  0.918820  0.459461  0.250000  1
  Er  Er3  1  0.459156  0.540844  0.750000  1
  Tm  Tm4  1  0.000010  0.999990  0.499998  1
  Tm  Tm5  1  0.000010  0.999990  0.000002  1
  Tm  Tm6  1  0.209978  0.790022  0.441046  1
  Tm  Tm7  1  0.209852  0.419925  0.440932  1
  Tm  Tm8  1  0.580075  0.790148  0.440932  1
  Tm  Tm9  1  0.790065  0.209935  0.559336  1
  Tm  Tm10  1  0.790242  0.580112  0.559305  1
  Tm  Tm11  1  0.419888  0.209758  0.559305  1
  Tm  Tm12  1  0.790065  0.209935  0.940664  1
  Tm  Tm13  1  0.790242  0.580112  0.940695  1
  Tm  Tm14  1  0.419888  0.209758  0.940695  1
  Tm  Tm15  1  0.209978  0.790022  0.058954  1
  Tm  Tm16  1  0.209852  0.419925  0.059068  1
  Tm  Tm17  1  0.580075  0.790148  0.059068  1
  Tm  Tm18  1  0.459215  0.918669  0.750000  1
  Tm  Tm19  1  0.081331  0.540785  0.750000  1
  Cd  Cd20  1  0.885638  0.114362  0.250000  1
  Cd  Cd21  1  0.885637  0.771243  0.250000  1
  Cd  Cd22  1  0.228757  0.114363  0.250000  1
  Cd  Cd23  1  0.114614  0.885386  0.750000  1
  Cd  Cd24  1  0.114342  0.228961  0.750000  1
  Cd  Cd25  1  0.771039  0.885658  0.750000  1
  Ru  Ru26  1  0.333364  0.666636  0.250000  1
  Ru  Ru27  1  0.666745  0.333255  0.750000  1
