# generated using pymatgen
data_Y8Pd23PtPb
_symmetry_space_group_name_H-M   'P 1'
_cell_length_a   8.44456400
_cell_length_b   8.43779100
_cell_length_c   8.43779100
_cell_angle_alpha   90.00000000
_cell_angle_beta   90.00000000
_cell_angle_gamma   90.00000000
_symmetry_Int_Tables_number   1
_chemical_formula_structural   Y8Pd23PtPb
_chemical_formula_sum   'Y8 Pd23 Pt1 Pb1'
_cell_volume   601.22185513
_cell_formula_units_Z   1
loop_
 _symmetry_equiv_pos_site_id
 _symmetry_equiv_pos_as_xyz
  1  'x, y, z'
loop_
 _atom_site_type_symbol
 _atom_site_label
 _atom_site_symmetry_multiplicity
 _atom_site_fract_x
 _atom_site_fract_y
 _atom_site_fract_z
 _atom_site_occupancy
  Y  Y0  1  0.252715  0.253081  0.253081  1
  Y  Y1  1  0.747302  0.747287  0.747287  1
  Y  Y2  1  0.747302  0.747287  0.252713  1
  Y  Y3  1  0.747302  0.252713  0.747287  1
  Y  Y4  1  0.252715  0.253081  0.746919  1
  Y  Y5  1  0.252715  0.746919  0.253081  1
  Y  Y6  1  0.252715  0.746919  0.746919  1
  Y  Y7  1  0.747302  0.252713  0.252713  1
  Pd  Pd8  1  0.267382  0.500000  0.000000  1
  Pd  Pd9  1  0.732528  0.500000  0.000000  1
  Pd  Pd10  1  0.000029  0.267363  0.500000  1
  Pd  Pd11  1  0.500054  0.267341  0.000000  1
  Pd  Pd12  1  0.000029  0.732637  0.500000  1
  Pd  Pd13  1  0.500054  0.732659  0.000000  1
  Pd  Pd14  1  0.500054  0.000000  0.267341  1
  Pd  Pd15  1  0.267382  0.000000  0.500000  1
  Pd  Pd16  1  0.500054  0.000000  0.732659  1
  Pd  Pd17  1  0.732528  0.000000  0.500000  1
  Pd  Pd18  1  0.000029  0.500000  0.267363  1
  Pd  Pd19  1  0.000029  0.500000  0.732637  1
  Pd  Pd20  1  0.744411  0.500000  0.500000  1
  Pd  Pd21  1  0.499977  0.255633  0.500000  1
  Pd  Pd22  1  0.499977  0.744367  0.500000  1
  Pd  Pd23  1  0.499977  0.500000  0.255633  1
  Pd  Pd24  1  0.499977  0.500000  0.744367  1
  Pd  Pd25  1  0.315970  0.000000  0.000000  1
  Pd  Pd26  1  0.684159  0.000000  0.000000  1
  Pd  Pd27  1  0.999953  0.315846  0.000000  1
  Pd  Pd28  1  0.999953  0.684154  0.000000  1
  Pd  Pd29  1  0.999953  0.000000  0.315846  1
  Pd  Pd30  1  0.999953  0.000000  0.684154  1
  Pt  Pt31  1  0.255472  0.500000  0.500000  1
  Pb  Pb32  1  0.000051  0.000000  0.000000  1
