# generated using pymatgen
data_Tb3Cd3AgSn2
_symmetry_space_group_name_H-M   'P 1'
_cell_length_a   7.50932200
_cell_length_b   7.50932233
_cell_length_c   4.56972900
_cell_angle_alpha   90.00000000
_cell_angle_beta   90.00000000
_cell_angle_gamma   119.99999854
_symmetry_Int_Tables_number   1
_chemical_formula_structural   Tb3Cd3AgSn2
_chemical_formula_sum   'Tb3 Cd3 Ag1 Sn2'
_cell_volume   223.16318835
_cell_formula_units_Z   1
loop_
 _symmetry_equiv_pos_site_id
 _symmetry_equiv_pos_as_xyz
  1  'x, y, z'
loop_
 _atom_site_type_symbol
 _atom_site_label
 _atom_site_symmetry_multiplicity
 _atom_site_fract_x
 _atom_site_fract_y
 _atom_site_fract_z
 _atom_site_occupancy
  Tb  Tb0  1  0.415830  0.000000  0.500000  1
  Tb  Tb1  1  0.000000  0.415829  0.500000  1
  Tb  Tb2  1  0.584171  0.584170  0.500000  1
  Cd  Cd3  1  0.761983  0.000000  0.000000  1
  Cd  Cd4  1  0.238018  0.238018  0.000000  1
  Cd  Cd5  1  0.000000  0.761982  0.000000  1
  Ag  Ag6  1  0.000000  0.000000  0.500000  1
  Sn  Sn7  1  0.666667  0.333334  0.000000  1
  Sn  Sn8  1  0.333334  0.666667  0.000000  1
