# generated using pymatgen
data_Li2Si2Pt
_symmetry_space_group_name_H-M   'P 1'
_cell_length_a   4.05844300
_cell_length_b   6.18487800
_cell_length_c   6.18487800
_cell_angle_alpha   90.00000000
_cell_angle_beta   90.00000000
_cell_angle_gamma   90.00000000
_symmetry_Int_Tables_number   1
_chemical_formula_structural   Li2Si2Pt
_chemical_formula_sum   'Li4 Si4 Pt2'
_cell_volume   155.24646697
_cell_formula_units_Z   2
loop_
 _symmetry_equiv_pos_site_id
 _symmetry_equiv_pos_as_xyz
  1  'x, y, z'
loop_
 _atom_site_type_symbol
 _atom_site_label
 _atom_site_symmetry_multiplicity
 _atom_site_fract_x
 _atom_site_fract_y
 _atom_site_fract_z
 _atom_site_occupancy
  Li  Li0  1  0.500002  0.325128  0.174871  1
  Li  Li1  1  0.500002  0.825129  0.325128  1
  Li  Li2  1  0.500002  0.174871  0.674872  1
  Li  Li3  1  0.500002  0.674872  0.825129  1
  Si  Si4  1  0.000000  0.633993  0.133993  1
  Si  Si5  1  0.000000  0.133993  0.366006  1
  Si  Si6  1  0.000000  0.866007  0.633993  1
  Si  Si7  1  0.000000  0.366006  0.866007  1
  Pt  Pt8  1  0.000000  0.000000  0.000000  1
  Pt  Pt9  1  0.000000  0.500001  0.500001  1
