# generated using pymatgen
data_CaSm4Si2Sn
_symmetry_space_group_name_H-M   'P 1'
_cell_length_a   9.02718078
_cell_length_b   9.02718063
_cell_length_c   9.02718192
_cell_angle_alpha   128.74541275
_cell_angle_beta   128.74541679
_cell_angle_gamma   75.42055988
_symmetry_Int_Tables_number   1
_chemical_formula_structural   CaSm4Si2Sn
_chemical_formula_sum   'Ca2 Sm8 Si4 Sn2'
_cell_volume   435.47009579
_cell_formula_units_Z   2
loop_
 _symmetry_equiv_pos_site_id
 _symmetry_equiv_pos_as_xyz
  1  'x, y, z'
loop_
 _atom_site_type_symbol
 _atom_site_label
 _atom_site_symmetry_multiplicity
 _atom_site_fract_x
 _atom_site_fract_y
 _atom_site_fract_z
 _atom_site_occupancy
  Ca  Ca0  1  0.000000  0.000000  0.000000  1
  Ca  Ca1  1  0.500000  0.500000  0.000000  1
  Sm  Sm2  1  0.813366  0.313366  0.846283  1
  Sm  Sm3  1  0.186634  0.686634  0.153717  1
  Sm  Sm4  1  0.467083  0.967083  0.153717  1
  Sm  Sm5  1  0.313366  0.467083  0.500000  1
  Sm  Sm6  1  0.032917  0.186634  0.500000  1
  Sm  Sm7  1  0.532917  0.032917  0.846283  1
  Sm  Sm8  1  0.686634  0.532917  0.500000  1
  Sm  Sm9  1  0.967083  0.813366  0.500000  1
  Si  Si10  1  0.116569  0.616569  0.733138  1
  Si  Si11  1  0.883431  0.383431  0.266862  1
  Si  Si12  1  0.616569  0.883431  0.500000  1
  Si  Si13  1  0.383431  0.116569  0.500000  1
  Sn  Sn14  1  0.250000  0.250000  0.000000  1
  Sn  Sn15  1  0.750000  0.750000  0.000000  1
