# generated using pymatgen
data_NdThTiCo16
_symmetry_space_group_name_H-M   'P 1'
_cell_length_a   6.35849327
_cell_length_b   6.35849400
_cell_length_c   6.35849284
_cell_angle_alpha   83.00390732
_cell_angle_beta   83.00391938
_cell_angle_gamma   83.00391148
_symmetry_Int_Tables_number   1
_chemical_formula_structural   NdThTiCo16
_chemical_formula_sum   'Nd1 Th1 Ti1 Co16'
_cell_volume   251.76550764
_cell_formula_units_Z   1
loop_
 _symmetry_equiv_pos_site_id
 _symmetry_equiv_pos_as_xyz
  1  'x, y, z'
loop_
 _atom_site_type_symbol
 _atom_site_label
 _atom_site_symmetry_multiplicity
 _atom_site_fract_x
 _atom_site_fract_y
 _atom_site_fract_z
 _atom_site_occupancy
  Nd  Nd0  1  0.350348  0.350348  0.350348  1
  Th  Th1  1  0.656034  0.656034  0.656034  1
  Ti  Ti2  1  0.092176  0.092176  0.092176  1
  Co  Co3  1  0.289242  0.710791  0.996976  1
  Co  Co4  1  0.710791  0.996976  0.289242  1
  Co  Co5  1  0.996976  0.289242  0.710791  1
  Co  Co6  1  0.289242  0.996976  0.710791  1
  Co  Co7  1  0.996976  0.710791  0.289242  1
  Co  Co8  1  0.710791  0.289242  0.996976  1
  Co  Co9  1  0.000028  0.000028  0.504434  1
  Co  Co10  1  0.000028  0.504434  0.000028  1
  Co  Co11  1  0.504434  0.000028  0.000028  1
  Co  Co12  1  0.345836  0.345836  0.848912  1
  Co  Co13  1  0.345836  0.848912  0.345836  1
  Co  Co14  1  0.848912  0.345836  0.345836  1
  Co  Co15  1  0.657656  0.657656  0.146068  1
  Co  Co16  1  0.657656  0.146068  0.657656  1
  Co  Co17  1  0.146068  0.657656  0.657656  1
  Co  Co18  1  0.900970  0.900970  0.900970  1
