# generated using pymatgen
data_La2Hg3Pd2Au
_symmetry_space_group_name_H-M   'P 1'
_cell_length_a   5.56427887
_cell_length_b   5.56427995
_cell_length_c   8.32516810
_cell_angle_alpha   90.16803799
_cell_angle_beta   89.83197416
_cell_angle_gamma   133.77520373
_symmetry_Int_Tables_number   1
_chemical_formula_structural   La2Hg3Pd2Au
_chemical_formula_sum   'La2 Hg3 Pd2 Au1'
_cell_volume   186.11516956
_cell_formula_units_Z   1
loop_
 _symmetry_equiv_pos_site_id
 _symmetry_equiv_pos_as_xyz
  1  'x, y, z'
loop_
 _atom_site_type_symbol
 _atom_site_label
 _atom_site_symmetry_multiplicity
 _atom_site_fract_x
 _atom_site_fract_y
 _atom_site_fract_z
 _atom_site_occupancy
  La  La0  1  0.067094  0.932906  0.240518  1
  La  La1  1  0.929427  0.070573  0.762098  1
  Hg  Hg2  1  0.640045  0.359955  0.549159  1
  Hg  Hg3  1  0.359439  0.640561  0.447410  1
  Hg  Hg4  1  0.641066  0.358934  0.952530  1
  Pd  Pd5  1  0.218279  0.781721  0.751390  1
  Pd  Pd6  1  0.781196  0.218804  0.248805  1
  Au  Au7  1  0.363455  0.636545  0.048091  1
