# generated using pymatgen
data_Sc5P2Os
_symmetry_space_group_name_H-M   'P 1'
_cell_length_a   5.73433000
_cell_length_b   7.83644650
_cell_length_c   7.83644649
_cell_angle_alpha   121.35086070
_cell_angle_beta   90.00000000
_cell_angle_gamma   90.00000000
_symmetry_Int_Tables_number   1
_chemical_formula_structural   Sc5P2Os
_chemical_formula_sum   'Sc10 P4 Os2'
_cell_volume   300.73054205
_cell_formula_units_Z   2
loop_
 _symmetry_equiv_pos_site_id
 _symmetry_equiv_pos_as_xyz
  1  'x, y, z'
loop_
 _atom_site_type_symbol
 _atom_site_label
 _atom_site_symmetry_multiplicity
 _atom_site_fract_x
 _atom_site_fract_y
 _atom_site_fract_z
 _atom_site_occupancy
  Sc  Sc0  1  0.750000  0.752874  0.752874  1
  Sc  Sc1  1  0.250000  0.247126  0.247126  1
  Sc  Sc2  1  0.750000  0.017847  0.257500  1
  Sc  Sc3  1  0.250000  0.982153  0.742500  1
  Sc  Sc4  1  0.750000  0.257500  0.017847  1
  Sc  Sc5  1  0.250000  0.742500  0.982153  1
  Sc  Sc6  1  0.000000  0.667273  0.332727  1
  Sc  Sc7  1  0.000000  0.332727  0.667273  1
  Sc  Sc8  1  0.500000  0.332727  0.667273  1
  Sc  Sc9  1  0.500000  0.667273  0.332727  1
  P  P10  1  0.750000  0.007689  0.620269  1
  P  P11  1  0.250000  0.992311  0.379731  1
  P  P12  1  0.750000  0.620269  0.007689  1
  P  P13  1  0.250000  0.379731  0.992311  1
  Os  Os14  1  0.750000  0.409321  0.409321  1
  Os  Os15  1  0.250000  0.590679  0.590679  1
