# generated using pymatgen
data_Zr4Ni3IrPt8
_symmetry_space_group_name_H-M   'P 1'
_cell_length_a   5.63895300
_cell_length_b   5.65348381
_cell_length_c   9.17673300
_cell_angle_alpha   90.00000000
_cell_angle_beta   90.00000000
_cell_angle_gamma   119.91506630
_symmetry_Int_Tables_number   1
_chemical_formula_structural   Zr4Ni3IrPt8
_chemical_formula_sum   'Zr4 Ni3 Ir1 Pt8'
_cell_volume   253.57381773
_cell_formula_units_Z   1
loop_
 _symmetry_equiv_pos_site_id
 _symmetry_equiv_pos_as_xyz
  1  'x, y, z'
loop_
 _atom_site_type_symbol
 _atom_site_label
 _atom_site_symmetry_multiplicity
 _atom_site_fract_x
 _atom_site_fract_y
 _atom_site_fract_z
 _atom_site_occupancy
  Zr  Zr0  1  0.000648  0.001296  0.500361  1
  Zr  Zr1  1  0.000648  0.001296  0.999639  1
  Zr  Zr2  1  0.335325  0.670651  0.250000  1
  Zr  Zr3  1  0.664249  0.328497  0.750000  1
  Ni  Ni4  1  0.500253  0.000506  0.498235  1
  Ni  Ni5  1  0.500253  0.000506  0.001765  1
  Ni  Ni6  1  0.822330  0.644659  0.250000  1
  Ir  Ir7  1  0.173419  0.346838  0.750000  1
  Pt  Pt8  1  0.502644  0.502241  0.496448  1
  Pt  Pt9  1  0.999597  0.502241  0.496448  1
  Pt  Pt10  1  0.502644  0.502241  0.003552  1
  Pt  Pt11  1  0.999597  0.502241  0.003552  1
  Pt  Pt12  1  0.341526  0.163217  0.250000  1
  Pt  Pt13  1  0.821692  0.163217  0.250000  1
  Pt  Pt14  1  0.658664  0.835177  0.750000  1
  Pt  Pt15  1  0.176513  0.835177  0.750000  1
