# generated using pymatgen
data_Tb2Ho3Al2Ru3
_symmetry_space_group_name_H-M   'P 1'
_cell_length_a   8.33344163
_cell_length_b   8.33344042
_cell_length_c   8.33344117
_cell_angle_alpha   109.48269121
_cell_angle_beta   109.48268548
_cell_angle_gamma   109.48269300
_symmetry_Int_Tables_number   1
_chemical_formula_structural   Tb2Ho3Al2Ru3
_chemical_formula_sum   'Tb4 Ho6 Al4 Ru6'
_cell_volume   445.31431938
_cell_formula_units_Z   2
loop_
 _symmetry_equiv_pos_site_id
 _symmetry_equiv_pos_as_xyz
  1  'x, y, z'
loop_
 _atom_site_type_symbol
 _atom_site_label
 _atom_site_symmetry_multiplicity
 _atom_site_fract_x
 _atom_site_fract_y
 _atom_site_fract_z
 _atom_site_occupancy
  Tb  Tb0  1  0.785803  0.785803  0.785803  1
  Tb  Tb1  1  0.318354  0.568459  0.749723  1
  Tb  Tb2  1  0.749723  0.318354  0.568459  1
  Tb  Tb3  1  0.568459  0.749723  0.318354  1
  Ho  Ho4  1  0.714600  0.499557  0.000515  1
  Ho  Ho5  1  0.000515  0.714600  0.499557  1
  Ho  Ho6  1  0.499557  0.000515  0.714600  1
  Ho  Ho7  1  0.250190  0.180694  0.930826  1
  Ho  Ho8  1  0.930826  0.250190  0.180694  1
  Ho  Ho9  1  0.180694  0.930826  0.250190  1
  Al  Al10  1  0.409119  0.409119  0.409119  1
  Al  Al11  1  0.089326  0.499936  0.000558  1
  Al  Al12  1  0.000558  0.089326  0.499936  1
  Al  Al13  1  0.499936  0.000558  0.089326  1
  Ru  Ru14  1  0.877672  0.127977  0.750771  1
  Ru  Ru15  1  0.750771  0.877672  0.127977  1
  Ru  Ru16  1  0.127977  0.750771  0.877672  1
  Ru  Ru17  1  0.249611  0.623175  0.373135  1
  Ru  Ru18  1  0.373135  0.249611  0.623175  1
  Ru  Ru19  1  0.623175  0.373135  0.249611  1
