# generated using pymatgen
data_Na2MnCd(H6Ir)2
_symmetry_space_group_name_H-M   'P 1'
_cell_length_a   7.00721800
_cell_length_b   7.00721800
_cell_length_c   6.97214200
_cell_angle_alpha   90.00000000
_cell_angle_beta   90.00000000
_cell_angle_gamma   90.00000000
_symmetry_Int_Tables_number   1
_chemical_formula_structural   Na2MnCd(H6Ir)2
_chemical_formula_sum   'Na4 Mn2 Cd2 H24 Ir4'
_cell_volume   342.33987014
_cell_formula_units_Z   2
loop_
 _symmetry_equiv_pos_site_id
 _symmetry_equiv_pos_as_xyz
  1  'x, y, z'
loop_
 _atom_site_type_symbol
 _atom_site_label
 _atom_site_symmetry_multiplicity
 _atom_site_fract_x
 _atom_site_fract_y
 _atom_site_fract_z
 _atom_site_occupancy
  Na  Na0  1  0.000000  0.000000  0.500000  1
  Na  Na1  1  0.000000  0.500000  0.000000  1
  Na  Na2  1  0.500000  0.000000  0.000000  1
  Na  Na3  1  0.000000  0.000000  0.000000  1
  Mn  Mn4  1  0.500000  0.500000  0.500000  1
  Mn  Mn5  1  0.500000  0.500000  0.000000  1
  Cd  Cd6  1  0.000000  0.500000  0.500000  1
  Cd  Cd7  1  0.500000  0.000000  0.500000  1
  H  H8  1  0.738541  0.738541  0.502034  1
  H  H9  1  0.261459  0.261459  0.502034  1
  H  H10  1  0.029313  0.743411  0.745727  1
  H  H11  1  0.256589  0.970687  0.745727  1
  H  H12  1  0.743411  0.029313  0.745727  1
  H  H13  1  0.970687  0.256589  0.745727  1
  H  H14  1  0.732058  0.506399  0.751563  1
  H  H15  1  0.506399  0.732058  0.751563  1
  H  H16  1  0.493601  0.267942  0.751563  1
  H  H17  1  0.267942  0.493601  0.751563  1
  H  H18  1  0.264148  0.735852  0.978510  1
  H  H19  1  0.735852  0.264148  0.978510  1
  H  H20  1  0.735852  0.735852  0.021490  1
  H  H21  1  0.264148  0.264148  0.021490  1
  H  H22  1  0.267942  0.506399  0.248437  1
  H  H23  1  0.493601  0.732058  0.248437  1
  H  H24  1  0.506399  0.267942  0.248437  1
  H  H25  1  0.732058  0.493601  0.248437  1
  H  H26  1  0.970687  0.743411  0.254273  1
  H  H27  1  0.743411  0.970687  0.254273  1
  H  H28  1  0.256589  0.029313  0.254273  1
  H  H29  1  0.029313  0.256589  0.254273  1
  H  H30  1  0.261459  0.738541  0.497966  1
  H  H31  1  0.738541  0.261459  0.497966  1
  Ir  Ir32  1  0.268967  0.731033  0.737526  1
  Ir  Ir33  1  0.731033  0.268967  0.737526  1
  Ir  Ir34  1  0.731033  0.731033  0.262474  1
  Ir  Ir35  1  0.268967  0.268967  0.262474  1
