# generated using pymatgen
data_Hf8Co9Si16Ni3
_symmetry_space_group_name_H-M   'P 1'
_cell_length_a   5.19708210
_cell_length_b   6.75467127
_cell_length_c   13.69322081
_cell_angle_alpha   90.08706213
_cell_angle_beta   89.90341367
_cell_angle_gamma   89.96474127
_symmetry_Int_Tables_number   1
_chemical_formula_structural   Hf8Co9Si16Ni3
_chemical_formula_sum   'Hf8 Co9 Si16 Ni3'
_cell_volume   480.69345110
_cell_formula_units_Z   1
loop_
 _symmetry_equiv_pos_site_id
 _symmetry_equiv_pos_as_xyz
  1  'x, y, z'
loop_
 _atom_site_type_symbol
 _atom_site_label
 _atom_site_symmetry_multiplicity
 _atom_site_fract_x
 _atom_site_fract_y
 _atom_site_fract_z
 _atom_site_occupancy
  Hf  Hf0  1  0.232287  0.400276  0.146794  1
  Hf  Hf1  1  0.732816  0.100443  0.146965  1
  Hf  Hf2  1  0.268092  0.099425  0.646249  1
  Hf  Hf3  1  0.769407  0.398649  0.646118  1
  Hf  Hf4  1  0.231667  0.603488  0.352782  1
  Hf  Hf5  1  0.730715  0.898867  0.352944  1
  Hf  Hf6  1  0.268987  0.897094  0.852075  1
  Hf  Hf7  1  0.767838  0.602947  0.852162  1
  Co  Co8  1  0.775497  0.001053  0.749630  1
  Co  Co9  1  0.725168  0.500122  0.250212  1
  Co  Co10  1  0.494503  0.771633  0.518221  1
  Co  Co11  1  0.007607  0.277187  0.482226  1
  Co  Co12  1  0.004558  0.729361  0.018222  1
  Co  Co13  1  0.224241  0.000335  0.250772  1
  Co  Co14  1  0.273959  0.498839  0.750297  1
  Co  Co15  1  0.504673  0.771091  0.018315  1
  Co  Co16  1  0.994162  0.723471  0.518681  1
  Si  Si17  1  0.222394  0.016459  0.072186  1
  Si  Si18  1  0.722372  0.522051  0.429651  1
  Si  Si19  1  0.782867  0.016443  0.569204  1
  Si  Si20  1  0.480806  0.754338  0.187722  1
  Si  Si21  1  0.018889  0.253157  0.811955  1
  Si  Si22  1  0.519211  0.246692  0.811893  1
  Si  Si23  1  0.215364  0.978252  0.432283  1
  Si  Si24  1  0.278137  0.523478  0.929987  1
  Si  Si25  1  0.980707  0.746334  0.187544  1
  Si  Si26  1  0.722050  0.483892  0.071873  1
  Si  Si27  1  0.279252  0.481982  0.571106  1
  Si  Si28  1  0.479932  0.247052  0.311608  1
  Si  Si29  1  0.019337  0.745816  0.687442  1
  Si  Si30  1  0.778376  0.976550  0.929859  1
  Si  Si31  1  0.519753  0.753109  0.687246  1
  Si  Si32  1  0.981183  0.254617  0.313180  1
  Ni  Ni33  1  0.992589  0.274011  0.981094  1
  Ni  Ni34  1  0.508072  0.225631  0.480329  1
  Ni  Ni35  1  0.492533  0.225855  0.981175  1
