# generated using pymatgen
data_LiCr3(NiP)4
_symmetry_space_group_name_H-M   'P 1'
_cell_length_a   3.53390600
_cell_length_b   5.86131977
_cell_length_c   6.76531565
_cell_angle_alpha   90.53719004
_cell_angle_beta   90.00000000
_cell_angle_gamma   90.00000000
_symmetry_Int_Tables_number   1
_chemical_formula_structural   LiCr3(NiP)4
_chemical_formula_sum   'Li1 Cr3 Ni4 P4'
_cell_volume   140.12621291
_cell_formula_units_Z   1
loop_
 _symmetry_equiv_pos_site_id
 _symmetry_equiv_pos_as_xyz
  1  'x, y, z'
loop_
 _atom_site_type_symbol
 _atom_site_label
 _atom_site_symmetry_multiplicity
 _atom_site_fract_x
 _atom_site_fract_y
 _atom_site_fract_z
 _atom_site_occupancy
  Li  Li0  1  0.750000  0.468796  0.177486  1
  Cr  Cr1  1  0.750000  0.966655  0.327321  1
  Cr  Cr2  1  0.250000  0.531993  0.835059  1
  Cr  Cr3  1  0.250000  0.025472  0.670409  1
  Ni  Ni4  1  0.750000  0.359455  0.559055  1
  Ni  Ni5  1  0.750000  0.862836  0.937078  1
  Ni  Ni6  1  0.250000  0.637881  0.433783  1
  Ni  Ni7  1  0.250000  0.149318  0.062084  1
  P  P8  1  0.750000  0.243514  0.868951  1
  P  P9  1  0.750000  0.741197  0.626344  1
  P  P10  1  0.250000  0.765310  0.123494  1
  P  P11  1  0.250000  0.247572  0.378935  1
