# generated using pymatgen
data_Mg3Zr(B4Ru5)2
_symmetry_space_group_name_H-M   'P 1'
_cell_length_a   2.99175200
_cell_length_b   8.44914297
_cell_length_c   10.08976345
_cell_angle_alpha   90.73631236
_cell_angle_beta   90.00000000
_cell_angle_gamma   90.00000000
_symmetry_Int_Tables_number   1
_chemical_formula_structural   Mg3Zr(B4Ru5)2
_chemical_formula_sum   'Mg3 Zr1 B8 Ru10'
_cell_volume   255.02536076
_cell_formula_units_Z   1
loop_
 _symmetry_equiv_pos_site_id
 _symmetry_equiv_pos_as_xyz
  1  'x, y, z'
loop_
 _atom_site_type_symbol
 _atom_site_label
 _atom_site_symmetry_multiplicity
 _atom_site_fract_x
 _atom_site_fract_y
 _atom_site_fract_z
 _atom_site_occupancy
  Mg  Mg0  1  0.500000  0.350148  0.188131  1
  Mg  Mg1  1  0.500000  0.150922  0.678612  1
  Mg  Mg2  1  0.500000  0.852389  0.314013  1
  Zr  Zr3  1  0.500000  0.653032  0.819739  1
  B  B4  1  0.500000  0.855115  0.597377  1
  B  B5  1  0.500000  0.145782  0.396209  1
  B  B6  1  0.500000  0.346209  0.898164  1
  B  B7  1  0.500000  0.647223  0.106227  1
  B  B8  1  0.500000  0.963104  0.911481  1
  B  B9  1  0.500000  0.041629  0.090009  1
  B  B10  1  0.500000  0.458071  0.587746  1
  B  B11  1  0.500000  0.537042  0.410518  1
  Ru  Ru12  1  0.000000  0.394806  0.738220  1
  Ru  Ru13  1  0.000000  0.604293  0.263803  1
  Ru  Ru14  1  0.000000  0.903369  0.760417  1
  Ru  Ru15  1  0.000000  0.104196  0.237181  1
  Ru  Ru16  1  0.000000  0.000188  0.498622  1
  Ru  Ru17  1  0.000000  0.496214  0.001770  1
  Ru  Ru18  1  0.000000  0.657117  0.552367  1
  Ru  Ru19  1  0.000000  0.344177  0.452696  1
  Ru  Ru20  1  0.000000  0.155236  0.952766  1
  Ru  Ru21  1  0.000000  0.839739  0.043933  1
