# generated using pymatgen
data_Th3Sn2GeIr3
_symmetry_space_group_name_H-M   'P 1'
_cell_length_a   7.52610083
_cell_length_b   7.52610100
_cell_length_c   4.10965100
_cell_angle_alpha   90.00000000
_cell_angle_beta   90.00000000
_cell_angle_gamma   120.46483029
_symmetry_Int_Tables_number   1
_chemical_formula_structural   Th3Sn2GeIr3
_chemical_formula_sum   'Th3 Sn2 Ge1 Ir3'
_cell_volume   200.64221991
_cell_formula_units_Z   1
loop_
 _symmetry_equiv_pos_site_id
 _symmetry_equiv_pos_as_xyz
  1  'x, y, z'
loop_
 _atom_site_type_symbol
 _atom_site_label
 _atom_site_symmetry_multiplicity
 _atom_site_fract_x
 _atom_site_fract_y
 _atom_site_fract_z
 _atom_site_occupancy
  Th  Th0  1  0.423577  0.423577  0.500000  1
  Th  Th1  1  0.588052  0.993471  0.500000  1
  Th  Th2  1  0.993471  0.588052  0.500000  1
  Sn  Sn3  1  0.249054  0.002147  0.000000  1
  Sn  Sn4  1  0.002147  0.249054  0.000000  1
  Ge  Ge5  1  0.748898  0.748898  0.000000  1
  Ir  Ir6  1  0.670825  0.343004  0.000000  1
  Ir  Ir7  1  0.343004  0.670825  0.000000  1
  Ir  Ir8  1  0.980971  0.980971  0.500000  1
