# generated using pymatgen
data_La3P2Cl
_symmetry_space_group_name_H-M   'P 1'
_cell_length_a   7.36826060
_cell_length_b   7.36826051
_cell_length_c   7.36826136
_cell_angle_alpha   146.60048912
_cell_angle_beta   132.14800518
_cell_angle_gamma   59.60884982
_symmetry_Int_Tables_number   1
_chemical_formula_structural   La3P2Cl
_chemical_formula_sum   'La3 P2 Cl1'
_cell_volume   161.81182938
_cell_formula_units_Z   1
loop_
 _symmetry_equiv_pos_site_id
 _symmetry_equiv_pos_as_xyz
  1  'x, y, z'
loop_
 _atom_site_type_symbol
 _atom_site_label
 _atom_site_symmetry_multiplicity
 _atom_site_fract_x
 _atom_site_fract_y
 _atom_site_fract_z
 _atom_site_occupancy
  La  La0  1  0.500000  0.000000  0.500000  1
  La  La1  1  0.179978  0.679978  0.500000  1
  La  La2  1  0.820022  0.320022  0.500000  1
  P  P3  1  0.663496  0.663496  0.000000  1
  P  P4  1  0.336504  0.336504  0.000000  1
  Cl  Cl5  1  0.000000  0.000000  0.000000  1
