# generated using pymatgen
data_Tb3Fe2Co6P6Ru
_symmetry_space_group_name_H-M   'P 1'
_cell_length_a   3.72730000
_cell_length_b   10.63915300
_cell_length_c   12.17732400
_cell_angle_alpha   90.00000000
_cell_angle_beta   90.00000000
_cell_angle_gamma   90.00000000
_symmetry_Int_Tables_number   1
_chemical_formula_structural   Tb3Fe2Co6P6Ru
_chemical_formula_sum   'Tb6 Fe4 Co12 P12 Ru2'
_cell_volume   482.89561880
_cell_formula_units_Z   2
loop_
 _symmetry_equiv_pos_site_id
 _symmetry_equiv_pos_as_xyz
  1  'x, y, z'
loop_
 _atom_site_type_symbol
 _atom_site_label
 _atom_site_symmetry_multiplicity
 _atom_site_fract_x
 _atom_site_fract_y
 _atom_site_fract_z
 _atom_site_occupancy
  Tb  Tb0  1  0.000000  0.500000  0.525045  1
  Tb  Tb1  1  0.500000  0.000000  0.474379  1
  Tb  Tb2  1  0.500000  0.818325  0.204368  1
  Tb  Tb3  1  0.500000  0.181675  0.204368  1
  Tb  Tb4  1  0.000000  0.681382  0.796721  1
  Tb  Tb5  1  0.000000  0.318618  0.796721  1
  Fe  Fe6  1  0.000000  0.500000  0.989081  1
  Fe  Fe7  1  0.500000  0.000000  0.011819  1
  Fe  Fe8  1  0.500000  0.330337  0.992888  1
  Fe  Fe9  1  0.500000  0.669663  0.992888  1
  Co  Co10  1  0.500000  0.500000  0.701613  1
  Co  Co11  1  0.000000  0.000000  0.298729  1
  Co  Co12  1  0.000000  0.165910  0.008454  1
  Co  Co13  1  0.000000  0.834090  0.008454  1
  Co  Co14  1  0.500000  0.296745  0.430358  1
  Co  Co15  1  0.500000  0.703255  0.430358  1
  Co  Co16  1  0.000000  0.203357  0.569658  1
  Co  Co17  1  0.000000  0.796643  0.569658  1
  Co  Co18  1  0.500000  0.879925  0.707938  1
  Co  Co19  1  0.500000  0.120075  0.707938  1
  Co  Co20  1  0.000000  0.620448  0.290875  1
  Co  Co21  1  0.000000  0.379552  0.290875  1
  P  P22  1  0.500000  0.500000  0.886151  1
  P  P23  1  0.000000  0.000000  0.116650  1
  P  P24  1  0.500000  0.500000  0.347365  1
  P  P25  1  0.000000  0.000000  0.651675  1
  P  P26  1  0.500000  0.310144  0.616972  1
  P  P27  1  0.500000  0.689856  0.616972  1
  P  P28  1  0.000000  0.190186  0.383597  1
  P  P29  1  0.000000  0.809814  0.383597  1
  P  P30  1  0.500000  0.846079  0.895754  1
  P  P31  1  0.500000  0.153921  0.895754  1
  P  P32  1  0.000000  0.654946  0.101845  1
  P  P33  1  0.000000  0.345054  0.101845  1
  Ru  Ru34  1  0.500000  0.500000  0.156320  1
  Ru  Ru35  1  0.000000  0.000000  0.842318  1
