# generated using pymatgen
data_Er2Co5Si2NiB2
_symmetry_space_group_name_H-M   'P 1'
_cell_length_a   5.09476210
_cell_length_b   5.09476332
_cell_length_c   6.49598600
_cell_angle_alpha   90.00000000
_cell_angle_beta   90.00000000
_cell_angle_gamma   119.74017459
_symmetry_Int_Tables_number   1
_chemical_formula_structural   Er2Co5Si2NiB2
_chemical_formula_sum   'Er2 Co5 Si2 Ni1 B2'
_cell_volume   146.40460905
_cell_formula_units_Z   1
loop_
 _symmetry_equiv_pos_site_id
 _symmetry_equiv_pos_as_xyz
  1  'x, y, z'
loop_
 _atom_site_type_symbol
 _atom_site_label
 _atom_site_symmetry_multiplicity
 _atom_site_fract_x
 _atom_site_fract_y
 _atom_site_fract_z
 _atom_site_occupancy
  Er  Er0  1  0.000000  0.000000  0.004168  1
  Er  Er1  1  0.000000  0.000000  0.499159  1
  Co  Co2  1  0.500000  0.000000  0.717074  1
  Co  Co3  1  0.000000  0.500000  0.717074  1
  Co  Co4  1  0.500000  0.500000  0.280019  1
  Co  Co5  1  0.500000  0.000000  0.284483  1
  Co  Co6  1  0.000000  0.500000  0.284483  1
  Si  Si7  1  0.668614  0.331386  0.001696  1
  Si  Si8  1  0.331386  0.668614  0.001696  1
  Ni  Ni9  1  0.500000  0.500000  0.715673  1
  B  B10  1  0.668643  0.331357  0.497238  1
  B  B11  1  0.331357  0.668643  0.497238  1
