# generated using pymatgen
data_Rb2GdInBr6
_symmetry_space_group_name_H-M   'P 1'
_cell_length_a   8.21399724
_cell_length_b   8.21399727
_cell_length_c   8.42656100
_cell_angle_alpha   119.18605764
_cell_angle_beta   119.18604979
_cell_angle_gamma   60.49109855
_symmetry_Int_Tables_number   1
_chemical_formula_structural   Rb2GdInBr6
_chemical_formula_sum   'Rb2 Gd1 In1 Br6'
_cell_volume   408.41729654
_cell_formula_units_Z   1
loop_
 _symmetry_equiv_pos_site_id
 _symmetry_equiv_pos_as_xyz
  1  'x, y, z'
loop_
 _atom_site_type_symbol
 _atom_site_label
 _atom_site_symmetry_multiplicity
 _atom_site_fract_x
 _atom_site_fract_y
 _atom_site_fract_z
 _atom_site_occupancy
  Rb  Rb0  1  0.748624  0.748624  0.230191  1
  Rb  Rb1  1  0.251376  0.251376  0.769811  1
  Gd  Gd2  1  0.000000  0.000000  0.000000  1
  In  In3  1  0.500000  0.500000  0.500001  1
  Br  Br4  1  0.699605  0.180731  0.167428  1
  Br  Br5  1  0.180731  0.699605  0.167428  1
  Br  Br6  1  0.227868  0.227868  0.331754  1
  Br  Br7  1  0.772132  0.772132  0.668246  1
  Br  Br8  1  0.819269  0.300396  0.832571  1
  Br  Br9  1  0.300396  0.819269  0.832571  1
