# generated using pymatgen
data_Hf5ZrTa5Ga11Os7
_symmetry_space_group_name_H-M   'P 1'
_cell_length_a   8.89125172
_cell_length_b   8.87359084
_cell_length_c   8.83487627
_cell_angle_alpha   59.96301012
_cell_angle_beta   59.78868618
_cell_angle_gamma   59.93413289
_symmetry_Int_Tables_number   1
_chemical_formula_structural   Hf5ZrTa5Ga11Os7
_chemical_formula_sum   'Hf5 Zr1 Ta5 Ga11 Os7'
_cell_volume   491.71379635
_cell_formula_units_Z   1
loop_
 _symmetry_equiv_pos_site_id
 _symmetry_equiv_pos_as_xyz
  1  'x, y, z'
loop_
 _atom_site_type_symbol
 _atom_site_label
 _atom_site_symmetry_multiplicity
 _atom_site_fract_x
 _atom_site_fract_y
 _atom_site_fract_z
 _atom_site_occupancy
  Hf  Hf0  1  0.702203  0.703711  0.300219  1
  Hf  Hf1  1  0.293866  0.703711  0.300219  1
  Hf  Hf2  1  0.701690  0.294930  0.301689  1
  Hf  Hf3  1  0.306621  0.305415  0.703237  1
  Hf  Hf4  1  0.684728  0.305415  0.703237  1
  Zr  Zr5  1  0.309110  0.683651  0.698130  1
  Ta  Ta6  1  0.878209  0.877955  0.365628  1
  Ta  Ta7  1  0.874355  0.371348  0.879942  1
  Ta  Ta8  1  0.371813  0.874659  0.879432  1
  Ta  Ta9  1  0.874096  0.874659  0.879432  1
  Ta  Ta10  1  0.126425  0.126504  0.620647  1
  Ga  Ga11  1  0.119002  0.642805  0.119191  1
  Ga  Ga12  1  0.642904  0.118839  0.119407  1
  Ga  Ga13  1  0.118850  0.118839  0.119407  1
  Ga  Ga14  1  0.652686  0.653505  0.041123  1
  Ga  Ga15  1  0.656417  0.033078  0.654089  1
  Ga  Ga16  1  0.032010  0.656340  0.654759  1
  Ga  Ga17  1  0.656892  0.656340  0.654759  1
  Ga  Ga18  1  0.336907  0.338113  0.988073  1
  Ga  Ga19  1  0.342715  0.975125  0.339445  1
  Ga  Ga20  1  0.976791  0.342175  0.339130  1
  Ga  Ga21  1  0.341905  0.342175  0.339130  1
  Os  Os22  1  0.005608  0.005404  0.983380  1
  Os  Os23  1  0.997775  0.998904  0.505070  1
  Os  Os24  1  0.498252  0.998904  0.505070  1
  Os  Os25  1  0.998429  0.497313  0.505829  1
  Os  Os26  1  0.502493  0.501142  0.000794  1
  Os  Os27  1  0.995570  0.501142  0.000794  1
  Os  Os28  1  0.501682  0.997897  0.998738  1
