# generated using pymatgen
data_Y2Ho4B14MoRu
_symmetry_space_group_name_H-M   'P 1'
_cell_length_a   8.09504206
_cell_length_b   8.09504363
_cell_length_c   9.39307400
_cell_angle_alpha   90.00000000
_cell_angle_beta   90.00000000
_cell_angle_gamma   155.00640939
_symmetry_Int_Tables_number   1
_chemical_formula_structural   Y2Ho4B14MoRu
_chemical_formula_sum   'Y2 Ho4 B14 Mo1 Ru1'
_cell_volume   260.06990951
_cell_formula_units_Z   1
loop_
 _symmetry_equiv_pos_site_id
 _symmetry_equiv_pos_as_xyz
  1  'x, y, z'
loop_
 _atom_site_type_symbol
 _atom_site_label
 _atom_site_symmetry_multiplicity
 _atom_site_fract_x
 _atom_site_fract_y
 _atom_site_fract_z
 _atom_site_occupancy
  Y  Y0  1  0.256163  0.743837  0.250000  1
  Y  Y1  1  0.745251  0.254749  0.750000  1
  Ho  Ho2  1  0.605663  0.394337  0.061681  1
  Ho  Ho3  1  0.393366  0.606634  0.941542  1
  Ho  Ho4  1  0.393366  0.606634  0.558458  1
  Ho  Ho5  1  0.605663  0.394337  0.438319  1
  B  B6  1  0.979030  0.020970  0.096490  1
  B  B7  1  0.019362  0.980638  0.908795  1
  B  B8  1  0.019362  0.980638  0.591205  1
  B  B9  1  0.979030  0.020970  0.403510  1
  B  B10  1  0.773526  0.226474  0.034834  1
  B  B11  1  0.227941  0.772059  0.968250  1
  B  B12  1  0.227941  0.772059  0.531750  1
  B  B13  1  0.773526  0.226474  0.465166  1
  B  B14  1  0.868685  0.131315  0.151253  1
  B  B15  1  0.134380  0.865620  0.852827  1
  B  B16  1  0.134380  0.865620  0.647173  1
  B  B17  1  0.868685  0.131315  0.348747  1
  B  B18  1  0.042241  0.957759  0.250000  1
  B  B19  1  0.954003  0.045997  0.750000  1
  Mo  Mo20  1  0.552514  0.447486  0.750000  1
  Ru  Ru21  1  0.445917  0.554083  0.250000  1
