# generated using pymatgen
data_Ho8CdHgPd2
_symmetry_space_group_name_H-M   'P 1'
_cell_length_a   9.63043632
_cell_length_b   9.63043541
_cell_length_c   9.63022500
_cell_angle_alpha   60.00072618
_cell_angle_beta   60.00072931
_cell_angle_gamma   60.04139596
_symmetry_Int_Tables_number   1
_chemical_formula_structural   Ho8CdHgPd2
_chemical_formula_sum   'Ho16 Cd2 Hg2 Pd4'
_cell_volume   631.76241914
_cell_formula_units_Z   2
loop_
 _symmetry_equiv_pos_site_id
 _symmetry_equiv_pos_as_xyz
  1  'x, y, z'
loop_
 _atom_site_type_symbol
 _atom_site_label
 _atom_site_symmetry_multiplicity
 _atom_site_fract_x
 _atom_site_fract_y
 _atom_site_fract_z
 _atom_site_occupancy
  Ho  Ho0  1  0.354712  0.354712  0.350820  1
  Ho  Ho1  1  0.354712  0.354712  0.939757  1
  Ho  Ho2  1  0.359930  0.928994  0.355539  1
  Ho  Ho3  1  0.928994  0.359930  0.355539  1
  Ho  Ho4  1  0.811355  0.188750  0.189875  1
  Ho  Ho5  1  0.188750  0.811355  0.810020  1
  Ho  Ho6  1  0.188750  0.811355  0.189875  1
  Ho  Ho7  1  0.811355  0.188750  0.810020  1
  Ho  Ho8  1  0.189791  0.189791  0.810209  1
  Ho  Ho9  1  0.810907  0.810907  0.189093  1
  Ho  Ho10  1  0.934084  0.564963  0.565808  1
  Ho  Ho11  1  0.564963  0.934084  0.935145  1
  Ho  Ho12  1  0.564963  0.934084  0.565808  1
  Ho  Ho13  1  0.934084  0.564963  0.935145  1
  Ho  Ho14  1  0.566008  0.566008  0.933992  1
  Ho  Ho15  1  0.935291  0.935291  0.564709  1
  Cd  Cd16  1  0.579762  0.253640  0.583298  1
  Cd  Cd17  1  0.253640  0.579762  0.583298  1
  Hg  Hg18  1  0.584921  0.584921  0.589413  1
  Hg  Hg19  1  0.584921  0.584921  0.240744  1
  Pd  Pd20  1  0.144411  0.144411  0.148144  1
  Pd  Pd21  1  0.144411  0.144411  0.563035  1
  Pd  Pd22  1  0.142545  0.566740  0.145358  1
  Pd  Pd23  1  0.566740  0.142545  0.145358  1
