# generated using pymatgen
data_ErLu7(InRh)2
_symmetry_space_group_name_H-M   'P 1'
_cell_length_a   9.49226427
_cell_length_b   9.48494349
_cell_length_c   9.48172428
_cell_angle_alpha   60.00881523
_cell_angle_beta   59.96321519
_cell_angle_gamma   59.97446166
_symmetry_Int_Tables_number   1
_chemical_formula_structural   ErLu7(InRh)2
_chemical_formula_sum   'Er2 Lu14 In4 Rh4'
_cell_volume   603.39410881
_cell_formula_units_Z   2
loop_
 _symmetry_equiv_pos_site_id
 _symmetry_equiv_pos_as_xyz
  1  'x, y, z'
loop_
 _atom_site_type_symbol
 _atom_site_label
 _atom_site_symmetry_multiplicity
 _atom_site_fract_x
 _atom_site_fract_y
 _atom_site_fract_z
 _atom_site_occupancy
  Er  Er0  1  0.437930  0.436594  0.062904  1
  Er  Er1  1  0.062571  0.436594  0.062904  1
  Lu  Lu2  1  0.062417  0.061170  0.438387  1
  Lu  Lu3  1  0.651672  0.048490  0.648167  1
  Lu  Lu4  1  0.188767  0.811083  0.190302  1
  Lu  Lu5  1  0.438025  0.061170  0.438387  1
  Lu  Lu6  1  0.189083  0.190037  0.810301  1
  Lu  Lu7  1  0.651000  0.651588  0.651131  1
  Lu  Lu8  1  0.046283  0.651588  0.651131  1
  Lu  Lu9  1  0.440871  0.058300  0.059958  1
  Lu  Lu10  1  0.651882  0.648458  0.047778  1
  Lu  Lu11  1  0.188681  0.812281  0.810356  1
  Lu  Lu12  1  0.810579  0.190037  0.810301  1
  Lu  Lu13  1  0.810948  0.188895  0.189208  1
  Lu  Lu14  1  0.809848  0.811083  0.190302  1
  Lu  Lu15  1  0.060189  0.438503  0.441118  1
  In  In16  1  0.749741  0.416780  0.416787  1
  In  In17  1  0.417355  0.417385  0.747905  1
  In  In18  1  0.416723  0.749907  0.416647  1
  In  In19  1  0.416692  0.416780  0.416787  1
  Rh  Rh20  1  0.855898  0.859773  0.858229  1
  Rh  Rh21  1  0.426101  0.859773  0.858229  1
  Rh  Rh22  1  0.857851  0.858097  0.426202  1
  Rh  Rh23  1  0.858892  0.425637  0.856580  1
