# generated using pymatgen
data_Sm5HoCo4(P6Ru7)2
_symmetry_space_group_name_H-M   'P 1'
_cell_length_a   3.90595100
_cell_length_b   10.94573408
_cell_length_c   12.75593410
_cell_angle_alpha   90.01413050
_cell_angle_beta   90.00000000
_cell_angle_gamma   90.00000000
_symmetry_Int_Tables_number   1
_chemical_formula_structural   Sm5HoCo4(P6Ru7)2
_chemical_formula_sum   'Sm5 Ho1 Co4 P12 Ru14'
_cell_volume   545.36082443
_cell_formula_units_Z   1
loop_
 _symmetry_equiv_pos_site_id
 _symmetry_equiv_pos_as_xyz
  1  'x, y, z'
loop_
 _atom_site_type_symbol
 _atom_site_label
 _atom_site_symmetry_multiplicity
 _atom_site_fract_x
 _atom_site_fract_y
 _atom_site_fract_z
 _atom_site_occupancy
  Sm  Sm0  1  0.000000  0.499728  0.525524  1
  Sm  Sm1  1  0.500000  0.000165  0.473073  1
  Sm  Sm2  1  0.500000  0.822251  0.203365  1
  Sm  Sm3  1  0.000000  0.681260  0.797859  1
  Sm  Sm4  1  0.000000  0.318548  0.797270  1
  Ho  Ho5  1  0.500000  0.178615  0.203168  1
  Co  Co6  1  0.000000  0.499242  0.989832  1
  Co  Co7  1  0.500000  0.001132  0.013139  1
  Co  Co8  1  0.000000  0.162648  0.010506  1
  Co  Co9  1  0.000000  0.838135  0.010108  1
  P  P10  1  0.500000  0.304607  0.614819  1
  P  P11  1  0.500000  0.695363  0.615751  1
  P  P12  1  0.000000  0.195485  0.382809  1
  P  P13  1  0.000000  0.804547  0.384217  1
  P  P14  1  0.500000  0.499411  0.888729  1
  P  P15  1  0.000000  0.001692  0.112143  1
  P  P16  1  0.500000  0.852920  0.897761  1
  P  P17  1  0.500000  0.147404  0.896732  1
  P  P18  1  0.000000  0.654942  0.100662  1
  P  P19  1  0.000000  0.342922  0.101026  1
  P  P20  1  0.500000  0.500062  0.334670  1
  P  P21  1  0.000000  0.999938  0.664571  1
  Ru  Ru22  1  0.500000  0.299827  0.427267  1
  Ru  Ru23  1  0.500000  0.700323  0.428634  1
  Ru  Ru24  1  0.000000  0.200235  0.570608  1
  Ru  Ru25  1  0.000000  0.800106  0.571553  1
  Ru  Ru26  1  0.500000  0.878488  0.716393  1
  Ru  Ru27  1  0.500000  0.121409  0.715584  1
  Ru  Ru28  1  0.000000  0.622182  0.282269  1
  Ru  Ru29  1  0.000000  0.375484  0.280711  1
  Ru  Ru30  1  0.500000  0.325864  0.993925  1
  Ru  Ru31  1  0.500000  0.673056  0.993357  1
  Ru  Ru32  1  0.500000  0.499828  0.152009  1
  Ru  Ru33  1  0.000000  0.000400  0.851508  1
  Ru  Ru34  1  0.500000  0.499877  0.700651  1
  Ru  Ru35  1  0.000000  0.001904  0.297799  1
