# generated using pymatgen
data_Li2Nd8Si12NiPd
_symmetry_space_group_name_H-M   'P 1'
_cell_length_a   8.21018600
_cell_length_b   8.21018717
_cell_length_c   8.44481000
_cell_angle_alpha   90.00000000
_cell_angle_beta   90.00000000
_cell_angle_gamma   119.99999527
_symmetry_Int_Tables_number   1
_chemical_formula_structural   Li2Nd8Si12NiPd
_chemical_formula_sum   'Li2 Nd8 Si12 Ni1 Pd1'
_cell_volume   492.97692256
_cell_formula_units_Z   1
loop_
 _symmetry_equiv_pos_site_id
 _symmetry_equiv_pos_as_xyz
  1  'x, y, z'
loop_
 _atom_site_type_symbol
 _atom_site_label
 _atom_site_symmetry_multiplicity
 _atom_site_fract_x
 _atom_site_fract_y
 _atom_site_fract_z
 _atom_site_occupancy
  Li  Li0  1  0.666667  0.333333  0.000411  1
  Li  Li1  1  0.333333  0.666667  0.999680  1
  Nd  Nd2  1  0.498476  0.501524  0.748078  1
  Nd  Nd3  1  0.498430  0.501570  0.251767  1
  Nd  Nd4  1  0.003047  0.501524  0.748078  1
  Nd  Nd5  1  0.003141  0.501570  0.251767  1
  Nd  Nd6  1  0.498476  0.996953  0.748078  1
  Nd  Nd7  1  0.498430  0.996859  0.251767  1
  Nd  Nd8  1  0.000000  0.000000  0.751179  1
  Nd  Nd9  1  0.000000  0.000000  0.248809  1
  Si  Si10  1  0.833195  0.166805  0.999637  1
  Si  Si11  1  0.166329  0.833671  0.000310  1
  Si  Si12  1  0.333608  0.166805  0.999637  1
  Si  Si13  1  0.171809  0.828191  0.499778  1
  Si  Si14  1  0.667342  0.833671  0.000310  1
  Si  Si15  1  0.834799  0.165201  0.500192  1
  Si  Si16  1  0.833195  0.666392  0.999637  1
  Si  Si17  1  0.656383  0.828191  0.499778  1
  Si  Si18  1  0.166329  0.332658  0.000310  1
  Si  Si19  1  0.330400  0.165201  0.500192  1
  Si  Si20  1  0.171809  0.343617  0.499778  1
  Si  Si21  1  0.834799  0.669600  0.500192  1
  Ni  Ni22  1  0.333333  0.666667  0.500904  1
  Pd  Pd23  1  0.666667  0.333333  0.499729  1
