# generated using pymatgen
data_Ca7TaV2N9
_symmetry_space_group_name_H-M   'P 1'
_cell_length_a   6.12480355
_cell_length_b   10.05816700
_cell_length_c   9.08988101
_cell_angle_alpha   90.00000000
_cell_angle_beta   92.02717847
_cell_angle_gamma   90.00000000
_symmetry_Int_Tables_number   1
_chemical_formula_structural   Ca7TaV2N9
_chemical_formula_sum   'Ca14 Ta2 V4 N18'
_cell_volume   559.62527335
_cell_formula_units_Z   2
loop_
 _symmetry_equiv_pos_site_id
 _symmetry_equiv_pos_as_xyz
  1  'x, y, z'
loop_
 _atom_site_type_symbol
 _atom_site_label
 _atom_site_symmetry_multiplicity
 _atom_site_fract_x
 _atom_site_fract_y
 _atom_site_fract_z
 _atom_site_occupancy
  Ca  Ca0  1  0.067634  0.417783  0.170817  1
  Ca  Ca1  1  0.932366  0.917782  0.829183  1
  Ca  Ca2  1  0.932366  0.582218  0.829183  1
  Ca  Ca3  1  0.067634  0.082218  0.170817  1
  Ca  Ca4  1  0.245360  0.918797  0.509902  1
  Ca  Ca5  1  0.754640  0.418797  0.490098  1
  Ca  Ca6  1  0.754640  0.081203  0.490098  1
  Ca  Ca7  1  0.245360  0.581203  0.509902  1
  Ca  Ca8  1  0.577326  0.931693  0.159577  1
  Ca  Ca9  1  0.422674  0.431693  0.840423  1
  Ca  Ca10  1  0.422674  0.068307  0.840423  1
  Ca  Ca11  1  0.577326  0.568307  0.159577  1
  Ca  Ca12  1  0.909741  0.250000  0.797025  1
  Ca  Ca13  1  0.090259  0.750000  0.202975  1
  Ta  Ta14  1  0.278779  0.250000  0.561693  1
  Ta  Ta15  1  0.721221  0.750000  0.438307  1
  V  V16  1  0.457462  0.250000  0.276598  1
  V  V17  1  0.542538  0.750000  0.723402  1
  V  V18  1  0.675927  0.250000  0.063870  1
  V  V19  1  0.324073  0.750000  0.936130  1
  N  N20  1  0.115814  0.400076  0.656914  1
  N  N21  1  0.884186  0.900076  0.343086  1
  N  N22  1  0.884186  0.599924  0.343086  1
  N  N23  1  0.115814  0.099924  0.656914  1
  N  N24  1  0.231849  0.904610  0.020285  1
  N  N25  1  0.768151  0.404610  0.979715  1
  N  N26  1  0.768151  0.095390  0.979715  1
  N  N27  1  0.231849  0.595390  0.020285  1
  N  N28  1  0.364510  0.392723  0.376221  1
  N  N29  1  0.635490  0.892723  0.623779  1
  N  N30  1  0.635490  0.607277  0.623779  1
  N  N31  1  0.364510  0.107277  0.376221  1
  N  N32  1  0.357960  0.250000  0.069369  1
  N  N33  1  0.642040  0.750000  0.930631  1
  N  N34  1  0.553219  0.250000  0.668845  1
  N  N35  1  0.446781  0.750000  0.331155  1
  N  N36  1  0.775159  0.250000  0.269729  1
  N  N37  1  0.224841  0.750000  0.730271  1
