# generated using pymatgen
data_Th4Si10Ir5Ru
_symmetry_space_group_name_H-M   'P 1'
_cell_length_a   8.24211116
_cell_length_b   8.24211077
_cell_length_c   5.96548002
_cell_angle_alpha   68.85082664
_cell_angle_beta   68.85082776
_cell_angle_gamma   89.82316857
_symmetry_Int_Tables_number   1
_chemical_formula_structural   Th4Si10Ir5Ru
_chemical_formula_sum   'Th4 Si10 Ir5 Ru1'
_cell_volume   348.71334668
_cell_formula_units_Z   1
loop_
 _symmetry_equiv_pos_site_id
 _symmetry_equiv_pos_as_xyz
  1  'x, y, z'
loop_
 _atom_site_type_symbol
 _atom_site_label
 _atom_site_symmetry_multiplicity
 _atom_site_fract_x
 _atom_site_fract_y
 _atom_site_fract_z
 _atom_site_occupancy
  Th  Th0  1  0.860629  0.599915  0.768889  1
  Th  Th1  1  0.400085  0.139371  0.731111  1
  Th  Th2  1  0.139335  0.400039  0.230185  1
  Th  Th3  1  0.599961  0.860665  0.269815  1
  Si  Si4  1  0.043974  0.257051  0.851648  1
  Si  Si5  1  0.742949  0.956026  0.648352  1
  Si  Si6  1  0.956065  0.742842  0.153428  1
  Si  Si7  1  0.257158  0.043935  0.346572  1
  Si  Si8  1  0.226497  0.773503  0.750000  1
  Si  Si9  1  0.774914  0.225086  0.250000  1
  Si  Si10  1  0.500413  0.499587  0.750000  1
  Si  Si11  1  0.499536  0.500464  0.250000  1
  Si  Si12  1  0.773478  0.226522  0.750000  1
  Si  Si13  1  0.225115  0.774885  0.250000  1
  Ir  Ir14  1  0.247173  0.526105  0.612796  1
  Ir  Ir15  1  0.473895  0.752827  0.887204  1
  Ir  Ir16  1  0.752665  0.473881  0.385289  1
  Ir  Ir17  1  0.526119  0.247335  0.114711  1
  Ir  Ir18  1  0.000422  0.999578  0.750000  1
  Ru  Ru19  1  0.999617  0.000383  0.250000  1
