# generated using pymatgen
data_NaMoF5
_symmetry_space_group_name_H-M   'P 1'
_cell_length_a   5.78156478
_cell_length_b   5.78156412
_cell_length_c   8.04474737
_cell_angle_alpha   69.30700715
_cell_angle_beta   69.30700682
_cell_angle_gamma   71.47659003
_symmetry_Int_Tables_number   1
_chemical_formula_structural   NaMoF5
_chemical_formula_sum   'Na2 Mo2 F10'
_cell_volume   229.54711710
_cell_formula_units_Z   2
loop_
 _symmetry_equiv_pos_site_id
 _symmetry_equiv_pos_as_xyz
  1  'x, y, z'
loop_
 _atom_site_type_symbol
 _atom_site_label
 _atom_site_symmetry_multiplicity
 _atom_site_fract_x
 _atom_site_fract_y
 _atom_site_fract_z
 _atom_site_occupancy
  Na  Na0  1  0.530925  0.469075  0.250000  1
  Na  Na1  1  0.469075  0.530925  0.750000  1
  Mo  Mo2  1  0.000000  0.000000  0.500000  1
  Mo  Mo3  1  0.000000  0.000000  0.000000  1
  F  F4  1  0.088417  0.911583  0.750000  1
  F  F5  1  0.911583  0.088417  0.250000  1
  F  F6  1  0.212424  0.249925  0.878778  1
  F  F7  1  0.750075  0.787576  0.621222  1
  F  F8  1  0.726621  0.299338  0.536795  1
  F  F9  1  0.700662  0.273379  0.963205  1
  F  F10  1  0.273379  0.700662  0.463205  1
  F  F11  1  0.299338  0.726621  0.036795  1
  F  F12  1  0.249925  0.212424  0.378778  1
  F  F13  1  0.787576  0.750075  0.121222  1
