# generated using pymatgen
data_Ba2Cd4PtRh
_symmetry_space_group_name_H-M   'P 1'
_cell_length_a   6.13139252
_cell_length_b   6.13139295
_cell_length_c   8.31248300
_cell_angle_alpha   90.00000000
_cell_angle_beta   90.00000000
_cell_angle_gamma   136.43279934
_symmetry_Int_Tables_number   1
_chemical_formula_structural   Ba2Cd4PtRh
_chemical_formula_sum   'Ba2 Cd4 Pt1 Rh1'
_cell_volume   215.37603618
_cell_formula_units_Z   1
loop_
 _symmetry_equiv_pos_site_id
 _symmetry_equiv_pos_as_xyz
  1  'x, y, z'
loop_
 _atom_site_type_symbol
 _atom_site_label
 _atom_site_symmetry_multiplicity
 _atom_site_fract_x
 _atom_site_fract_y
 _atom_site_fract_z
 _atom_site_occupancy
  Ba  Ba0  1  0.442815  0.557185  0.750000  1
  Ba  Ba1  1  0.559199  0.440801  0.250000  1
  Cd  Cd2  1  0.838895  0.161105  0.054369  1
  Cd  Cd3  1  0.160424  0.839576  0.940627  1
  Cd  Cd4  1  0.838895  0.161105  0.445631  1
  Cd  Cd5  1  0.160424  0.839576  0.559373  1
  Pt  Pt6  1  0.276869  0.723131  0.250000  1
  Rh  Rh7  1  0.722479  0.277521  0.750000  1
