# generated using pymatgen
data_Ca3TmAl18(NiRh2)2
_symmetry_space_group_name_H-M   'P 1'
_cell_length_a   7.55270807
_cell_length_b   7.54722516
_cell_length_c   9.49137900
_cell_angle_alpha   90.00000000
_cell_angle_beta   90.00000000
_cell_angle_gamma   119.96468890
_symmetry_Int_Tables_number   1
_chemical_formula_structural   Ca3TmAl18(NiRh2)2
_chemical_formula_sum   'Ca3 Tm1 Al18 Ni2 Rh4'
_cell_volume   468.71016492
_cell_formula_units_Z   1
loop_
 _symmetry_equiv_pos_site_id
 _symmetry_equiv_pos_as_xyz
  1  'x, y, z'
loop_
 _atom_site_type_symbol
 _atom_site_label
 _atom_site_symmetry_multiplicity
 _atom_site_fract_x
 _atom_site_fract_y
 _atom_site_fract_z
 _atom_site_occupancy
  Ca  Ca0  1  0.990498  0.663492  0.250000  1
  Ca  Ca1  1  0.006053  0.335022  0.750000  1
  Ca  Ca2  1  0.665459  0.992477  0.250000  1
  Tm  Tm3  1  0.334108  0.003902  0.750000  1
  Al  Al4  1  0.121036  0.121458  0.250000  1
  Al  Al5  1  0.882738  0.879629  0.750000  1
  Al  Al6  1  0.000281  0.330829  0.070758  1
  Al  Al7  1  0.002199  0.669550  0.926645  1
  Al  Al8  1  0.002199  0.669550  0.573355  1
  Al  Al9  1  0.330244  0.000061  0.429178  1
  Al  Al10  1  0.000281  0.330829  0.429242  1
  Al  Al11  1  0.669756  0.002509  0.574074  1
  Al  Al12  1  0.669756  0.002509  0.925926  1
  Al  Al13  1  0.330244  0.000061  0.070822  1
  Al  Al14  1  0.328875  0.328450  0.552031  1
  Al  Al15  1  0.668818  0.669147  0.461491  1
  Al  Al16  1  0.668818  0.669147  0.038509  1
  Al  Al17  1  0.328875  0.328450  0.947969  1
  Al  Al18  1  0.334021  0.543252  0.250000  1
  Al  Al19  1  0.659770  0.452586  0.750000  1
  Al  Al20  1  0.542416  0.334573  0.250000  1
  Al  Al21  1  0.456252  0.667400  0.750000  1
  Ni  Ni22  1  0.003629  0.001123  0.996857  1
  Ni  Ni23  1  0.003629  0.001123  0.503143  1
  Rh  Rh24  1  0.669793  0.328900  0.998727  1
  Rh  Rh25  1  0.330231  0.672533  0.998643  1
  Rh  Rh26  1  0.330231  0.672533  0.501357  1
  Rh  Rh27  1  0.669793  0.328900  0.501273  1
