# generated using pymatgen
data_Tb3DyHoSn4
_symmetry_space_group_name_H-M   'P 1'
_cell_length_a   8.05784600
_cell_length_b   8.20469600
_cell_length_c   15.52939200
_cell_angle_alpha   90.00000000
_cell_angle_beta   90.00000000
_cell_angle_gamma   90.00000000
_symmetry_Int_Tables_number   1
_chemical_formula_structural   Tb3DyHoSn4
_chemical_formula_sum   'Tb12 Dy4 Ho4 Sn16'
_cell_volume   1026.68191020
_cell_formula_units_Z   4
loop_
 _symmetry_equiv_pos_site_id
 _symmetry_equiv_pos_as_xyz
  1  'x, y, z'
loop_
 _atom_site_type_symbol
 _atom_site_label
 _atom_site_symmetry_multiplicity
 _atom_site_fract_x
 _atom_site_fract_y
 _atom_site_fract_z
 _atom_site_occupancy
  Tb  Tb0  1  0.632234  0.164428  0.121540  1
  Tb  Tb1  1  0.132234  0.335572  0.378460  1
  Tb  Tb2  1  0.367766  0.835572  0.621540  1
  Tb  Tb3  1  0.867766  0.664428  0.878460  1
  Tb  Tb4  1  0.520219  0.319548  0.902195  1
  Tb  Tb5  1  0.020219  0.180452  0.597805  1
  Tb  Tb6  1  0.479781  0.680452  0.402195  1
  Tb  Tb7  1  0.979781  0.819548  0.097805  1
  Tb  Tb8  1  0.479729  0.680393  0.097773  1
  Tb  Tb9  1  0.979729  0.819607  0.402227  1
  Tb  Tb10  1  0.520271  0.319607  0.597773  1
  Tb  Tb11  1  0.020271  0.180393  0.902227  1
  Dy  Dy12  1  0.367689  0.835637  0.878481  1
  Dy  Dy13  1  0.867689  0.664363  0.621519  1
  Dy  Dy14  1  0.632311  0.164363  0.378481  1
  Dy  Dy15  1  0.132311  0.335637  0.121519  1
  Ho  Ho16  1  0.198250  0.502294  0.750023  1
  Ho  Ho17  1  0.698250  0.997706  0.749977  1
  Ho  Ho18  1  0.801750  0.497706  0.250023  1
  Ho  Ho19  1  0.301750  0.002294  0.249977  1
  Sn  Sn20  1  0.291845  0.033925  0.042238  1
  Sn  Sn21  1  0.791845  0.466075  0.457762  1
  Sn  Sn22  1  0.708155  0.966075  0.542238  1
  Sn  Sn23  1  0.208155  0.533925  0.957762  1
  Sn  Sn24  1  0.707813  0.966082  0.957621  1
  Sn  Sn25  1  0.207813  0.533918  0.542379  1
  Sn  Sn26  1  0.292187  0.033918  0.457621  1
  Sn  Sn27  1  0.792187  0.466082  0.042379  1
  Sn  Sn28  1  0.565028  0.619065  0.749994  1
  Sn  Sn29  1  0.065028  0.880935  0.750006  1
  Sn  Sn30  1  0.434972  0.380935  0.249994  1
  Sn  Sn31  1  0.934972  0.119065  0.250006  1
  Sn  Sn32  1  0.327996  0.145812  0.750054  1
  Sn  Sn33  1  0.827996  0.354188  0.749946  1
  Sn  Sn34  1  0.672004  0.854188  0.250054  1
  Sn  Sn35  1  0.172004  0.645812  0.249946  1
