# generated using pymatgen
data_Tb8Sc12Ga4Si11P
_symmetry_space_group_name_H-M   'P 1'
_cell_length_a   7.14797465
_cell_length_b   7.40495996
_cell_length_c   14.15768766
_cell_angle_alpha   90.07479638
_cell_angle_beta   89.92723753
_cell_angle_gamma   90.32187260
_symmetry_Int_Tables_number   1
_chemical_formula_structural   Tb8Sc12Ga4Si11P
_chemical_formula_sum   'Tb8 Sc12 Ga4 Si11 P1'
_cell_volume   749.35994506
_cell_formula_units_Z   1
loop_
 _symmetry_equiv_pos_site_id
 _symmetry_equiv_pos_as_xyz
  1  'x, y, z'
loop_
 _atom_site_type_symbol
 _atom_site_label
 _atom_site_symmetry_multiplicity
 _atom_site_fract_x
 _atom_site_fract_y
 _atom_site_fract_z
 _atom_site_occupancy
  Tb  Tb0  1  0.012604  0.172928  0.096448  1
  Tb  Tb1  1  0.990796  0.828762  0.899461  1
  Tb  Tb2  1  0.488612  0.675587  0.902323  1
  Tb  Tb3  1  0.990346  0.830983  0.603669  1
  Tb  Tb4  1  0.510897  0.321699  0.096422  1
  Tb  Tb5  1  0.008638  0.173978  0.400445  1
  Tb  Tb6  1  0.510976  0.324866  0.400393  1
  Tb  Tb7  1  0.491844  0.674561  0.600826  1
  Sc  Sc8  1  0.161245  0.500120  0.751889  1
  Sc  Sc9  1  0.836459  0.498697  0.249554  1
  Sc  Sc10  1  0.335893  0.001263  0.247404  1
  Sc  Sc11  1  0.663765  0.000348  0.751018  1
  Sc  Sc12  1  0.330106  0.172350  0.630306  1
  Sc  Sc13  1  0.668270  0.826537  0.374108  1
  Sc  Sc14  1  0.168942  0.673576  0.373110  1
  Sc  Sc15  1  0.667519  0.826215  0.124100  1
  Sc  Sc16  1  0.830523  0.324231  0.627785  1
  Sc  Sc17  1  0.327511  0.172626  0.873274  1
  Sc  Sc18  1  0.830558  0.322164  0.873579  1
  Sc  Sc19  1  0.173117  0.675874  0.123479  1
  Ga  Ga20  1  0.160913  0.459387  0.540460  1
  Ga  Ga21  1  0.839824  0.540377  0.462487  1
  Ga  Ga22  1  0.339274  0.960777  0.462339  1
  Ga  Ga23  1  0.840943  0.539879  0.037826  1
  Si  Si24  1  0.964526  0.881021  0.249148  1
  Si  Si25  1  0.465786  0.616060  0.248044  1
  Si  Si26  1  0.532203  0.382293  0.751731  1
  Si  Si27  1  0.296306  0.863850  0.751576  1
  Si  Si28  1  0.715155  0.125762  0.248235  1
  Si  Si29  1  0.214108  0.373697  0.248373  1
  Si  Si30  1  0.788347  0.628861  0.751837  1
  Si  Si31  1  0.657535  0.038698  0.540437  1
  Si  Si32  1  0.156742  0.461843  0.959970  1
  Si  Si33  1  0.657953  0.037447  0.959804  1
  Si  Si34  1  0.342611  0.963762  0.037242  1
  P  P35  1  0.029156  0.128919  0.750893  1
