# generated using pymatgen
data_Th4USi3Te2
_symmetry_space_group_name_H-M   'P 1'
_cell_length_a   3.76268800
_cell_length_b   3.76268800
_cell_length_c   17.79347500
_cell_angle_alpha   90.00000000
_cell_angle_beta   90.00000000
_cell_angle_gamma   90.00000000
_symmetry_Int_Tables_number   1
_chemical_formula_structural   Th4USi3Te2
_chemical_formula_sum   'Th4 U1 Si3 Te2'
_cell_volume   251.91683376
_cell_formula_units_Z   1
loop_
 _symmetry_equiv_pos_site_id
 _symmetry_equiv_pos_as_xyz
  1  'x, y, z'
loop_
 _atom_site_type_symbol
 _atom_site_label
 _atom_site_symmetry_multiplicity
 _atom_site_fract_x
 _atom_site_fract_y
 _atom_site_fract_z
 _atom_site_occupancy
  Th  Th0  1  0.000000  0.000000  0.206077  1
  Th  Th1  1  0.000000  0.000000  0.387924  1
  Th  Th2  1  0.000000  0.000000  0.575546  1
  Th  Th3  1  0.000000  0.000000  0.805609  1
  U  U4  1  0.000000  0.000000  0.027008  1
  Si  Si5  1  0.500000  0.500000  0.106023  1
  Si  Si6  1  0.500000  0.500000  0.294567  1
  Si  Si7  1  0.500000  0.500000  0.485459  1
  Te  Te8  1  0.500000  0.500000  0.696975  1
  Te  Te9  1  0.500000  0.500000  0.914811  1
