# generated using pymatgen
data_Mn2Ni(BO3)2
_symmetry_space_group_name_H-M   'P 1'
_cell_length_a   4.59626400
_cell_length_b   5.63286200
_cell_length_c   8.87938300
_cell_angle_alpha   90.00039701
_cell_angle_beta   90.00008257
_cell_angle_gamma   89.99875983
_symmetry_Int_Tables_number   1
_chemical_formula_structural   Mn2Ni(BO3)2
_chemical_formula_sum   'Mn4 Ni2 B4 O12'
_cell_volume   229.88829871
_cell_formula_units_Z   2
loop_
 _symmetry_equiv_pos_site_id
 _symmetry_equiv_pos_as_xyz
  1  'x, y, z'
loop_
 _atom_site_type_symbol
 _atom_site_label
 _atom_site_symmetry_multiplicity
 _atom_site_fract_x
 _atom_site_fract_y
 _atom_site_fract_z
 _atom_site_occupancy
  Mn  Mn0  1  0.499998  0.000001  0.687305  1
  Mn  Mn1  1  0.000007  0.500000  0.187264  1
  Mn  Mn2  1  0.999984  0.500001  0.812699  1
  Mn  Mn3  1  0.500014  0.999999  0.312726  1
  Ni  Ni4  1  0.999992  0.000026  0.999687  1
  Ni  Ni5  1  0.499998  0.499991  0.500201  1
  B  B6  1  0.045181  0.252820  0.500034  1
  B  B7  1  0.454823  0.752820  0.999988  1
  B  B8  1  0.954821  0.747176  0.500034  1
  B  B9  1  0.545176  0.247177  0.999992  1
  O  O10  1  0.255224  0.310686  0.999961  1
  O  O11  1  0.755224  0.189313  0.500052  1
  O  O12  1  0.244778  0.810686  0.500052  1
  O  O13  1  0.744777  0.689310  0.999960  1
  O  O14  1  0.298019  0.799239  0.132260  1
  O  O15  1  0.798024  0.700759  0.367749  1
  O  O16  1  0.298056  0.799192  0.867740  1
  O  O17  1  0.701945  0.200808  0.867744  1
  O  O18  1  0.798057  0.700808  0.632268  1
  O  O19  1  0.201939  0.299190  0.632271  1
  O  O20  1  0.701982  0.200763  0.132263  1
  O  O21  1  0.201982  0.299232  0.367751  1
