# generated using pymatgen
data_Tb13Ho(Er3Sn8)2
_symmetry_space_group_name_H-M   'P 1'
_cell_length_a   8.03067390
_cell_length_b   8.17799016
_cell_length_c   15.46770458
_cell_angle_alpha   89.93551431
_cell_angle_beta   90.04444581
_cell_angle_gamma   90.01479699
_symmetry_Int_Tables_number   1
_chemical_formula_structural   Tb13Ho(Er3Sn8)2
_chemical_formula_sum   'Tb13 Ho1 Er6 Sn16'
_cell_volume   1015.83699028
_cell_formula_units_Z   1
loop_
 _symmetry_equiv_pos_site_id
 _symmetry_equiv_pos_as_xyz
  1  'x, y, z'
loop_
 _atom_site_type_symbol
 _atom_site_label
 _atom_site_symmetry_multiplicity
 _atom_site_fract_x
 _atom_site_fract_y
 _atom_site_fract_z
 _atom_site_occupancy
  Tb  Tb0  1  0.134067  0.337095  0.121827  1
  Tb  Tb1  1  0.633406  0.163176  0.122509  1
  Tb  Tb2  1  0.133471  0.336847  0.377974  1
  Tb  Tb3  1  0.366673  0.837023  0.622374  1
  Tb  Tb4  1  0.866925  0.662644  0.877840  1
  Tb  Tb5  1  0.519393  0.320561  0.902781  1
  Tb  Tb6  1  0.019522  0.179388  0.597189  1
  Tb  Tb7  1  0.480844  0.679657  0.403237  1
  Tb  Tb8  1  0.980041  0.820663  0.097179  1
  Tb  Tb9  1  0.480948  0.679619  0.096798  1
  Tb  Tb10  1  0.981407  0.820653  0.403525  1
  Tb  Tb11  1  0.518744  0.321095  0.596831  1
  Tb  Tb12  1  0.019082  0.178503  0.902321  1
  Ho  Ho13  1  0.365761  0.837743  0.876408  1
  Er  Er14  1  0.865059  0.662487  0.622849  1
  Er  Er15  1  0.634546  0.162507  0.377606  1
  Er  Er16  1  0.197636  0.503249  0.750231  1
  Er  Er17  1  0.697809  0.996827  0.749435  1
  Er  Er18  1  0.802137  0.496960  0.250846  1
  Er  Er19  1  0.302717  0.003019  0.249814  1
  Sn  Sn20  1  0.294305  0.035893  0.040924  1
  Sn  Sn21  1  0.792993  0.461993  0.459120  1
  Sn  Sn22  1  0.707272  0.961955  0.541489  1
  Sn  Sn23  1  0.207615  0.538621  0.957592  1
  Sn  Sn24  1  0.702979  0.962467  0.957521  1
  Sn  Sn25  1  0.203005  0.537973  0.542724  1
  Sn  Sn26  1  0.296714  0.037700  0.457726  1
  Sn  Sn27  1  0.794205  0.463159  0.042459  1
  Sn  Sn28  1  0.563567  0.618436  0.749837  1
  Sn  Sn29  1  0.063185  0.881265  0.749789  1
  Sn  Sn30  1  0.437062  0.381504  0.250488  1
  Sn  Sn31  1  0.936414  0.117768  0.250486  1
  Sn  Sn32  1  0.328836  0.148788  0.749936  1
  Sn  Sn33  1  0.828809  0.351999  0.749657  1
  Sn  Sn34  1  0.671331  0.851996  0.250496  1
  Sn  Sn35  1  0.171518  0.648770  0.250183  1
