# generated using pymatgen
data_Nb10Ga3Ir2
_symmetry_space_group_name_H-M   'P 1'
_cell_length_a   9.93427200
_cell_length_b   9.93427200
_cell_length_c   5.18940900
_cell_angle_alpha   90.00000000
_cell_angle_beta   90.00000000
_cell_angle_gamma   90.00000000
_symmetry_Int_Tables_number   1
_chemical_formula_structural   Nb10Ga3Ir2
_chemical_formula_sum   'Nb20 Ga6 Ir4'
_cell_volume   512.14152963
_cell_formula_units_Z   2
loop_
 _symmetry_equiv_pos_site_id
 _symmetry_equiv_pos_as_xyz
  1  'x, y, z'
loop_
 _atom_site_type_symbol
 _atom_site_label
 _atom_site_symmetry_multiplicity
 _atom_site_fract_x
 _atom_site_fract_y
 _atom_site_fract_z
 _atom_site_occupancy
  Nb  Nb0  1  0.398365  0.392037  0.000000  1
  Nb  Nb1  1  0.892037  0.101635  0.500000  1
  Nb  Nb2  1  0.107963  0.898365  0.500000  1
  Nb  Nb3  1  0.601635  0.607963  0.000000  1
  Nb  Nb4  1  0.129477  0.463513  0.000000  1
  Nb  Nb5  1  0.963513  0.370523  0.500000  1
  Nb  Nb6  1  0.036487  0.629477  0.500000  1
  Nb  Nb7  1  0.870523  0.536487  0.000000  1
  Nb  Nb8  1  0.373574  0.964818  0.500000  1
  Nb  Nb9  1  0.626426  0.035182  0.500000  1
  Nb  Nb10  1  0.464818  0.126426  0.000000  1
  Nb  Nb11  1  0.535182  0.873574  0.000000  1
  Nb  Nb12  1  0.182179  0.183591  0.249510  1
  Nb  Nb13  1  0.683591  0.317821  0.749510  1
  Nb  Nb14  1  0.316409  0.682179  0.749510  1
  Nb  Nb15  1  0.817821  0.816409  0.249510  1
  Nb  Nb16  1  0.316409  0.682179  0.250490  1
  Nb  Nb17  1  0.683591  0.317821  0.250490  1
  Nb  Nb18  1  0.182179  0.183591  0.750490  1
  Nb  Nb19  1  0.817821  0.816409  0.750490  1
  Ga  Ga20  1  0.000000  0.000000  0.000000  1
  Ga  Ga21  1  0.500000  0.500000  0.500000  1
  Ga  Ga22  1  0.239471  0.433336  0.500000  1
  Ga  Ga23  1  0.760529  0.566664  0.500000  1
  Ga  Ga24  1  0.933336  0.260529  0.000000  1
  Ga  Ga25  1  0.066664  0.739471  0.000000  1
  Ir  Ir26  1  0.261068  0.933228  0.000000  1
  Ir  Ir27  1  0.433228  0.238932  0.500000  1
  Ir  Ir28  1  0.566772  0.761068  0.500000  1
  Ir  Ir29  1  0.738932  0.066772  0.000000  1
