# generated using pymatgen
data_Tb6MgU2Sn3Pt8
_symmetry_space_group_name_H-M   'P 1'
_cell_length_a   7.79501788
_cell_length_b   7.76587779
_cell_length_c   7.34874100
_cell_angle_alpha   90.00000000
_cell_angle_beta   90.00000000
_cell_angle_gamma   91.60661066
_symmetry_Int_Tables_number   1
_chemical_formula_structural   Tb6MgU2Sn3Pt8
_chemical_formula_sum   'Tb6 Mg1 U2 Sn3 Pt8'
_cell_volume   444.68230528
_cell_formula_units_Z   1
loop_
 _symmetry_equiv_pos_site_id
 _symmetry_equiv_pos_as_xyz
  1  'x, y, z'
loop_
 _atom_site_type_symbol
 _atom_site_label
 _atom_site_symmetry_multiplicity
 _atom_site_fract_x
 _atom_site_fract_y
 _atom_site_fract_z
 _atom_site_occupancy
  Tb  Tb0  1  0.679334  0.323391  0.500701  1
  Tb  Tb1  1  0.320666  0.676609  0.500701  1
  Tb  Tb2  1  0.840378  0.837158  0.501120  1
  Tb  Tb3  1  0.159622  0.162842  0.501120  1
  Tb  Tb4  1  0.337617  0.661307  0.999712  1
  Tb  Tb5  1  0.662383  0.338693  0.999712  1
  Mg  Mg6  1  0.500000  0.000000  0.248556  1
  U  U7  1  0.175333  0.183259  0.999213  1
  U  U8  1  0.824667  0.816741  0.999213  1
  Sn  Sn9  1  0.000000  0.500000  0.748480  1
  Sn  Sn10  1  0.500000  0.000000  0.752900  1
  Sn  Sn11  1  0.000000  0.500000  0.250337  1
  Pt  Pt12  1  0.865722  0.119001  0.222530  1
  Pt  Pt13  1  0.134278  0.880999  0.222530  1
  Pt  Pt14  1  0.365695  0.366725  0.741949  1
  Pt  Pt15  1  0.634305  0.633275  0.741949  1
  Pt  Pt16  1  0.126772  0.874435  0.779490  1
  Pt  Pt17  1  0.873228  0.125565  0.779490  1
  Pt  Pt18  1  0.629716  0.641932  0.255149  1
  Pt  Pt19  1  0.370284  0.358068  0.255149  1
