# generated using pymatgen
data_Yb9Pr8Y3Sn16
_symmetry_space_group_name_H-M   'P 1'
_cell_length_a   7.98209508
_cell_length_b   8.46950502
_cell_length_c   15.99517992
_cell_angle_alpha   90.05419424
_cell_angle_beta   89.91819281
_cell_angle_gamma   90.01516628
_symmetry_Int_Tables_number   1
_chemical_formula_structural   Yb9Pr8Y3Sn16
_chemical_formula_sum   'Yb9 Pr8 Y3 Sn16'
_cell_volume   1081.34282713
_cell_formula_units_Z   1
loop_
 _symmetry_equiv_pos_site_id
 _symmetry_equiv_pos_as_xyz
  1  'x, y, z'
loop_
 _atom_site_type_symbol
 _atom_site_label
 _atom_site_symmetry_multiplicity
 _atom_site_fract_x
 _atom_site_fract_y
 _atom_site_fract_z
 _atom_site_occupancy
  Yb  Yb0  1  0.167188  0.329192  0.123291  1
  Yb  Yb1  1  0.667798  0.171309  0.123501  1
  Yb  Yb2  1  0.167574  0.327899  0.377236  1
  Yb  Yb3  1  0.331998  0.828955  0.623201  1
  Yb  Yb4  1  0.832370  0.671113  0.876680  1
  Yb  Yb5  1  0.163236  0.502588  0.750284  1
  Yb  Yb6  1  0.663192  0.997592  0.749691  1
  Yb  Yb7  1  0.839251  0.496676  0.249598  1
  Yb  Yb8  1  0.336187  0.003938  0.248794  1
  Pr  Pr9  1  0.493677  0.316416  0.903658  1
  Pr  Pr10  1  0.994133  0.184096  0.595941  1
  Pr  Pr11  1  0.504949  0.684085  0.404141  1
  Pr  Pr12  1  0.006509  0.814563  0.096057  1
  Pr  Pr13  1  0.507038  0.683721  0.096384  1
  Pr  Pr14  1  0.007747  0.815696  0.404769  1
  Pr  Pr15  1  0.492978  0.316243  0.595935  1
  Pr  Pr16  1  0.993164  0.184724  0.904433  1
  Y  Y17  1  0.332289  0.828776  0.875588  1
  Y  Y18  1  0.832973  0.671648  0.623779  1
  Y  Y19  1  0.665574  0.172345  0.375902  1
  Sn  Sn20  1  0.328289  0.034879  0.037735  1
  Sn  Sn21  1  0.824609  0.462475  0.461867  1
  Sn  Sn22  1  0.675588  0.962482  0.537806  1
  Sn  Sn23  1  0.173077  0.538152  0.960403  1
  Sn  Sn24  1  0.667787  0.962670  0.959757  1
  Sn  Sn25  1  0.168488  0.537101  0.540143  1
  Sn  Sn26  1  0.331775  0.037097  0.460282  1
  Sn  Sn27  1  0.829113  0.463773  0.039069  1
  Sn  Sn28  1  0.534411  0.609910  0.748467  1
  Sn  Sn29  1  0.034199  0.889758  0.751530  1
  Sn  Sn30  1  0.467130  0.391993  0.250395  1
  Sn  Sn31  1  0.963783  0.106359  0.252226  1
  Sn  Sn32  1  0.289763  0.139184  0.750344  1
  Sn  Sn33  1  0.789940  0.360949  0.749031  1
  Sn  Sn34  1  0.710016  0.860817  0.251418  1
  Sn  Sn35  1  0.212206  0.640825  0.250661  1
