# generated using pymatgen
data_Sc3Pa2NbTc6
_symmetry_space_group_name_H-M   'P 1'
_cell_length_a   4.65106600
_cell_length_b   6.59089800
_cell_length_c   13.91184400
_cell_angle_alpha   90.00000000
_cell_angle_beta   90.00019736
_cell_angle_gamma   90.00000000
_symmetry_Int_Tables_number   1
_chemical_formula_structural   Sc3Pa2NbTc6
_chemical_formula_sum   'Sc6 Pa4 Nb2 Tc12'
_cell_volume   426.46342649
_cell_formula_units_Z   2
loop_
 _symmetry_equiv_pos_site_id
 _symmetry_equiv_pos_as_xyz
  1  'x, y, z'
loop_
 _atom_site_type_symbol
 _atom_site_label
 _atom_site_symmetry_multiplicity
 _atom_site_fract_x
 _atom_site_fract_y
 _atom_site_fract_z
 _atom_site_occupancy
  Sc  Sc0  1  0.000003  0.000000  0.991915  1
  Sc  Sc1  1  0.499984  0.499999  0.165472  1
  Sc  Sc2  1  0.999989  0.000000  0.334634  1
  Sc  Sc3  1  0.499992  0.499999  0.508072  1
  Sc  Sc4  1  0.000013  0.000000  0.673994  1
  Sc  Sc5  1  0.500013  0.499999  0.825940  1
  Pa  Pa6  1  0.000002  0.499999  0.991190  1
  Pa  Pa7  1  0.499991  0.000000  0.162355  1
  Pa  Pa8  1  0.999988  0.499999  0.337676  1
  Pa  Pa9  1  0.500000  0.000000  0.508788  1
  Nb  Nb10  1  0.000005  0.499999  0.669804  1
  Nb  Nb11  1  0.500007  0.000000  0.830168  1
  Tc  Tc12  1  0.500006  0.250502  0.997504  1
  Tc  Tc13  1  0.500006  0.749498  0.997504  1
  Tc  Tc14  1  0.999990  0.250606  0.165432  1
  Tc  Tc15  1  0.999990  0.749393  0.165432  1
  Tc  Tc16  1  0.499984  0.249392  0.334656  1
  Tc  Tc17  1  0.499984  0.750609  0.334656  1
  Tc  Tc18  1  0.999998  0.249514  0.502483  1
  Tc  Tc19  1  0.999998  0.750486  0.502483  1
  Tc  Tc20  1  0.500015  0.247583  0.667997  1
  Tc  Tc21  1  0.500015  0.752418  0.667997  1
  Tc  Tc22  1  0.000013  0.252408  0.831926  1
  Tc  Tc23  1  0.000013  0.747591  0.831926  1
