# generated using pymatgen
data_YSnHIr
_symmetry_space_group_name_H-M   'P 1'
_cell_length_a   4.45928700
_cell_length_b   7.26035400
_cell_length_c   8.33586800
_cell_angle_alpha   90.00000000
_cell_angle_beta   90.00000000
_cell_angle_gamma   90.00000000
_symmetry_Int_Tables_number   1
_chemical_formula_structural   YSnHIr
_chemical_formula_sum   'Y4 Sn4 H4 Ir4'
_cell_volume   269.88208077
_cell_formula_units_Z   4
loop_
 _symmetry_equiv_pos_site_id
 _symmetry_equiv_pos_as_xyz
  1  'x, y, z'
loop_
 _atom_site_type_symbol
 _atom_site_label
 _atom_site_symmetry_multiplicity
 _atom_site_fract_x
 _atom_site_fract_y
 _atom_site_fract_z
 _atom_site_occupancy
  Y  Y0  1  0.750000  0.015744  0.691973  1
  Y  Y1  1  0.250000  0.984256  0.308027  1
  Y  Y2  1  0.250000  0.484256  0.191973  1
  Y  Y3  1  0.750000  0.515744  0.808027  1
  Sn  Sn4  1  0.750000  0.657066  0.419743  1
  Sn  Sn5  1  0.250000  0.342934  0.580257  1
  Sn  Sn6  1  0.250000  0.842934  0.919743  1
  Sn  Sn7  1  0.750000  0.157066  0.080257  1
  H  H8  1  0.250000  0.457121  0.919731  1
  H  H9  1  0.750000  0.542879  0.080269  1
  H  H10  1  0.750000  0.042879  0.419731  1
  H  H11  1  0.250000  0.957121  0.580269  1
  Ir  Ir12  1  0.750000  0.774939  0.098716  1
  Ir  Ir13  1  0.250000  0.225061  0.901284  1
  Ir  Ir14  1  0.250000  0.725061  0.598716  1
  Ir  Ir15  1  0.750000  0.274939  0.401284  1
