# generated using pymatgen
data_CeNdTh(SnRh)3
_symmetry_space_group_name_H-M   'P 1'
_cell_length_a   7.53510489
_cell_length_b   7.61499251
_cell_length_c   4.08128400
_cell_angle_alpha   90.00000000
_cell_angle_beta   90.00000000
_cell_angle_gamma   120.12703002
_symmetry_Int_Tables_number   1
_chemical_formula_structural   CeNdTh(SnRh)3
_chemical_formula_sum   'Ce1 Nd1 Th1 Sn3 Rh3'
_cell_volume   202.54843557
_cell_formula_units_Z   1
loop_
 _symmetry_equiv_pos_site_id
 _symmetry_equiv_pos_as_xyz
  1  'x, y, z'
loop_
 _atom_site_type_symbol
 _atom_site_label
 _atom_site_symmetry_multiplicity
 _atom_site_fract_x
 _atom_site_fract_y
 _atom_site_fract_z
 _atom_site_occupancy
  Ce  Ce0  1  0.412790  0.413313  0.000000  1
  Nd  Nd1  1  0.589983  0.000665  0.000000  1
  Th  Th2  1  0.000014  0.585912  0.000000  1
  Sn  Sn3  1  0.741924  0.749806  0.500000  1
  Sn  Sn4  1  0.998169  0.243416  0.500000  1
  Sn  Sn5  1  0.260235  0.005867  0.500000  1
  Rh  Rh6  1  0.005277  0.993806  0.000000  1
  Rh  Rh7  1  0.674950  0.352690  0.500000  1
  Rh  Rh8  1  0.316659  0.654524  0.500000  1
