# generated using pymatgen
data_NaTm9(Bi3C)2
_symmetry_space_group_name_H-M   'P 1'
_cell_length_a   9.04921700
_cell_length_b   9.04921605
_cell_length_c   6.43116700
_cell_angle_alpha   90.00000000
_cell_angle_beta   90.00000000
_cell_angle_gamma   119.99999981
_symmetry_Int_Tables_number   1
_chemical_formula_structural   NaTm9(Bi3C)2
_chemical_formula_sum   'Na1 Tm9 Bi6 C2'
_cell_volume   456.08141942
_cell_formula_units_Z   1
loop_
 _symmetry_equiv_pos_site_id
 _symmetry_equiv_pos_as_xyz
  1  'x, y, z'
loop_
 _atom_site_type_symbol
 _atom_site_label
 _atom_site_symmetry_multiplicity
 _atom_site_fract_x
 _atom_site_fract_y
 _atom_site_fract_z
 _atom_site_occupancy
  Na  Na0  1  0.666667  0.333333  0.000000  1
  Tm  Tm1  1  0.333333  0.666667  0.000000  1
  Tm  Tm2  1  0.333333  0.666667  0.500000  1
  Tm  Tm3  1  0.666667  0.333333  0.500000  1
  Tm  Tm4  1  0.793820  0.794011  0.749876  1
  Tm  Tm5  1  0.205989  0.999810  0.749876  1
  Tm  Tm6  1  0.000190  0.206180  0.749876  1
  Tm  Tm7  1  0.205989  0.206180  0.250124  1
  Tm  Tm8  1  0.793820  0.999810  0.250124  1
  Tm  Tm9  1  0.000190  0.794011  0.250124  1
  Bi  Bi10  1  0.401617  0.401783  0.749949  1
  Bi  Bi11  1  0.598217  0.999833  0.749949  1
  Bi  Bi12  1  0.000167  0.598383  0.749949  1
  Bi  Bi13  1  0.598217  0.598383  0.250051  1
  Bi  Bi14  1  0.401617  0.999833  0.250051  1
  Bi  Bi15  1  0.000167  0.401783  0.250051  1
  C  C16  1  0.000000  0.000000  0.000000  1
  C  C17  1  0.000000  0.000000  0.500000  1
