# generated using pymatgen
data_TmLu5Pa2(ReB6)4
_symmetry_space_group_name_H-M   'P 1'
_cell_length_a   3.66100900
_cell_length_b   9.08390844
_cell_length_c   11.44706500
_cell_angle_alpha   90.27961736
_cell_angle_beta   90.00000000
_cell_angle_gamma   90.00000000
_symmetry_Int_Tables_number   1
_chemical_formula_structural   TmLu5Pa2(ReB6)4
_chemical_formula_sum   'Tm1 Lu5 Pa2 Re4 B24'
_cell_volume   380.68215768
_cell_formula_units_Z   1
loop_
 _symmetry_equiv_pos_site_id
 _symmetry_equiv_pos_as_xyz
  1  'x, y, z'
loop_
 _atom_site_type_symbol
 _atom_site_label
 _atom_site_symmetry_multiplicity
 _atom_site_fract_x
 _atom_site_fract_y
 _atom_site_fract_z
 _atom_site_occupancy
  Tm  Tm0  1  0.000000  0.823265  0.085378  1
  Lu  Lu1  1  0.000000  0.176745  0.914654  1
  Lu  Lu2  1  0.000000  0.944895  0.372269  1
  Lu  Lu3  1  0.000000  0.055275  0.627734  1
  Lu  Lu4  1  0.000000  0.443595  0.126161  1
  Lu  Lu5  1  0.000000  0.556043  0.873632  1
  Pa  Pa6  1  0.000000  0.320506  0.413324  1
  Pa  Pa7  1  0.000000  0.679615  0.586850  1
  Re  Re8  1  0.000000  0.636393  0.323443  1
  Re  Re9  1  0.000000  0.363306  0.677010  1
  Re  Re10  1  0.000000  0.140658  0.181341  1
  Re  Re11  1  0.000000  0.859860  0.818313  1
  B  B12  1  0.500000  0.553853  0.432855  1
  B  B13  1  0.500000  0.445934  0.567441  1
  B  B14  1  0.500000  0.053703  0.066384  1
  B  B15  1  0.500000  0.947032  0.933142  1
  B  B16  1  0.500000  0.750415  0.419086  1
  B  B17  1  0.500000  0.249551  0.581222  1
  B  B18  1  0.500000  0.249322  0.079232  1
  B  B19  1  0.500000  0.750763  0.920016  1
  B  B20  1  0.500000  0.792564  0.264762  1
  B  B21  1  0.500000  0.207229  0.735709  1
  B  B22  1  0.500000  0.292713  0.233518  1
  B  B23  1  0.500000  0.707339  0.766193  1
  B  B24  1  0.500000  0.630749  0.184157  1
  B  B25  1  0.500000  0.368686  0.816186  1
  B  B26  1  0.500000  0.131004  0.314615  1
  B  B27  1  0.500000  0.869325  0.685336  1
  B  B28  1  0.500000  0.981482  0.212054  1
  B  B29  1  0.500000  0.019206  0.788030  1
  B  B30  1  0.500000  0.482317  0.285859  1
  B  B31  1  0.500000  0.517356  0.714334  1
  B  B32  1  0.500000  0.602266  0.028386  1
  B  B33  1  0.500000  0.396886  0.971311  1
  B  B34  1  0.500000  0.105519  0.470893  1
  B  B35  1  0.500000  0.894632  0.529172  1
