# generated using pymatgen
data_Cs2KNp3O12
_symmetry_space_group_name_H-M   'P 1'
_cell_length_a   8.10548436
_cell_length_b   8.10548404
_cell_length_c   13.20348004
_cell_angle_alpha   73.22717269
_cell_angle_beta   73.22717190
_cell_angle_gamma   59.96146255
_symmetry_Int_Tables_number   1
_chemical_formula_structural   Cs2KNp3O12
_chemical_formula_sum   'Cs4 K2 Np6 O24'
_cell_volume   708.04484399
_cell_formula_units_Z   2
loop_
 _symmetry_equiv_pos_site_id
 _symmetry_equiv_pos_as_xyz
  1  'x, y, z'
loop_
 _atom_site_type_symbol
 _atom_site_label
 _atom_site_symmetry_multiplicity
 _atom_site_fract_x
 _atom_site_fract_y
 _atom_site_fract_z
 _atom_site_occupancy
  Cs  Cs0  1  0.906082  0.475263  0.676538  1
  Cs  Cs1  1  0.093918  0.524737  0.323462  1
  Cs  Cs2  1  0.524737  0.093918  0.823462  1
  Cs  Cs3  1  0.475263  0.906082  0.176538  1
  K  K4  1  0.227156  0.772844  0.750000  1
  K  K5  1  0.772844  0.227156  0.250000  1
  Np  Np6  1  0.500000  0.000000  0.500000  1
  Np  Np7  1  0.000000  0.500000  0.000000  1
  Np  Np8  1  0.000000  0.000000  0.500000  1
  Np  Np9  1  0.000000  0.000000  0.000000  1
  Np  Np10  1  0.500000  0.500000  0.500000  1
  Np  Np11  1  0.500000  0.500000  0.000000  1
  O  O12  1  0.894023  0.966819  0.644304  1
  O  O13  1  0.514127  0.893972  0.643935  1
  O  O14  1  0.261653  0.413013  0.031240  1
  O  O15  1  0.683848  0.215660  0.029269  1
  O  O16  1  0.893972  0.514127  0.143935  1
  O  O17  1  0.106028  0.485873  0.856065  1
  O  O18  1  0.485873  0.106028  0.356065  1
  O  O19  1  0.784340  0.316152  0.470731  1
  O  O20  1  0.105977  0.033181  0.355696  1
  O  O21  1  0.586987  0.738347  0.468760  1
  O  O22  1  0.456720  0.510454  0.143636  1
  O  O23  1  0.413013  0.261653  0.531240  1
  O  O24  1  0.510454  0.456720  0.643636  1
  O  O25  1  0.818345  0.932776  0.463221  1
  O  O26  1  0.181655  0.067224  0.536779  1
  O  O27  1  0.543280  0.489546  0.856364  1
  O  O28  1  0.932776  0.818345  0.963221  1
  O  O29  1  0.489546  0.543280  0.356364  1
  O  O30  1  0.738347  0.586987  0.968760  1
  O  O31  1  0.966819  0.894023  0.144304  1
  O  O32  1  0.067224  0.181655  0.036779  1
  O  O33  1  0.316152  0.784340  0.970731  1
  O  O34  1  0.033181  0.105977  0.855696  1
  O  O35  1  0.215660  0.683848  0.529269  1
