# generated using pymatgen
data_Sc10In2GaBi3
_symmetry_space_group_name_H-M   'P 1'
_cell_length_a   8.48488600
_cell_length_b   8.47977625
_cell_length_c   6.12485800
_cell_angle_alpha   90.00000000
_cell_angle_beta   90.00000000
_cell_angle_gamma   120.01993522
_symmetry_Int_Tables_number   1
_chemical_formula_structural   Sc10In2GaBi3
_chemical_formula_sum   'Sc10 In2 Ga1 Bi3'
_cell_volume   381.56610109
_cell_formula_units_Z   1
loop_
 _symmetry_equiv_pos_site_id
 _symmetry_equiv_pos_as_xyz
  1  'x, y, z'
loop_
 _atom_site_type_symbol
 _atom_site_label
 _atom_site_symmetry_multiplicity
 _atom_site_fract_x
 _atom_site_fract_y
 _atom_site_fract_z
 _atom_site_occupancy
  Sc  Sc0  1  0.329800  0.673771  0.999979  1
  Sc  Sc1  1  0.656030  0.326229  0.500021  1
  Sc  Sc2  1  0.656030  0.326229  0.999979  1
  Sc  Sc3  1  0.329800  0.673771  0.500021  1
  Sc  Sc4  1  0.233023  0.000000  0.250000  1
  Sc  Sc5  1  0.239758  0.222228  0.750000  1
  Sc  Sc6  1  0.017530  0.777772  0.750000  1
  Sc  Sc7  1  0.008813  0.240214  0.250000  1
  Sc  Sc8  1  0.768599  0.759786  0.250000  1
  Sc  Sc9  1  0.754825  0.000000  0.750000  1
  In  In10  1  0.996509  0.601631  0.250000  1
  In  In11  1  0.394878  0.398369  0.250000  1
  Ga  Ga12  1  0.398044  0.000000  0.750000  1
  Bi  Bi13  1  0.610227  0.000000  0.250000  1
  Bi  Bi14  1  0.607411  0.608690  0.750000  1
  Bi  Bi15  1  0.998721  0.391310  0.750000  1
