# generated using pymatgen
data_Ho7TmSc12Si15Rh
_symmetry_space_group_name_H-M   'P 1'
_cell_length_a   7.09661603
_cell_length_b   7.36035671
_cell_length_c   13.96941808
_cell_angle_alpha   89.88237009
_cell_angle_beta   89.81290660
_cell_angle_gamma   90.20888988
_symmetry_Int_Tables_number   1
_chemical_formula_structural   Ho7TmSc12Si15Rh
_chemical_formula_sum   'Ho7 Tm1 Sc12 Si15 Rh1'
_cell_volume   729.66305669
_cell_formula_units_Z   1
loop_
 _symmetry_equiv_pos_site_id
 _symmetry_equiv_pos_as_xyz
  1  'x, y, z'
loop_
 _atom_site_type_symbol
 _atom_site_label
 _atom_site_symmetry_multiplicity
 _atom_site_fract_x
 _atom_site_fract_y
 _atom_site_fract_z
 _atom_site_occupancy
  Ho  Ho0  1  0.012420  0.176011  0.096742  1
  Ho  Ho1  1  0.987983  0.823954  0.903060  1
  Ho  Ho2  1  0.486896  0.677161  0.903160  1
  Ho  Ho3  1  0.989340  0.821207  0.596216  1
  Ho  Ho4  1  0.512266  0.323733  0.095978  1
  Ho  Ho5  1  0.011321  0.180232  0.403736  1
  Ho  Ho6  1  0.508083  0.324430  0.403805  1
  Tm  Tm7  1  0.485790  0.670956  0.597843  1
  Sc  Sc8  1  0.163233  0.503332  0.744930  1
  Sc  Sc9  1  0.838232  0.497439  0.252024  1
  Sc  Sc10  1  0.339184  0.000163  0.250428  1
  Sc  Sc11  1  0.662196  0.996388  0.749292  1
  Sc  Sc12  1  0.330702  0.187129  0.621496  1
  Sc  Sc13  1  0.668231  0.823513  0.373835  1
  Sc  Sc14  1  0.171138  0.665376  0.378006  1
  Sc  Sc15  1  0.671477  0.824409  0.126426  1
  Sc  Sc16  1  0.834281  0.326640  0.623644  1
  Sc  Sc17  1  0.328184  0.177043  0.875473  1
  Sc  Sc18  1  0.831300  0.321875  0.875406  1
  Sc  Sc19  1  0.170093  0.676891  0.125117  1
  Si  Si20  1  0.033845  0.113935  0.749654  1
  Si  Si21  1  0.969770  0.883787  0.251639  1
  Si  Si22  1  0.467063  0.613972  0.248472  1
  Si  Si23  1  0.537179  0.385346  0.752675  1
  Si  Si24  1  0.286718  0.876059  0.749933  1
  Si  Si25  1  0.713877  0.129013  0.249643  1
  Si  Si26  1  0.215663  0.369942  0.248064  1
  Si  Si27  1  0.783701  0.627575  0.752184  1
  Si  Si28  1  0.835558  0.536659  0.460769  1
  Si  Si29  1  0.343383  0.962598  0.461335  1
  Si  Si30  1  0.843387  0.536288  0.038672  1
  Si  Si31  1  0.655340  0.033068  0.539134  1
  Si  Si32  1  0.155873  0.465504  0.961000  1
  Si  Si33  1  0.657275  0.034511  0.961688  1
  Si  Si34  1  0.344135  0.964563  0.038917  1
  Rh  Rh35  1  0.154881  0.469297  0.539604  1
