# generated using pymatgen
data_Tm4NiB16Ir3
_symmetry_space_group_name_H-M   'P 1'
_cell_length_a   3.51934600
_cell_length_b   5.92264523
_cell_length_c   11.46870843
_cell_angle_alpha   89.89994249
_cell_angle_beta   89.99999002
_cell_angle_gamma   90.00002595
_symmetry_Int_Tables_number   1
_chemical_formula_structural   Tm4NiB16Ir3
_chemical_formula_sum   'Tm4 Ni1 B16 Ir3'
_cell_volume   239.05153369
_cell_formula_units_Z   1
loop_
 _symmetry_equiv_pos_site_id
 _symmetry_equiv_pos_as_xyz
  1  'x, y, z'
loop_
 _atom_site_type_symbol
 _atom_site_label
 _atom_site_symmetry_multiplicity
 _atom_site_fract_x
 _atom_site_fract_y
 _atom_site_fract_z
 _atom_site_occupancy
  Tm  Tm0  1  0.000000  0.629603  0.354534  1
  Tm  Tm1  1  0.000000  0.371762  0.647275  1
  Tm  Tm2  1  0.999999  0.132139  0.149851  1
  Tm  Tm3  1  0.999999  0.868702  0.846944  1
  Ni  Ni4  1  0.999999  0.852456  0.599968  1
  B  B5  1  0.500000  0.793498  0.188386  1
  B  B6  1  0.500000  0.208097  0.810088  1
  B  B7  1  0.500000  0.291796  0.314170  1
  B  B8  1  0.500000  0.710787  0.683971  1
  B  B9  1  0.500000  0.865648  0.029560  1
  B  B10  1  0.500000  0.134762  0.968244  1
  B  B11  1  0.500000  0.366247  0.468449  1
  B  B12  1  0.500000  0.638048  0.532731  1
  B  B13  1  0.500000  0.887500  0.453274  1
  B  B14  1  0.500000  0.115008  0.545907  1
  B  B15  1  0.500000  0.386766  0.047032  1
  B  B16  1  0.500000  0.613173  0.951831  1
  B  B17  1  0.500000  0.979160  0.307676  1
  B  B18  1  0.500000  0.019495  0.689433  1
  B  B19  1  0.500000  0.474465  0.192980  1
  B  B20  1  0.500000  0.524659  0.805383  1
  Ir  Ir21  1  0.000001  0.647882  0.097763  1
  Ir  Ir22  1  0.000000  0.355507  0.904803  1
  Ir  Ir23  1  0.000000  0.132839  0.409748  1
