# generated using pymatgen
data_Sc2Ta(Ni10B3)2
_symmetry_space_group_name_H-M   'P 1'
_cell_length_a   7.51271162
_cell_length_b   7.51271142
_cell_length_c   7.51271100
_cell_angle_alpha   59.99999743
_cell_angle_beta   59.99999831
_cell_angle_gamma   59.99999800
_symmetry_Int_Tables_number   1
_chemical_formula_structural   Sc2Ta(Ni10B3)2
_chemical_formula_sum   'Sc2 Ta1 Ni20 B6'
_cell_volume   299.83000316
_cell_formula_units_Z   1
loop_
 _symmetry_equiv_pos_site_id
 _symmetry_equiv_pos_as_xyz
  1  'x, y, z'
loop_
 _atom_site_type_symbol
 _atom_site_label
 _atom_site_symmetry_multiplicity
 _atom_site_fract_x
 _atom_site_fract_y
 _atom_site_fract_z
 _atom_site_occupancy
  Sc  Sc0  1  0.750000  0.750000  0.750000  1
  Sc  Sc1  1  0.250000  0.250000  0.250000  1
  Ta  Ta2  1  0.000000  0.000000  0.000000  1
  Ni  Ni3  1  0.614249  0.614249  0.157253  1
  Ni  Ni4  1  0.614249  0.157253  0.614249  1
  Ni  Ni5  1  0.157253  0.614249  0.614249  1
  Ni  Ni6  1  0.614249  0.614249  0.614249  1
  Ni  Ni7  1  0.385751  0.385751  0.842747  1
  Ni  Ni8  1  0.385751  0.842747  0.385751  1
  Ni  Ni9  1  0.842747  0.385751  0.385751  1
  Ni  Ni10  1  0.385751  0.385751  0.385751  1
  Ni  Ni11  1  0.000000  0.000000  0.341743  1
  Ni  Ni12  1  0.658257  0.000000  0.341743  1
  Ni  Ni13  1  0.000000  0.658257  0.341743  1
  Ni  Ni14  1  0.658257  0.341743  0.000000  1
  Ni  Ni15  1  0.000000  0.341743  0.000000  1
  Ni  Ni16  1  0.000000  0.341743  0.658257  1
  Ni  Ni17  1  0.341743  0.658257  0.000000  1
  Ni  Ni18  1  0.341743  0.000000  0.658257  1
  Ni  Ni19  1  0.341743  0.000000  0.000000  1
  Ni  Ni20  1  0.000000  0.000000  0.658257  1
  Ni  Ni21  1  0.000000  0.658257  0.000000  1
  Ni  Ni22  1  0.658257  0.000000  0.000000  1
  B  B23  1  0.731808  0.731808  0.268192  1
  B  B24  1  0.268192  0.731808  0.268192  1
  B  B25  1  0.731808  0.268192  0.268192  1
  B  B26  1  0.268192  0.268192  0.731808  1
  B  B27  1  0.731808  0.268192  0.731808  1
  B  B28  1  0.268192  0.731808  0.731808  1
