# generated using pymatgen
data_ErTaSb2Pb4O13
_symmetry_space_group_name_H-M   'P 1'
_cell_length_a   7.68069901
_cell_length_b   7.64399105
_cell_length_c   7.64399098
_cell_angle_alpha   59.73866807
_cell_angle_beta   59.78548382
_cell_angle_gamma   59.78547314
_symmetry_Int_Tables_number   1
_chemical_formula_structural   ErTaSb2Pb4O13
_chemical_formula_sum   'Er1 Ta1 Sb2 Pb4 O13'
_cell_volume   315.68267473
_cell_formula_units_Z   1
loop_
 _symmetry_equiv_pos_site_id
 _symmetry_equiv_pos_as_xyz
  1  'x, y, z'
loop_
 _atom_site_type_symbol
 _atom_site_label
 _atom_site_symmetry_multiplicity
 _atom_site_fract_x
 _atom_site_fract_y
 _atom_site_fract_z
 _atom_site_occupancy
  Er  Er0  1  0.502757  0.499795  0.499795  1
  Ta  Ta1  1  0.002307  0.502063  0.502063  1
  Sb  Sb2  1  0.499130  0.500236  0.001589  1
  Sb  Sb3  1  0.499130  0.001589  0.500236  1
  Pb  Pb4  1  0.001039  0.998596  0.998596  1
  Pb  Pb5  1  0.499270  0.001477  0.001477  1
  Pb  Pb6  1  0.002123  0.011008  0.497746  1
  Pb  Pb7  1  0.002123  0.497746  0.011008  1
  O  O8  1  0.858869  0.410579  0.410579  1
  O  O9  1  0.417182  0.817068  0.817068  1
  O  O10  1  0.416204  0.416137  0.854661  1
  O  O11  1  0.808321  0.807539  0.425064  1
  O  O12  1  0.808321  0.425064  0.807539  1
  O  O13  1  0.416204  0.854661  0.416137  1
  O  O14  1  0.156616  0.576369  0.576369  1
  O  O15  1  0.581304  0.185310  0.185310  1
  O  O16  1  0.578988  0.581057  0.151496  1
  O  O17  1  0.187695  0.189561  0.576379  1
  O  O18  1  0.187695  0.576379  0.189561  1
  O  O19  1  0.578988  0.151496  0.581057  1
  O  O20  1  0.120729  0.121268  0.121268  1
