# generated using pymatgen
data_ErAl2Zn2(GaCu)4
_symmetry_space_group_name_H-M   'P 1'
_cell_length_a   5.21448761
_cell_length_b   6.66239574
_cell_length_c   6.66239665
_cell_angle_alpha   99.18169476
_cell_angle_beta   113.03773704
_cell_angle_gamma   66.96226369
_symmetry_Int_Tables_number   1
_chemical_formula_structural   ErAl2Zn2(GaCu)4
_chemical_formula_sum   'Er1 Al2 Zn2 Ga4 Cu4'
_cell_volume   196.00591494
_cell_formula_units_Z   1
loop_
 _symmetry_equiv_pos_site_id
 _symmetry_equiv_pos_as_xyz
  1  'x, y, z'
loop_
 _atom_site_type_symbol
 _atom_site_label
 _atom_site_symmetry_multiplicity
 _atom_site_fract_x
 _atom_site_fract_y
 _atom_site_fract_z
 _atom_site_occupancy
  Er  Er0  1  0.000000  0.000000  0.000000  1
  Al  Al1  1  0.714603  0.785397  0.214603  1
  Al  Al2  1  0.285397  0.214603  0.785397  1
  Zn  Zn3  1  0.500000  0.781695  0.781695  1
  Zn  Zn4  1  0.500000  0.218305  0.218305  1
  Ga  Ga5  1  0.654840  0.345160  0.654840  1
  Ga  Ga6  1  0.345160  0.654840  0.345160  1
  Ga  Ga7  1  0.000000  0.346709  0.346709  1
  Ga  Ga8  1  0.000000  0.653291  0.653291  1
  Cu  Cu9  1  0.500000  0.000000  0.500000  1
  Cu  Cu10  1  0.000000  0.000000  0.500000  1
  Cu  Cu11  1  0.500000  0.500000  0.000000  1
  Cu  Cu12  1  0.000000  0.500000  0.000000  1
