# generated using pymatgen
data_Tb3NdCdRu
_symmetry_space_group_name_H-M   'P 1'
_cell_length_a   9.71925007
_cell_length_b   9.71888205
_cell_length_c   9.71888274
_cell_angle_alpha   60.00250726
_cell_angle_beta   59.99874990
_cell_angle_gamma   59.99874603
_symmetry_Int_Tables_number   1
_chemical_formula_structural   Tb3NdCdRu
_chemical_formula_sum   'Tb12 Nd4 Cd4 Ru4'
_cell_volume   649.15801172
_cell_formula_units_Z   4
loop_
 _symmetry_equiv_pos_site_id
 _symmetry_equiv_pos_as_xyz
  1  'x, y, z'
loop_
 _atom_site_type_symbol
 _atom_site_label
 _atom_site_symmetry_multiplicity
 _atom_site_fract_x
 _atom_site_fract_y
 _atom_site_fract_z
 _atom_site_occupancy
  Tb  Tb0  1  0.597607  0.594761  0.594761  1
  Tb  Tb1  1  0.594761  0.597607  0.212869  1
  Tb  Tb2  1  0.594761  0.212869  0.597607  1
  Tb  Tb3  1  0.212869  0.594761  0.594761  1
  Tb  Tb4  1  0.062508  0.437492  0.437492  1
  Tb  Tb5  1  0.437492  0.062508  0.062508  1
  Tb  Tb6  1  0.439114  0.060886  0.439114  1
  Tb  Tb7  1  0.060886  0.439114  0.060886  1
  Tb  Tb8  1  0.439114  0.439114  0.060886  1
  Tb  Tb9  1  0.060886  0.060886  0.439114  1
  Tb  Tb10  1  0.194063  0.805937  0.805937  1
  Tb  Tb11  1  0.805937  0.194063  0.194063  1
  Nd  Nd12  1  0.811972  0.188028  0.811972  1
  Nd  Nd13  1  0.188028  0.811972  0.188028  1
  Nd  Nd14  1  0.811972  0.811972  0.188028  1
  Nd  Nd15  1  0.188028  0.188028  0.811972  1
  Cd  Cd16  1  0.830898  0.828603  0.828603  1
  Cd  Cd17  1  0.828603  0.830898  0.511896  1
  Cd  Cd18  1  0.828603  0.511896  0.830898  1
  Cd  Cd19  1  0.511896  0.828603  0.828603  1
  Ru  Ru20  1  0.393614  0.386576  0.386576  1
  Ru  Ru21  1  0.386576  0.393614  0.833235  1
  Ru  Ru22  1  0.386576  0.833235  0.393614  1
  Ru  Ru23  1  0.833235  0.386576  0.386576  1
