# generated using pymatgen
data_Er2Pa(InRu)3
_symmetry_space_group_name_H-M   'P 1'
_cell_length_a   7.53042100
_cell_length_b   7.79001667
_cell_length_c   3.81860400
_cell_angle_alpha   90.00000000
_cell_angle_beta   90.00000000
_cell_angle_gamma   121.14705505
_symmetry_Int_Tables_number   1
_chemical_formula_structural   Er2Pa(InRu)3
_chemical_formula_sum   'Er2 Pa1 In3 Ru3'
_cell_volume   191.71502874
_cell_formula_units_Z   1
loop_
 _symmetry_equiv_pos_site_id
 _symmetry_equiv_pos_as_xyz
  1  'x, y, z'
loop_
 _atom_site_type_symbol
 _atom_site_label
 _atom_site_symmetry_multiplicity
 _atom_site_fract_x
 _atom_site_fract_y
 _atom_site_fract_z
 _atom_site_occupancy
  Er  Er0  1  0.403327  0.404002  0.500000  1
  Er  Er1  1  0.596673  0.000675  0.500000  1
  Pa  Pa2  1  0.000000  0.583648  0.500000  1
  In  In3  1  0.276343  0.015376  0.000000  1
  In  In4  1  0.723657  0.739033  0.000000  1
  In  In5  1  0.000000  0.239437  0.000000  1
  Ru  Ru6  1  0.712008  0.371539  0.000000  1
  Ru  Ru7  1  0.287992  0.659532  0.000000  1
  Ru  Ru8  1  0.000000  0.986758  0.500000  1
