# generated using pymatgen
data_Y3Er7(CoBi2)2
_symmetry_space_group_name_H-M   'P 1'
_cell_length_a   7.94604889
_cell_length_b   8.85143600
_cell_length_c   12.39932144
_cell_angle_alpha   90.00000000
_cell_angle_beta   90.05479631
_cell_angle_gamma   90.00000000
_symmetry_Int_Tables_number   1
_chemical_formula_structural   Y3Er7(CoBi2)2
_chemical_formula_sum   'Y6 Er14 Co4 Bi8'
_cell_volume   872.09277155
_cell_formula_units_Z   2
loop_
 _symmetry_equiv_pos_site_id
 _symmetry_equiv_pos_as_xyz
  1  'x, y, z'
loop_
 _atom_site_type_symbol
 _atom_site_label
 _atom_site_symmetry_multiplicity
 _atom_site_fract_x
 _atom_site_fract_y
 _atom_site_fract_z
 _atom_site_occupancy
  Y  Y0  1  0.654532  0.750000  0.700258  1
  Y  Y1  1  0.345468  0.250000  0.299742  1
  Y  Y2  1  0.154797  0.250000  0.799657  1
  Y  Y3  1  0.845203  0.750000  0.200343  1
  Y  Y4  1  0.122738  0.750000  0.811378  1
  Y  Y5  1  0.877262  0.250000  0.188622  1
  Er  Er6  1  0.620399  0.250000  0.685415  1
  Er  Er7  1  0.379601  0.750000  0.314585  1
  Er  Er8  1  0.553125  0.750000  0.996804  1
  Er  Er9  1  0.446875  0.250000  0.003196  1
  Er  Er10  1  0.052221  0.250000  0.502467  1
  Er  Er11  1  0.947779  0.750000  0.497533  1
  Er  Er12  1  0.826799  0.463543  0.936329  1
  Er  Er13  1  0.173201  0.536457  0.063671  1
  Er  Er14  1  0.327060  0.535653  0.563660  1
  Er  Er15  1  0.173201  0.963543  0.063671  1
  Er  Er16  1  0.672940  0.464347  0.436340  1
  Er  Er17  1  0.826799  0.036457  0.936329  1
  Er  Er18  1  0.672940  0.035653  0.436340  1
  Er  Er19  1  0.327060  0.964347  0.563660  1
  Co  Co20  1  0.936429  0.750000  0.992105  1
  Co  Co21  1  0.063571  0.250000  0.007895  1
  Co  Co22  1  0.438065  0.250000  0.507984  1
  Co  Co23  1  0.561935  0.750000  0.492016  1
  Bi  Bi24  1  0.932313  0.008049  0.672383  1
  Bi  Bi25  1  0.067687  0.991951  0.327617  1
  Bi  Bi26  1  0.434575  0.993601  0.827179  1
  Bi  Bi27  1  0.067687  0.508049  0.327617  1
  Bi  Bi28  1  0.565425  0.006399  0.172821  1
  Bi  Bi29  1  0.932313  0.491951  0.672383  1
  Bi  Bi30  1  0.565425  0.493601  0.172821  1
  Bi  Bi31  1  0.434575  0.506399  0.827179  1
