# generated using pymatgen
data_Tb16Tl3In(RuRh)2
_symmetry_space_group_name_H-M   'P 1'
_cell_length_a   9.70716496
_cell_length_b   9.74131943
_cell_length_c   9.71444019
_cell_angle_alpha   59.90843025
_cell_angle_beta   59.80959434
_cell_angle_gamma   59.88353443
_symmetry_Int_Tables_number   1
_chemical_formula_structural   Tb16Tl3In(RuRh)2
_chemical_formula_sum   'Tb16 Tl3 In1 Ru2 Rh2'
_cell_volume   647.59196829
_cell_formula_units_Z   1
loop_
 _symmetry_equiv_pos_site_id
 _symmetry_equiv_pos_as_xyz
  1  'x, y, z'
loop_
 _atom_site_type_symbol
 _atom_site_label
 _atom_site_symmetry_multiplicity
 _atom_site_fract_x
 _atom_site_fract_y
 _atom_site_fract_z
 _atom_site_occupancy
  Tb  Tb0  1  0.812245  0.807479  0.188963  1
  Tb  Tb1  1  0.811188  0.189614  0.809585  1
  Tb  Tb2  1  0.188810  0.190929  0.811653  1
  Tb  Tb3  1  0.651982  0.045345  0.651212  1
  Tb  Tb4  1  0.059680  0.060172  0.442036  1
  Tb  Tb5  1  0.442657  0.438667  0.059993  1
  Tb  Tb6  1  0.651982  0.651461  0.651212  1
  Tb  Tb7  1  0.812245  0.191313  0.188963  1
  Tb  Tb8  1  0.188810  0.808608  0.811653  1
  Tb  Tb9  1  0.044624  0.651746  0.651884  1
  Tb  Tb10  1  0.442657  0.058683  0.059993  1
  Tb  Tb11  1  0.438191  0.061858  0.438094  1
  Tb  Tb12  1  0.056992  0.442075  0.058858  1
  Tb  Tb13  1  0.652353  0.651618  0.044410  1
  Tb  Tb14  1  0.191272  0.808882  0.190964  1
  Tb  Tb15  1  0.059680  0.438112  0.442036  1
  Tl  Tl16  1  0.416678  0.414257  0.415217  1
  Tl  Tl17  1  0.416033  0.414180  0.755605  1
  Tl  Tl18  1  0.416678  0.753848  0.415217  1
  In  In19  1  0.749636  0.416469  0.417425  1
  Ru  Ru20  1  0.857613  0.422433  0.857636  1
  Ru  Ru21  1  0.857613  0.862319  0.857636  1
  Rh  Rh22  1  0.857615  0.860009  0.422366  1
  Rh  Rh23  1  0.422764  0.859923  0.857389  1
