# generated using pymatgen
data_La2TiCrO8
_symmetry_space_group_name_H-M   'P 1'
_cell_length_a   6.28390983
_cell_length_b   6.28390869
_cell_length_c   6.28390847
_cell_angle_alpha   106.06558477
_cell_angle_beta   106.06557461
_cell_angle_gamma   116.52095448
_symmetry_Int_Tables_number   1
_chemical_formula_structural   La2TiCrO8
_chemical_formula_sum   'La2 Ti1 Cr1 O8'
_cell_volume   188.82071088
_cell_formula_units_Z   1
loop_
 _symmetry_equiv_pos_site_id
 _symmetry_equiv_pos_as_xyz
  1  'x, y, z'
loop_
 _atom_site_type_symbol
 _atom_site_label
 _atom_site_symmetry_multiplicity
 _atom_site_fract_x
 _atom_site_fract_y
 _atom_site_fract_z
 _atom_site_occupancy
  La  La0  1  0.000000  0.000000  0.000000  1
  La  La1  1  0.250000  0.750000  0.500000  1
  Ti  Ti2  1  0.750000  0.250000  0.500000  1
  Cr  Cr3  1  0.500000  0.500000  0.000000  1
  O  O4  1  0.345299  0.518572  0.173271  1
  O  O5  1  0.381855  0.064044  0.317811  1
  O  O6  1  0.746232  0.064044  0.682189  1
  O  O7  1  0.345299  0.172028  0.826729  1
  O  O8  1  0.827972  0.654701  0.173271  1
  O  O9  1  0.935956  0.253768  0.317811  1
  O  O10  1  0.935956  0.618145  0.682189  1
  O  O11  1  0.481428  0.654701  0.826729  1
