# generated using pymatgen
data_RbCuP2O7
_symmetry_space_group_name_H-M   'P 1'
_cell_length_a   5.08883871
_cell_length_b   8.04210745
_cell_length_c   8.31519244
_cell_angle_alpha   103.71410494
_cell_angle_beta   89.74470723
_cell_angle_gamma   96.77005059
_symmetry_Int_Tables_number   1
_chemical_formula_structural   RbCuP2O7
_chemical_formula_sum   'Rb2 Cu2 P4 O14'
_cell_volume   328.19496681
_cell_formula_units_Z   2
loop_
 _symmetry_equiv_pos_site_id
 _symmetry_equiv_pos_as_xyz
  1  'x, y, z'
loop_
 _atom_site_type_symbol
 _atom_site_label
 _atom_site_symmetry_multiplicity
 _atom_site_fract_x
 _atom_site_fract_y
 _atom_site_fract_z
 _atom_site_occupancy
  Rb  Rb0  1  0.806353  0.701113  0.576086  1
  Rb  Rb1  1  0.193647  0.298887  0.423914  1
  Cu  Cu2  1  0.824170  0.850957  0.094933  1
  Cu  Cu3  1  0.175830  0.149043  0.905067  1
  P  P4  1  0.704713  0.303392  0.083120  1
  P  P5  1  0.295287  0.696608  0.916880  1
  P  P6  1  0.301799  0.766081  0.260709  1
  P  P7  1  0.698201  0.233919  0.739291  1
  O  O8  1  0.772784  0.442082  0.235916  1
  O  O9  1  0.227216  0.557918  0.764084  1
  O  O10  1  0.589866  0.776452  0.912684  1
  O  O11  1  0.410134  0.223548  0.087316  1
  O  O12  1  0.314640  0.680129  0.400693  1
  O  O13  1  0.685360  0.319871  0.599307  1
  O  O14  1  0.730836  0.377630  0.916479  1
  O  O15  1  0.269164  0.622370  0.083521  1
  O  O16  1  0.450345  0.105684  0.757722  1
  O  O17  1  0.549655  0.894316  0.242278  1
  O  O18  1  0.947143  0.133347  0.723891  1
  O  O19  1  0.052857  0.866653  0.276109  1
  O  O20  1  0.110148  0.843818  0.948583  1
  O  O21  1  0.889852  0.156182  0.051417  1
