# generated using pymatgen
data_HoEr5Sc4(In2Pt)4
_symmetry_space_group_name_H-M   'P 1'
_cell_length_a   3.57841900
_cell_length_b   7.93868300
_cell_length_c   17.80508600
_cell_angle_alpha   89.99769321
_cell_angle_beta   90.00000000
_cell_angle_gamma   90.00000000
_symmetry_Int_Tables_number   1
_chemical_formula_structural   HoEr5Sc4(In2Pt)4
_chemical_formula_sum   'Ho1 Er5 Sc4 In8 Pt4'
_cell_volume   505.80570921
_cell_formula_units_Z   1
loop_
 _symmetry_equiv_pos_site_id
 _symmetry_equiv_pos_as_xyz
  1  'x, y, z'
loop_
 _atom_site_type_symbol
 _atom_site_label
 _atom_site_symmetry_multiplicity
 _atom_site_fract_x
 _atom_site_fract_y
 _atom_site_fract_z
 _atom_site_occupancy
  Ho  Ho0  1  0.000000  0.500000  0.500000  1
  Er  Er1  1  0.000000  0.242240  0.217469  1
  Er  Er2  1  0.000000  0.757760  0.782531  1
  Er  Er3  1  0.000000  0.257765  0.717460  1
  Er  Er4  1  0.000000  0.742235  0.282540  1
  Er  Er5  1  0.000000  0.000000  0.000000  1
  Sc  Sc6  1  0.000000  0.117523  0.414281  1
  Sc  Sc7  1  0.000000  0.882477  0.585719  1
  Sc  Sc8  1  0.000000  0.382497  0.914300  1
  Sc  Sc9  1  0.000000  0.617503  0.085700  1
  In  In10  1  0.500000  0.414572  0.351078  1
  In  In11  1  0.500000  0.585428  0.648922  1
  In  In12  1  0.500000  0.085323  0.851289  1
  In  In13  1  0.500000  0.914677  0.148711  1
  In  In14  1  0.500000  0.304791  0.060769  1
  In  In15  1  0.500000  0.695209  0.939231  1
  In  In16  1  0.500000  0.194809  0.560832  1
  In  In17  1  0.500000  0.805191  0.439168  1
  Pt  Pt18  1  0.500000  0.030479  0.307315  1
  Pt  Pt19  1  0.500000  0.969521  0.692685  1
  Pt  Pt20  1  0.500000  0.469480  0.807377  1
  Pt  Pt21  1  0.500000  0.530520  0.192623  1
