# generated using pymatgen
data_DySc3Al8
_symmetry_space_group_name_H-M   'P 1'
_cell_length_a   9.40123794
_cell_length_b   9.40123792
_cell_length_c   9.40123694
_cell_angle_alpha   33.45658354
_cell_angle_beta   33.45658088
_cell_angle_gamma   33.45658842
_symmetry_Int_Tables_number   1
_chemical_formula_structural   DySc3Al8
_chemical_formula_sum   'Dy1 Sc3 Al8'
_cell_volume   224.91062207
_cell_formula_units_Z   1
loop_
 _symmetry_equiv_pos_site_id
 _symmetry_equiv_pos_as_xyz
  1  'x, y, z'
loop_
 _atom_site_type_symbol
 _atom_site_label
 _atom_site_symmetry_multiplicity
 _atom_site_fract_x
 _atom_site_fract_y
 _atom_site_fract_z
 _atom_site_occupancy
  Dy  Dy0  1  0.687549  0.687549  0.687549  1
  Sc  Sc1  1  0.187421  0.187421  0.187421  1
  Sc  Sc2  1  0.813266  0.813266  0.813266  1
  Sc  Sc3  1  0.311555  0.311555  0.311555  1
  Al  Al4  1  0.999637  0.999637  0.999637  1
  Al  Al5  1  0.500234  0.500234  0.500234  1
  Al  Al6  1  0.751911  0.250833  0.250833  1
  Al  Al7  1  0.247835  0.749463  0.749463  1
  Al  Al8  1  0.250833  0.751911  0.250833  1
  Al  Al9  1  0.749463  0.247835  0.749463  1
  Al  Al10  1  0.250833  0.250833  0.751911  1
  Al  Al11  1  0.749463  0.749463  0.247835  1
