# generated using pymatgen
data_Pr2Y4Ir11Rh7
_symmetry_space_group_name_H-M   'P 1'
_cell_length_a   5.34206272
_cell_length_b   5.33727001
_cell_length_c   17.49678400
_cell_angle_alpha   89.99999983
_cell_angle_beta   90.00151580
_cell_angle_gamma   119.97031032
_symmetry_Int_Tables_number   1
_chemical_formula_structural   Pr2Y4Ir11Rh7
_chemical_formula_sum   'Pr2 Y4 Ir11 Rh7'
_cell_volume   432.16229207
_cell_formula_units_Z   1
loop_
 _symmetry_equiv_pos_site_id
 _symmetry_equiv_pos_as_xyz
  1  'x, y, z'
loop_
 _atom_site_type_symbol
 _atom_site_label
 _atom_site_symmetry_multiplicity
 _atom_site_fract_x
 _atom_site_fract_y
 _atom_site_fract_z
 _atom_site_occupancy
  Pr  Pr0  1  0.333257  0.666629  0.749965  1
  Pr  Pr1  1  0.666470  0.333234  0.250192  1
  Y  Y2  1  0.332948  0.666474  0.958871  1
  Y  Y3  1  0.667535  0.333767  0.040957  1
  Y  Y4  1  0.666743  0.333371  0.459079  1
  Y  Y5  1  0.333130  0.666566  0.540962  1
  Ir  Ir6  1  0.167418  0.832147  0.374372  1
  Ir  Ir7  1  0.167418  0.335270  0.374372  1
  Ir  Ir8  1  0.665340  0.832670  0.374011  1
  Ir  Ir9  1  0.832522  0.167735  0.625613  1
  Ir  Ir10  1  0.832522  0.664787  0.625613  1
  Ir  Ir11  1  0.335208  0.167604  0.625487  1
  Ir  Ir12  1  0.832073  0.167356  0.874534  1
  Ir  Ir13  1  0.832073  0.664718  0.874534  1
  Ir  Ir14  1  0.334842  0.167421  0.874739  1
  Ir  Ir15  1  0.165883  0.831229  0.125543  1
  Ir  Ir16  1  0.165883  0.334653  0.125543  1
  Rh  Rh17  1  0.664383  0.832191  0.125262  1
  Rh  Rh18  1  0.333402  0.666701  0.249845  1
  Rh  Rh19  1  0.666556  0.333278  0.750154  1
  Rh  Rh20  1  0.001785  0.000893  0.250026  1
  Rh  Rh21  1  0.999796  0.999898  0.750080  1
  Rh  Rh22  1  0.999702  0.999851  0.500074  1
  Rh  Rh23  1  0.003110  0.001555  0.000173  1
