# generated using pymatgen
data_TbLu(Al2Co)2
_symmetry_space_group_name_H-M   'P 1'
_cell_length_a   5.35652836
_cell_length_b   5.35652721
_cell_length_c   7.06097000
_cell_angle_alpha   90.00000000
_cell_angle_beta   90.00000000
_cell_angle_gamma   136.32121332
_symmetry_Int_Tables_number   1
_chemical_formula_structural   TbLu(Al2Co)2
_chemical_formula_sum   'Tb1 Lu1 Al4 Co2'
_cell_volume   139.91584580
_cell_formula_units_Z   1
loop_
 _symmetry_equiv_pos_site_id
 _symmetry_equiv_pos_as_xyz
  1  'x, y, z'
loop_
 _atom_site_type_symbol
 _atom_site_label
 _atom_site_symmetry_multiplicity
 _atom_site_fract_x
 _atom_site_fract_y
 _atom_site_fract_z
 _atom_site_occupancy
  Tb  Tb0  1  0.059684  0.940316  0.250000  1
  Lu  Lu1  1  0.940182  0.059818  0.750000  1
  Al  Al2  1  0.659197  0.340803  0.942379  1
  Al  Al3  1  0.341134  0.658866  0.052505  1
  Al  Al4  1  0.341134  0.658866  0.447495  1
  Al  Al5  1  0.659197  0.340803  0.557621  1
  Co  Co6  1  0.217467  0.782533  0.750000  1
  Co  Co7  1  0.782004  0.217996  0.250000  1
