# generated using pymatgen
data_K2V2CdO7
_symmetry_space_group_name_H-M   'P 1'
_cell_length_a   5.62986100
_cell_length_b   8.98772200
_cell_length_c   8.98772200
_cell_angle_alpha   90.00000000
_cell_angle_beta   90.00000000
_cell_angle_gamma   90.00000000
_symmetry_Int_Tables_number   1
_chemical_formula_structural   K2V2CdO7
_chemical_formula_sum   'K4 V4 Cd2 O14'
_cell_volume   454.77536790
_cell_formula_units_Z   2
loop_
 _symmetry_equiv_pos_site_id
 _symmetry_equiv_pos_as_xyz
  1  'x, y, z'
loop_
 _atom_site_type_symbol
 _atom_site_label
 _atom_site_symmetry_multiplicity
 _atom_site_fract_x
 _atom_site_fract_y
 _atom_site_fract_z
 _atom_site_occupancy
  K  K0  1  0.509282  0.836508  0.336508  1
  K  K1  1  0.490718  0.663492  0.836508  1
  K  K2  1  0.490718  0.336508  0.163492  1
  K  K3  1  0.509282  0.163492  0.663492  1
  V  V4  1  0.937112  0.362427  0.862427  1
  V  V5  1  0.062888  0.862427  0.637573  1
  V  V6  1  0.062888  0.137573  0.362427  1
  V  V7  1  0.937112  0.637573  0.137573  1
  Cd  Cd8  1  0.000000  0.500000  0.500000  1
  Cd  Cd9  1  0.000000  0.000000  0.000000  1
  O  O10  1  0.839137  0.500000  0.000000  1
  O  O11  1  0.160863  0.000000  0.500000  1
  O  O12  1  0.764724  0.855142  0.644858  1
  O  O13  1  0.235276  0.644858  0.144858  1
  O  O14  1  0.235276  0.355142  0.855142  1
  O  O15  1  0.764724  0.144858  0.355142  1
  O  O16  1  0.189753  0.693154  0.587226  1
  O  O17  1  0.189753  0.306846  0.412774  1
  O  O18  1  0.810247  0.412774  0.693154  1
  O  O19  1  0.810247  0.587226  0.306846  1
  O  O20  1  0.189753  0.087226  0.193154  1
  O  O21  1  0.810247  0.193154  0.912774  1
  O  O22  1  0.810247  0.806846  0.087226  1
  O  O23  1  0.189753  0.912774  0.806846  1
