# generated using pymatgen
data_Np4Co5Si10Ir
_symmetry_space_group_name_H-M   'P 1'
_cell_length_a   7.84716847
_cell_length_b   7.84716939
_cell_length_c   7.84716925
_cell_angle_alpha   138.44688435
_cell_angle_beta   103.97781964
_cell_angle_gamma   90.57942378
_symmetry_Int_Tables_number   1
_chemical_formula_structural   Np4Co5Si10Ir
_chemical_formula_sum   'Np4 Co5 Si10 Ir1'
_cell_volume   297.04180810
_cell_formula_units_Z   1
loop_
 _symmetry_equiv_pos_site_id
 _symmetry_equiv_pos_as_xyz
  1  'x, y, z'
loop_
 _atom_site_type_symbol
 _atom_site_label
 _atom_site_symmetry_multiplicity
 _atom_site_fract_x
 _atom_site_fract_y
 _atom_site_fract_z
 _atom_site_occupancy
  Np  Np0  1  0.598799  0.874079  0.741167  1
  Np  Np1  1  0.132913  0.357632  0.758833  1
  Np  Np2  1  0.867087  0.625921  0.224719  1
  Np  Np3  1  0.401201  0.142368  0.275281  1
  Co  Co4  1  0.000000  0.750000  0.750000  1
  Co  Co5  1  0.248030  0.862692  0.386433  1
  Co  Co6  1  0.523741  0.637308  0.885339  1
  Co  Co7  1  0.476259  0.361598  0.113567  1
  Co  Co8  1  0.751970  0.138402  0.614661  1
  Si  Si9  1  0.766887  0.016887  0.250000  1
  Si  Si10  1  0.231352  0.981352  0.750000  1
  Si  Si11  1  0.768648  0.518648  0.750000  1
  Si  Si12  1  0.947985  0.092599  0.827722  1
  Si  Si13  1  0.052015  0.879738  0.144614  1
  Si  Si14  1  0.500000  0.250000  0.750000  1
  Si  Si15  1  0.500000  0.750000  0.250000  1
  Si  Si16  1  0.735124  0.407401  0.355386  1
  Si  Si17  1  0.264876  0.620262  0.672278  1
  Si  Si18  1  0.233113  0.483113  0.250000  1
  Ir  Ir19  1  0.000000  0.250000  0.250000  1
