# generated using pymatgen
data_PrDy7(HoBi)12
_symmetry_space_group_name_H-M   'P 1'
_cell_length_a   8.28555802
_cell_length_b   9.53189700
_cell_length_c   12.12108900
_cell_angle_alpha   90.00000000
_cell_angle_beta   89.93094541
_cell_angle_gamma   90.00000000
_symmetry_Int_Tables_number   1
_chemical_formula_structural   PrDy7(HoBi)12
_chemical_formula_sum   'Pr1 Dy7 Ho12 Bi12'
_cell_volume   957.28758840
_cell_formula_units_Z   1
loop_
 _symmetry_equiv_pos_site_id
 _symmetry_equiv_pos_as_xyz
  1  'x, y, z'
loop_
 _atom_site_type_symbol
 _atom_site_label
 _atom_site_symmetry_multiplicity
 _atom_site_fract_x
 _atom_site_fract_y
 _atom_site_fract_z
 _atom_site_occupancy
  Pr  Pr0  1  0.184618  0.750000  0.720031  1
  Dy  Dy1  1  0.685849  0.750000  0.781182  1
  Dy  Dy2  1  0.813764  0.250000  0.281798  1
  Dy  Dy3  1  0.313430  0.250000  0.218432  1
  Dy  Dy4  1  0.354468  0.750000  0.216576  1
  Dy  Dy5  1  0.854052  0.750000  0.282844  1
  Dy  Dy6  1  0.646451  0.250000  0.784561  1
  Dy  Dy7  1  0.145873  0.250000  0.716087  1
  Ho  Ho8  1  0.025404  0.750000  0.988420  1
  Ho  Ho9  1  0.524716  0.750000  0.510888  1
  Ho  Ho10  1  0.974311  0.250000  0.012374  1
  Ho  Ho11  1  0.475235  0.250000  0.487319  1
  Ho  Ho12  1  0.306818  0.435418  0.940400  1
  Ho  Ho13  1  0.807906  0.064760  0.559876  1
  Ho  Ho14  1  0.693664  0.935828  0.060385  1
  Ho  Ho15  1  0.192454  0.564641  0.439685  1
  Ho  Ho16  1  0.693664  0.564172  0.060385  1
  Ho  Ho17  1  0.192454  0.935359  0.439685  1
  Ho  Ho18  1  0.306818  0.064582  0.940400  1
  Ho  Ho19  1  0.807906  0.435240  0.559876  1
  Bi  Bi20  1  0.437498  0.006873  0.672580  1
  Bi  Bi21  1  0.930120  0.493553  0.828047  1
  Bi  Bi22  1  0.566421  0.503830  0.326075  1
  Bi  Bi23  1  0.066911  0.995870  0.173156  1
  Bi  Bi24  1  0.566421  0.996170  0.326075  1
  Bi  Bi25  1  0.066911  0.504130  0.173156  1
  Bi  Bi26  1  0.437498  0.493127  0.672580  1
  Bi  Bi27  1  0.930120  0.006447  0.828047  1
  Bi  Bi28  1  0.410565  0.750000  0.959693  1
  Bi  Bi29  1  0.903728  0.750000  0.539022  1
  Bi  Bi30  1  0.591474  0.250000  0.042516  1
  Bi  Bi31  1  0.092478  0.250000  0.457847  1
