# generated using pymatgen
data_B4Pd19Pt
_symmetry_space_group_name_H-M   'P 1'
_cell_length_a   6.44020874
_cell_length_b   6.49408977
_cell_length_c   8.20709321
_cell_angle_alpha   90.07057449
_cell_angle_beta   90.09244208
_cell_angle_gamma   89.60900072
_symmetry_Int_Tables_number   1
_chemical_formula_structural   B4Pd19Pt
_chemical_formula_sum   'B4 Pd19 Pt1'
_cell_volume   343.23897481
_cell_formula_units_Z   1
loop_
 _symmetry_equiv_pos_site_id
 _symmetry_equiv_pos_as_xyz
  1  'x, y, z'
loop_
 _atom_site_type_symbol
 _atom_site_label
 _atom_site_symmetry_multiplicity
 _atom_site_fract_x
 _atom_site_fract_y
 _atom_site_fract_z
 _atom_site_occupancy
  B  B0  1  0.554209  0.657690  0.364503  1
  B  B1  1  0.054088  0.157404  0.132396  1
  B  B2  1  0.445946  0.342782  0.632452  1
  B  B3  1  0.947256  0.843496  0.866677  1
  Pd  Pd4  1  0.049338  0.149745  0.383119  1
  Pd  Pd5  1  0.450535  0.350494  0.883465  1
  Pd  Pd6  1  0.951028  0.850075  0.616952  1
  Pd  Pd7  1  0.551766  0.652092  0.625408  1
  Pd  Pd8  1  0.051595  0.152617  0.872396  1
  Pd  Pd9  1  0.447504  0.345949  0.373366  1
  Pd  Pd10  1  0.946484  0.847529  0.127103  1
  Pd  Pd11  1  0.653376  0.959359  0.376001  1
  Pd  Pd12  1  0.153977  0.457714  0.124965  1
  Pd  Pd13  1  0.347563  0.042288  0.625180  1
  Pd  Pd14  1  0.846944  0.543120  0.876344  1
  Pd  Pd15  1  0.642086  0.950158  0.875252  1
  Pd  Pd16  1  0.141583  0.451884  0.626082  1
  Pd  Pd17  1  0.357637  0.046383  0.126090  1
  Pd  Pd18  1  0.859599  0.547938  0.374997  1
  Pd  Pd19  1  0.744535  0.254760  0.125802  1
  Pd  Pd20  1  0.242803  0.753603  0.375352  1
  Pd  Pd21  1  0.256460  0.747253  0.874697  1
  Pd  Pd22  1  0.755448  0.246844  0.625799  1
  Pt  Pt23  1  0.548240  0.648822  0.115605  1
