# generated using pymatgen
data_SmCuAgPt3
_symmetry_space_group_name_H-M   'P 1'
_cell_length_a   5.42927382
_cell_length_b   5.42927335
_cell_length_c   5.22707557
_cell_angle_alpha   58.71190221
_cell_angle_beta   58.71191003
_cell_angle_gamma   59.99999990
_symmetry_Int_Tables_number   1
_chemical_formula_structural   SmCuAgPt3
_chemical_formula_sum   'Sm1 Cu1 Ag1 Pt3'
_cell_volume   106.78037803
_cell_formula_units_Z   1
loop_
 _symmetry_equiv_pos_site_id
 _symmetry_equiv_pos_as_xyz
  1  'x, y, z'
loop_
 _atom_site_type_symbol
 _atom_site_label
 _atom_site_symmetry_multiplicity
 _atom_site_fract_x
 _atom_site_fract_y
 _atom_site_fract_z
 _atom_site_occupancy
  Sm  Sm0  1  0.998445  0.998445  0.004664  1
  Cu  Cu1  1  0.375955  0.375955  0.872136  1
  Ag  Ag2  1  0.748927  0.748927  0.753220  1
  Pt  Pt3  1  0.376458  0.376458  0.373327  1
  Pt  Pt4  1  0.873758  0.376458  0.373327  1
  Pt  Pt5  1  0.376458  0.873758  0.373327  1
