# generated using pymatgen
data_SrNbP7Ru12
_symmetry_space_group_name_H-M   'P 1'
_cell_length_a   9.45076600
_cell_length_b   9.45076548
_cell_length_c   3.92350700
_cell_angle_alpha   90.00000000
_cell_angle_beta   90.00000000
_cell_angle_gamma   119.99999993
_symmetry_Int_Tables_number   1
_chemical_formula_structural   SrNbP7Ru12
_chemical_formula_sum   'Sr1 Nb1 P7 Ru12'
_cell_volume   303.48627875
_cell_formula_units_Z   1
loop_
 _symmetry_equiv_pos_site_id
 _symmetry_equiv_pos_as_xyz
  1  'x, y, z'
loop_
 _atom_site_type_symbol
 _atom_site_label
 _atom_site_symmetry_multiplicity
 _atom_site_fract_x
 _atom_site_fract_y
 _atom_site_fract_z
 _atom_site_occupancy
  Sr  Sr0  1  0.333333  0.666667  0.000000  1
  Nb  Nb1  1  0.666667  0.333333  0.500000  1
  P  P2  1  0.605589  0.719974  0.500000  1
  P  P3  1  0.000000  0.000000  0.000000  1
  P  P4  1  0.280026  0.885616  0.500000  1
  P  P5  1  0.114384  0.394411  0.500000  1
  P  P6  1  0.887998  0.569626  0.000000  1
  P  P7  1  0.430374  0.318372  0.000000  1
  P  P8  1  0.681628  0.112002  0.000000  1
  Ru  Ru9  1  0.563633  0.968310  0.500000  1
  Ru  Ru10  1  0.404677  0.436367  0.500000  1
  Ru  Ru11  1  0.914666  0.119417  0.500000  1
  Ru  Ru12  1  0.204752  0.085334  0.500000  1
  Ru  Ru13  1  0.880583  0.795248  0.500000  1
  Ru  Ru14  1  0.727518  0.889524  0.000000  1
  Ru  Ru15  1  0.110476  0.837994  0.000000  1
  Ru  Ru16  1  0.162006  0.272482  0.000000  1
  Ru  Ru17  1  0.426102  0.080618  0.000000  1
  Ru  Ru18  1  0.919382  0.345485  0.000000  1
  Ru  Ru19  1  0.654515  0.573898  0.000000  1
  Ru  Ru20  1  0.031690  0.595323  0.500000  1
