# generated using pymatgen
data_Os3Rh3W2
_symmetry_space_group_name_H-M   'P 1'
_cell_length_a   5.53316800
_cell_length_b   5.54862935
_cell_length_c   4.39688100
_cell_angle_alpha   90.00000000
_cell_angle_beta   90.00000000
_cell_angle_gamma   119.90786547
_symmetry_Int_Tables_number   1
_chemical_formula_structural   Os3Rh3W2
_chemical_formula_sum   'Os3 Rh3 W2'
_cell_volume   117.01387716
_cell_formula_units_Z   1
loop_
 _symmetry_equiv_pos_site_id
 _symmetry_equiv_pos_as_xyz
  1  'x, y, z'
loop_
 _atom_site_type_symbol
 _atom_site_label
 _atom_site_symmetry_multiplicity
 _atom_site_fract_x
 _atom_site_fract_y
 _atom_site_fract_z
 _atom_site_occupancy
  Os  Os0  1  0.833627  0.667253  0.250000  1
  Os  Os1  1  0.170134  0.836494  0.750000  1
  Os  Os2  1  0.666359  0.836494  0.750000  1
  Rh  Rh3  1  0.332441  0.167935  0.250000  1
  Rh  Rh4  1  0.835495  0.167935  0.250000  1
  Rh  Rh5  1  0.162821  0.325643  0.750000  1
  W  W6  1  0.331990  0.663982  0.250000  1
  W  W7  1  0.667133  0.334265  0.750000  1
