# generated using pymatgen
data_Ac(YbB8)3
_symmetry_space_group_name_H-M   'P 1'
_cell_length_a   7.18275042
_cell_length_b   7.18275181
_cell_length_c   5.86017700
_cell_angle_alpha   90.00000000
_cell_angle_beta   90.00000000
_cell_angle_gamma   109.48648685
_symmetry_Int_Tables_number   1
_chemical_formula_structural   Ac(YbB8)3
_chemical_formula_sum   'Ac1 Yb3 B24'
_cell_volume   285.01989745
_cell_formula_units_Z   1
loop_
 _symmetry_equiv_pos_site_id
 _symmetry_equiv_pos_as_xyz
  1  'x, y, z'
loop_
 _atom_site_type_symbol
 _atom_site_label
 _atom_site_symmetry_multiplicity
 _atom_site_fract_x
 _atom_site_fract_y
 _atom_site_fract_z
 _atom_site_occupancy
  Ac  Ac0  1  0.000000  0.000000  0.000000  1
  Yb  Yb1  1  0.747687  0.252313  0.500000  1
  Yb  Yb2  1  0.500000  0.500000  0.000000  1
  Yb  Yb3  1  0.252313  0.747687  0.500000  1
  B  B4  1  0.176606  0.326653  0.648862  1
  B  B5  1  0.924907  0.573638  0.150229  1
  B  B6  1  0.673347  0.823394  0.648862  1
  B  B7  1  0.426362  0.075093  0.150229  1
  B  B8  1  0.176606  0.326653  0.351138  1
  B  B9  1  0.924907  0.573638  0.849771  1
  B  B10  1  0.673347  0.823394  0.351138  1
  B  B11  1  0.426362  0.075093  0.849771  1
  B  B12  1  0.400236  0.400236  0.500000  1
  B  B13  1  0.149967  0.648932  0.000000  1
  B  B14  1  0.898652  0.898652  0.500000  1
  B  B15  1  0.648932  0.149967  0.000000  1
  B  B16  1  0.326653  0.176606  0.648862  1
  B  B17  1  0.075093  0.426362  0.150229  1
  B  B18  1  0.823394  0.673347  0.648862  1
  B  B19  1  0.573638  0.924907  0.150229  1
  B  B20  1  0.101348  0.101348  0.500000  1
  B  B21  1  0.850033  0.351068  0.000000  1
  B  B22  1  0.599764  0.599764  0.500000  1
  B  B23  1  0.351068  0.850033  0.000000  1
  B  B24  1  0.326653  0.176606  0.351138  1
  B  B25  1  0.075093  0.426362  0.849771  1
  B  B26  1  0.823394  0.673347  0.351138  1
  B  B27  1  0.573638  0.924907  0.849771  1
