# generated using pymatgen
data_Y8In2HgPt
_symmetry_space_group_name_H-M   'P 1'
_cell_length_a   10.45501000
_cell_length_b   10.42872814
_cell_length_c   7.10815523
_cell_angle_alpha   90.02409442
_cell_angle_beta   90.00000000
_cell_angle_gamma   120.08340700
_symmetry_Int_Tables_number   1
_chemical_formula_structural   Y8In2HgPt
_chemical_formula_sum   'Y16 In4 Hg2 Pt2'
_cell_volume   670.62178891
_cell_formula_units_Z   2
loop_
 _symmetry_equiv_pos_site_id
 _symmetry_equiv_pos_as_xyz
  1  'x, y, z'
loop_
 _atom_site_type_symbol
 _atom_site_label
 _atom_site_symmetry_multiplicity
 _atom_site_fract_x
 _atom_site_fract_y
 _atom_site_fract_z
 _atom_site_occupancy
  Y  Y0  1  0.472740  0.537138  0.478473  1
  Y  Y1  1  0.064398  0.537138  0.478473  1
  Y  Y2  1  0.465939  0.931879  0.479119  1
  Y  Y3  1  0.530195  0.464978  0.982180  1
  Y  Y4  1  0.934783  0.464978  0.982180  1
  Y  Y5  1  0.533837  0.067674  0.977198  1
  Y  Y6  1  0.823097  0.166473  0.271944  1
  Y  Y7  1  0.343374  0.166473  0.271944  1
  Y  Y8  1  0.829555  0.659111  0.266501  1
  Y  Y9  1  0.173994  0.824897  0.786083  1
  Y  Y10  1  0.650903  0.824897  0.786083  1
  Y  Y11  1  0.175454  0.350907  0.769790  1
  Y  Y12  1  0.335045  0.670091  0.106540  1
  Y  Y13  1  0.667219  0.334437  0.603822  1
  Y  Y14  1  0.999292  0.998584  0.500248  1
  Y  Y15  1  0.001834  0.003668  0.996149  1
  In  In16  1  0.164826  0.329653  0.234241  1
  In  In17  1  0.836575  0.163938  0.732393  1
  In  In18  1  0.327363  0.163938  0.732393  1
  In  In19  1  0.836431  0.672863  0.732780  1
  Hg  Hg20  1  0.164120  0.832530  0.226652  1
  Hg  Hg21  1  0.668410  0.832530  0.226652  1
  Pt  Pt22  1  0.333868  0.667736  0.711194  1
  Pt  Pt23  1  0.666745  0.333489  0.211524  1
