# generated using pymatgen
data_Be3Al2GeRh6
_symmetry_space_group_name_H-M   'P 1'
_cell_length_a   4.11736300
_cell_length_b   5.83271800
_cell_length_c   12.37033500
_cell_angle_alpha   90.00000000
_cell_angle_beta   89.99896637
_cell_angle_gamma   90.00000000
_symmetry_Int_Tables_number   1
_chemical_formula_structural   Be3Al2GeRh6
_chemical_formula_sum   'Be6 Al4 Ge2 Rh12'
_cell_volume   297.07875693
_cell_formula_units_Z   2
loop_
 _symmetry_equiv_pos_site_id
 _symmetry_equiv_pos_as_xyz
  1  'x, y, z'
loop_
 _atom_site_type_symbol
 _atom_site_label
 _atom_site_symmetry_multiplicity
 _atom_site_fract_x
 _atom_site_fract_y
 _atom_site_fract_z
 _atom_site_occupancy
  Be  Be0  1  0.999988  0.000000  0.992344  1
  Be  Be1  1  0.499469  0.500000  0.174306  1
  Be  Be2  1  0.999540  0.000000  0.341976  1
  Be  Be3  1  0.499965  0.500000  0.500980  1
  Be  Be4  1  0.000328  0.000000  0.665717  1
  Be  Be5  1  0.500429  0.500000  0.824697  1
  Al  Al6  1  0.999591  0.500000  0.334255  1
  Al  Al7  1  0.499964  0.000000  0.500334  1
  Al  Al8  1  0.000393  0.500000  0.666325  1
  Al  Al9  1  0.500335  0.000000  0.832415  1
  Ge  Ge10  1  0.999897  0.500000  0.999508  1
  Ge  Ge11  1  0.500083  0.000000  0.167159  1
  Rh  Rh12  1  0.499929  0.250906  0.001433  1
  Rh  Rh13  1  0.499929  0.749096  0.001433  1
  Rh  Rh14  1  0.999939  0.249100  0.165224  1
  Rh  Rh15  1  0.999939  0.750900  0.165224  1
  Rh  Rh16  1  0.499733  0.248926  0.332018  1
  Rh  Rh17  1  0.499733  0.751074  0.332018  1
  Rh  Rh18  1  0.999981  0.250703  0.499973  1
  Rh  Rh19  1  0.999981  0.749299  0.499973  1
  Rh  Rh20  1  0.500221  0.249303  0.666701  1
  Rh  Rh21  1  0.500221  0.750697  0.666701  1
  Rh  Rh22  1  0.000205  0.251062  0.834642  1
  Rh  Rh23  1  0.000205  0.748938  0.834642  1
