# generated using pymatgen
data_Ho3Er9InCo4Os
_symmetry_space_group_name_H-M   'P 1'
_cell_length_a   8.22856220
_cell_length_b   8.22856150
_cell_length_c   8.22827936
_cell_angle_alpha   111.49049403
_cell_angle_beta   110.66129032
_cell_angle_gamma   106.31004224
_symmetry_Int_Tables_number   1
_chemical_formula_structural   Ho3Er9InCo4Os
_chemical_formula_sum   'Ho3 Er9 In1 Co4 Os1'
_cell_volume   427.87498439
_cell_formula_units_Z   1
loop_
 _symmetry_equiv_pos_site_id
 _symmetry_equiv_pos_as_xyz
  1  'x, y, z'
loop_
 _atom_site_type_symbol
 _atom_site_label
 _atom_site_symmetry_multiplicity
 _atom_site_fract_x
 _atom_site_fract_y
 _atom_site_fract_z
 _atom_site_occupancy
  Ho  Ho0  1  0.182206  0.279973  0.462179  1
  Ho  Ho1  1  0.817577  0.719988  0.537565  1
  Ho  Ho2  1  0.182427  0.720076  0.902502  1
  Er  Er3  1  0.818035  0.279303  0.097338  1
  Er  Er4  1  0.314398  0.620062  0.305473  1
  Er  Er5  1  0.685469  0.379872  0.694692  1
  Er  Er6  1  0.314820  0.009223  0.694692  1
  Er  Er7  1  0.685411  0.991074  0.305473  1
  Er  Er8  1  0.415980  0.220977  0.194805  1
  Er  Er9  1  0.584350  0.779379  0.805294  1
  Er  Er10  1  0.025915  0.220944  0.805294  1
  Er  Er11  1  0.973828  0.778825  0.194805  1
  In  In12  1  0.500071  0.499972  0.000042  1
  Co  Co13  1  0.111432  0.611506  0.499567  1
  Co  Co14  1  0.888060  0.388134  0.499567  1
  Co  Co15  1  0.376521  0.999984  0.376505  1
  Co  Co16  1  0.623575  0.000263  0.623838  1
  Os  Os17  1  0.999924  0.000446  0.000370  1
