# generated using pymatgen
data_ScFe2SiGe
_symmetry_space_group_name_H-M   'P 1'
_cell_length_a   5.05189800
_cell_length_b   7.13024200
_cell_length_c   7.57489000
_cell_angle_alpha   90.00000000
_cell_angle_beta   90.00000000
_cell_angle_gamma   90.00000000
_symmetry_Int_Tables_number   1
_chemical_formula_structural   ScFe2SiGe
_chemical_formula_sum   'Sc4 Fe8 Si4 Ge4'
_cell_volume   272.85704655
_cell_formula_units_Z   4
loop_
 _symmetry_equiv_pos_site_id
 _symmetry_equiv_pos_as_xyz
  1  'x, y, z'
loop_
 _atom_site_type_symbol
 _atom_site_label
 _atom_site_symmetry_multiplicity
 _atom_site_fract_x
 _atom_site_fract_y
 _atom_site_fract_z
 _atom_site_occupancy
  Sc  Sc0  1  0.750000  0.912517  0.242395  1
  Sc  Sc1  1  0.250000  0.087483  0.757605  1
  Sc  Sc2  1  0.750000  0.412517  0.757605  1
  Sc  Sc3  1  0.250000  0.587483  0.242395  1
  Fe  Fe4  1  0.750000  0.511866  0.109438  1
  Fe  Fe5  1  0.250000  0.488134  0.890562  1
  Fe  Fe6  1  0.750000  0.011867  0.890562  1
  Fe  Fe7  1  0.250000  0.988134  0.109438  1
  Fe  Fe8  1  0.000000  0.750000  0.627462  1
  Fe  Fe9  1  0.500000  0.250000  0.372538  1
  Fe  Fe10  1  0.000000  0.250000  0.372538  1
  Fe  Fe11  1  0.500000  0.750000  0.627462  1
  Si  Si12  1  0.000000  0.750000  0.951429  1
  Si  Si13  1  0.500000  0.250000  0.048571  1
  Si  Si14  1  0.000000  0.250000  0.048571  1
  Si  Si15  1  0.500000  0.750000  0.951429  1
  Ge  Ge16  1  0.750000  0.555592  0.414441  1
  Ge  Ge17  1  0.250000  0.444408  0.585559  1
  Ge  Ge18  1  0.750000  0.055592  0.585559  1
  Ge  Ge19  1  0.250000  0.944408  0.414441  1
