# generated using pymatgen
data_Ho4BI5
_symmetry_space_group_name_H-M   'P 1'
_cell_length_a   9.61868400
_cell_length_b   9.61868507
_cell_length_c   8.55832913
_cell_angle_alpha   102.42620946
_cell_angle_beta   102.42621097
_cell_angle_gamma   24.54917898
_symmetry_Int_Tables_number   1
_chemical_formula_structural   Ho4BI5
_chemical_formula_sum   'Ho4 B1 I5'
_cell_volume   320.90009031
_cell_formula_units_Z   1
loop_
 _symmetry_equiv_pos_site_id
 _symmetry_equiv_pos_as_xyz
  1  'x, y, z'
loop_
 _atom_site_type_symbol
 _atom_site_label
 _atom_site_symmetry_multiplicity
 _atom_site_fract_x
 _atom_site_fract_y
 _atom_site_fract_z
 _atom_site_occupancy
  Ho  Ho0  1  0.635895  0.635895  0.069842  1
  Ho  Ho1  1  0.999355  0.999355  0.192504  1
  Ho  Ho2  1  0.000645  0.000645  0.807496  1
  Ho  Ho3  1  0.364106  0.364106  0.930158  1
  B  B4  1  0.500000  0.500000  0.000000  1
  I  I5  1  0.828046  0.828046  0.174284  1
  I  I6  1  0.166015  0.166015  0.343443  1
  I  I7  1  0.500000  0.500000  0.500000  1
  I  I8  1  0.833984  0.833984  0.656557  1
  I  I9  1  0.171954  0.171954  0.825716  1
