# generated using pymatgen
data_Np3Ta8O24
_symmetry_space_group_name_H-M   'P 1'
_cell_length_a   8.86565710
_cell_length_b   8.86565825
_cell_length_c   8.93067100
_cell_angle_alpha   66.59201063
_cell_angle_beta   66.59201444
_cell_angle_gamma   53.07574939
_symmetry_Int_Tables_number   1
_chemical_formula_structural   Np3Ta8O24
_chemical_formula_sum   'Np3 Ta8 O24'
_cell_volume   502.79696719
_cell_formula_units_Z   1
loop_
 _symmetry_equiv_pos_site_id
 _symmetry_equiv_pos_as_xyz
  1  'x, y, z'
loop_
 _atom_site_type_symbol
 _atom_site_label
 _atom_site_symmetry_multiplicity
 _atom_site_fract_x
 _atom_site_fract_y
 _atom_site_fract_z
 _atom_site_occupancy
  Np  Np0  1  0.500000  0.500000  0.000000  1
  Np  Np1  1  0.253472  0.253472  0.000150  1
  Np  Np2  1  0.746528  0.746528  0.999850  1
  Ta  Ta3  1  0.305542  0.812470  0.258257  1
  Ta  Ta4  1  0.812470  0.305542  0.258257  1
  Ta  Ta5  1  0.434509  0.941733  0.741784  1
  Ta  Ta6  1  0.941733  0.434509  0.741784  1
  Ta  Ta7  1  0.565491  0.058267  0.258216  1
  Ta  Ta8  1  0.058267  0.565491  0.258216  1
  Ta  Ta9  1  0.694458  0.187530  0.741743  1
  Ta  Ta10  1  0.187530  0.694458  0.741743  1
  O  O11  1  0.072534  0.072534  0.229481  1
  O  O12  1  0.572026  0.572026  0.222988  1
  O  O13  1  0.393048  0.867899  0.000006  1
  O  O14  1  0.748913  0.251087  0.500000  1
  O  O15  1  0.867899  0.393048  0.000006  1
  O  O16  1  0.251087  0.748913  0.500000  1
  O  O17  1  0.322822  0.792595  0.769148  1
  O  O18  1  0.792595  0.322822  0.769148  1
  O  O19  1  0.943799  0.443484  0.225450  1
  O  O20  1  0.443484  0.943799  0.225450  1
  O  O21  1  0.812862  0.812862  0.229026  1
  O  O22  1  0.187138  0.187138  0.770974  1
  O  O23  1  0.683596  0.683596  0.776694  1
  O  O24  1  0.500000  0.000000  0.500000  1
  O  O25  1  0.316404  0.316404  0.223306  1
  O  O26  1  0.606952  0.132101  0.999994  1
  O  O27  1  0.000000  0.500000  0.500000  1
  O  O28  1  0.132101  0.606952  0.999994  1
  O  O29  1  0.056201  0.556516  0.774550  1
  O  O30  1  0.556516  0.056201  0.774550  1
  O  O31  1  0.677178  0.207405  0.230852  1
  O  O32  1  0.207405  0.677178  0.230852  1
  O  O33  1  0.427974  0.427974  0.777012  1
  O  O34  1  0.927466  0.927466  0.770519  1
