# generated using pymatgen
data_Cs3Li2ZrSb3
_symmetry_space_group_name_H-M   'P 1'
_cell_length_a   11.41217972
_cell_length_b   11.41217981
_cell_length_c   17.51186200
_cell_angle_alpha   90.00000000
_cell_angle_beta   90.00000000
_cell_angle_gamma   143.29417172
_symmetry_Int_Tables_number   1
_chemical_formula_structural   Cs3Li2ZrSb3
_chemical_formula_sum   'Cs12 Li8 Zr4 Sb12'
_cell_volume   1363.19398259
_cell_formula_units_Z   4
loop_
 _symmetry_equiv_pos_site_id
 _symmetry_equiv_pos_as_xyz
  1  'x, y, z'
loop_
 _atom_site_type_symbol
 _atom_site_label
 _atom_site_symmetry_multiplicity
 _atom_site_fract_x
 _atom_site_fract_y
 _atom_site_fract_z
 _atom_site_occupancy
  Cs  Cs0  1  0.601716  0.943398  0.827983  1
  Cs  Cs1  1  0.281386  0.281386  0.320538  1
  Cs  Cs2  1  0.218614  0.218614  0.820538  1
  Cs  Cs3  1  0.718614  0.718614  0.679462  1
  Cs  Cs4  1  0.443398  0.101716  0.672017  1
  Cs  Cs5  1  0.898284  0.556602  0.327983  1
  Cs  Cs6  1  0.056602  0.398284  0.172017  1
  Cs  Cs7  1  0.398284  0.056602  0.172017  1
  Cs  Cs8  1  0.556602  0.898284  0.327983  1
  Cs  Cs9  1  0.101716  0.443398  0.672017  1
  Cs  Cs10  1  0.943398  0.601716  0.827983  1
  Cs  Cs11  1  0.781386  0.781386  0.179462  1
  Li  Li12  1  0.083212  0.916788  0.000000  1
  Li  Li13  1  0.583212  0.416788  0.500000  1
  Li  Li14  1  0.916788  0.083212  0.000000  1
  Li  Li15  1  0.748675  0.251325  0.000000  1
  Li  Li16  1  0.751325  0.248675  0.500000  1
  Li  Li17  1  0.251325  0.748675  0.000000  1
  Li  Li18  1  0.248675  0.751325  0.500000  1
  Li  Li19  1  0.416788  0.583212  0.500000  1
  Zr  Zr20  1  0.086965  0.913035  0.500000  1
  Zr  Zr21  1  0.413035  0.586965  0.000000  1
  Zr  Zr22  1  0.913035  0.086965  0.500000  1
  Zr  Zr23  1  0.586965  0.413035  0.000000  1
  Sb  Sb24  1  0.074167  0.399781  0.414410  1
  Sb  Sb25  1  0.899781  0.574167  0.085590  1
  Sb  Sb26  1  0.425833  0.100219  0.914410  1
  Sb  Sb27  1  0.600219  0.925833  0.585590  1
  Sb  Sb28  1  0.925833  0.600219  0.585590  1
  Sb  Sb29  1  0.100219  0.425833  0.914410  1
  Sb  Sb30  1  0.574167  0.899781  0.085590  1
  Sb  Sb31  1  0.399781  0.074167  0.414410  1
  Sb  Sb32  1  0.228888  0.228888  0.583738  1
  Sb  Sb33  1  0.728888  0.728888  0.916262  1
  Sb  Sb34  1  0.271112  0.271112  0.083738  1
  Sb  Sb35  1  0.771112  0.771112  0.416262  1
