# generated using pymatgen
data_Ca2YbEuIr
_symmetry_space_group_name_H-M   'P 1'
_cell_length_a   7.59281914
_cell_length_b   7.60719131
_cell_length_c   7.60719149
_cell_angle_alpha   107.29005638
_cell_angle_beta   106.20732468
_cell_angle_gamma   115.15111203
_symmetry_Int_Tables_number   1
_chemical_formula_structural   Ca2YbEuIr
_chemical_formula_sum   'Ca4 Yb2 Eu2 Ir2'
_cell_volume   335.38505391
_cell_formula_units_Z   2
loop_
 _symmetry_equiv_pos_site_id
 _symmetry_equiv_pos_as_xyz
  1  'x, y, z'
loop_
 _atom_site_type_symbol
 _atom_site_label
 _atom_site_symmetry_multiplicity
 _atom_site_fract_x
 _atom_site_fract_y
 _atom_site_fract_z
 _atom_site_occupancy
  Ca  Ca0  1  0.873021  0.569564  0.303096  1
  Ca  Ca1  1  0.818999  0.623059  0.805375  1
  Ca  Ca2  1  0.376979  0.180077  0.196545  1
  Ca  Ca3  1  0.431001  0.736376  0.304059  1
  Yb  Yb4  1  0.816612  0.013105  0.197496  1
  Yb  Yb5  1  0.433388  0.130882  0.696493  1
  Eu  Eu6  1  0.268218  0.573432  0.694533  1
  Eu  Eu7  1  0.981782  0.176315  0.805214  1
  Ir  Ir8  1  0.499989  0.500568  0.996612  1
  Ir  Ir9  1  0.750011  0.246623  0.500579  1
