# generated using pymatgen
data_Y4MnRuC4
_symmetry_space_group_name_H-M   'P 1'
_cell_length_a   5.08556300
_cell_length_b   6.42153087
_cell_length_c   9.75613356
_cell_angle_alpha   89.37688783
_cell_angle_beta   90.00000000
_cell_angle_gamma   90.00000000
_symmetry_Int_Tables_number   1
_chemical_formula_structural   Y4MnRuC4
_chemical_formula_sum   'Y8 Mn2 Ru2 C8'
_cell_volume   318.58818636
_cell_formula_units_Z   2
loop_
 _symmetry_equiv_pos_site_id
 _symmetry_equiv_pos_as_xyz
  1  'x, y, z'
loop_
 _atom_site_type_symbol
 _atom_site_label
 _atom_site_symmetry_multiplicity
 _atom_site_fract_x
 _atom_site_fract_y
 _atom_site_fract_z
 _atom_site_occupancy
  Y  Y0  1  0.250000  0.681671  0.553078  1
  Y  Y1  1  0.750000  0.318329  0.446922  1
  Y  Y2  1  0.750000  0.818201  0.057656  1
  Y  Y3  1  0.250000  0.181799  0.942344  1
  Y  Y4  1  0.250000  0.525749  0.214950  1
  Y  Y5  1  0.750000  0.474251  0.785050  1
  Y  Y6  1  0.750000  0.975324  0.716964  1
  Y  Y7  1  0.250000  0.024676  0.283036  1
  Mn  Mn8  1  0.750000  0.772534  0.361752  1
  Mn  Mn9  1  0.250000  0.227466  0.638248  1
  Ru  Ru10  1  0.250000  0.724353  0.860359  1
  Ru  Ru11  1  0.750000  0.275647  0.139641  1
  C  C12  1  0.250000  0.452049  0.752249  1
  C  C13  1  0.750000  0.547951  0.247751  1
  C  C14  1  0.750000  0.030382  0.265605  1
  C  C15  1  0.250000  0.969618  0.734395  1
  C  C16  1  0.250000  0.822079  0.048191  1
  C  C17  1  0.750000  0.177921  0.951809  1
  C  C18  1  0.750000  0.688046  0.538663  1
  C  C19  1  0.250000  0.311954  0.461337  1
