# generated using pymatgen
data_ErTm2FeSi3
_symmetry_space_group_name_H-M   'P 1'
_cell_length_a   5.58437589
_cell_length_b   5.58437533
_cell_length_c   13.35418109
_cell_angle_alpha   70.44535745
_cell_angle_beta   70.44535868
_cell_angle_gamma   43.31604197
_symmetry_Int_Tables_number   1
_chemical_formula_structural   ErTm2FeSi3
_chemical_formula_sum   'Er2 Tm4 Fe2 Si6'
_cell_volume   266.52671545
_cell_formula_units_Z   2
loop_
 _symmetry_equiv_pos_site_id
 _symmetry_equiv_pos_as_xyz
  1  'x, y, z'
loop_
 _atom_site_type_symbol
 _atom_site_label
 _atom_site_symmetry_multiplicity
 _atom_site_fract_x
 _atom_site_fract_y
 _atom_site_fract_z
 _atom_site_occupancy
  Er  Er0  1  0.398675  0.398675  0.919071  1
  Er  Er1  1  0.601325  0.601325  0.080929  1
  Tm  Tm2  1  0.748296  0.748296  0.770046  1
  Tm  Tm3  1  0.251704  0.251704  0.229954  1
  Tm  Tm4  1  0.523929  0.523929  0.620477  1
  Tm  Tm5  1  0.476071  0.476071  0.379523  1
  Fe  Fe6  1  0.752999  0.752999  0.415360  1
  Fe  Fe7  1  0.247001  0.247001  0.584640  1
  Si  Si8  1  0.143774  0.143774  0.456572  1
  Si  Si9  1  0.856226  0.856226  0.543428  1
  Si  Si10  1  0.114394  0.114394  0.924389  1
  Si  Si11  1  0.885606  0.885606  0.075611  1
  Si  Si12  1  0.054803  0.054803  0.757688  1
  Si  Si13  1  0.945197  0.945197  0.242312  1
