# generated using pymatgen
data_SmTh2(GaIr)3
_symmetry_space_group_name_H-M   'P 1'
_cell_length_a   7.33977156
_cell_length_b   7.33977097
_cell_length_c   4.01082200
_cell_angle_alpha   90.00000000
_cell_angle_beta   90.00000000
_cell_angle_gamma   120.36658933
_symmetry_Int_Tables_number   1
_chemical_formula_structural   SmTh2(GaIr)3
_chemical_formula_sum   'Sm1 Th2 Ga3 Ir3'
_cell_volume   186.42875839
_cell_formula_units_Z   1
loop_
 _symmetry_equiv_pos_site_id
 _symmetry_equiv_pos_as_xyz
  1  'x, y, z'
loop_
 _atom_site_type_symbol
 _atom_site_label
 _atom_site_symmetry_multiplicity
 _atom_site_fract_x
 _atom_site_fract_y
 _atom_site_fract_z
 _atom_site_occupancy
  Sm  Sm0  1  0.410819  0.410819  0.500000  1
  Th  Th1  1  0.586084  0.000595  0.500000  1
  Th  Th2  1  0.000595  0.586084  0.500000  1
  Ga  Ga3  1  0.752483  0.752483  0.000000  1
  Ga  Ga4  1  0.239280  0.007609  0.000000  1
  Ga  Ga5  1  0.007609  0.239280  0.000000  1
  Ir  Ir6  1  0.679749  0.330941  0.000000  1
  Ir  Ir7  1  0.330941  0.679749  0.000000  1
  Ir  Ir8  1  0.992440  0.992440  0.500000  1
