# generated using pymatgen
data_Cs2TiCdS4
_symmetry_space_group_name_H-M   'P 1'
_cell_length_a   14.43491510
_cell_length_b   12.84318140
_cell_length_c   7.86816981
_cell_angle_alpha   84.75122495
_cell_angle_beta   62.37476623
_cell_angle_gamma   32.87400653
_symmetry_Int_Tables_number   1
_chemical_formula_structural   Cs2TiCdS4
_chemical_formula_sum   'Cs4 Ti2 Cd2 S8'
_cell_volume   550.64480757
_cell_formula_units_Z   2
loop_
 _symmetry_equiv_pos_site_id
 _symmetry_equiv_pos_as_xyz
  1  'x, y, z'
loop_
 _atom_site_type_symbol
 _atom_site_label
 _atom_site_symmetry_multiplicity
 _atom_site_fract_x
 _atom_site_fract_y
 _atom_site_fract_z
 _atom_site_occupancy
  Cs  Cs0  1  0.678545  0.678545  0.321455  1
  Cs  Cs1  1  0.321455  0.321455  0.678545  1
  Cs  Cs2  1  0.928545  0.928545  0.571455  1
  Cs  Cs3  1  0.571455  0.571455  0.928545  1
  Ti  Ti4  1  0.750000  0.750000  0.750000  1
  Ti  Ti5  1  0.500000  0.500000  0.500000  1
  Cd  Cd6  1  0.000000  0.000000  0.000000  1
  Cd  Cd7  1  0.250000  0.250000  0.250000  1
  S  S8  1  0.390329  0.005166  0.924001  1
  S  S9  1  0.680506  0.924001  0.005166  1
  S  S10  1  0.924001  0.680506  0.390329  1
  S  S11  1  0.005166  0.390329  0.680506  1
  S  S12  1  0.244834  0.859671  0.569494  1
  S  S13  1  0.569494  0.325999  0.244834  1
  S  S14  1  0.325999  0.569494  0.859671  1
  S  S15  1  0.859671  0.244834  0.325999  1
