# generated using pymatgen
data_TbSmFe6(CoB4)2
_symmetry_space_group_name_H-M   'P 1'
_cell_length_a   6.99757528
_cell_length_b   6.98624065
_cell_length_c   3.80332500
_cell_angle_alpha   90.00000000
_cell_angle_beta   90.00000000
_cell_angle_gamma   90.26361232
_symmetry_Int_Tables_number   1
_chemical_formula_structural   TbSmFe6(CoB4)2
_chemical_formula_sum   'Tb1 Sm1 Fe6 Co2 B8'
_cell_volume   185.93021097
_cell_formula_units_Z   1
loop_
 _symmetry_equiv_pos_site_id
 _symmetry_equiv_pos_as_xyz
  1  'x, y, z'
loop_
 _atom_site_type_symbol
 _atom_site_label
 _atom_site_symmetry_multiplicity
 _atom_site_fract_x
 _atom_site_fract_y
 _atom_site_fract_z
 _atom_site_occupancy
  Tb  Tb0  1  0.000000  0.000000  0.002655  1
  Sm  Sm1  1  0.500000  0.500000  0.502380  1
  Fe  Fe2  1  0.385747  0.131250  0.893372  1
  Fe  Fe3  1  0.614253  0.868750  0.893372  1
  Fe  Fe4  1  0.366357  0.885993  0.393576  1
  Fe  Fe5  1  0.633643  0.114007  0.393576  1
  Fe  Fe6  1  0.113863  0.366976  0.606437  1
  Fe  Fe7  1  0.886137  0.633024  0.606437  1
  Co  Co8  1  0.134999  0.614574  0.107456  1
  Co  Co9  1  0.865001  0.385426  0.107456  1
  B  B10  1  0.797862  0.668015  0.104183  1
  B  B11  1  0.202138  0.331985  0.104183  1
  B  B12  1  0.837980  0.295321  0.604821  1
  B  B13  1  0.162020  0.704679  0.604821  1
  B  B14  1  0.703164  0.835400  0.394126  1
  B  B15  1  0.296836  0.164600  0.394126  1
  B  B16  1  0.666549  0.195890  0.893511  1
  B  B17  1  0.333451  0.804110  0.893511  1
