# generated using pymatgen
data_DyTm2Sn3Pt2Rh
_symmetry_space_group_name_H-M   'P 1'
_cell_length_a   7.64641556
_cell_length_b   7.63195036
_cell_length_c   3.78542400
_cell_angle_alpha   90.00000000
_cell_angle_beta   90.00000000
_cell_angle_gamma   119.93743806
_symmetry_Int_Tables_number   1
_chemical_formula_structural   DyTm2Sn3Pt2Rh
_chemical_formula_sum   'Dy1 Tm2 Sn3 Pt2 Rh1'
_cell_volume   191.43089857
_cell_formula_units_Z   1
loop_
 _symmetry_equiv_pos_site_id
 _symmetry_equiv_pos_as_xyz
  1  'x, y, z'
loop_
 _atom_site_type_symbol
 _atom_site_label
 _atom_site_symmetry_multiplicity
 _atom_site_fract_x
 _atom_site_fract_y
 _atom_site_fract_z
 _atom_site_occupancy
  Dy  Dy0  1  0.000000  0.402261  0.000000  1
  Tm  Tm1  1  0.597989  0.598123  0.000000  1
  Tm  Tm2  1  0.402011  0.000133  0.000000  1
  Sn  Sn3  1  0.261236  0.260265  0.500000  1
  Sn  Sn4  1  0.000000  0.740028  0.500000  1
  Sn  Sn5  1  0.738764  0.999029  0.500000  1
  Pt  Pt6  1  0.664532  0.332859  0.500000  1
  Pt  Pt7  1  0.335468  0.668328  0.500000  1
  Rh  Rh8  1  0.000000  0.998973  0.000000  1
