# generated using pymatgen
data_Rb3Na2Cu(TcH9)3
_symmetry_space_group_name_H-M   'P 1'
_cell_length_a   9.06045071
_cell_length_b   9.06044836
_cell_length_c   5.76833500
_cell_angle_alpha   90.00000000
_cell_angle_beta   90.00000000
_cell_angle_gamma   113.66293134
_symmetry_Int_Tables_number   1
_chemical_formula_structural   Rb3Na2Cu(TcH9)3
_chemical_formula_sum   'Rb3 Na2 Cu1 Tc3 H27'
_cell_volume   433.71922210
_cell_formula_units_Z   1
loop_
 _symmetry_equiv_pos_site_id
 _symmetry_equiv_pos_as_xyz
  1  'x, y, z'
loop_
 _atom_site_type_symbol
 _atom_site_label
 _atom_site_symmetry_multiplicity
 _atom_site_fract_x
 _atom_site_fract_y
 _atom_site_fract_z
 _atom_site_occupancy
  Rb  Rb0  1  0.586063  0.980161  0.000000  1
  Rb  Rb1  1  0.980161  0.586063  0.000000  1
  Rb  Rb2  1  0.396352  0.396352  0.000000  1
  Na  Na3  1  0.215734  0.974749  0.500000  1
  Na  Na4  1  0.974749  0.215734  0.500000  1
  Cu  Cu5  1  0.560130  0.560130  0.500000  1
  Tc  Tc6  1  0.025800  0.025800  0.000000  1
  Tc  Tc7  1  0.336571  0.673665  0.500000  1
  Tc  Tc8  1  0.673665  0.336571  0.500000  1
  H  H9  1  0.891144  0.022522  0.202832  1
  H  H10  1  0.022522  0.891144  0.202832  1
  H  H11  1  0.891144  0.022522  0.797168  1
  H  H12  1  0.022522  0.891144  0.797168  1
  H  H13  1  0.144520  0.144520  0.216663  1
  H  H14  1  0.144520  0.144520  0.783337  1
  H  H15  1  0.203175  0.008052  0.000000  1
  H  H16  1  0.008052  0.203175  0.000000  1
  H  H17  1  0.860055  0.860055  0.000000  1
  H  H18  1  0.241274  0.567052  0.269309  1
  H  H19  1  0.490822  0.680517  0.312038  1
  H  H20  1  0.241274  0.567052  0.730691  1
  H  H21  1  0.567052  0.241274  0.730691  1
  H  H22  1  0.300363  0.792245  0.303048  1
  H  H23  1  0.490822  0.680517  0.687962  1
  H  H24  1  0.680517  0.490822  0.687962  1
  H  H25  1  0.567052  0.241274  0.269309  1
  H  H26  1  0.300363  0.792245  0.696952  1
  H  H27  1  0.680517  0.490822  0.312038  1
  H  H28  1  0.792245  0.300363  0.696952  1
  H  H29  1  0.792245  0.300363  0.303048  1
  H  H30  1  0.326115  0.482067  0.500000  1
  H  H31  1  0.480764  0.858373  0.500000  1
  H  H32  1  0.482067  0.326115  0.500000  1
  H  H33  1  0.139414  0.631842  0.500000  1
  H  H34  1  0.858373  0.480764  0.500000  1
  H  H35  1  0.631842  0.139414  0.500000  1
