# generated using pymatgen
data_Ac3In3Pd2Pt
_symmetry_space_group_name_H-M   'P 1'
_cell_length_a   7.82156400
_cell_length_b   7.82156526
_cell_length_c   4.32309800
_cell_angle_alpha   90.00000000
_cell_angle_beta   90.00000000
_cell_angle_gamma   120.00000313
_symmetry_Int_Tables_number   1
_chemical_formula_structural   Ac3In3Pd2Pt
_chemical_formula_sum   'Ac3 In3 Pd2 Pt1'
_cell_volume   229.04086502
_cell_formula_units_Z   1
loop_
 _symmetry_equiv_pos_site_id
 _symmetry_equiv_pos_as_xyz
  1  'x, y, z'
loop_
 _atom_site_type_symbol
 _atom_site_label
 _atom_site_symmetry_multiplicity
 _atom_site_fract_x
 _atom_site_fract_y
 _atom_site_fract_z
 _atom_site_occupancy
  Ac  Ac0  1  0.003449  0.586916  0.000000  1
  Ac  Ac1  1  0.413084  0.416533  0.000000  1
  Ac  Ac2  1  0.583467  0.996551  0.000000  1
  In  In3  1  0.760643  0.756696  0.500000  1
  In  In4  1  0.996053  0.239357  0.500000  1
  In  In5  1  0.243304  0.003947  0.500000  1
  Pd  Pd6  1  0.000000  0.000000  0.000000  1
  Pd  Pd7  1  0.666667  0.333333  0.500000  1
  Pt  Pt8  1  0.333333  0.666667  0.500000  1
