# generated using pymatgen
data_TbCrFe2Ni2P3
_symmetry_space_group_name_H-M   'P 1'
_cell_length_a   3.68863000
_cell_length_b   10.31721000
_cell_length_c   11.95477800
_cell_angle_alpha   90.00000000
_cell_angle_beta   90.00000000
_cell_angle_gamma   90.00000000
_symmetry_Int_Tables_number   1
_chemical_formula_structural   TbCrFe2Ni2P3
_chemical_formula_sum   'Tb4 Cr4 Fe8 Ni8 P12'
_cell_volume   454.95545869
_cell_formula_units_Z   4
loop_
 _symmetry_equiv_pos_site_id
 _symmetry_equiv_pos_as_xyz
  1  'x, y, z'
loop_
 _atom_site_type_symbol
 _atom_site_label
 _atom_site_symmetry_multiplicity
 _atom_site_fract_x
 _atom_site_fract_y
 _atom_site_fract_z
 _atom_site_occupancy
  Tb  Tb0  1  0.250000  0.577979  0.706465  1
  Tb  Tb1  1  0.250000  0.922021  0.206465  1
  Tb  Tb2  1  0.750000  0.422021  0.293535  1
  Tb  Tb3  1  0.750000  0.077979  0.793535  1
  Cr  Cr4  1  0.250000  0.700285  0.990662  1
  Cr  Cr5  1  0.250000  0.799715  0.490662  1
  Cr  Cr6  1  0.750000  0.299715  0.009338  1
  Cr  Cr7  1  0.750000  0.200285  0.509338  1
  Fe  Fe8  1  0.250000  0.875383  0.699796  1
  Fe  Fe9  1  0.250000  0.624617  0.199796  1
  Fe  Fe10  1  0.750000  0.124617  0.300204  1
  Fe  Fe11  1  0.750000  0.375383  0.800204  1
  Fe  Fe12  1  0.250000  0.462703  0.934489  1
  Fe  Fe13  1  0.250000  0.037297  0.434489  1
  Fe  Fe14  1  0.750000  0.537297  0.065511  1
  Fe  Fe15  1  0.750000  0.962703  0.565511  1
  Ni  Ni16  1  0.250000  0.407432  0.487071  1
  Ni  Ni17  1  0.250000  0.092568  0.987071  1
  Ni  Ni18  1  0.750000  0.592568  0.512929  1
  Ni  Ni19  1  0.750000  0.907432  0.012929  1
  Ni  Ni20  1  0.250000  0.226465  0.172749  1
  Ni  Ni21  1  0.250000  0.273535  0.672749  1
  Ni  Ni22  1  0.750000  0.773535  0.827251  1
  Ni  Ni23  1  0.750000  0.726465  0.327251  1
  P  P24  1  0.250000  0.430056  0.113310  1
  P  P25  1  0.250000  0.069944  0.613310  1
  P  P26  1  0.750000  0.569944  0.886690  1
  P  P27  1  0.750000  0.930056  0.386690  1
  P  P28  1  0.250000  0.270151  0.864469  1
  P  P29  1  0.250000  0.229849  0.364469  1
  P  P30  1  0.750000  0.729849  0.135531  1
  P  P31  1  0.750000  0.770151  0.635531  1
  P  P32  1  0.250000  0.604970  0.389125  1
  P  P33  1  0.250000  0.895030  0.889125  1
  P  P34  1  0.750000  0.395030  0.610875  1
  P  P35  1  0.750000  0.104970  0.110875  1
