# generated using pymatgen
data_ErTmAl2PtRh
_symmetry_space_group_name_H-M   'P 1'
_cell_length_a   4.29263500
_cell_length_b   6.78789700
_cell_length_c   7.86782100
_cell_angle_alpha   90.00000000
_cell_angle_beta   90.00000000
_cell_angle_gamma   90.00000000
_symmetry_Int_Tables_number   1
_chemical_formula_structural   ErTmAl2PtRh
_chemical_formula_sum   'Er2 Tm2 Al4 Pt2 Rh2'
_cell_volume   229.25228693
_cell_formula_units_Z   2
loop_
 _symmetry_equiv_pos_site_id
 _symmetry_equiv_pos_as_xyz
  1  'x, y, z'
loop_
 _atom_site_type_symbol
 _atom_site_label
 _atom_site_symmetry_multiplicity
 _atom_site_fract_x
 _atom_site_fract_y
 _atom_site_fract_z
 _atom_site_occupancy
  Er  Er0  1  0.750000  0.532666  0.821554  1
  Er  Er1  1  0.750000  0.032666  0.678446  1
  Tm  Tm2  1  0.250000  0.963740  0.322765  1
  Tm  Tm3  1  0.250000  0.463740  0.177235  1
  Al  Al4  1  0.750000  0.638292  0.440323  1
  Al  Al5  1  0.750000  0.138292  0.059677  1
  Al  Al6  1  0.250000  0.364304  0.560624  1
  Al  Al7  1  0.250000  0.864304  0.939376  1
  Pt  Pt8  1  0.750000  0.764830  0.124952  1
  Pt  Pt9  1  0.750000  0.264830  0.375048  1
  Rh  Rh10  1  0.250000  0.236168  0.879101  1
  Rh  Rh11  1  0.250000  0.736168  0.620899  1
