# generated using pymatgen
data_Nd4Al4PdRuPt2
_symmetry_space_group_name_H-M   'P 1'
_cell_length_a   4.46833800
_cell_length_b   7.09410400
_cell_length_c   7.94259415
_cell_angle_alpha   89.32068221
_cell_angle_beta   90.00000000
_cell_angle_gamma   90.00000000
_symmetry_Int_Tables_number   1
_chemical_formula_structural   Nd4Al4PdRuPt2
_chemical_formula_sum   'Nd4 Al4 Pd1 Ru1 Pt2'
_cell_volume   251.75344052
_cell_formula_units_Z   1
loop_
 _symmetry_equiv_pos_site_id
 _symmetry_equiv_pos_as_xyz
  1  'x, y, z'
loop_
 _atom_site_type_symbol
 _atom_site_label
 _atom_site_symmetry_multiplicity
 _atom_site_fract_x
 _atom_site_fract_y
 _atom_site_fract_z
 _atom_site_occupancy
  Nd  Nd0  1  0.750000  0.470268  0.180476  1
  Nd  Nd1  1  0.250000  0.022812  0.683096  1
  Nd  Nd2  1  0.750000  0.963061  0.322388  1
  Nd  Nd3  1  0.250000  0.531752  0.812527  1
  Al  Al4  1  0.750000  0.853302  0.933744  1
  Al  Al5  1  0.250000  0.648233  0.435815  1
  Al  Al6  1  0.750000  0.361322  0.567230  1
  Al  Al7  1  0.250000  0.143584  0.063797  1
  Pd  Pd8  1  0.250000  0.280643  0.385835  1
  Ru  Ru9  1  0.750000  0.726840  0.612915  1
  Pt  Pt10  1  0.750000  0.218088  0.887319  1
  Pt  Pt11  1  0.250000  0.780095  0.114857  1
