# generated using pymatgen
data_CaEu2Ga5
_symmetry_space_group_name_H-M   'P 1'
_cell_length_a   5.92820155
_cell_length_b   5.92820183
_cell_length_c   14.96955000
_cell_angle_alpha   90.00000000
_cell_angle_beta   90.00000000
_cell_angle_gamma   134.57630159
_symmetry_Int_Tables_number   1
_chemical_formula_structural   CaEu2Ga5
_chemical_formula_sum   'Ca2 Eu4 Ga10'
_cell_volume   374.73791335
_cell_formula_units_Z   2
loop_
 _symmetry_equiv_pos_site_id
 _symmetry_equiv_pos_as_xyz
  1  'x, y, z'
loop_
 _atom_site_type_symbol
 _atom_site_label
 _atom_site_symmetry_multiplicity
 _atom_site_fract_x
 _atom_site_fract_y
 _atom_site_fract_z
 _atom_site_occupancy
  Ca  Ca0  1  0.868685  0.131315  0.750000  1
  Ca  Ca1  1  0.131315  0.868685  0.250000  1
  Eu  Eu2  1  0.411174  0.588826  0.109580  1
  Eu  Eu3  1  0.588826  0.411174  0.890420  1
  Eu  Eu4  1  0.588826  0.411174  0.609580  1
  Eu  Eu5  1  0.411174  0.588826  0.390420  1
  Ga  Ga6  1  0.161485  0.838515  0.750000  1
  Ga  Ga7  1  0.838515  0.161485  0.250000  1
  Ga  Ga8  1  0.707197  0.292803  0.401986  1
  Ga  Ga9  1  0.292803  0.707197  0.598014  1
  Ga  Ga10  1  0.292803  0.707197  0.901986  1
  Ga  Ga11  1  0.707197  0.292803  0.098014  1
  Ga  Ga12  1  0.885751  0.114249  0.534708  1
  Ga  Ga13  1  0.114249  0.885751  0.465292  1
  Ga  Ga14  1  0.114249  0.885751  0.034708  1
  Ga  Ga15  1  0.885751  0.114249  0.965292  1
