# generated using pymatgen
data_TbErCdCuNi
_symmetry_space_group_name_H-M   'P 1'
_cell_length_a   7.48006903
_cell_length_b   7.48006887
_cell_length_c   3.64982800
_cell_angle_alpha   90.00000000
_cell_angle_beta   90.00000000
_cell_angle_gamma   89.33153554
_symmetry_Int_Tables_number   1
_chemical_formula_structural   TbErCdCuNi
_chemical_formula_sum   'Tb2 Er2 Cd2 Cu2 Ni2'
_cell_volume   204.19920309
_cell_formula_units_Z   2
loop_
 _symmetry_equiv_pos_site_id
 _symmetry_equiv_pos_as_xyz
  1  'x, y, z'
loop_
 _atom_site_type_symbol
 _atom_site_label
 _atom_site_symmetry_multiplicity
 _atom_site_fract_x
 _atom_site_fract_y
 _atom_site_fract_z
 _atom_site_occupancy
  Tb  Tb0  1  0.185058  0.314942  0.500000  1
  Tb  Tb1  1  0.814942  0.685058  0.500000  1
  Er  Er2  1  0.666610  0.166610  0.500000  1
  Er  Er3  1  0.333390  0.833390  0.500000  1
  Cd  Cd4  1  0.000000  0.000000  0.000000  1
  Cd  Cd5  1  0.500000  0.500000  0.000000  1
  Cu  Cu6  1  0.119281  0.619281  0.000000  1
  Cu  Cu7  1  0.880719  0.380719  0.000000  1
  Ni  Ni8  1  0.617915  0.882085  0.000000  1
  Ni  Ni9  1  0.382085  0.117915  0.000000  1
