# generated using pymatgen
data_Th3Si4PdRh3
_symmetry_space_group_name_H-M   'P 1'
_cell_length_a   4.03679157
_cell_length_b   4.23749186
_cell_length_c   12.76925247
_cell_angle_alpha   80.44898291
_cell_angle_beta   80.90530552
_cell_angle_gamma   90.00001074
_symmetry_Int_Tables_number   1
_chemical_formula_structural   Th3Si4PdRh3
_chemical_formula_sum   'Th3 Si4 Pd1 Rh3'
_cell_volume   212.61628336
_cell_formula_units_Z   1
loop_
 _symmetry_equiv_pos_site_id
 _symmetry_equiv_pos_as_xyz
  1  'x, y, z'
loop_
 _atom_site_type_symbol
 _atom_site_label
 _atom_site_symmetry_multiplicity
 _atom_site_fract_x
 _atom_site_fract_y
 _atom_site_fract_z
 _atom_site_occupancy
  Th  Th0  1  0.996979  0.996979  0.006041  1
  Th  Th1  1  0.853337  0.353337  0.293327  1
  Th  Th2  1  0.149131  0.649131  0.701736  1
  Si  Si3  1  0.697774  0.197774  0.604454  1
  Si  Si4  1  0.303486  0.803486  0.393026  1
  Si  Si5  1  0.451605  0.451605  0.096790  1
  Si  Si6  1  0.547973  0.547973  0.904054  1
  Pd  Pd7  1  0.597171  0.097171  0.805658  1
  Rh  Rh8  1  0.402794  0.902794  0.194412  1
  Rh  Rh9  1  0.249896  0.249896  0.500209  1
  Rh  Rh10  1  0.749854  0.749854  0.500291  1
