# generated using pymatgen
data_Ho5Lu5(IrRu)2
_symmetry_space_group_name_H-M   'P 1'
_cell_length_a   6.31354008
_cell_length_b   7.21324889
_cell_length_c   8.38039500
_cell_angle_alpha   96.81575674
_cell_angle_beta   112.42067248
_cell_angle_gamma   90.01765551
_symmetry_Int_Tables_number   1
_chemical_formula_structural   Ho5Lu5(IrRu)2
_chemical_formula_sum   'Ho5 Lu5 Ir2 Ru2'
_cell_volume   349.87767399
_cell_formula_units_Z   1
loop_
 _symmetry_equiv_pos_site_id
 _symmetry_equiv_pos_as_xyz
  1  'x, y, z'
loop_
 _atom_site_type_symbol
 _atom_site_label
 _atom_site_symmetry_multiplicity
 _atom_site_fract_x
 _atom_site_fract_y
 _atom_site_fract_z
 _atom_site_occupancy
  Ho  Ho0  1  0.525768  0.080955  0.814987  1
  Ho  Ho1  1  0.475522  0.918293  0.185493  1
  Ho  Ho2  1  0.712081  0.416891  0.187986  1
  Ho  Ho3  1  0.287142  0.584066  0.812067  1
  Ho  Ho4  1  0.291419  0.313084  0.436432  1
  Lu  Lu5  1  0.708862  0.686970  0.564632  1
  Lu  Lu6  1  0.858113  0.182211  0.563801  1
  Lu  Lu7  1  0.141348  0.817208  0.436286  1
  Lu  Lu8  1  0.076615  0.248511  0.998030  1
  Lu  Lu9  1  0.922808  0.750957  0.000674  1
  Ir  Ir10  1  0.319877  0.576263  0.222627  1
  Ir  Ir11  1  0.682390  0.425521  0.778423  1
  Ru  Ru12  1  0.102835  0.924468  0.780881  1
  Ru  Ru13  1  0.895220  0.074601  0.217682  1
