# generated using pymatgen
data_Ce2Ni2GeAsH4
_symmetry_space_group_name_H-M   'P 1'
_cell_length_a   4.12941500
_cell_length_b   4.12941586
_cell_length_c   8.22211600
_cell_angle_alpha   90.00000000
_cell_angle_beta   90.00000000
_cell_angle_gamma   120.00000110
_symmetry_Int_Tables_number   1
_chemical_formula_structural   Ce2Ni2GeAsH4
_chemical_formula_sum   'Ce2 Ni2 Ge1 As1 H4'
_cell_volume   121.42032172
_cell_formula_units_Z   1
loop_
 _symmetry_equiv_pos_site_id
 _symmetry_equiv_pos_as_xyz
  1  'x, y, z'
loop_
 _atom_site_type_symbol
 _atom_site_label
 _atom_site_symmetry_multiplicity
 _atom_site_fract_x
 _atom_site_fract_y
 _atom_site_fract_z
 _atom_site_occupancy
  Ce  Ce0  1  0.000000  0.000000  0.499459  1
  Ce  Ce1  1  0.000000  0.000000  0.000541  1
  Ni  Ni2  1  0.666667  0.333333  0.750000  1
  Ni  Ni3  1  0.333333  0.666667  0.250000  1
  Ge  Ge4  1  0.333333  0.666667  0.750000  1
  As  As5  1  0.666667  0.333333  0.250000  1
  H  H6  1  0.333333  0.666667  0.452877  1
  H  H7  1  0.666667  0.333333  0.558434  1
  H  H8  1  0.333333  0.666667  0.047123  1
  H  H9  1  0.666667  0.333333  0.941566  1
