# generated using pymatgen
data_Y7ErAlPt24
_symmetry_space_group_name_H-M   'P 1'
_cell_length_a   8.37245343
_cell_length_b   8.37245385
_cell_length_c   8.37245400
_cell_angle_alpha   89.96655646
_cell_angle_beta   90.03344354
_cell_angle_gamma   90.03343568
_symmetry_Int_Tables_number   1
_chemical_formula_structural   Y7ErAlPt24
_chemical_formula_sum   'Y7 Er1 Al1 Pt24'
_cell_volume   586.89181264
_cell_formula_units_Z   1
loop_
 _symmetry_equiv_pos_site_id
 _symmetry_equiv_pos_as_xyz
  1  'x, y, z'
loop_
 _atom_site_type_symbol
 _atom_site_label
 _atom_site_symmetry_multiplicity
 _atom_site_fract_x
 _atom_site_fract_y
 _atom_site_fract_z
 _atom_site_occupancy
  Y  Y0  1  0.250853  0.251275  0.251275  1
  Y  Y1  1  0.748884  0.748713  0.748713  1
  Y  Y2  1  0.748725  0.749147  0.251275  1
  Y  Y3  1  0.748725  0.251275  0.749147  1
  Y  Y4  1  0.251287  0.251116  0.748713  1
  Y  Y5  1  0.251287  0.748713  0.251116  1
  Y  Y6  1  0.251302  0.748698  0.748698  1
  Er  Er7  1  0.748356  0.251644  0.251644  1
  Al  Al8  1  0.000561  0.999439  0.999439  1
  Pt  Pt9  1  0.261239  0.499679  0.999967  1
  Pt  Pt10  1  0.738689  0.499374  0.001330  1
  Pt  Pt11  1  0.998670  0.261311  0.499374  1
  Pt  Pt12  1  0.500626  0.261311  0.001330  1
  Pt  Pt13  1  0.000033  0.738761  0.499679  1
  Pt  Pt14  1  0.500321  0.738761  0.999967  1
  Pt  Pt15  1  0.500626  0.001330  0.261311  1
  Pt  Pt16  1  0.261239  0.999967  0.499679  1
  Pt  Pt17  1  0.500321  0.999967  0.738761  1
  Pt  Pt18  1  0.738689  0.001330  0.499374  1
  Pt  Pt19  1  0.998670  0.499374  0.261311  1
  Pt  Pt20  1  0.000033  0.499679  0.738761  1
  Pt  Pt21  1  0.253163  0.499842  0.499842  1
  Pt  Pt22  1  0.746602  0.499245  0.499245  1
  Pt  Pt23  1  0.500755  0.253398  0.499245  1
  Pt  Pt24  1  0.500158  0.746837  0.499842  1
  Pt  Pt25  1  0.500755  0.499245  0.253398  1
  Pt  Pt26  1  0.500158  0.499842  0.746837  1
  Pt  Pt27  1  0.293305  0.999964  0.999964  1
  Pt  Pt28  1  0.707785  0.000942  0.000942  1
  Pt  Pt29  1  0.999058  0.292215  0.000942  1
  Pt  Pt30  1  0.000036  0.706695  0.999964  1
  Pt  Pt31  1  0.999058  0.000942  0.292215  1
  Pt  Pt32  1  0.000036  0.999964  0.706695  1
