# generated using pymatgen
data_B2PbF8
_symmetry_space_group_name_H-M   'P 1'
_cell_length_a   4.81294482
_cell_length_b   5.03416962
_cell_length_c   6.77653155
_cell_angle_alpha   111.80454968
_cell_angle_beta   113.08246708
_cell_angle_gamma   90.00000972
_symmetry_Int_Tables_number   1
_chemical_formula_structural   B2PbF8
_chemical_formula_sum   'B2 Pb1 F8'
_cell_volume   138.18535473
_cell_formula_units_Z   1
loop_
 _symmetry_equiv_pos_site_id
 _symmetry_equiv_pos_as_xyz
  1  'x, y, z'
loop_
 _atom_site_type_symbol
 _atom_site_label
 _atom_site_symmetry_multiplicity
 _atom_site_fract_x
 _atom_site_fract_y
 _atom_site_fract_z
 _atom_site_occupancy
  B  B0  1  0.696857  0.652825  0.305651  1
  B  B1  1  0.303142  0.347175  0.694350  1
  Pb  Pb2  1  0.000000  0.000000  0.000000  1
  F  F3  1  0.909524  0.600655  0.201311  1
  F  F4  1  0.512938  0.384142  0.231155  1
  F  F5  1  0.512938  0.847014  0.231155  1
  F  F6  1  0.141593  0.223873  0.447747  1
  F  F7  1  0.858409  0.776126  0.552253  1
  F  F8  1  0.487061  0.152988  0.768846  1
  F  F9  1  0.487061  0.615858  0.768846  1
  F  F10  1  0.090476  0.399344  0.798688  1
