# generated using pymatgen
data_Y8Hf11Si16Mo
_symmetry_space_group_name_H-M   'P 1'
_cell_length_a   7.25427209
_cell_length_b   7.25427205
_cell_length_c   13.31473606
_cell_angle_alpha   89.95109530
_cell_angle_beta   90.04890451
_cell_angle_gamma   90.06002777
_symmetry_Int_Tables_number   1
_chemical_formula_structural   Y8Hf11Si16Mo
_chemical_formula_sum   'Y8 Hf11 Si16 Mo1'
_cell_volume   700.67994394
_cell_formula_units_Z   1
loop_
 _symmetry_equiv_pos_site_id
 _symmetry_equiv_pos_as_xyz
  1  'x, y, z'
loop_
 _atom_site_type_symbol
 _atom_site_label
 _atom_site_symmetry_multiplicity
 _atom_site_fract_x
 _atom_site_fract_y
 _atom_site_fract_z
 _atom_site_occupancy
  Y  Y0  1  0.998489  0.343099  0.212594  1
  Y  Y1  1  0.004137  0.656694  0.716529  1
  Y  Y2  1  0.156632  0.495500  0.465499  1
  Y  Y3  1  0.501212  0.845551  0.034217  1
  Y  Y4  1  0.845551  0.501212  0.965783  1
  Y  Y5  1  0.495500  0.156632  0.534501  1
  Y  Y6  1  0.343099  0.998489  0.787406  1
  Y  Y7  1  0.656694  0.004137  0.283471  1
  Hf  Hf8  1  0.825591  0.825591  0.500000  1
  Hf  Hf9  1  0.324505  0.674328  0.248973  1
  Hf  Hf10  1  0.674328  0.324505  0.751027  1
  Hf  Hf11  1  0.148494  0.996963  0.373632  1
  Hf  Hf12  1  0.853247  0.004988  0.877368  1
  Hf  Hf13  1  0.504086  0.648601  0.624674  1
  Hf  Hf14  1  0.349341  0.493053  0.877187  1
  Hf  Hf15  1  0.493053  0.349341  0.122813  1
  Hf  Hf16  1  0.648601  0.504086  0.375326  1
  Hf  Hf17  1  0.996963  0.148494  0.626368  1
  Hf  Hf18  1  0.004988  0.853247  0.122632  1
  Si  Si19  1  0.362626  0.295165  0.316332  1
  Si  Si20  1  0.636528  0.704880  0.817577  1
  Si  Si21  1  0.204971  0.862856  0.567211  1
  Si  Si22  1  0.137538  0.796359  0.933086  1
  Si  Si23  1  0.796359  0.137538  0.066914  1
  Si  Si24  1  0.862856  0.204971  0.432789  1
  Si  Si25  1  0.295165  0.362626  0.683668  1
  Si  Si26  1  0.704880  0.636528  0.182423  1
  Si  Si27  1  0.294177  0.051184  0.182915  1
  Si  Si28  1  0.704171  0.951946  0.685970  1
  Si  Si29  1  0.450728  0.795737  0.435127  1
  Si  Si30  1  0.204149  0.547303  0.064148  1
  Si  Si31  1  0.547303  0.204149  0.935852  1
  Si  Si32  1  0.795737  0.450728  0.564873  1
  Si  Si33  1  0.051184  0.294177  0.817085  1
  Si  Si34  1  0.951946  0.704171  0.314030  1
  Mo  Mo35  1  0.175170  0.175170  0.000000  1
