# generated using pymatgen
data_Tb3Cu3(Ni5B)2
_symmetry_space_group_name_H-M   'P 1'
_cell_length_a   4.97981300
_cell_length_b   4.97981399
_cell_length_c   10.89121500
_cell_angle_alpha   90.00000000
_cell_angle_beta   90.00000000
_cell_angle_gamma   119.99998676
_symmetry_Int_Tables_number   1
_chemical_formula_structural   Tb3Cu3(Ni5B)2
_chemical_formula_sum   'Tb3 Cu3 Ni10 B2'
_cell_volume   233.90159155
_cell_formula_units_Z   1
loop_
 _symmetry_equiv_pos_site_id
 _symmetry_equiv_pos_as_xyz
  1  'x, y, z'
loop_
 _atom_site_type_symbol
 _atom_site_label
 _atom_site_symmetry_multiplicity
 _atom_site_fract_x
 _atom_site_fract_y
 _atom_site_fract_z
 _atom_site_occupancy
  Tb  Tb0  1  0.000000  0.000000  0.999678  1
  Tb  Tb1  1  0.000000  0.000000  0.334153  1
  Tb  Tb2  1  0.000000  0.000000  0.669541  1
  Cu  Cu3  1  0.333333  0.666667  0.317200  1
  Cu  Cu4  1  0.666667  0.333333  0.316933  1
  Cu  Cu5  1  0.666667  0.333333  0.683102  1
  Ni  Ni6  1  0.499579  0.999158  0.500540  1
  Ni  Ni7  1  0.499579  0.500421  0.500540  1
  Ni  Ni8  1  0.000842  0.500421  0.500540  1
  Ni  Ni9  1  0.333333  0.666667  0.681234  1
  Ni  Ni10  1  0.500081  0.000162  0.130283  1
  Ni  Ni11  1  0.500081  0.499919  0.130283  1
  Ni  Ni12  1  0.999838  0.499919  0.130283  1
  Ni  Ni13  1  0.498936  0.997872  0.868827  1
  Ni  Ni14  1  0.498936  0.501064  0.868827  1
  Ni  Ni15  1  0.002128  0.501064  0.868827  1
  B  B16  1  0.333333  0.666667  0.000009  1
  B  B17  1  0.666667  0.333333  0.999197  1
