# generated using pymatgen
data_Nd4YErNiBr10
_symmetry_space_group_name_H-M   'P 1'
_cell_length_a   7.44414497
_cell_length_b   9.48130905
_cell_length_c   9.45786743
_cell_angle_alpha   108.41917689
_cell_angle_beta   95.39052782
_cell_angle_gamma   104.91224514
_symmetry_Int_Tables_number   1
_chemical_formula_structural   Nd4YErNiBr10
_chemical_formula_sum   'Nd4 Y1 Er1 Ni1 Br10'
_cell_volume   600.72494467
_cell_formula_units_Z   1
loop_
 _symmetry_equiv_pos_site_id
 _symmetry_equiv_pos_as_xyz
  1  'x, y, z'
loop_
 _atom_site_type_symbol
 _atom_site_label
 _atom_site_symmetry_multiplicity
 _atom_site_fract_x
 _atom_site_fract_y
 _atom_site_fract_z
 _atom_site_occupancy
  Nd  Nd0  1  0.869596  0.952818  0.246331  1
  Nd  Nd1  1  0.128840  0.046009  0.753246  1
  Nd  Nd2  1  0.032509  0.704045  0.903399  1
  Nd  Nd3  1  0.966503  0.295575  0.095874  1
  Y  Y4  1  0.348447  0.125352  0.169320  1
  Er  Er5  1  0.654969  0.875873  0.832327  1
  Ni  Ni6  1  0.999532  0.999703  0.000059  1
  Br  Br7  1  0.646009  0.564445  0.731351  1
  Br  Br8  1  0.351972  0.438672  0.267925  1
  Br  Br9  1  0.745632  0.918350  0.556213  1
  Br  Br10  1  0.251366  0.080805  0.445610  1
  Br  Br11  1  0.912248  0.632533  0.172756  1
  Br  Br12  1  0.086556  0.366743  0.826292  1
  Br  Br13  1  0.548038  0.170779  0.916549  1
  Br  Br14  1  0.452629  0.826425  0.079878  1
  Br  Br15  1  0.246728  0.753963  0.660386  1
  Br  Br16  1  0.758425  0.247911  0.342482  1
