# generated using pymatgen
data_Mg2FeP6IN12
_symmetry_space_group_name_H-M   'P 1'
_cell_length_a   7.29061721
_cell_length_b   7.30376343
_cell_length_c   7.29061708
_cell_angle_alpha   109.58920903
_cell_angle_beta   109.51873939
_cell_angle_gamma   109.58917814
_symmetry_Int_Tables_number   1
_chemical_formula_structural   Mg2FeP6IN12
_chemical_formula_sum   'Mg2 Fe1 P6 I1 N12'
_cell_volume   297.79991350
_cell_formula_units_Z   1
loop_
 _symmetry_equiv_pos_site_id
 _symmetry_equiv_pos_as_xyz
  1  'x, y, z'
loop_
 _atom_site_type_symbol
 _atom_site_label
 _atom_site_symmetry_multiplicity
 _atom_site_fract_x
 _atom_site_fract_y
 _atom_site_fract_z
 _atom_site_occupancy
  Mg  Mg0  1  0.004355  0.000241  0.375362  1
  Mg  Mg1  1  0.375362  0.000241  0.004355  1
  Fe  Fe2  1  0.004521  0.395817  0.004521  1
  P  P3  1  0.499707  0.253901  0.751908  1
  P  P4  1  0.259187  0.748749  0.502323  1
  P  P5  1  0.745547  0.497074  0.253198  1
  P  P6  1  0.751908  0.253901  0.499707  1
  P  P7  1  0.502323  0.748749  0.259187  1
  P  P8  1  0.253198  0.497074  0.745547  1
  I  I9  1  0.971220  0.997890  0.971220  1
  N  N10  1  0.426566  0.699444  0.426566  1
  N  N11  1  0.714790  0.428988  0.430772  1
  N  N12  1  0.430772  0.428988  0.714790  1
  N  N13  1  0.729640  0.292194  0.729640  1
  N  N14  1  0.999648  0.567171  0.274667  1
  N  N15  1  0.274667  0.567171  0.999648  1
  N  N16  1  0.284423  0.997812  0.564769  1
  N  N17  1  0.999811  0.275280  0.567624  1
  N  N18  1  0.719825  0.718111  0.280138  1
  N  N19  1  0.564769  0.997812  0.284423  1
  N  N20  1  0.280138  0.718111  0.719825  1
  N  N21  1  0.567624  0.275280  0.999811  1
