# generated using pymatgen
data_ErSc5Fe16(CoP6)2
_symmetry_space_group_name_H-M   'P 1'
_cell_length_a   3.62809500
_cell_length_b   10.34152000
_cell_length_c   11.97466700
_cell_angle_alpha   90.00000000
_cell_angle_beta   90.00000000
_cell_angle_gamma   90.00000000
_symmetry_Int_Tables_number   1
_chemical_formula_structural   ErSc5Fe16(CoP6)2
_chemical_formula_sum   'Er1 Sc5 Fe16 Co2 P12'
_cell_volume   449.28970946
_cell_formula_units_Z   1
loop_
 _symmetry_equiv_pos_site_id
 _symmetry_equiv_pos_as_xyz
  1  'x, y, z'
loop_
 _atom_site_type_symbol
 _atom_site_label
 _atom_site_symmetry_multiplicity
 _atom_site_fract_x
 _atom_site_fract_y
 _atom_site_fract_z
 _atom_site_occupancy
  Er  Er0  1  0.250000  0.750000  0.526738  1
  Sc  Sc1  1  0.750000  0.250000  0.473631  1
  Sc  Sc2  1  0.250000  0.930218  0.793483  1
  Sc  Sc3  1  0.250000  0.569782  0.793483  1
  Sc  Sc4  1  0.750000  0.070667  0.207064  1
  Sc  Sc5  1  0.750000  0.429333  0.207064  1
  Fe  Fe6  1  0.250000  0.250000  0.846501  1
  Fe  Fe7  1  0.750000  0.750000  0.152813  1
  Fe  Fe8  1  0.750000  0.250000  0.012660  1
  Fe  Fe9  1  0.250000  0.750000  0.987717  1
  Fe  Fe10  1  0.250000  0.421576  0.004674  1
  Fe  Fe11  1  0.250000  0.078424  0.004674  1
  Fe  Fe12  1  0.750000  0.577869  0.995388  1
  Fe  Fe13  1  0.750000  0.922131  0.995388  1
  Fe  Fe14  1  0.250000  0.449374  0.569550  1
  Fe  Fe15  1  0.250000  0.050626  0.569550  1
  Fe  Fe16  1  0.750000  0.546862  0.429627  1
  Fe  Fe17  1  0.750000  0.953138  0.429627  1
  Fe  Fe18  1  0.250000  0.870323  0.291113  1
  Fe  Fe19  1  0.250000  0.629677  0.291113  1
  Fe  Fe20  1  0.750000  0.130938  0.708065  1
  Fe  Fe21  1  0.750000  0.369062  0.708065  1
  Co  Co22  1  0.250000  0.250000  0.300819  1
  Co  Co23  1  0.750000  0.750000  0.702019  1
  P  P24  1  0.250000  0.250000  0.120256  1
  P  P25  1  0.750000  0.750000  0.881155  1
  P  P26  1  0.250000  0.250000  0.654979  1
  P  P27  1  0.750000  0.750000  0.342008  1
  P  P28  1  0.250000  0.439127  0.383636  1
  P  P29  1  0.250000  0.060873  0.383636  1
  P  P30  1  0.750000  0.558205  0.617193  1
  P  P31  1  0.750000  0.941795  0.617193  1
  P  P32  1  0.250000  0.901755  0.112827  1
  P  P33  1  0.250000  0.598245  0.112827  1
  P  P34  1  0.750000  0.098896  0.886730  1
  P  P35  1  0.750000  0.401104  0.886730  1
