# generated using pymatgen
data_CeNdZn5Ge
_symmetry_space_group_name_H-M   'P 1'
_cell_length_a   8.36187327
_cell_length_b   8.36187259
_cell_length_c   8.87803800
_cell_angle_alpha   90.00000000
_cell_angle_beta   90.00000000
_cell_angle_gamma   149.16795423
_symmetry_Int_Tables_number   1
_chemical_formula_structural   CeNdZn5Ge
_chemical_formula_sum   'Ce2 Nd2 Zn10 Ge2'
_cell_volume   318.15419917
_cell_formula_units_Z   2
loop_
 _symmetry_equiv_pos_site_id
 _symmetry_equiv_pos_as_xyz
  1  'x, y, z'
loop_
 _atom_site_type_symbol
 _atom_site_label
 _atom_site_symmetry_multiplicity
 _atom_site_fract_x
 _atom_site_fract_y
 _atom_site_fract_z
 _atom_site_occupancy
  Ce  Ce0  1  0.204245  0.795755  0.250000  1
  Ce  Ce1  1  0.795755  0.204245  0.750000  1
  Nd  Nd2  1  0.000000  0.000000  0.500000  1
  Nd  Nd3  1  0.000000  0.000000  0.000000  1
  Zn  Zn4  1  0.813310  0.186690  0.393148  1
  Zn  Zn5  1  0.186690  0.813310  0.606852  1
  Zn  Zn6  1  0.813310  0.186690  0.106852  1
  Zn  Zn7  1  0.186690  0.813310  0.893148  1
  Zn  Zn8  1  0.652554  0.347446  0.478069  1
  Zn  Zn9  1  0.347446  0.652554  0.521931  1
  Zn  Zn10  1  0.652554  0.347446  0.021931  1
  Zn  Zn11  1  0.347446  0.652554  0.978069  1
  Zn  Zn12  1  0.401909  0.598091  0.250000  1
  Zn  Zn13  1  0.598091  0.401909  0.750000  1
  Ge  Ge14  1  0.557563  0.442437  0.250000  1
  Ge  Ge15  1  0.442437  0.557563  0.750000  1
