# generated using pymatgen
data_EuNiIO6
_symmetry_space_group_name_H-M   'P 1'
_cell_length_a   5.21440000
_cell_length_b   5.21439962
_cell_length_c   5.06023600
_cell_angle_alpha   90.00000000
_cell_angle_beta   90.00000000
_cell_angle_gamma   119.99998975
_symmetry_Int_Tables_number   1
_chemical_formula_structural   EuNiIO6
_chemical_formula_sum   'Eu1 Ni1 I1 O6'
_cell_volume   119.15440515
_cell_formula_units_Z   1
loop_
 _symmetry_equiv_pos_site_id
 _symmetry_equiv_pos_as_xyz
  1  'x, y, z'
loop_
 _atom_site_type_symbol
 _atom_site_label
 _atom_site_symmetry_multiplicity
 _atom_site_fract_x
 _atom_site_fract_y
 _atom_site_fract_z
 _atom_site_occupancy
  Eu  Eu0  1  0.666667  0.333333  0.500000  1
  Ni  Ni1  1  0.333333  0.666667  0.000000  1
  I  I2  1  0.000000  0.000000  0.000000  1
  O  O3  1  0.020951  0.311279  0.786298  1
  O  O4  1  0.290327  0.979049  0.786298  1
  O  O5  1  0.290327  0.311279  0.213702  1
  O  O6  1  0.688721  0.709673  0.786298  1
  O  O7  1  0.688721  0.979049  0.213702  1
  O  O8  1  0.020951  0.709673  0.213702  1
