# generated using pymatgen
data_Pr16MgIn3Ir4
_symmetry_space_group_name_H-M   'P 1'
_cell_length_a   10.05473552
_cell_length_b   10.08692641
_cell_length_c   10.08692700
_cell_angle_alpha   60.00000136
_cell_angle_beta   59.89403780
_cell_angle_gamma   59.89403888
_symmetry_Int_Tables_number   1
_chemical_formula_structural   Pr16MgIn3Ir4
_chemical_formula_sum   'Pr16 Mg1 In3 Ir4'
_cell_volume   722.23072173
_cell_formula_units_Z   1
loop_
 _symmetry_equiv_pos_site_id
 _symmetry_equiv_pos_as_xyz
  1  'x, y, z'
loop_
 _atom_site_type_symbol
 _atom_site_label
 _atom_site_symmetry_multiplicity
 _atom_site_fract_x
 _atom_site_fract_y
 _atom_site_fract_z
 _atom_site_occupancy
  Pr  Pr0  1  0.348279  0.346921  0.346921  1
  Pr  Pr1  1  0.348279  0.346921  0.957879  1
  Pr  Pr2  1  0.348279  0.957879  0.346921  1
  Pr  Pr3  1  0.956584  0.347806  0.347806  1
  Pr  Pr4  1  0.807401  0.192768  0.192768  1
  Pr  Pr5  1  0.190352  0.809614  0.809614  1
  Pr  Pr6  1  0.190352  0.809614  0.190420  1
  Pr  Pr7  1  0.807401  0.192768  0.807064  1
  Pr  Pr8  1  0.190352  0.190420  0.809614  1
  Pr  Pr9  1  0.807401  0.807064  0.192768  1
  Pr  Pr10  1  0.936719  0.561813  0.561813  1
  Pr  Pr11  1  0.561297  0.939603  0.939603  1
  Pr  Pr12  1  0.561297  0.939603  0.559496  1
  Pr  Pr13  1  0.936719  0.561813  0.939655  1
  Pr  Pr14  1  0.561297  0.559496  0.939603  1
  Pr  Pr15  1  0.936719  0.939655  0.561813  1
  Mg  Mg16  1  0.271455  0.576182  0.576182  1
  In  In17  1  0.579511  0.580616  0.580616  1
  In  In18  1  0.579511  0.580616  0.259258  1
  In  In19  1  0.579511  0.259258  0.580616  1
  Ir  Ir20  1  0.141644  0.140871  0.140871  1
  Ir  Ir21  1  0.141644  0.140871  0.576613  1
  Ir  Ir22  1  0.141644  0.576613  0.140871  1
  Ir  Ir23  1  0.576355  0.141215  0.141215  1
