# generated using pymatgen
data_YTm5Fe7Co16
_symmetry_space_group_name_H-M   'P 1'
_cell_length_a   8.34990488
_cell_length_b   8.34457284
_cell_length_c   8.34457170
_cell_angle_alpha   60.04228361
_cell_angle_beta   59.97885999
_cell_angle_gamma   59.97885985
_symmetry_Int_Tables_number   1
_chemical_formula_structural   YTm5Fe7Co16
_chemical_formula_sum   'Y1 Tm5 Fe7 Co16'
_cell_volume   411.12543663
_cell_formula_units_Z   1
loop_
 _symmetry_equiv_pos_site_id
 _symmetry_equiv_pos_as_xyz
  1  'x, y, z'
loop_
 _atom_site_type_symbol
 _atom_site_label
 _atom_site_symmetry_multiplicity
 _atom_site_fract_x
 _atom_site_fract_y
 _atom_site_fract_z
 _atom_site_occupancy
  Y  Y0  1  0.709841  0.290159  0.290159  1
  Tm  Tm1  1  0.288309  0.711691  0.711691  1
  Tm  Tm2  1  0.287705  0.712295  0.288129  1
  Tm  Tm3  1  0.287705  0.288129  0.712295  1
  Tm  Tm4  1  0.711871  0.288129  0.712295  1
  Tm  Tm5  1  0.711871  0.712295  0.288129  1
  Fe  Fe6  1  0.500093  0.999907  0.999907  1
  Fe  Fe7  1  0.000093  0.499907  0.499907  1
  Fe  Fe8  1  0.000840  0.500768  0.999160  1
  Fe  Fe9  1  0.000840  0.999160  0.500768  1
  Fe  Fe10  1  0.499232  0.999160  0.500768  1
  Fe  Fe11  1  0.499232  0.500768  0.999160  1
  Fe  Fe12  1  0.000362  0.999638  0.999638  1
  Co  Co13  1  0.322704  0.323426  0.323426  1
  Co  Co14  1  0.323411  0.323444  0.029736  1
  Co  Co15  1  0.030445  0.323426  0.323426  1
  Co  Co16  1  0.323411  0.029736  0.323444  1
  Co  Co17  1  0.676556  0.676589  0.676589  1
  Co  Co18  1  0.676574  0.677296  0.969555  1
  Co  Co19  1  0.676574  0.969555  0.677296  1
  Co  Co20  1  0.970264  0.676589  0.676589  1
  Co  Co21  1  0.124247  0.122294  0.122294  1
  Co  Co22  1  0.122811  0.122754  0.631624  1
  Co  Co23  1  0.631165  0.122294  0.122294  1
  Co  Co24  1  0.122811  0.631624  0.122754  1
  Co  Co25  1  0.877246  0.877189  0.877189  1
  Co  Co26  1  0.877706  0.875753  0.368835  1
  Co  Co27  1  0.877706  0.368835  0.875753  1
  Co  Co28  1  0.368376  0.877189  0.877189  1
