# generated using pymatgen
data_Hf4Zr3As4
_symmetry_space_group_name_H-M   'P 1'
_cell_length_a   8.24731295
_cell_length_b   8.24731236
_cell_length_c   15.26812491
_cell_angle_alpha   76.07528566
_cell_angle_beta   76.07528608
_cell_angle_gamma   25.48287509
_symmetry_Int_Tables_number   1
_chemical_formula_structural   Hf4Zr3As4
_chemical_formula_sum   'Hf8 Zr6 As8'
_cell_volume   432.99726990
_cell_formula_units_Z   2
loop_
 _symmetry_equiv_pos_site_id
 _symmetry_equiv_pos_as_xyz
  1  'x, y, z'
loop_
 _atom_site_type_symbol
 _atom_site_label
 _atom_site_symmetry_multiplicity
 _atom_site_fract_x
 _atom_site_fract_y
 _atom_site_fract_z
 _atom_site_occupancy
  Hf  Hf0  1  0.000000  0.000000  0.000000  1
  Hf  Hf1  1  0.500000  0.500000  0.500000  1
  Hf  Hf2  1  0.430353  0.430353  0.164720  1
  Hf  Hf3  1  0.569647  0.569647  0.835280  1
  Hf  Hf4  1  0.193148  0.193148  0.693720  1
  Hf  Hf5  1  0.806852  0.806852  0.306280  1
  Hf  Hf6  1  0.206861  0.206861  0.204092  1
  Hf  Hf7  1  0.793139  0.793139  0.795908  1
  Zr  Zr8  1  0.338545  0.338545  0.968440  1
  Zr  Zr9  1  0.661455  0.661455  0.031560  1
  Zr  Zr10  1  0.000030  0.000030  0.334474  1
  Zr  Zr11  1  0.999970  0.999970  0.665526  1
  Zr  Zr12  1  0.179188  0.179188  0.453822  1
  Zr  Zr13  1  0.820812  0.820812  0.546178  1
  As  As14  1  0.178279  0.178279  0.891626  1
  As  As15  1  0.821721  0.821721  0.108374  1
  As  As16  1  0.369362  0.369362  0.405460  1
  As  As17  1  0.630638  0.630638  0.594540  1
  As  As18  1  0.370008  0.370008  0.662966  1
  As  As19  1  0.629992  0.629992  0.337034  1
  As  As20  1  0.062597  0.062597  0.149520  1
  As  As21  1  0.937403  0.937403  0.850480  1
