# generated using pymatgen
data_Lu6B4(IrRh)5
_symmetry_space_group_name_H-M   'P 1'
_cell_length_a   9.74347764
_cell_length_b   9.70619763
_cell_length_c   3.21650800
_cell_angle_alpha   90.00000000
_cell_angle_beta   90.00000000
_cell_angle_gamma   89.83870864
_symmetry_Int_Tables_number   1
_chemical_formula_structural   Lu6B4(IrRh)5
_chemical_formula_sum   'Lu6 B4 Ir5 Rh5'
_cell_volume   304.19077378
_cell_formula_units_Z   1
loop_
 _symmetry_equiv_pos_site_id
 _symmetry_equiv_pos_as_xyz
  1  'x, y, z'
loop_
 _atom_site_type_symbol
 _atom_site_label
 _atom_site_symmetry_multiplicity
 _atom_site_fract_x
 _atom_site_fract_y
 _atom_site_fract_z
 _atom_site_occupancy
  Lu  Lu0  1  0.676057  0.175752  0.000000  1
  Lu  Lu1  1  0.322917  0.825206  0.000000  1
  Lu  Lu2  1  0.175591  0.324942  0.000000  1
  Lu  Lu3  1  0.824320  0.674931  0.000000  1
  Lu  Lu4  1  0.999575  0.002402  0.000000  1
  Lu  Lu5  1  0.497967  0.500665  0.000000  1
  B  B6  1  0.118159  0.621999  0.000000  1
  B  B7  1  0.878051  0.382300  0.000000  1
  B  B8  1  0.620731  0.881624  0.000000  1
  B  B9  1  0.381449  0.117100  0.000000  1
  Ir  Ir10  1  0.501182  0.998840  0.500000  1
  Ir  Ir11  1  0.229428  0.072918  0.500000  1
  Ir  Ir12  1  0.772394  0.925869  0.500000  1
  Ir  Ir13  1  0.070476  0.771414  0.500000  1
  Ir  Ir14  1  0.728990  0.427895  0.500000  1
  Rh  Rh15  1  0.000438  0.499087  0.500000  1
  Rh  Rh16  1  0.930498  0.227925  0.500000  1
  Rh  Rh17  1  0.270864  0.570578  0.500000  1
  Rh  Rh18  1  0.570668  0.725960  0.500000  1
  Rh  Rh19  1  0.430245  0.272593  0.500000  1
