# generated using pymatgen
data_Hf5Co16Si7Tc
_symmetry_space_group_name_H-M   'P 1'
_cell_length_a   7.98648815
_cell_length_b   7.98607824
_cell_length_c   7.96483800
_cell_angle_alpha   60.09059364
_cell_angle_beta   60.09135109
_cell_angle_gamma   59.82292473
_symmetry_Int_Tables_number   1
_chemical_formula_structural   Hf5Co16Si7Tc
_chemical_formula_sum   'Hf5 Co16 Si7 Tc1'
_cell_volume   359.22042190
_cell_formula_units_Z   1
loop_
 _symmetry_equiv_pos_site_id
 _symmetry_equiv_pos_as_xyz
  1  'x, y, z'
loop_
 _atom_site_type_symbol
 _atom_site_label
 _atom_site_symmetry_multiplicity
 _atom_site_fract_x
 _atom_site_fract_y
 _atom_site_fract_z
 _atom_site_occupancy
  Hf  Hf0  1  0.793933  0.201283  0.798709  1
  Hf  Hf1  1  0.210911  0.210905  0.789061  1
  Hf  Hf2  1  0.201272  0.793942  0.206037  1
  Hf  Hf3  1  0.201291  0.793969  0.798680  1
  Hf  Hf4  1  0.793905  0.201266  0.206054  1
  Co  Co5  1  0.138980  0.619958  0.620530  1
  Co  Co6  1  0.619962  0.138955  0.620542  1
  Co  Co7  1  0.620439  0.620441  0.145670  1
  Co  Co8  1  0.854352  0.386570  0.379546  1
  Co  Co9  1  0.379362  0.379367  0.861047  1
  Co  Co10  1  0.379389  0.379396  0.380268  1
  Co  Co11  1  0.505904  0.832796  0.830681  1
  Co  Co12  1  0.832798  0.505915  0.830674  1
  Co  Co13  1  0.831240  0.831248  0.511081  1
  Co  Co14  1  0.831185  0.831189  0.826481  1
  Co  Co15  1  0.173672  0.489282  0.168561  1
  Co  Co16  1  0.489216  0.173695  0.168585  1
  Co  Co17  1  0.169092  0.169108  0.494655  1
  Co  Co18  1  0.169059  0.169075  0.167205  1
  Co  Co19  1  0.620434  0.620436  0.613470  1
  Co  Co20  1  0.386587  0.854291  0.379568  1
  Si  Si21  1  0.502186  0.502166  0.997805  1
  Si  Si22  1  0.505229  0.991926  0.494628  1
  Si  Si23  1  0.495502  0.495503  0.504526  1
  Si  Si24  1  0.002112  0.002087  0.497905  1
  Si  Si25  1  0.992005  0.505164  0.008166  1
  Si  Si26  1  0.991947  0.505206  0.494615  1
  Si  Si27  1  0.505188  0.991979  0.008156  1
  Tc  Tc28  1  0.802836  0.802872  0.197084  1
