# generated using pymatgen
data_Ba4NaPd
_symmetry_space_group_name_H-M   'P 1'
_cell_length_a   11.64957621
_cell_length_b   11.64957523
_cell_length_c   11.64957600
_cell_angle_alpha   59.99999781
_cell_angle_beta   60.00000059
_cell_angle_gamma   59.99999761
_symmetry_Int_Tables_number   1
_chemical_formula_structural   Ba4NaPd
_chemical_formula_sum   'Ba16 Na4 Pd4'
_cell_volume   1117.93183878
_cell_formula_units_Z   4
loop_
 _symmetry_equiv_pos_site_id
 _symmetry_equiv_pos_as_xyz
  1  'x, y, z'
loop_
 _atom_site_type_symbol
 _atom_site_label
 _atom_site_symmetry_multiplicity
 _atom_site_fract_x
 _atom_site_fract_y
 _atom_site_fract_z
 _atom_site_occupancy
  Ba  Ba0  1  0.341464  0.341464  0.341464  1
  Ba  Ba1  1  0.341464  0.341464  0.975608  1
  Ba  Ba2  1  0.341464  0.975608  0.341464  1
  Ba  Ba3  1  0.975608  0.341464  0.341464  1
  Ba  Ba4  1  0.813655  0.186345  0.186345  1
  Ba  Ba5  1  0.186345  0.813655  0.813655  1
  Ba  Ba6  1  0.186345  0.813655  0.186345  1
  Ba  Ba7  1  0.813655  0.186345  0.813655  1
  Ba  Ba8  1  0.186345  0.186345  0.813655  1
  Ba  Ba9  1  0.813655  0.813655  0.186345  1
  Ba  Ba10  1  0.940115  0.559885  0.559885  1
  Ba  Ba11  1  0.559885  0.940115  0.940115  1
  Ba  Ba12  1  0.559885  0.940115  0.559885  1
  Ba  Ba13  1  0.940115  0.559885  0.940115  1
  Ba  Ba14  1  0.559885  0.559885  0.940115  1
  Ba  Ba15  1  0.940115  0.940115  0.559885  1
  Na  Na16  1  0.577885  0.577885  0.577885  1
  Na  Na17  1  0.577885  0.577885  0.266347  1
  Na  Na18  1  0.577885  0.266347  0.577885  1
  Na  Na19  1  0.266347  0.577885  0.577885  1
  Pd  Pd20  1  0.141607  0.141607  0.141607  1
  Pd  Pd21  1  0.141607  0.141607  0.575181  1
  Pd  Pd22  1  0.141607  0.575181  0.141607  1
  Pd  Pd23  1  0.575181  0.141607  0.141607  1
