# generated using pymatgen
data_Tm10IrOsRu2
_symmetry_space_group_name_H-M   'P 1'
_cell_length_a   6.27836829
_cell_length_b   7.26309028
_cell_length_c   8.29848527
_cell_angle_alpha   96.83433147
_cell_angle_beta   112.08284164
_cell_angle_gamma   90.03395089
_symmetry_Int_Tables_number   1
_chemical_formula_structural   Tm10IrOsRu2
_chemical_formula_sum   'Tm10 Ir1 Os1 Ru2'
_cell_volume   347.73948230
_cell_formula_units_Z   1
loop_
 _symmetry_equiv_pos_site_id
 _symmetry_equiv_pos_as_xyz
  1  'x, y, z'
loop_
 _atom_site_type_symbol
 _atom_site_label
 _atom_site_symmetry_multiplicity
 _atom_site_fract_x
 _atom_site_fract_y
 _atom_site_fract_z
 _atom_site_occupancy
  Tm  Tm0  1  0.973156  0.914628  0.182713  1
  Tm  Tm1  1  0.789243  0.583465  0.815243  1
  Tm  Tm2  1  0.023133  0.083388  0.814084  1
  Tm  Tm3  1  0.206664  0.418429  0.180175  1
  Tm  Tm4  1  0.648206  0.816442  0.437851  1
  Tm  Tm5  1  0.210091  0.682294  0.563394  1
  Tm  Tm6  1  0.352417  0.181752  0.564350  1
  Tm  Tm7  1  0.793769  0.319364  0.438430  1
  Tm  Tm8  1  0.420015  0.749202  0.999419  1
  Tm  Tm9  1  0.578701  0.250476  0.999425  1
  Ir  Ir10  1  0.396886  0.076946  0.222061  1
  Os  Os11  1  0.176605  0.423470  0.782717  1
  Ru  Ru12  1  0.823849  0.576142  0.219249  1
  Ru  Ru13  1  0.607267  0.924002  0.780888  1
