# generated using pymatgen
data_Ca2Pr2RuRh3O14
_symmetry_space_group_name_H-M   'P 1'
_cell_length_a   7.31394595
_cell_length_b   7.31394387
_cell_length_c   7.42265676
_cell_angle_alpha   59.92655065
_cell_angle_beta   59.92656148
_cell_angle_gamma   59.61354956
_symmetry_Int_Tables_number   1
_chemical_formula_structural   Ca2Pr2RuRh3O14
_chemical_formula_sum   'Ca2 Pr2 Ru1 Rh3 O14'
_cell_volume   279.62955729
_cell_formula_units_Z   1
loop_
 _symmetry_equiv_pos_site_id
 _symmetry_equiv_pos_as_xyz
  1  'x, y, z'
loop_
 _atom_site_type_symbol
 _atom_site_label
 _atom_site_symmetry_multiplicity
 _atom_site_fract_x
 _atom_site_fract_y
 _atom_site_fract_z
 _atom_site_occupancy
  Ca  Ca0  1  0.625000  0.125000  0.625000  1
  Ca  Ca1  1  0.125000  0.625000  0.625000  1
  Pr  Pr2  1  0.625000  0.625000  0.125000  1
  Pr  Pr3  1  0.625000  0.625000  0.625000  1
  Ru  Ru4  1  0.125000  0.125000  0.625000  1
  Rh  Rh5  1  0.625000  0.125000  0.125000  1
  Rh  Rh6  1  0.125000  0.625000  0.125000  1
  Rh  Rh7  1  0.125000  0.125000  0.125000  1
  O  O8  1  0.192782  0.192782  0.802842  1
  O  O9  1  0.199355  0.795492  0.208133  1
  O  O10  1  0.454508  0.050645  0.041867  1
  O  O11  1  0.198557  0.804269  0.799825  1
  O  O12  1  0.051443  0.445731  0.450175  1
  O  O13  1  0.793414  0.793414  0.209865  1
  O  O14  1  0.456586  0.456586  0.040135  1
  O  O15  1  0.495658  0.495658  0.504105  1
  O  O16  1  0.057218  0.057218  0.447158  1
  O  O17  1  0.445731  0.051443  0.450175  1
  O  O18  1  0.050645  0.454508  0.041867  1
  O  O19  1  0.754342  0.754342  0.745895  1
  O  O20  1  0.804269  0.198557  0.799825  1
  O  O21  1  0.795492  0.199355  0.208133  1
