# generated using pymatgen
data_Cs3KTl4Mo8(P2O11)4
_symmetry_space_group_name_H-M   'P 1'
_cell_length_a   10.02900813
_cell_length_b   10.29508653
_cell_length_c   10.36214100
_cell_angle_alpha   90.02056954
_cell_angle_beta   90.08143892
_cell_angle_gamma   100.08550223
_symmetry_Int_Tables_number   1
_chemical_formula_structural   Cs3KTl4Mo8(P2O11)4
_chemical_formula_sum   'Cs3 K1 Tl4 Mo8 P8 O44'
_cell_volume   1053.35229087
_cell_formula_units_Z   1
loop_
 _symmetry_equiv_pos_site_id
 _symmetry_equiv_pos_as_xyz
  1  'x, y, z'
loop_
 _atom_site_type_symbol
 _atom_site_label
 _atom_site_symmetry_multiplicity
 _atom_site_fract_x
 _atom_site_fract_y
 _atom_site_fract_z
 _atom_site_occupancy
  Cs  Cs0  1  0.263601  0.752846  0.807663  1
  Cs  Cs1  1  0.756463  0.751743  0.695137  1
  Cs  Cs2  1  0.744546  0.248175  0.196174  1
  K  K3  1  0.500422  0.501030  0.041669  1
  Tl  Tl4  1  0.499443  0.999794  0.499527  1
  Tl  Tl5  1  0.000703  0.000533  0.000824  1
  Tl  Tl6  1  0.233688  0.241338  0.320328  1
  Tl  Tl7  1  0.998100  0.498051  0.540810  1
  Mo  Mo8  1  0.357265  0.915786  0.181045  1
  Mo  Mo9  1  0.141896  0.085681  0.681836  1
  Mo  Mo10  1  0.641881  0.086273  0.819506  1
  Mo  Mo11  1  0.858978  0.913878  0.319187  1
  Mo  Mo12  1  0.364020  0.654657  0.423022  1
  Mo  Mo13  1  0.137520  0.345931  0.925816  1
  Mo  Mo14  1  0.633351  0.344386  0.574459  1
  Mo  Mo15  1  0.865183  0.654591  0.074908  1
  P  P16  1  0.176675  0.598560  0.137276  1
  P  P17  1  0.323534  0.400076  0.635613  1
  P  P18  1  0.823295  0.401409  0.862707  1
  P  P19  1  0.676141  0.598601  0.361056  1
  P  P20  1  0.151001  0.875899  0.435179  1
  P  P21  1  0.349907  0.126289  0.935588  1
  P  P22  1  0.848502  0.123778  0.564708  1
  P  P23  1  0.651112  0.875755  0.065015  1
  O  O24  1  0.422105  0.797206  0.303522  1
  O  O25  1  0.078975  0.204675  0.804325  1
  O  O26  1  0.577494  0.204707  0.696406  1
  O  O27  1  0.922519  0.794998  0.196536  1
  O  O28  1  0.276751  0.019046  0.029836  1
  O  O29  1  0.223350  0.981855  0.531485  1
  O  O30  1  0.723098  0.981230  0.968511  1
  O  O31  1  0.776906  0.017647  0.468590  1
  O  O32  1  0.444872  0.715928  0.564485  1
  O  O33  1  0.058976  0.282656  0.067185  1
  O  O34  1  0.552936  0.282194  0.433160  1
  O  O35  1  0.944212  0.717768  0.933696  1
  O  O36  1  0.237320  0.556360  0.265122  1
  O  O37  1  0.262630  0.440714  0.763505  1
  O  O38  1  0.766348  0.442006  0.732113  1
  O  O39  1  0.733601  0.557037  0.231415  1
  O  O40  1  0.445952  0.066810  0.236006  1
  O  O41  1  0.050780  0.935346  0.734630  1
  O  O42  1  0.549987  0.936599  0.765001  1
  O  O43  1  0.952201  0.064077  0.267173  1
  O  O44  1  0.274504  0.478989  0.520369  1
  O  O45  1  0.228659  0.520999  0.022527  1
  O  O46  1  0.724902  0.518401  0.475194  1
  O  O47  1  0.771475  0.480968  0.975490  1
  O  O48  1  0.192812  0.925906  0.297609  1
  O  O49  1  0.307082  0.078465  0.797287  1
  O  O50  1  0.805815  0.075497  0.702380  1
  O  O51  1  0.695084  0.925466  0.202360  1
  O  O52  1  0.518245  0.564890  0.351510  1
  O  O53  1  0.981450  0.435519  0.855956  1
  O  O54  1  0.481036  0.434896  0.644386  1
  O  O55  1  0.019003  0.563610  0.143429  1
  O  O56  1  0.190643  0.739394  0.465461  1
  O  O57  1  0.313232  0.263755  0.967214  1
  O  O58  1  0.808536  0.260054  0.532562  1
  O  O59  1  0.688807  0.738507  0.034169  1
  O  O60  1  0.495537  0.862282  0.051067  1
  O  O61  1  0.004178  0.139484  0.550638  1
  O  O62  1  0.505185  0.138705  0.950727  1
  O  O63  1  0.995697  0.861371  0.450775  1
  O  O64  1  0.225110  0.746244  0.106962  1
  O  O65  1  0.274328  0.253038  0.601279  1
  O  O66  1  0.774624  0.254267  0.894414  1
  O  O67  1  0.725815  0.745376  0.393472  1
