# generated using pymatgen
data_Ta6MnGa4NiC2
_symmetry_space_group_name_H-M   'P 1'
_cell_length_a   8.20251042
_cell_length_b   8.19120853
_cell_length_c   8.20250953
_cell_angle_alpha   60.04557118
_cell_angle_beta   60.16037493
_cell_angle_gamma   60.04557161
_symmetry_Int_Tables_number   1
_chemical_formula_structural   Ta6MnGa4NiC2
_chemical_formula_sum   'Ta12 Mn2 Ga8 Ni2 C4'
_cell_volume   390.43582947
_cell_formula_units_Z   2
loop_
 _symmetry_equiv_pos_site_id
 _symmetry_equiv_pos_as_xyz
  1  'x, y, z'
loop_
 _atom_site_type_symbol
 _atom_site_label
 _atom_site_symmetry_multiplicity
 _atom_site_fract_x
 _atom_site_fract_y
 _atom_site_fract_z
 _atom_site_occupancy
  Ta  Ta0  1  0.552204  0.947796  0.552204  1
  Ta  Ta1  1  0.308995  0.699272  0.685093  1
  Ta  Ta2  1  0.685093  0.306640  0.308995  1
  Ta  Ta3  1  0.312887  0.687113  0.312887  1
  Ta  Ta4  1  0.685093  0.699272  0.308995  1
  Ta  Ta5  1  0.308995  0.306640  0.685093  1
  Ta  Ta6  1  0.564907  0.550728  0.941005  1
  Ta  Ta7  1  0.941005  0.550728  0.564907  1
  Ta  Ta8  1  0.564907  0.943360  0.941005  1
  Ta  Ta9  1  0.941005  0.943360  0.564907  1
  Ta  Ta10  1  0.697796  0.302204  0.697796  1
  Ta  Ta11  1  0.937113  0.562887  0.937113  1
  Mn  Mn12  1  0.625000  0.125000  0.125000  1
  Mn  Mn13  1  0.125000  0.125000  0.625000  1
  Ga  Ga14  1  0.919529  0.913228  0.919529  1
  Ga  Ga15  1  0.993285  0.336920  0.332874  1
  Ga  Ga16  1  0.330471  0.002284  0.330471  1
  Ga  Ga17  1  0.332874  0.336920  0.993285  1
  Ga  Ga18  1  0.919529  0.247716  0.919529  1
  Ga  Ga19  1  0.917126  0.913080  0.256715  1
  Ga  Ga20  1  0.256715  0.913080  0.917126  1
  Ga  Ga21  1  0.330471  0.336772  0.330471  1
  Ni  Ni22  1  0.125000  0.125000  0.125000  1
  Ni  Ni23  1  0.125000  0.625000  0.125000  1
  C  C24  1  0.625000  0.625000  0.625000  1
  C  C25  1  0.125000  0.625000  0.625000  1
  C  C26  1  0.625000  0.125000  0.625000  1
  C  C27  1  0.625000  0.625000  0.125000  1
