# generated using pymatgen
data_Y10Ga3FeBi2
_symmetry_space_group_name_H-M   'P 1'
_cell_length_a   8.68512867
_cell_length_b   8.68512913
_cell_length_c   8.84113200
_cell_angle_alpha   125.30185037
_cell_angle_beta   125.30186061
_cell_angle_gamma   79.83239696
_symmetry_Int_Tables_number   1
_chemical_formula_structural   Y10Ga3FeBi2
_chemical_formula_sum   'Y10 Ga3 Fe1 Bi2'
_cell_volume   431.60355594
_cell_formula_units_Z   1
loop_
 _symmetry_equiv_pos_site_id
 _symmetry_equiv_pos_as_xyz
  1  'x, y, z'
loop_
 _atom_site_type_symbol
 _atom_site_label
 _atom_site_symmetry_multiplicity
 _atom_site_fract_x
 _atom_site_fract_y
 _atom_site_fract_z
 _atom_site_occupancy
  Y  Y0  1  0.703908  0.517566  0.500000  1
  Y  Y1  1  0.481007  0.999975  0.201942  1
  Y  Y2  1  0.779065  0.298032  0.798058  1
  Y  Y3  1  0.500025  0.018993  0.798058  1
  Y  Y4  1  0.001270  0.000767  0.002036  1
  Y  Y5  1  0.048086  0.190467  0.500000  1
  Y  Y6  1  0.309533  0.451914  0.500000  1
  Y  Y7  1  0.201968  0.720935  0.201942  1
  Y  Y8  1  0.982434  0.796092  0.500000  1
  Y  Y9  1  0.499233  0.498730  0.997964  1
  Ga  Ga10  1  0.140019  0.642271  0.782290  1
  Ga  Ga11  1  0.857729  0.359981  0.217710  1
  Ga  Ga12  1  0.631050  0.868950  0.500000  1
  Fe  Fe13  1  0.377984  0.122016  0.500000  1
  Bi  Bi14  1  0.243344  0.256656  0.000000  1
  Bi  Bi15  1  0.743344  0.756656  0.000000  1
