# generated using pymatgen
data_Yb2YAl3Si2Pt
_symmetry_space_group_name_H-M   'P 1'
_cell_length_a   6.91998242
_cell_length_b   6.91998262
_cell_length_c   4.30082700
_cell_angle_alpha   90.00000000
_cell_angle_beta   90.00000000
_cell_angle_gamma   120.22567520
_symmetry_Int_Tables_number   1
_chemical_formula_structural   Yb2YAl3Si2Pt
_chemical_formula_sum   'Yb2 Y1 Al3 Si2 Pt1'
_cell_volume   177.95102449
_cell_formula_units_Z   1
loop_
 _symmetry_equiv_pos_site_id
 _symmetry_equiv_pos_as_xyz
  1  'x, y, z'
loop_
 _atom_site_type_symbol
 _atom_site_label
 _atom_site_symmetry_multiplicity
 _atom_site_fract_x
 _atom_site_fract_y
 _atom_site_fract_z
 _atom_site_occupancy
  Yb  Yb0  1  0.422217  0.000382  0.000000  1
  Yb  Yb1  1  0.000382  0.422217  0.000000  1
  Y  Y2  1  0.576819  0.576819  0.000000  1
  Al  Al3  1  0.763406  0.999331  0.500000  1
  Al  Al4  1  0.235957  0.235957  0.500000  1
  Al  Al5  1  0.999331  0.763406  0.500000  1
  Si  Si6  1  0.665836  0.338418  0.500000  1
  Si  Si7  1  0.338418  0.665835  0.500000  1
  Pt  Pt8  1  0.997634  0.997634  0.000000  1
