# generated using pymatgen
data_YEr7(AlRh)2
_symmetry_space_group_name_H-M   'P 1'
_cell_length_a   9.46050434
_cell_length_b   9.46175224
_cell_length_c   9.46094058
_cell_angle_alpha   60.10822123
_cell_angle_beta   60.10516966
_cell_angle_gamma   60.10499002
_symmetry_Int_Tables_number   1
_chemical_formula_structural   YEr7(AlRh)2
_chemical_formula_sum   'Y2 Er14 Al4 Rh4'
_cell_volume   600.27216559
_cell_formula_units_Z   2
loop_
 _symmetry_equiv_pos_site_id
 _symmetry_equiv_pos_as_xyz
  1  'x, y, z'
loop_
 _atom_site_type_symbol
 _atom_site_label
 _atom_site_symmetry_multiplicity
 _atom_site_fract_x
 _atom_site_fract_y
 _atom_site_fract_z
 _atom_site_occupancy
  Y  Y0  1  0.814420  0.814367  0.186156  1
  Y  Y1  1  0.187297  0.187337  0.814026  1
  Er  Er2  1  0.599784  0.599765  0.600053  1
  Er  Er3  1  0.604918  0.604881  0.189736  1
  Er  Er4  1  0.605117  0.189747  0.604959  1
  Er  Er5  1  0.189754  0.605110  0.604972  1
  Er  Er6  1  0.055973  0.443298  0.443351  1
  Er  Er7  1  0.442438  0.057480  0.057392  1
  Er  Er8  1  0.443266  0.056013  0.443377  1
  Er  Er9  1  0.057446  0.442453  0.057389  1
  Er  Er10  1  0.443466  0.443447  0.055773  1
  Er  Er11  1  0.057331  0.057361  0.442522  1
  Er  Er12  1  0.187211  0.813521  0.813535  1
  Er  Er13  1  0.813028  0.188387  0.188242  1
  Er  Er14  1  0.813533  0.187213  0.813517  1
  Er  Er15  1  0.188368  0.813054  0.188233  1
  Al  Al16  1  0.828421  0.828402  0.828386  1
  Al  Al17  1  0.826577  0.826572  0.517383  1
  Al  Al18  1  0.826530  0.517245  0.826641  1
  Al  Al19  1  0.517244  0.826522  0.826649  1
  Rh  Rh20  1  0.393644  0.393629  0.393027  1
  Rh  Rh21  1  0.391031  0.391000  0.822776  1
  Rh  Rh22  1  0.390468  0.822730  0.390935  1
  Rh  Rh23  1  0.822735  0.390470  0.390972  1
