# generated using pymatgen
data_Y3LuPt4F28
_symmetry_space_group_name_H-M   'P 1'
_cell_length_a   5.53865464
_cell_length_b   8.86036621
_cell_length_c   11.97122849
_cell_angle_alpha   62.55504975
_cell_angle_beta   90.07599867
_cell_angle_gamma   89.99475452
_symmetry_Int_Tables_number   1
_chemical_formula_structural   Y3LuPt4F28
_chemical_formula_sum   'Y3 Lu1 Pt4 F28'
_cell_volume   521.36280688
_cell_formula_units_Z   1
loop_
 _symmetry_equiv_pos_site_id
 _symmetry_equiv_pos_as_xyz
  1  'x, y, z'
loop_
 _atom_site_type_symbol
 _atom_site_label
 _atom_site_symmetry_multiplicity
 _atom_site_fract_x
 _atom_site_fract_y
 _atom_site_fract_z
 _atom_site_occupancy
  Y  Y0  1  0.738873  0.186332  0.735410  1
  Y  Y1  1  0.760547  0.183538  0.235563  1
  Y  Y2  1  0.238487  0.813263  0.764252  1
  Lu  Lu3  1  0.262300  0.813445  0.264147  1
  Pt  Pt4  1  0.760775  0.728450  0.045905  1
  Pt  Pt5  1  0.242321  0.270810  0.957911  1
  Pt  Pt6  1  0.258324  0.275233  0.455426  1
  Pt  Pt7  1  0.740369  0.727614  0.540684  1
  F  F8  1  0.938466  0.702389  0.414066  1
  F  F9  1  0.064779  0.298549  0.584185  1
  F  F10  1  0.435104  0.296752  0.085720  1
  F  F11  1  0.562588  0.703137  0.919343  1
  F  F12  1  0.469571  0.727177  0.141043  1
  F  F13  1  0.537742  0.274942  0.865698  1
  F  F14  1  0.963924  0.275042  0.363808  1
  F  F15  1  0.033447  0.724345  0.634436  1
  F  F16  1  0.956666  0.748767  0.176553  1
  F  F17  1  0.055722  0.252906  0.824225  1
  F  F18  1  0.445771  0.256041  0.322796  1
  F  F19  1  0.550584  0.745809  0.673516  1
  F  F20  1  0.775941  0.479096  0.143680  1
  F  F21  1  0.226169  0.520229  0.858716  1
  F  F22  1  0.271649  0.525350  0.356605  1
  F  F23  1  0.723206  0.478747  0.640478  1
  F  F24  1  0.939634  0.276827  0.042359  1
  F  F25  1  0.058790  0.721504  0.958631  1
  F  F26  1  0.438542  0.722921  0.453472  1
  F  F27  1  0.560444  0.280660  0.540781  1
  F  F28  1  0.746199  0.976564  0.448649  1
  F  F29  1  0.255024  0.026064  0.548796  1
  F  F30  1  0.247039  0.021484  0.051936  1
  F  F31  1  0.756311  0.977491  0.951477  1
  F  F32  1  0.576191  0.966789  0.233294  1
  F  F33  1  0.412375  0.031201  0.767889  1
  F  F34  1  0.084752  0.022460  0.266867  1
  F  F35  1  0.911372  0.968073  0.731679  1
