# generated using pymatgen
data_Hf5Zr3Fe9Si16Ru3
_symmetry_space_group_name_H-M   'P 1'
_cell_length_a   9.70100735
_cell_length_b   9.68056163
_cell_length_c   12.97259331
_cell_angle_alpha   53.40367240
_cell_angle_beta   53.43319447
_cell_angle_gamma   31.27420274
_symmetry_Int_Tables_number   1
_chemical_formula_structural   Hf5Zr3Fe9Si16Ru3
_chemical_formula_sum   'Hf5 Zr3 Fe9 Si16 Ru3'
_cell_volume   496.78146843
_cell_formula_units_Z   1
loop_
 _symmetry_equiv_pos_site_id
 _symmetry_equiv_pos_as_xyz
  1  'x, y, z'
loop_
 _atom_site_type_symbol
 _atom_site_label
 _atom_site_symmetry_multiplicity
 _atom_site_fract_x
 _atom_site_fract_y
 _atom_site_fract_z
 _atom_site_occupancy
  Hf  Hf0  1  0.040193  0.289318  0.641776  1
  Hf  Hf1  1  0.706524  0.959967  0.859936  1
  Hf  Hf2  1  0.959676  0.706426  0.359954  1
  Hf  Hf3  1  0.293763  0.043879  0.138280  1
  Hf  Hf4  1  0.295692  0.561851  0.645365  1
  Zr  Zr5  1  0.440535  0.698335  0.857207  1
  Zr  Zr6  1  0.704633  0.441800  0.353786  1
  Zr  Zr7  1  0.561832  0.295656  0.144835  1
  Fe  Fe8  1  0.904188  0.136326  0.586078  1
  Fe  Fe9  1  0.886022  0.074559  0.915820  1
  Fe  Fe10  1  0.094162  0.862383  0.417841  1
  Fe  Fe11  1  0.135719  0.907279  0.084975  1
  Fe  Fe12  1  0.826911  0.650990  0.778162  1
  Fe  Fe13  1  0.350423  0.175390  0.721792  1
  Fe  Fe14  1  0.175757  0.349023  0.221459  1
  Fe  Fe15  1  0.651818  0.827346  0.274551  1
  Fe  Fe16  1  0.217750  0.529852  0.932714  1
  Si  Si17  1  0.970595  0.254132  0.894685  1
  Si  Si18  1  0.744923  0.030101  0.606695  1
  Si  Si19  1  0.031395  0.742907  0.103870  1
  Si  Si20  1  0.255578  0.969610  0.394345  1
  Si  Si21  1  0.139577  0.392980  0.891334  1
  Si  Si22  1  0.610783  0.857020  0.611381  1
  Si  Si23  1  0.863735  0.615377  0.104900  1
  Si  Si24  1  0.390225  0.137835  0.390846  1
  Si  Si25  1  0.083551  0.574680  0.568198  1
  Si  Si26  1  0.421335  0.919414  0.931749  1
  Si  Si27  1  0.916891  0.423088  0.433085  1
  Si  Si28  1  0.566969  0.104045  0.058022  1
  Si  Si29  1  0.621800  0.367623  0.760025  1
  Si  Si30  1  0.369793  0.630143  0.250397  1
  Si  Si31  1  0.118446  0.875596  0.753024  1
  Si  Si32  1  0.887358  0.113801  0.250205  1
  Ru  Ru33  1  0.483845  0.759045  0.563304  1
  Ru  Ru34  1  0.759482  0.486686  0.063079  1
  Ru  Ru35  1  0.518122  0.235537  0.436324  1
