# generated using pymatgen
data_HfU3(Tc2Sn)4
_symmetry_space_group_name_H-M   'P 1'
_cell_length_a   6.42075600
_cell_length_b   6.42072400
_cell_length_c   6.92201700
_cell_angle_alpha   90.00000000
_cell_angle_beta   90.00215075
_cell_angle_gamma   90.00000000
_symmetry_Int_Tables_number   1
_chemical_formula_structural   HfU3(Tc2Sn)4
_chemical_formula_sum   'Hf1 U3 Tc8 Sn4'
_cell_volume   285.36639540
_cell_formula_units_Z   1
loop_
 _symmetry_equiv_pos_site_id
 _symmetry_equiv_pos_as_xyz
  1  'x, y, z'
loop_
 _atom_site_type_symbol
 _atom_site_label
 _atom_site_symmetry_multiplicity
 _atom_site_fract_x
 _atom_site_fract_y
 _atom_site_fract_z
 _atom_site_occupancy
  Hf  Hf0  1  0.750009  0.750000  0.500049  1
  U  U1  1  0.249975  0.250001  0.999956  1
  U  U2  1  0.750017  0.750000  0.999958  1
  U  U3  1  0.249982  0.250001  0.500054  1
  Tc  Tc4  1  0.497155  0.002842  0.251137  1
  Tc  Tc5  1  0.497155  0.497161  0.251137  1
  Tc  Tc6  1  0.002824  0.002828  0.251148  1
  Tc  Tc7  1  0.002824  0.497176  0.251148  1
  Tc  Tc8  1  0.002843  0.002832  0.748850  1
  Tc  Tc9  1  0.002843  0.497164  0.748850  1
  Tc  Tc10  1  0.497187  0.002815  0.748854  1
  Tc  Tc11  1  0.497187  0.497183  0.748854  1
  Sn  Sn12  1  0.750005  0.250001  0.999965  1
  Sn  Sn13  1  0.249996  0.750000  0.999966  1
  Sn  Sn14  1  0.250000  0.750000  0.500035  1
  Sn  Sn15  1  0.750004  0.250001  0.500037  1
