# generated using pymatgen
data_Tb2Dy2ReB12Ru
_symmetry_space_group_name_H-M   'P 1'
_cell_length_a   3.68378800
_cell_length_b   9.17847269
_cell_length_c   11.57230706
_cell_angle_alpha   90.20950926
_cell_angle_beta   90.00000000
_cell_angle_gamma   90.00000000
_symmetry_Int_Tables_number   1
_chemical_formula_structural   Tb2Dy2ReB12Ru
_chemical_formula_sum   'Tb4 Dy4 Re2 B24 Ru2'
_cell_volume   391.27499441
_cell_formula_units_Z   2
loop_
 _symmetry_equiv_pos_site_id
 _symmetry_equiv_pos_as_xyz
  1  'x, y, z'
loop_
 _atom_site_type_symbol
 _atom_site_label
 _atom_site_symmetry_multiplicity
 _atom_site_fract_x
 _atom_site_fract_y
 _atom_site_fract_z
 _atom_site_occupancy
  Tb  Tb0  1  0.000000  0.321438  0.412512  1
  Tb  Tb1  1  0.000000  0.678562  0.587488  1
  Tb  Tb2  1  0.000000  0.824968  0.084611  1
  Tb  Tb3  1  0.000000  0.175032  0.915389  1
  Dy  Dy4  1  0.000000  0.942958  0.370425  1
  Dy  Dy5  1  0.000000  0.057042  0.629575  1
  Dy  Dy6  1  0.000000  0.443078  0.129444  1
  Dy  Dy7  1  0.000000  0.556922  0.870556  1
  Re  Re8  1  0.000000  0.138677  0.179666  1
  Re  Re9  1  0.000000  0.861323  0.820334  1
  B  B10  1  0.500000  0.554222  0.432700  1
  B  B11  1  0.500000  0.445778  0.567300  1
  B  B12  1  0.500000  0.053479  0.067095  1
  B  B13  1  0.500000  0.946521  0.932905  1
  B  B14  1  0.500000  0.748405  0.418693  1
  B  B15  1  0.500000  0.251595  0.581307  1
  B  B16  1  0.500000  0.248790  0.081279  1
  B  B17  1  0.500000  0.751210  0.918721  1
  B  B18  1  0.500000  0.790499  0.266158  1
  B  B19  1  0.500000  0.209501  0.733842  1
  B  B20  1  0.500000  0.291613  0.234476  1
  B  B21  1  0.500000  0.708387  0.765524  1
  B  B22  1  0.500000  0.631264  0.186392  1
  B  B23  1  0.500000  0.368736  0.813608  1
  B  B24  1  0.500000  0.131578  0.314495  1
  B  B25  1  0.500000  0.868422  0.685505  1
  B  B26  1  0.500000  0.983467  0.212378  1
  B  B27  1  0.500000  0.016533  0.787622  1
  B  B28  1  0.500000  0.484044  0.288154  1
  B  B29  1  0.500000  0.515956  0.711846  1
  B  B30  1  0.500000  0.603460  0.028777  1
  B  B31  1  0.500000  0.396540  0.971223  1
  B  B32  1  0.500000  0.104137  0.471279  1
  B  B33  1  0.500000  0.895863  0.528721  1
  Ru  Ru34  1  0.000000  0.638032  0.321579  1
  Ru  Ru35  1  0.000000  0.361968  0.678421  1
