# generated using pymatgen
data_DyHo11(SiPd)12
_symmetry_space_group_name_H-M   'P 1'
_cell_length_a   4.34659100
_cell_length_b   7.41423303
_cell_length_c   20.89956000
_cell_angle_alpha   90.00502308
_cell_angle_beta   90.00000000
_cell_angle_gamma   90.00000000
_symmetry_Int_Tables_number   1
_chemical_formula_structural   DyHo11(SiPd)12
_chemical_formula_sum   'Dy1 Ho11 Si12 Pd12'
_cell_volume   673.52256346
_cell_formula_units_Z   1
loop_
 _symmetry_equiv_pos_site_id
 _symmetry_equiv_pos_as_xyz
  1  'x, y, z'
loop_
 _atom_site_type_symbol
 _atom_site_label
 _atom_site_symmetry_multiplicity
 _atom_site_fract_x
 _atom_site_fract_y
 _atom_site_fract_z
 _atom_site_occupancy
  Dy  Dy0  1  0.250000  0.789524  0.501001  1
  Ho  Ho1  1  0.250000  0.705413  0.332722  1
  Ho  Ho2  1  0.750000  0.294387  0.667217  1
  Ho  Ho3  1  0.750000  0.205561  0.167203  1
  Ho  Ho4  1  0.250000  0.794379  0.832884  1
  Ho  Ho5  1  0.250000  0.792444  0.166548  1
  Ho  Ho6  1  0.750000  0.207549  0.833504  1
  Ho  Ho7  1  0.750000  0.292525  0.333313  1
  Ho  Ho8  1  0.250000  0.707365  0.666597  1
  Ho  Ho9  1  0.250000  0.710970  0.001077  1
  Ho  Ho10  1  0.750000  0.288998  0.999010  1
  Ho  Ho11  1  0.750000  0.211292  0.498862  1
  Si  Si12  1  0.250000  0.088898  0.071569  1
  Si  Si13  1  0.750000  0.911100  0.928435  1
  Si  Si14  1  0.750000  0.588741  0.428252  1
  Si  Si15  1  0.250000  0.411051  0.571560  1
  Si  Si16  1  0.250000  0.084888  0.271319  1
  Si  Si17  1  0.750000  0.915113  0.728737  1
  Si  Si18  1  0.750000  0.584881  0.228644  1
  Si  Si19  1  0.250000  0.415111  0.771396  1
  Si  Si20  1  0.250000  0.086809  0.395340  1
  Si  Si21  1  0.750000  0.913297  0.604642  1
  Si  Si22  1  0.750000  0.586739  0.104473  1
  Si  Si23  1  0.250000  0.413261  0.895532  1
  Pd  Pd24  1  0.250000  0.416526  0.237078  1
  Pd  Pd25  1  0.750000  0.583368  0.762924  1
  Pd  Pd26  1  0.750000  0.916569  0.262850  1
  Pd  Pd27  1  0.250000  0.083449  0.737179  1
  Pd  Pd28  1  0.250000  0.416592  0.437378  1
  Pd  Pd29  1  0.750000  0.582796  0.562789  1
  Pd  Pd30  1  0.750000  0.916890  0.062583  1
  Pd  Pd31  1  0.250000  0.083086  0.937391  1
  Pd  Pd32  1  0.250000  0.419550  0.093427  1
  Pd  Pd33  1  0.750000  0.580424  0.906552  1
  Pd  Pd34  1  0.750000  0.919772  0.406405  1
  Pd  Pd35  1  0.250000  0.080682  0.593611  1
