# generated using pymatgen
data_ScPa3Co3NiGe4
_symmetry_space_group_name_H-M   'P 1'
_cell_length_a   4.24259700
_cell_length_b   6.86318942
_cell_length_c   7.12947465
_cell_angle_alpha   90.33696474
_cell_angle_beta   90.00000000
_cell_angle_gamma   90.00000000
_symmetry_Int_Tables_number   1
_chemical_formula_structural   ScPa3Co3NiGe4
_chemical_formula_sum   'Sc1 Pa3 Co3 Ni1 Ge4'
_cell_volume   207.59064803
_cell_formula_units_Z   1
loop_
 _symmetry_equiv_pos_site_id
 _symmetry_equiv_pos_as_xyz
  1  'x, y, z'
loop_
 _atom_site_type_symbol
 _atom_site_label
 _atom_site_symmetry_multiplicity
 _atom_site_fract_x
 _atom_site_fract_y
 _atom_site_fract_z
 _atom_site_occupancy
  Sc  Sc0  1  0.750000  0.505701  0.787799  1
  Pa  Pa1  1  0.250000  0.990736  0.298755  1
  Pa  Pa2  1  0.250000  0.479889  0.207127  1
  Pa  Pa3  1  0.750000  0.010098  0.707163  1
  Co  Co4  1  0.250000  0.237661  0.932347  1
  Co  Co5  1  0.250000  0.730903  0.566662  1
  Co  Co6  1  0.750000  0.283046  0.418123  1
  Ni  Ni7  1  0.750000  0.796133  0.078901  1
  Ge  Ge8  1  0.250000  0.309925  0.598962  1
  Ge  Ge9  1  0.250000  0.784455  0.904351  1
  Ge  Ge10  1  0.750000  0.682292  0.416830  1
  Ge  Ge11  1  0.750000  0.189161  0.082980  1
