# generated using pymatgen
data_Pr2Nd6Co3Si12Pd
_symmetry_space_group_name_H-M   'P 1'
_cell_length_a   8.14310800
_cell_length_b   8.14310903
_cell_length_c   8.45587400
_cell_angle_alpha   90.00000000
_cell_angle_beta   90.00000000
_cell_angle_gamma   120.00000396
_symmetry_Int_Tables_number   1
_chemical_formula_structural   Pr2Nd6Co3Si12Pd
_chemical_formula_sum   'Pr2 Nd6 Co3 Si12 Pd1'
_cell_volume   485.58980660
_cell_formula_units_Z   1
loop_
 _symmetry_equiv_pos_site_id
 _symmetry_equiv_pos_as_xyz
  1  'x, y, z'
loop_
 _atom_site_type_symbol
 _atom_site_label
 _atom_site_symmetry_multiplicity
 _atom_site_fract_x
 _atom_site_fract_y
 _atom_site_fract_z
 _atom_site_occupancy
  Pr  Pr0  1  0.000000  0.000000  0.750531  1
  Pr  Pr1  1  0.000000  0.000000  0.248614  1
  Nd  Nd2  1  0.496957  0.503043  0.753416  1
  Nd  Nd3  1  0.498980  0.501020  0.247554  1
  Nd  Nd4  1  0.006084  0.503043  0.753416  1
  Nd  Nd5  1  0.002040  0.501020  0.247554  1
  Nd  Nd6  1  0.496957  0.993916  0.753416  1
  Nd  Nd7  1  0.498980  0.997960  0.247554  1
  Co  Co8  1  0.666667  0.333333  0.992572  1
  Co  Co9  1  0.333333  0.666667  0.007456  1
  Co  Co10  1  0.333333  0.666667  0.491398  1
  Si  Si11  1  0.827832  0.172168  0.001095  1
  Si  Si12  1  0.171264  0.828736  0.999042  1
  Si  Si13  1  0.344336  0.172168  0.001095  1
  Si  Si14  1  0.172551  0.827449  0.502005  1
  Si  Si15  1  0.657470  0.828736  0.999042  1
  Si  Si16  1  0.835924  0.164076  0.497550  1
  Si  Si17  1  0.827832  0.655664  0.001095  1
  Si  Si18  1  0.654899  0.827449  0.502005  1
  Si  Si19  1  0.171264  0.342530  0.999042  1
  Si  Si20  1  0.328152  0.164076  0.497550  1
  Si  Si21  1  0.172551  0.345101  0.502005  1
  Si  Si22  1  0.835924  0.671848  0.497550  1
  Pd  Pd23  1  0.666667  0.333333  0.507446  1
