# generated using pymatgen
data_VZn2(PO4)2
_symmetry_space_group_name_H-M   'P 1'
_cell_length_a   8.60591100
_cell_length_b   5.10817813
_cell_length_c   8.95345796
_cell_angle_alpha   59.06923352
_cell_angle_beta   90.00000000
_cell_angle_gamma   90.00000000
_symmetry_Int_Tables_number   1
_chemical_formula_structural   VZn2(PO4)2
_chemical_formula_sum   'V2 Zn4 P4 O16'
_cell_volume   337.62466561
_cell_formula_units_Z   2
loop_
 _symmetry_equiv_pos_site_id
 _symmetry_equiv_pos_as_xyz
  1  'x, y, z'
loop_
 _atom_site_type_symbol
 _atom_site_label
 _atom_site_symmetry_multiplicity
 _atom_site_fract_x
 _atom_site_fract_y
 _atom_site_fract_z
 _atom_site_occupancy
  V  V0  1  0.500000  0.000000  0.500000  1
  V  V1  1  0.000000  0.000000  0.000000  1
  Zn  Zn2  1  0.863775  0.032291  0.380690  1
  Zn  Zn3  1  0.363775  0.967709  0.119310  1
  Zn  Zn4  1  0.136225  0.967709  0.619310  1
  Zn  Zn5  1  0.636225  0.032291  0.880690  1
  P  P6  1  0.194368  0.336132  0.200721  1
  P  P7  1  0.694368  0.663868  0.299279  1
  P  P8  1  0.805632  0.663868  0.799279  1
  P  P9  1  0.305632  0.336132  0.700721  1
  O  O10  1  0.358371  0.180167  0.258629  1
  O  O11  1  0.858371  0.819833  0.241371  1
  O  O12  1  0.641629  0.819833  0.741371  1
  O  O13  1  0.141629  0.180167  0.758629  1
  O  O14  1  0.080889  0.184844  0.359814  1
  O  O15  1  0.580889  0.815156  0.140186  1
  O  O16  1  0.919111  0.815156  0.640186  1
  O  O17  1  0.419111  0.184844  0.859814  1
  O  O18  1  0.200617  0.682598  0.135005  1
  O  O19  1  0.700617  0.317402  0.364995  1
  O  O20  1  0.359668  0.283214  0.555066  1
  O  O21  1  0.859668  0.716786  0.944934  1
  O  O22  1  0.640332  0.716786  0.444934  1
  O  O23  1  0.140332  0.283214  0.055066  1
  O  O24  1  0.299383  0.682598  0.635005  1
  O  O25  1  0.799383  0.317402  0.864995  1
