# generated using pymatgen
data_PrGd5(RuI3)2
_symmetry_space_group_name_H-M   'P 1'
_cell_length_a   4.24476400
_cell_length_b   8.99291605
_cell_length_c   12.37349200
_cell_angle_alpha   94.37515733
_cell_angle_beta   90.00000000
_cell_angle_gamma   90.00000000
_symmetry_Int_Tables_number   1
_chemical_formula_structural   PrGd5(RuI3)2
_chemical_formula_sum   'Pr1 Gd5 Ru2 I6'
_cell_volume   470.95450476
_cell_formula_units_Z   1
loop_
 _symmetry_equiv_pos_site_id
 _symmetry_equiv_pos_as_xyz
  1  'x, y, z'
loop_
 _atom_site_type_symbol
 _atom_site_label
 _atom_site_symmetry_multiplicity
 _atom_site_fract_x
 _atom_site_fract_y
 _atom_site_fract_z
 _atom_site_occupancy
  Pr  Pr0  1  0.750000  0.278432  0.603857  1
  Gd  Gd1  1  0.250000  0.729678  0.396360  1
  Gd  Gd2  1  0.750000  0.872970  0.624093  1
  Gd  Gd3  1  0.250000  0.125679  0.374456  1
  Gd  Gd4  1  0.750000  0.895471  0.181677  1
  Gd  Gd5  1  0.250000  0.099586  0.818905  1
  Ru  Ru6  1  0.750000  0.938755  0.405138  1
  Ru  Ru7  1  0.250000  0.058295  0.593971  1
  I  I8  1  0.750000  0.425572  0.361626  1
  I  I9  1  0.250000  0.583221  0.636668  1
  I  I10  1  0.750000  0.857328  0.890632  1
  I  I11  1  0.250000  0.138373  0.108797  1
  I  I12  1  0.750000  0.354228  0.869359  1
  I  I13  1  0.250000  0.642410  0.134458  1
