# generated using pymatgen
data_Tc3Ir2Ru3
_symmetry_space_group_name_H-M   'P 1'
_cell_length_a   5.50011000
_cell_length_b   5.50011001
_cell_length_c   4.35924800
_cell_angle_alpha   90.00000000
_cell_angle_beta   90.00000000
_cell_angle_gamma   119.99999991
_symmetry_Int_Tables_number   1
_chemical_formula_structural   Tc3Ir2Ru3
_chemical_formula_sum   'Tc3 Ir2 Ru3'
_cell_volume   114.20495861
_cell_formula_units_Z   1
loop_
 _symmetry_equiv_pos_site_id
 _symmetry_equiv_pos_as_xyz
  1  'x, y, z'
loop_
 _atom_site_type_symbol
 _atom_site_label
 _atom_site_symmetry_multiplicity
 _atom_site_fract_x
 _atom_site_fract_y
 _atom_site_fract_z
 _atom_site_occupancy
  Tc  Tc0  1  0.160762  0.321525  0.250000  1
  Tc  Tc1  1  0.678475  0.839238  0.250000  1
  Tc  Tc2  1  0.160762  0.839238  0.250000  1
  Ir  Ir3  1  0.333333  0.666667  0.750000  1
  Ir  Ir4  1  0.666667  0.333333  0.250000  1
  Ru  Ru5  1  0.834278  0.668557  0.750000  1
  Ru  Ru6  1  0.331443  0.165722  0.750000  1
  Ru  Ru7  1  0.834278  0.165722  0.750000  1
