# generated using pymatgen
data_Yb2Ce(MnC3)2
_symmetry_space_group_name_H-M   'P 1'
_cell_length_a   8.13370239
_cell_length_b   8.06839073
_cell_length_c   5.01903000
_cell_angle_alpha   90.00000000
_cell_angle_beta   90.00000000
_cell_angle_gamma   120.00371118
_symmetry_Int_Tables_number   1
_chemical_formula_structural   Yb2Ce(MnC3)2
_chemical_formula_sum   'Yb4 Ce2 Mn4 C12'
_cell_volume   285.23931209
_cell_formula_units_Z   2
loop_
 _symmetry_equiv_pos_site_id
 _symmetry_equiv_pos_as_xyz
  1  'x, y, z'
loop_
 _atom_site_type_symbol
 _atom_site_label
 _atom_site_symmetry_multiplicity
 _atom_site_fract_x
 _atom_site_fract_y
 _atom_site_fract_z
 _atom_site_occupancy
  Yb  Yb0  1  0.615125  0.690455  0.750000  1
  Yb  Yb1  1  0.927409  0.615892  0.250000  1
  Yb  Yb2  1  0.684423  0.073326  0.250000  1
  Yb  Yb3  1  0.311557  0.924814  0.750000  1
  Ce  Ce4  1  0.070899  0.386091  0.750000  1
  Ce  Ce5  1  0.384662  0.308899  0.250000  1
  Mn  Mn6  1  0.995522  0.994560  0.498317  1
  Mn  Mn7  1  0.995522  0.994560  0.001683  1
  Mn  Mn8  1  0.667245  0.330333  0.750000  1
  Mn  Mn9  1  0.334359  0.666360  0.250000  1
  C  C10  1  0.952500  0.773422  0.750000  1
  C  C11  1  0.183608  0.955840  0.250000  1
  C  C12  1  0.774089  0.820541  0.250000  1
  C  C13  1  0.231559  0.196159  0.750000  1
  C  C14  1  0.822992  0.046274  0.750000  1
  C  C15  1  0.043767  0.225914  0.250000  1
  C  C16  1  0.857555  0.580271  0.750000  1
  C  C17  1  0.278584  0.856920  0.250000  1
  C  C18  1  0.582160  0.725325  0.250000  1
  C  C19  1  0.424435  0.275454  0.750000  1
  C  C20  1  0.141826  0.421331  0.250000  1
  C  C21  1  0.720202  0.137258  0.750000  1
