# generated using pymatgen
data_KCo2CuO4
_symmetry_space_group_name_H-M   'P 1'
_cell_length_a   5.30355844
_cell_length_b   5.29984463
_cell_length_c   7.38157075
_cell_angle_alpha   89.99783437
_cell_angle_beta   89.98843611
_cell_angle_gamma   91.82680144
_symmetry_Int_Tables_number   1
_chemical_formula_structural   KCo2CuO4
_chemical_formula_sum   'K2 Co4 Cu2 O8'
_cell_volume   207.37599879
_cell_formula_units_Z   2
loop_
 _symmetry_equiv_pos_site_id
 _symmetry_equiv_pos_as_xyz
  1  'x, y, z'
loop_
 _atom_site_type_symbol
 _atom_site_label
 _atom_site_symmetry_multiplicity
 _atom_site_fract_x
 _atom_site_fract_y
 _atom_site_fract_z
 _atom_site_occupancy
  K  K0  1  0.001587  0.501619  0.249407  1
  K  K1  1  0.498313  0.998828  0.750748  1
  Co  Co2  1  0.497110  0.502696  0.499901  1
  Co  Co3  1  0.995097  0.494321  0.749693  1
  Co  Co4  1  0.505381  0.005362  0.250126  1
  Co  Co5  1  0.002933  0.996831  0.999883  1
  Cu  Cu6  1  0.511976  0.488470  0.999934  1
  Cu  Cu7  1  0.986637  0.013472  0.499965  1
  O  O8  1  0.348319  0.532572  0.732010  1
  O  O9  1  0.859673  0.025696  0.247664  1
  O  O10  1  0.467854  0.652087  0.268353  1
  O  O11  1  0.973883  0.140134  0.752096  1
  O  O12  1  0.337361  0.158335  0.059126  1
  O  O13  1  0.817835  0.645698  0.557541  1
  O  O14  1  0.842700  0.661739  0.940947  1
  O  O15  1  0.353345  0.182141  0.442605  1
