# generated using pymatgen
data_Zr7(ScPb2)3
_symmetry_space_group_name_H-M   'P 1'
_cell_length_a   8.65791000
_cell_length_b   8.66563089
_cell_length_c   5.94805300
_cell_angle_alpha   90.00000000
_cell_angle_beta   90.00000000
_cell_angle_gamma   119.97053103
_symmetry_Int_Tables_number   1
_chemical_formula_structural   Zr7(ScPb2)3
_chemical_formula_sum   'Zr7 Sc3 Pb6'
_cell_volume   386.58731684
_cell_formula_units_Z   1
loop_
 _symmetry_equiv_pos_site_id
 _symmetry_equiv_pos_as_xyz
  1  'x, y, z'
loop_
 _atom_site_type_symbol
 _atom_site_label
 _atom_site_symmetry_multiplicity
 _atom_site_fract_x
 _atom_site_fract_y
 _atom_site_fract_z
 _atom_site_occupancy
  Zr  Zr0  1  0.329158  0.666775  0.501255  1
  Zr  Zr1  1  0.244170  0.000000  0.250000  1
  Zr  Zr2  1  0.662384  0.333225  0.501255  1
  Zr  Zr3  1  0.003502  0.758382  0.750000  1
  Zr  Zr4  1  0.329158  0.666775  0.998745  1
  Zr  Zr5  1  0.245120  0.241618  0.750000  1
  Zr  Zr6  1  0.662384  0.333225  0.998745  1
  Sc  Sc7  1  0.760930  0.757501  0.250000  1
  Sc  Sc8  1  0.003430  0.242499  0.250000  1
  Sc  Sc9  1  0.760523  0.000000  0.750000  1
  Pb  Pb10  1  0.610910  0.614099  0.750000  1
  Pb  Pb11  1  0.393732  0.000000  0.750000  1
  Pb  Pb12  1  0.612473  0.000000  0.250000  1
  Pb  Pb13  1  0.996811  0.385901  0.750000  1
  Pb  Pb14  1  0.389192  0.393069  0.250000  1
  Pb  Pb15  1  0.996122  0.606931  0.250000  1
