# generated using pymatgen
data_SrU3(PO5)4
_symmetry_space_group_name_H-M   'P 1'
_cell_length_a   5.53110070
_cell_length_b   8.92930643
_cell_length_c   9.40199124
_cell_angle_alpha   100.15013652
_cell_angle_beta   104.41927368
_cell_angle_gamma   97.40455599
_symmetry_Int_Tables_number   1
_chemical_formula_structural   SrU3(PO5)4
_chemical_formula_sum   'Sr1 U3 P4 O20'
_cell_volume   435.35881409
_cell_formula_units_Z   1
loop_
 _symmetry_equiv_pos_site_id
 _symmetry_equiv_pos_as_xyz
  1  'x, y, z'
loop_
 _atom_site_type_symbol
 _atom_site_label
 _atom_site_symmetry_multiplicity
 _atom_site_fract_x
 _atom_site_fract_y
 _atom_site_fract_z
 _atom_site_occupancy
  Sr  Sr0  1  0.347317  0.285407  0.035604  1
  U  U1  1  0.639261  0.706013  0.956228  1
  U  U2  1  0.333312  0.800302  0.548733  1
  U  U3  1  0.661615  0.204240  0.447464  1
  P  P4  1  0.078282  0.529666  0.769320  1
  P  P5  1  0.908382  0.494396  0.245086  1
  P  P6  1  0.281859  0.919388  0.178998  1
  P  P7  1  0.752246  0.062497  0.815116  1
  O  O8  1  0.035402  0.081153  0.865162  1
  O  O9  1  0.996048  0.852423  0.097813  1
  O  O10  1  0.961923  0.389708  0.642647  1
  O  O11  1  0.016137  0.632788  0.377514  1
  O  O12  1  0.714610  0.377479  0.283061  1
  O  O13  1  0.237306  0.666766  0.733387  1
  O  O14  1  0.429954  0.825393  0.078852  1
  O  O15  1  0.629631  0.171679  0.902567  1
  O  O16  1  0.421278  0.295781  0.502304  1
  O  O17  1  0.561233  0.678482  0.525012  1
  O  O18  1  0.859934  0.589372  0.834141  1
  O  O19  1  0.095172  0.426395  0.175031  1
  O  O20  1  0.288191  0.499898  0.901500  1
  O  O21  1  0.731108  0.569090  0.112103  1
  O  O22  1  0.892774  0.109268  0.385116  1
  O  O23  1  0.109070  0.919296  0.582738  1
  O  O24  1  0.368695  0.895557  0.339248  1
  O  O25  1  0.644454  0.043163  0.639736  1
  O  O26  1  0.359512  0.092200  0.192107  1
  O  O27  1  0.645295  0.882199  0.833409  1
