# generated using pymatgen
data_PrSm4FeRuO12
_symmetry_space_group_name_H-M   'P 1'
_cell_length_a   6.99885346
_cell_length_b   6.99885375
_cell_length_c   7.50744216
_cell_angle_alpha   74.52723390
_cell_angle_beta   74.52723137
_cell_angle_gamma   50.79186689
_symmetry_Int_Tables_number   1
_chemical_formula_structural   PrSm4FeRuO12
_chemical_formula_sum   'Pr1 Sm4 Fe1 Ru1 O12'
_cell_volume   272.23934067
_cell_formula_units_Z   1
loop_
 _symmetry_equiv_pos_site_id
 _symmetry_equiv_pos_as_xyz
  1  'x, y, z'
loop_
 _atom_site_type_symbol
 _atom_site_label
 _atom_site_symmetry_multiplicity
 _atom_site_fract_x
 _atom_site_fract_y
 _atom_site_fract_z
 _atom_site_occupancy
  Pr  Pr0  1  0.002677  0.997323  0.500000  1
  Sm  Sm1  1  0.307051  0.303346  0.357949  1
  Sm  Sm2  1  0.696654  0.692949  0.642051  1
  Sm  Sm3  1  0.693325  0.694994  0.165428  1
  Sm  Sm4  1  0.305006  0.306675  0.834572  1
  Fe  Fe5  1  0.751176  0.248824  0.000000  1
  Ru  Ru6  1  0.240813  0.759187  0.000000  1
  O  O7  1  0.096729  0.588330  0.579992  1
  O  O8  1  0.008423  0.989481  0.177063  1
  O  O9  1  0.411670  0.903271  0.420008  1
  O  O10  1  0.489114  0.511763  0.180146  1
  O  O11  1  0.098149  0.576385  0.079326  1
  O  O12  1  0.905842  0.406649  0.420950  1
  O  O13  1  0.010519  0.991577  0.822937  1
  O  O14  1  0.593351  0.094157  0.579050  1
  O  O15  1  0.488237  0.510886  0.819854  1
  O  O16  1  0.582271  0.104621  0.076999  1
  O  O17  1  0.423615  0.901851  0.920674  1
  O  O18  1  0.895379  0.417729  0.923001  1
