# generated using pymatgen
data_Ho5Th5(Ga2Ru3)2
_symmetry_space_group_name_H-M   'P 1'
_cell_length_a   8.42101361
_cell_length_b   8.41835087
_cell_length_c   8.43448400
_cell_angle_alpha   109.20805884
_cell_angle_beta   109.32391994
_cell_angle_gamma   109.27627370
_symmetry_Int_Tables_number   1
_chemical_formula_structural   Ho5Th5(Ga2Ru3)2
_chemical_formula_sum   'Ho5 Th5 Ga4 Ru6'
_cell_volume   463.69308077
_cell_formula_units_Z   1
loop_
 _symmetry_equiv_pos_site_id
 _symmetry_equiv_pos_as_xyz
  1  'x, y, z'
loop_
 _atom_site_type_symbol
 _atom_site_label
 _atom_site_symmetry_multiplicity
 _atom_site_fract_x
 _atom_site_fract_y
 _atom_site_fract_z
 _atom_site_occupancy
  Ho  Ho0  1  0.468879  0.154278  0.216494  1
  Ho  Ho1  1  0.155357  0.217411  0.470947  1
  Ho  Ho2  1  0.221226  0.471310  0.159749  1
  Ho  Ho3  1  0.405961  0.684850  0.912556  1
  Ho  Ho4  1  0.681620  0.910560  0.399435  1
  Th  Th5  1  0.914180  0.403880  0.696877  1
  Th  Th6  1  0.653182  0.093790  0.853305  1
  Th  Th7  1  0.097217  0.850709  0.655169  1
  Th  Th8  1  0.850539  0.661007  0.101857  1
  Th  Th9  1  0.612135  0.615886  0.611607  1
  Ga  Ga10  1  0.405916  0.315083  0.914855  1
  Ga  Ga11  1  0.312804  0.909798  0.402272  1
  Ga  Ga12  1  0.914103  0.404817  0.313864  1
  Ga  Ga13  1  0.015548  0.017199  0.013078  1
  Ru  Ru14  1  0.025066  0.151553  0.769940  1
  Ru  Ru15  1  0.139845  0.766456  0.017599  1
  Ru  Ru16  1  0.772290  0.025531  0.142769  1
  Ru  Ru17  1  0.667092  0.545374  0.289358  1
  Ru  Ru18  1  0.548707  0.286626  0.663859  1
  Ru  Ru19  1  0.288333  0.663886  0.544412  1
