# generated using pymatgen
data_Ba4NaAu
_symmetry_space_group_name_H-M   'P 1'
_cell_length_a   11.85419028
_cell_length_b   11.85418843
_cell_length_c   11.85419000
_cell_angle_alpha   59.99999562
_cell_angle_beta   60.00000077
_cell_angle_gamma   60.00000020
_symmetry_Int_Tables_number   1
_chemical_formula_structural   Ba4NaAu
_chemical_formula_sum   'Ba16 Na4 Au4'
_cell_volume   1177.87877297
_cell_formula_units_Z   4
loop_
 _symmetry_equiv_pos_site_id
 _symmetry_equiv_pos_as_xyz
  1  'x, y, z'
loop_
 _atom_site_type_symbol
 _atom_site_label
 _atom_site_symmetry_multiplicity
 _atom_site_fract_x
 _atom_site_fract_y
 _atom_site_fract_z
 _atom_site_occupancy
  Ba  Ba0  1  0.342686  0.342686  0.342686  1
  Ba  Ba1  1  0.342686  0.342686  0.971941  1
  Ba  Ba2  1  0.342686  0.971941  0.342686  1
  Ba  Ba3  1  0.971941  0.342686  0.342686  1
  Ba  Ba4  1  0.813773  0.186227  0.186227  1
  Ba  Ba5  1  0.186227  0.813773  0.813773  1
  Ba  Ba6  1  0.186227  0.813773  0.186227  1
  Ba  Ba7  1  0.813773  0.186227  0.813773  1
  Ba  Ba8  1  0.186227  0.186227  0.813773  1
  Ba  Ba9  1  0.813773  0.813773  0.186227  1
  Ba  Ba10  1  0.939116  0.560884  0.560884  1
  Ba  Ba11  1  0.560884  0.939116  0.939116  1
  Ba  Ba12  1  0.560884  0.939116  0.560884  1
  Ba  Ba13  1  0.939116  0.560884  0.939116  1
  Ba  Ba14  1  0.560884  0.560884  0.939116  1
  Ba  Ba15  1  0.939116  0.939116  0.560884  1
  Na  Na16  1  0.577621  0.577621  0.577621  1
  Na  Na17  1  0.577621  0.577621  0.267138  1
  Na  Na18  1  0.577621  0.267138  0.577621  1
  Na  Na19  1  0.267138  0.577621  0.577621  1
  Au  Au20  1  0.141779  0.141779  0.141779  1
  Au  Au21  1  0.141779  0.141779  0.574664  1
  Au  Au22  1  0.141779  0.574664  0.141779  1
  Au  Au23  1  0.574664  0.141779  0.141779  1
