# generated using pymatgen
data_Ho6Er6TmTh3(CdIr)4
_symmetry_space_group_name_H-M   'P 1'
_cell_length_a   9.67247878
_cell_length_b   9.67251324
_cell_length_c   9.68190100
_cell_angle_alpha   59.96789235
_cell_angle_beta   59.96777432
_cell_angle_gamma   59.93428558
_symmetry_Int_Tables_number   1
_chemical_formula_structural   Ho6Er6TmTh3(CdIr)4
_chemical_formula_sum   'Ho6 Er6 Tm1 Th3 Cd4 Ir4'
_cell_volume   639.87551542
_cell_formula_units_Z   1
loop_
 _symmetry_equiv_pos_site_id
 _symmetry_equiv_pos_as_xyz
  1  'x, y, z'
loop_
 _atom_site_type_symbol
 _atom_site_label
 _atom_site_symmetry_multiplicity
 _atom_site_fract_x
 _atom_site_fract_y
 _atom_site_fract_z
 _atom_site_occupancy
  Ho  Ho0  1  0.187508  0.813759  0.812870  1
  Ho  Ho1  1  0.816078  0.185442  0.184041  1
  Ho  Ho2  1  0.816078  0.185442  0.814440  1
  Ho  Ho3  1  0.187508  0.813759  0.185864  1
  Ho  Ho4  1  0.816519  0.815719  0.183881  1
  Ho  Ho5  1  0.187719  0.187651  0.812315  1
  Er  Er6  1  0.196627  0.602135  0.600620  1
  Er  Er7  1  0.061925  0.438385  0.439113  1
  Er  Er8  1  0.435823  0.063564  0.063656  1
  Er  Er9  1  0.435823  0.063564  0.436958  1
  Er  Er10  1  0.061925  0.438385  0.060577  1
  Er  Er11  1  0.436912  0.437472  0.062809  1
  Tm  Tm12  1  0.062594  0.061286  0.438061  1
  Th  Th13  1  0.597895  0.599842  0.599513  1
  Th  Th14  1  0.597895  0.599842  0.202751  1
  Th  Th15  1  0.599098  0.199676  0.600613  1
  Cd  Cd16  1  0.834242  0.829998  0.831771  1
  Cd  Cd17  1  0.834242  0.829998  0.503989  1
  Cd  Cd18  1  0.833759  0.502573  0.831834  1
  Cd  Cd19  1  0.501284  0.831327  0.833694  1
  Ir  Ir20  1  0.391988  0.392417  0.392657  1
  Ir  Ir21  1  0.391988  0.392417  0.822939  1
  Ir  Ir22  1  0.391953  0.823035  0.392506  1
  Ir  Ir23  1  0.822618  0.392315  0.392535  1
