# generated using pymatgen
data_Ce10CuBi6As
_symmetry_space_group_name_H-M   'P 1'
_cell_length_a   6.51623901
_cell_length_b   9.65322981
_cell_length_c   9.65433503
_cell_angle_alpha   119.99622244
_cell_angle_beta   90.00268637
_cell_angle_gamma   89.99463426
_symmetry_Int_Tables_number   1
_chemical_formula_structural   Ce10CuBi6As
_chemical_formula_sum   'Ce10 Cu1 Bi6 As1'
_cell_volume   525.94360212
_cell_formula_units_Z   1
loop_
 _symmetry_equiv_pos_site_id
 _symmetry_equiv_pos_as_xyz
  1  'x, y, z'
loop_
 _atom_site_type_symbol
 _atom_site_label
 _atom_site_symmetry_multiplicity
 _atom_site_fract_x
 _atom_site_fract_y
 _atom_site_fract_z
 _atom_site_occupancy
  Ce  Ce0  1  0.499986  0.333379  0.666747  1
  Ce  Ce1  1  0.499986  0.666632  0.333253  1
  Ce  Ce2  1  0.000011  0.666628  0.333226  1
  Ce  Ce3  1  0.000011  0.333402  0.666774  1
  Ce  Ce4  1  0.750021  0.257260  0.000000  1
  Ce  Ce5  1  0.750019  0.742647  0.742759  1
  Ce  Ce6  1  0.750019  0.999888  0.257241  1
  Ce  Ce7  1  0.249977  0.742725  0.000000  1
  Ce  Ce8  1  0.249991  0.257350  0.257280  1
  Ce  Ce9  1  0.249991  0.000070  0.742720  1
  Cu  Cu10  1  0.999953  0.000007  0.000000  1
  Bi  Bi11  1  0.750262  0.615408  0.000000  1
  Bi  Bi12  1  0.750275  0.384439  0.384521  1
  Bi  Bi13  1  0.750275  0.999920  0.615479  1
  Bi  Bi14  1  0.249739  0.384611  0.000000  1
  Bi  Bi15  1  0.249746  0.615563  0.615483  1
  Bi  Bi16  1  0.249746  0.000079  0.384517  1
  As  As17  1  0.499994  0.999993  0.000000  1
