# generated using pymatgen
data_Hf4Ta2Ga5Sb
_symmetry_space_group_name_H-M   'P 1'
_cell_length_a   5.55144500
_cell_length_b   8.56702161
_cell_length_c   9.22570847
_cell_angle_alpha   89.38393547
_cell_angle_beta   90.00000000
_cell_angle_gamma   90.00000000
_symmetry_Int_Tables_number   1
_chemical_formula_structural   Hf4Ta2Ga5Sb
_chemical_formula_sum   'Hf8 Ta4 Ga10 Sb2'
_cell_volume   438.74332777
_cell_formula_units_Z   2
loop_
 _symmetry_equiv_pos_site_id
 _symmetry_equiv_pos_as_xyz
  1  'x, y, z'
loop_
 _atom_site_type_symbol
 _atom_site_label
 _atom_site_symmetry_multiplicity
 _atom_site_fract_x
 _atom_site_fract_y
 _atom_site_fract_z
 _atom_site_occupancy
  Hf  Hf0  1  0.750000  0.469926  0.626022  1
  Hf  Hf1  1  0.250000  0.530074  0.373978  1
  Hf  Hf2  1  0.750000  0.969111  0.389999  1
  Hf  Hf3  1  0.250000  0.030889  0.610001  1
  Hf  Hf4  1  0.750000  0.383898  0.185711  1
  Hf  Hf5  1  0.250000  0.616102  0.814289  1
  Hf  Hf6  1  0.750000  0.864273  0.809042  1
  Hf  Hf7  1  0.250000  0.135727  0.190958  1
  Ta  Ta8  1  0.999755  0.739978  0.114498  1
  Ta  Ta9  1  0.499755  0.260022  0.885502  1
  Ta  Ta10  1  0.000245  0.260022  0.885502  1
  Ta  Ta11  1  0.500245  0.739978  0.114498  1
  Ga  Ga12  1  0.005095  0.746269  0.571928  1
  Ga  Ga13  1  0.505095  0.253731  0.428072  1
  Ga  Ga14  1  0.994905  0.253731  0.428072  1
  Ga  Ga15  1  0.494905  0.746269  0.571928  1
  Ga  Ga16  1  0.750000  0.548608  0.921010  1
  Ga  Ga17  1  0.250000  0.451392  0.078990  1
  Ga  Ga18  1  0.750000  0.137071  0.653173  1
  Ga  Ga19  1  0.250000  0.862929  0.346827  1
  Ga  Ga20  1  0.750000  0.637021  0.354419  1
  Ga  Ga21  1  0.250000  0.362979  0.645581  1
  Sb  Sb22  1  0.750000  0.051486  0.085281  1
  Sb  Sb23  1  0.250000  0.948514  0.914719  1
