# generated using pymatgen
data_Yb2PuN3
_symmetry_space_group_name_H-M   'P 1'
_cell_length_a   5.97951472
_cell_length_b   5.97951240
_cell_length_c   5.95609561
_cell_angle_alpha   99.66020699
_cell_angle_beta   99.66018545
_cell_angle_gamma   119.95170724
_symmetry_Int_Tables_number   1
_chemical_formula_structural   Yb2PuN3
_chemical_formula_sum   'Yb4 Pu2 N6'
_cell_volume   173.83084480
_cell_formula_units_Z   2
loop_
 _symmetry_equiv_pos_site_id
 _symmetry_equiv_pos_as_xyz
  1  'x, y, z'
loop_
 _atom_site_type_symbol
 _atom_site_label
 _atom_site_symmetry_multiplicity
 _atom_site_fract_x
 _atom_site_fract_y
 _atom_site_fract_z
 _atom_site_occupancy
  Yb  Yb0  1  0.836617  0.163383  0.500000  1
  Yb  Yb1  1  0.163383  0.836617  0.500000  1
  Yb  Yb2  1  0.500000  0.500000  0.500000  1
  Yb  Yb3  1  0.000000  0.000000  0.000000  1
  Pu  Pu4  1  0.332877  0.667123  0.000000  1
  Pu  Pu5  1  0.667123  0.332877  0.000000  1
  N  N6  1  0.434619  0.073248  0.220286  1
  N  N7  1  0.926752  0.565381  0.779714  1
  N  N8  1  0.565381  0.926752  0.779714  1
  N  N9  1  0.073248  0.434619  0.220286  1
  N  N10  1  0.713460  0.713460  0.221471  1
  N  N11  1  0.286540  0.286540  0.778529  1
