# generated using pymatgen
data_Ca10ZnHg2Pd3
_symmetry_space_group_name_H-M   'P 1'
_cell_length_a   9.24703515
_cell_length_b   9.24703408
_cell_length_c   9.19595792
_cell_angle_alpha   129.00180311
_cell_angle_beta   129.00179680
_cell_angle_gamma   75.41967047
_symmetry_Int_Tables_number   1
_chemical_formula_structural   Ca10ZnHg2Pd3
_chemical_formula_sum   'Ca10 Zn1 Hg2 Pd3'
_cell_volume   461.11906236
_cell_formula_units_Z   1
loop_
 _symmetry_equiv_pos_site_id
 _symmetry_equiv_pos_as_xyz
  1  'x, y, z'
loop_
 _atom_site_type_symbol
 _atom_site_label
 _atom_site_symmetry_multiplicity
 _atom_site_fract_x
 _atom_site_fract_y
 _atom_site_fract_z
 _atom_site_occupancy
  Ca  Ca0  1  0.526093  0.026093  0.826775  1
  Ca  Ca1  1  0.196174  0.696174  0.164290  1
  Ca  Ca2  1  0.035683  0.193058  0.505024  1
  Ca  Ca3  1  0.693058  0.535683  0.505024  1
  Ca  Ca4  1  0.468116  0.968116  0.164290  1
  Ca  Ca5  1  0.800682  0.300682  0.826775  1
  Ca  Ca6  1  0.969341  0.811966  0.505024  1
  Ca  Ca7  1  0.311966  0.469341  0.505024  1
  Ca  Ca8  1  0.495032  0.501756  0.996789  1
  Ca  Ca9  1  0.001756  0.995032  0.996789  1
  Zn  Zn10  1  0.881935  0.381935  0.263871  1
  Hg  Hg11  1  0.250977  0.250977  0.001953  1
  Hg  Hg12  1  0.750977  0.750977  0.001953  1
  Pd  Pd13  1  0.626942  0.873224  0.500166  1
  Pd  Pd14  1  0.373224  0.126942  0.500166  1
  Pd  Pd15  1  0.118044  0.618044  0.736088  1
