# generated using pymatgen
data_Ba2Tb3BiS8
_symmetry_space_group_name_H-M   'P 1'
_cell_length_a   4.08570400
_cell_length_b   12.38198200
_cell_length_c   14.70035100
_cell_angle_alpha   90.00000000
_cell_angle_beta   90.00000000
_cell_angle_gamma   90.00000000
_symmetry_Int_Tables_number   1
_chemical_formula_structural   Ba2Tb3BiS8
_chemical_formula_sum   'Ba4 Tb6 Bi2 S16'
_cell_volume   743.67772354
_cell_formula_units_Z   2
loop_
 _symmetry_equiv_pos_site_id
 _symmetry_equiv_pos_as_xyz
  1  'x, y, z'
loop_
 _atom_site_type_symbol
 _atom_site_label
 _atom_site_symmetry_multiplicity
 _atom_site_fract_x
 _atom_site_fract_y
 _atom_site_fract_z
 _atom_site_occupancy
  Ba  Ba0  1  0.250000  0.758794  0.337957  1
  Ba  Ba1  1  0.250000  0.258794  0.162043  1
  Ba  Ba2  1  0.750000  0.241704  0.661549  1
  Ba  Ba3  1  0.750000  0.741704  0.838451  1
  Tb  Tb4  1  0.750000  0.567814  0.610827  1
  Tb  Tb5  1  0.750000  0.067814  0.889173  1
  Tb  Tb6  1  0.250000  0.420791  0.898142  1
  Tb  Tb7  1  0.250000  0.920791  0.601858  1
  Tb  Tb8  1  0.750000  0.577663  0.100024  1
  Tb  Tb9  1  0.750000  0.077663  0.399976  1
  Bi  Bi10  1  0.250000  0.433545  0.390283  1
  Bi  Bi11  1  0.250000  0.933545  0.109717  1
  S  S12  1  0.250000  0.207274  0.834750  1
  S  S13  1  0.250000  0.707274  0.665250  1
  S  S14  1  0.750000  0.787651  0.167820  1
  S  S15  1  0.750000  0.287651  0.332180  1
  S  S16  1  0.250000  0.123543  0.524106  1
  S  S17  1  0.250000  0.623543  0.975894  1
  S  S18  1  0.750000  0.875364  0.477500  1
  S  S19  1  0.750000  0.375364  0.022500  1
  S  S20  1  0.250000  0.023257  0.286097  1
  S  S21  1  0.250000  0.523257  0.213903  1
  S  S22  1  0.750000  0.976982  0.716129  1
  S  S23  1  0.750000  0.476982  0.783871  1
  S  S24  1  0.250000  0.419711  0.580617  1
  S  S25  1  0.250000  0.919711  0.919383  1
  S  S26  1  0.750000  0.585908  0.425533  1
  S  S27  1  0.750000  0.085908  0.074467  1
