# generated using pymatgen
data_LaY5TcOs
_symmetry_space_group_name_H-M   'P 1'
_cell_length_a   6.43677800
_cell_length_b   7.44612800
_cell_length_c   9.26832100
_cell_angle_alpha   90.00000000
_cell_angle_beta   90.00000000
_cell_angle_gamma   90.00000000
_symmetry_Int_Tables_number   1
_chemical_formula_structural   LaY5TcOs
_chemical_formula_sum   'La2 Y10 Tc2 Os2'
_cell_volume   444.22203283
_cell_formula_units_Z   2
loop_
 _symmetry_equiv_pos_site_id
 _symmetry_equiv_pos_as_xyz
  1  'x, y, z'
loop_
 _atom_site_type_symbol
 _atom_site_label
 _atom_site_symmetry_multiplicity
 _atom_site_fract_x
 _atom_site_fract_y
 _atom_site_fract_z
 _atom_site_occupancy
  La  La0  1  0.877663  0.552013  0.250000  1
  La  La1  1  0.622337  0.052013  0.250000  1
  Y  Y2  1  0.337436  0.675447  0.061604  1
  Y  Y3  1  0.162564  0.175447  0.438396  1
  Y  Y4  1  0.665585  0.325518  0.568150  1
  Y  Y5  1  0.834415  0.825518  0.931850  1
  Y  Y6  1  0.665585  0.325518  0.931850  1
  Y  Y7  1  0.834415  0.825518  0.568150  1
  Y  Y8  1  0.337436  0.675447  0.438396  1
  Y  Y9  1  0.162564  0.175447  0.061604  1
  Y  Y10  1  0.136221  0.457713  0.750000  1
  Y  Y11  1  0.363779  0.957713  0.750000  1
  Tc  Tc12  1  0.020447  0.870361  0.250000  1
  Tc  Tc13  1  0.479553  0.370361  0.250000  1
  Os  Os14  1  0.963055  0.117981  0.750000  1
  Os  Os15  1  0.536945  0.617981  0.750000  1
