# generated using pymatgen
data_Hf9Zr(Sn3S)2
_symmetry_space_group_name_H-M   'P 1'
_cell_length_a   8.49512610
_cell_length_b   8.50769525
_cell_length_c   5.94902200
_cell_angle_alpha   90.00000000
_cell_angle_beta   90.00000000
_cell_angle_gamma   120.04896158
_symmetry_Int_Tables_number   1
_chemical_formula_structural   Hf9Zr(Sn3S)2
_chemical_formula_sum   'Hf9 Zr1 Sn6 S2'
_cell_volume   372.17181675
_cell_formula_units_Z   1
loop_
 _symmetry_equiv_pos_site_id
 _symmetry_equiv_pos_as_xyz
  1  'x, y, z'
loop_
 _atom_site_type_symbol
 _atom_site_label
 _atom_site_symmetry_multiplicity
 _atom_site_fract_x
 _atom_site_fract_y
 _atom_site_fract_z
 _atom_site_occupancy
  Hf  Hf0  1  0.666482  0.332986  0.999686  1
  Hf  Hf1  1  0.333518  0.666505  0.999686  1
  Hf  Hf2  1  0.333518  0.666505  0.500314  1
  Hf  Hf3  1  0.666482  0.332986  0.500314  1
  Hf  Hf4  1  0.746473  0.746754  0.750000  1
  Hf  Hf5  1  0.253527  0.000280  0.750000  1
  Hf  Hf6  1  0.000000  0.253608  0.750000  1
  Hf  Hf7  1  0.253079  0.253067  0.250000  1
  Hf  Hf8  1  0.746921  0.999988  0.250000  1
  Zr  Zr9  1  0.000000  0.745741  0.250000  1
  Sn  Sn10  1  0.398563  0.398579  0.750000  1
  Sn  Sn11  1  0.601437  0.000017  0.750000  1
  Sn  Sn12  1  0.000000  0.601173  0.750000  1
  Sn  Sn13  1  0.600719  0.601026  0.250000  1
  Sn  Sn14  1  0.399281  0.000307  0.250000  1
  Sn  Sn15  1  0.000000  0.397898  0.250000  1
  S  S16  1  0.000000  0.001291  0.998846  1
  S  S17  1  0.000000  0.001291  0.501154  1
