# generated using pymatgen
data_YbSm6RuBr12
_symmetry_space_group_name_H-M   'P 1'
_cell_length_a   9.43855734
_cell_length_b   9.43855719
_cell_length_c   9.43855612
_cell_angle_alpha   107.08213612
_cell_angle_beta   107.08212790
_cell_angle_gamma   107.08212069
_symmetry_Int_Tables_number   1
_chemical_formula_structural   YbSm6RuBr12
_chemical_formula_sum   'Yb1 Sm6 Ru1 Br12'
_cell_volume   698.69034265
_cell_formula_units_Z   1
loop_
 _symmetry_equiv_pos_site_id
 _symmetry_equiv_pos_as_xyz
  1  'x, y, z'
loop_
 _atom_site_type_symbol
 _atom_site_label
 _atom_site_symmetry_multiplicity
 _atom_site_fract_x
 _atom_site_fract_y
 _atom_site_fract_z
 _atom_site_occupancy
  Yb  Yb0  1  0.500000  0.500000  0.500000  1
  Sm  Sm1  1  0.896368  0.685928  0.974234  1
  Sm  Sm2  1  0.974234  0.896368  0.685928  1
  Sm  Sm3  1  0.685928  0.974234  0.896368  1
  Sm  Sm4  1  0.103632  0.314072  0.025766  1
  Sm  Sm5  1  0.025766  0.103632  0.314072  1
  Sm  Sm6  1  0.314072  0.025766  0.103632  1
  Ru  Ru7  1  0.000000  0.000000  0.000000  1
  Br  Br8  1  0.619360  0.836082  0.542438  1
  Br  Br9  1  0.542438  0.619360  0.836082  1
  Br  Br10  1  0.836082  0.542438  0.619360  1
  Br  Br11  1  0.380640  0.163918  0.457562  1
  Br  Br12  1  0.457562  0.380640  0.163918  1
  Br  Br13  1  0.163918  0.457562  0.380640  1
  Br  Br14  1  0.682734  0.072741  0.222399  1
  Br  Br15  1  0.222399  0.682734  0.072741  1
  Br  Br16  1  0.072741  0.222399  0.682734  1
  Br  Br17  1  0.317266  0.927259  0.777601  1
  Br  Br18  1  0.777601  0.317266  0.927259  1
  Br  Br19  1  0.927259  0.777601  0.317266  1
