# generated using pymatgen
data_Nd3Be(GeRh3)2
_symmetry_space_group_name_H-M   'P 1'
_cell_length_a   5.63601400
_cell_length_b   5.63601374
_cell_length_c   15.37052100
_cell_angle_alpha   90.00000000
_cell_angle_beta   90.00000000
_cell_angle_gamma   120.00000153
_symmetry_Int_Tables_number   1
_chemical_formula_structural   Nd3Be(GeRh3)2
_chemical_formula_sum   'Nd6 Be2 Ge4 Rh12'
_cell_volume   422.82759224
_cell_formula_units_Z   2
loop_
 _symmetry_equiv_pos_site_id
 _symmetry_equiv_pos_as_xyz
  1  'x, y, z'
loop_
 _atom_site_type_symbol
 _atom_site_label
 _atom_site_symmetry_multiplicity
 _atom_site_fract_x
 _atom_site_fract_y
 _atom_site_fract_z
 _atom_site_occupancy
  Nd  Nd0  1  0.333333  0.666667  0.538058  1
  Nd  Nd1  1  0.666667  0.333333  0.461942  1
  Nd  Nd2  1  0.666667  0.333333  0.038058  1
  Nd  Nd3  1  0.333333  0.666667  0.961942  1
  Nd  Nd4  1  0.333333  0.666667  0.750000  1
  Nd  Nd5  1  0.666667  0.333333  0.250000  1
  Be  Be6  1  0.000000  0.000000  0.250000  1
  Be  Be7  1  0.000000  0.000000  0.750000  1
  Ge  Ge8  1  0.333333  0.666667  0.250000  1
  Ge  Ge9  1  0.666667  0.333333  0.750000  1
  Ge  Ge10  1  0.000000  0.000000  0.000000  1
  Ge  Ge11  1  0.000000  0.000000  0.500000  1
  Rh  Rh12  1  0.163315  0.326630  0.132645  1
  Rh  Rh13  1  0.836685  0.673370  0.867355  1
  Rh  Rh14  1  0.673370  0.836685  0.132645  1
  Rh  Rh15  1  0.836685  0.673370  0.632645  1
  Rh  Rh16  1  0.326630  0.163315  0.867355  1
  Rh  Rh17  1  0.163315  0.326630  0.367355  1
  Rh  Rh18  1  0.163315  0.836685  0.132645  1
  Rh  Rh19  1  0.326630  0.163315  0.632645  1
  Rh  Rh20  1  0.836685  0.163315  0.867355  1
  Rh  Rh21  1  0.673370  0.836685  0.367355  1
  Rh  Rh22  1  0.836685  0.163315  0.632645  1
  Rh  Rh23  1  0.163315  0.836685  0.367355  1
