# generated using pymatgen
data_ErGaPt3Au
_symmetry_space_group_name_H-M   'P 1'
_cell_length_a   5.49047987
_cell_length_b   5.49048000
_cell_length_c   5.16511258
_cell_angle_alpha   57.89335792
_cell_angle_beta   57.89335017
_cell_angle_gamma   59.99998780
_symmetry_Int_Tables_number   1
_chemical_formula_structural   ErGaPt3Au
_chemical_formula_sum   'Er1 Ga1 Pt3 Au1'
_cell_volume   106.46242202
_cell_formula_units_Z   1
loop_
 _symmetry_equiv_pos_site_id
 _symmetry_equiv_pos_as_xyz
  1  'x, y, z'
loop_
 _atom_site_type_symbol
 _atom_site_label
 _atom_site_symmetry_multiplicity
 _atom_site_fract_x
 _atom_site_fract_y
 _atom_site_fract_z
 _atom_site_occupancy
  Er  Er0  1  0.003547  0.003547  0.989359  1
  Ga  Ga1  1  0.623181  0.623181  0.130457  1
  Pt  Pt2  1  0.623323  0.125573  0.627782  1
  Pt  Pt3  1  0.125573  0.623323  0.627782  1
  Pt  Pt4  1  0.623323  0.623323  0.627782  1
  Au  Au5  1  0.251054  0.251054  0.246839  1
