# generated using pymatgen
data_Tb10Nd6Cd4Ni3Ir
_symmetry_space_group_name_H-M   'P 1'
_cell_length_a   9.70756125
_cell_length_b   9.70756154
_cell_length_c   9.70756289
_cell_angle_alpha   59.99160006
_cell_angle_beta   59.99160679
_cell_angle_gamma   59.99160476
_symmetry_Int_Tables_number   1
_chemical_formula_structural   Tb10Nd6Cd4Ni3Ir
_chemical_formula_sum   'Tb10 Nd6 Cd4 Ni3 Ir1'
_cell_volume   646.74461508
_cell_formula_units_Z   1
loop_
 _symmetry_equiv_pos_site_id
 _symmetry_equiv_pos_as_xyz
  1  'x, y, z'
loop_
 _atom_site_type_symbol
 _atom_site_label
 _atom_site_symmetry_multiplicity
 _atom_site_fract_x
 _atom_site_fract_y
 _atom_site_fract_z
 _atom_site_occupancy
  Tb  Tb0  1  0.597048  0.597048  0.597048  1
  Tb  Tb1  1  0.599456  0.599456  0.206720  1
  Tb  Tb2  1  0.599456  0.206720  0.599456  1
  Tb  Tb3  1  0.206720  0.599456  0.599456  1
  Tb  Tb4  1  0.060650  0.437636  0.437636  1
  Tb  Tb5  1  0.435319  0.061854  0.061854  1
  Tb  Tb6  1  0.437636  0.060650  0.437636  1
  Tb  Tb7  1  0.061854  0.435319  0.061854  1
  Tb  Tb8  1  0.437636  0.437636  0.060650  1
  Tb  Tb9  1  0.061854  0.061854  0.435319  1
  Nd  Nd10  1  0.188986  0.812685  0.812685  1
  Nd  Nd11  1  0.807359  0.189639  0.189639  1
  Nd  Nd12  1  0.812685  0.188986  0.812685  1
  Nd  Nd13  1  0.189639  0.807359  0.189639  1
  Nd  Nd14  1  0.812685  0.812685  0.188986  1
  Nd  Nd15  1  0.189639  0.189639  0.807359  1
  Cd  Cd16  1  0.829607  0.829607  0.829607  1
  Cd  Cd17  1  0.829276  0.829276  0.510922  1
  Cd  Cd18  1  0.829276  0.510922  0.829276  1
  Cd  Cd19  1  0.510922  0.829276  0.829276  1
  Ni  Ni20  1  0.392304  0.392304  0.825097  1
  Ni  Ni21  1  0.392304  0.825097  0.392304  1
  Ni  Ni22  1  0.825097  0.392304  0.392304  1
  Ir  Ir23  1  0.392597  0.392597  0.392597  1
