# generated using pymatgen
data_Hf2InSnRh3
_symmetry_space_group_name_H-M   'P 1'
_cell_length_a   7.77886971
_cell_length_b   7.77886935
_cell_length_c   7.77887000
_cell_angle_alpha   34.05200629
_cell_angle_beta   34.05201020
_cell_angle_gamma   34.05200394
_symmetry_Int_Tables_number   1
_chemical_formula_structural   Hf2InSnRh3
_chemical_formula_sum   'Hf2 In1 Sn1 Rh3'
_cell_volume   131.56462419
_cell_formula_units_Z   1
loop_
 _symmetry_equiv_pos_site_id
 _symmetry_equiv_pos_as_xyz
  1  'x, y, z'
loop_
 _atom_site_type_symbol
 _atom_site_label
 _atom_site_symmetry_multiplicity
 _atom_site_fract_x
 _atom_site_fract_y
 _atom_site_fract_z
 _atom_site_occupancy
  Hf  Hf0  1  0.753331  0.753331  0.753331  1
  Hf  Hf1  1  0.247989  0.247989  0.247989  1
  In  In2  1  0.994041  0.994041  0.994041  1
  Sn  Sn3  1  0.503513  0.503513  0.503513  1
  Rh  Rh4  1  0.123565  0.123565  0.123565  1
  Rh  Rh5  1  0.627340  0.627340  0.627340  1
  Rh  Rh6  1  0.375220  0.375220  0.375220  1
