# generated using pymatgen
data_Zn2FeGeRh4
_symmetry_space_group_name_H-M   'P 1'
_cell_length_a   6.05560400
_cell_length_b   6.05643100
_cell_length_c   6.02462100
_cell_angle_alpha   90.00000000
_cell_angle_beta   90.00000000
_cell_angle_gamma   90.00000000
_symmetry_Int_Tables_number   1
_chemical_formula_structural   Zn2FeGeRh4
_chemical_formula_sum   'Zn4 Fe2 Ge2 Rh8'
_cell_volume   220.95507047
_cell_formula_units_Z   2
loop_
 _symmetry_equiv_pos_site_id
 _symmetry_equiv_pos_as_xyz
  1  'x, y, z'
loop_
 _atom_site_type_symbol
 _atom_site_label
 _atom_site_symmetry_multiplicity
 _atom_site_fract_x
 _atom_site_fract_y
 _atom_site_fract_z
 _atom_site_occupancy
  Zn  Zn0  1  0.750296  0.250000  0.000000  1
  Zn  Zn1  1  0.249705  0.750000  0.000000  1
  Zn  Zn2  1  0.749657  0.250000  0.499998  1
  Zn  Zn3  1  0.250343  0.750000  0.500001  1
  Fe  Fe4  1  0.749821  0.750000  0.499995  1
  Fe  Fe5  1  0.250179  0.250000  0.500005  1
  Ge  Ge6  1  0.249821  0.250000  0.000000  1
  Ge  Ge7  1  0.750179  0.750000  0.000000  1
  Rh  Rh8  1  0.500004  0.000000  0.246237  1
  Rh  Rh9  1  0.500004  0.499994  0.246237  1
  Rh  Rh10  1  0.000000  0.000000  0.246680  1
  Rh  Rh11  1  0.000000  0.500006  0.246680  1
  Rh  Rh12  1  0.000000  0.000000  0.753319  1
  Rh  Rh13  1  0.000000  0.499994  0.753319  1
  Rh  Rh14  1  0.499996  0.000000  0.753762  1
  Rh  Rh15  1  0.499996  0.500006  0.753762  1
