# generated using pymatgen
data_Tm2Fe2Co7Mo3P7
_symmetry_space_group_name_H-M   'P 1'
_cell_length_a   9.03945606
_cell_length_b   9.03849947
_cell_length_c   3.70184100
_cell_angle_alpha   90.00000000
_cell_angle_beta   90.00000000
_cell_angle_gamma   119.85410504
_symmetry_Int_Tables_number   1
_chemical_formula_structural   Tm2Fe2Co7Mo3P7
_chemical_formula_sum   'Tm2 Fe2 Co7 Mo3 P7'
_cell_volume   262.31530087
_cell_formula_units_Z   1
loop_
 _symmetry_equiv_pos_site_id
 _symmetry_equiv_pos_as_xyz
  1  'x, y, z'
loop_
 _atom_site_type_symbol
 _atom_site_label
 _atom_site_symmetry_multiplicity
 _atom_site_fract_x
 _atom_site_fract_y
 _atom_site_fract_z
 _atom_site_occupancy
  Tm  Tm0  1  0.334821  0.667260  0.000000  1
  Tm  Tm1  1  0.999986  0.999715  0.500000  1
  Fe  Fe2  1  0.505582  0.052494  0.000000  1
  Fe  Fe3  1  0.546517  0.493864  0.000000  1
  Co  Co4  1  0.729503  0.963651  0.000000  1
  Co  Co5  1  0.233890  0.270737  0.000000  1
  Co  Co6  1  0.036540  0.765365  0.000000  1
  Co  Co7  1  0.948374  0.453863  0.000000  1
  Co  Co8  1  0.106821  0.385490  0.500000  1
  Co  Co9  1  0.277289  0.892508  0.500000  1
  Co  Co10  1  0.615550  0.722873  0.500000  1
  Mo  Mo11  1  0.765661  0.211106  0.500000  1
  Mo  Mo12  1  0.444975  0.233842  0.500000  1
  Mo  Mo13  1  0.789066  0.553338  0.500000  1
  P  P14  1  0.968856  0.219758  0.000000  1
  P  P15  1  0.251383  0.030092  0.000000  1
  P  P16  1  0.778465  0.747820  0.000000  1
  P  P17  1  0.077156  0.622395  0.500000  1
  P  P18  1  0.544420  0.924268  0.500000  1
  P  P19  1  0.380135  0.457491  0.500000  1
  P  P20  1  0.665014  0.332067  0.000000  1
