# generated using pymatgen
data_Pa(PPd2)2
_symmetry_space_group_name_H-M   'P 1'
_cell_length_a   7.59572000
_cell_length_b   7.59572000
_cell_length_c   3.95235500
_cell_angle_alpha   90.00000000
_cell_angle_beta   90.00000000
_cell_angle_gamma   90.00000000
_symmetry_Int_Tables_number   1
_chemical_formula_structural   Pa(PPd2)2
_chemical_formula_sum   'Pa2 P4 Pd8'
_cell_volume   228.03097279
_cell_formula_units_Z   2
loop_
 _symmetry_equiv_pos_site_id
 _symmetry_equiv_pos_as_xyz
  1  'x, y, z'
loop_
 _atom_site_type_symbol
 _atom_site_label
 _atom_site_symmetry_multiplicity
 _atom_site_fract_x
 _atom_site_fract_y
 _atom_site_fract_z
 _atom_site_occupancy
  Pa  Pa0  1  0.500000  0.500000  0.000000  1
  Pa  Pa1  1  0.000000  0.000000  0.500000  1
  P  P2  1  0.720016  0.720016  0.500000  1
  P  P3  1  0.279984  0.279984  0.500000  1
  P  P4  1  0.779984  0.220016  0.000000  1
  P  P5  1  0.220016  0.779984  0.000000  1
  Pd  Pd6  1  0.169454  0.584233  0.500000  1
  Pd  Pd7  1  0.830546  0.415767  0.500000  1
  Pd  Pd8  1  0.330546  0.084233  0.000000  1
  Pd  Pd9  1  0.669454  0.915767  0.000000  1
  Pd  Pd10  1  0.584233  0.169454  0.500000  1
  Pd  Pd11  1  0.415767  0.830546  0.500000  1
  Pd  Pd12  1  0.084233  0.330546  0.000000  1
  Pd  Pd13  1  0.915767  0.669454  0.000000  1
