# generated using pymatgen
data_SmEr3OsI4
_symmetry_space_group_name_H-M   'P 1'
_cell_length_a   11.07405905
_cell_length_b   11.22017531
_cell_length_c   6.20118447
_cell_angle_alpha   90.37120270
_cell_angle_beta   90.12059562
_cell_angle_gamma   89.76653081
_symmetry_Int_Tables_number   1
_chemical_formula_structural   SmEr3OsI4
_chemical_formula_sum   'Sm2 Er6 Os2 I8'
_cell_volume   770.49082250
_cell_formula_units_Z   2
loop_
 _symmetry_equiv_pos_site_id
 _symmetry_equiv_pos_as_xyz
  1  'x, y, z'
loop_
 _atom_site_type_symbol
 _atom_site_label
 _atom_site_symmetry_multiplicity
 _atom_site_fract_x
 _atom_site_fract_y
 _atom_site_fract_z
 _atom_site_occupancy
  Sm  Sm0  1  0.210492  0.915631  0.000436  1
  Sm  Sm1  1  0.789687  0.916526  0.498659  1
  Er  Er2  1  0.801272  0.081978  0.000660  1
  Er  Er3  1  0.080492  0.802330  0.498069  1
  Er  Er4  1  0.081861  0.196558  0.003291  1
  Er  Er5  1  0.198108  0.081014  0.502821  1
  Er  Er6  1  0.920244  0.802595  0.997428  1
  Er  Er7  1  0.917199  0.196941  0.502438  1
  Os  Os8  1  0.000334  0.999069  0.250788  1
  Os  Os9  1  0.000258  0.999477  0.749575  1
  I  I10  1  0.638217  0.160971  0.498388  1
  I  I11  1  0.852569  0.638151  0.502192  1
  I  I12  1  0.360974  0.159539  0.996579  1
  I  I13  1  0.149474  0.355914  0.498599  1
  I  I14  1  0.639008  0.850296  0.998732  1
  I  I15  1  0.361641  0.848805  0.500058  1
  I  I16  1  0.148986  0.637511  0.001603  1
  I  I17  1  0.849184  0.356693  0.999684  1
