# generated using pymatgen
data_Zr5Fe16Si7Mo
_symmetry_space_group_name_H-M   'P 1'
_cell_length_a   8.03192244
_cell_length_b   8.06369017
_cell_length_c   8.06368933
_cell_angle_alpha   59.73953584
_cell_angle_beta   60.13023660
_cell_angle_gamma   60.13024000
_symmetry_Int_Tables_number   1
_chemical_formula_structural   Zr5Fe16Si7Mo
_chemical_formula_sum   'Zr5 Fe16 Si7 Mo1'
_cell_volume   369.28251162
_cell_formula_units_Z   1
loop_
 _symmetry_equiv_pos_site_id
 _symmetry_equiv_pos_as_xyz
  1  'x, y, z'
loop_
 _atom_site_type_symbol
 _atom_site_label
 _atom_site_symmetry_multiplicity
 _atom_site_fract_x
 _atom_site_fract_y
 _atom_site_fract_z
 _atom_site_occupancy
  Zr  Zr0  1  0.289045  0.710954  0.710954  1
  Zr  Zr1  1  0.295787  0.704212  0.293666  1
  Zr  Zr2  1  0.295787  0.293666  0.704212  1
  Zr  Zr3  1  0.706333  0.293666  0.704212  1
  Zr  Zr4  1  0.706333  0.704212  0.293666  1
  Fe  Fe5  1  0.327840  0.323443  0.323443  1
  Fe  Fe6  1  0.324937  0.322471  0.027656  1
  Fe  Fe7  1  0.025276  0.323443  0.323443  1
  Fe  Fe8  1  0.324937  0.027656  0.322471  1
  Fe  Fe9  1  0.677529  0.675063  0.675063  1
  Fe  Fe10  1  0.676557  0.672160  0.974724  1
  Fe  Fe11  1  0.676557  0.974724  0.672160  1
  Fe  Fe12  1  0.972344  0.675063  0.675063  1
  Fe  Fe13  1  0.110246  0.124426  0.124426  1
  Fe  Fe14  1  0.121323  0.124269  0.633085  1
  Fe  Fe15  1  0.640902  0.124426  0.124426  1
  Fe  Fe16  1  0.121323  0.633085  0.124269  1
  Fe  Fe17  1  0.875731  0.878677  0.878677  1
  Fe  Fe18  1  0.875574  0.889754  0.359098  1
  Fe  Fe19  1  0.875574  0.359098  0.889754  1
  Fe  Fe20  1  0.366915  0.878677  0.878677  1
  Si  Si21  1  0.500403  0.999598  0.999598  1
  Si  Si22  1  0.000403  0.499598  0.499598  1
  Si  Si23  1  0.999652  0.499060  0.000348  1
  Si  Si24  1  0.999652  0.000348  0.499060  1
  Si  Si25  1  0.500941  0.000349  0.499059  1
  Si  Si26  1  0.500941  0.499059  0.000349  1
  Si  Si27  1  0.005747  0.994253  0.994253  1
  Mo  Mo28  1  0.705407  0.294592  0.294592  1
