# generated using pymatgen
data_UI3Br8
_symmetry_space_group_name_H-M   'P 1'
_cell_length_a   7.97994417
_cell_length_b   8.44182964
_cell_length_c   8.71735509
_cell_angle_alpha   96.49498125
_cell_angle_beta   90.12839900
_cell_angle_gamma   105.30391370
_symmetry_Int_Tables_number   1
_chemical_formula_structural   UI3Br8
_chemical_formula_sum   'U1 I3 Br8'
_cell_volume   562.47217900
_cell_formula_units_Z   1
loop_
 _symmetry_equiv_pos_site_id
 _symmetry_equiv_pos_as_xyz
  1  'x, y, z'
loop_
 _atom_site_type_symbol
 _atom_site_label
 _atom_site_symmetry_multiplicity
 _atom_site_fract_x
 _atom_site_fract_y
 _atom_site_fract_z
 _atom_site_occupancy
  U  U0  1  0.000000  0.500000  0.500000  1
  I  I1  1  0.000000  0.000000  0.000000  1
  I  I2  1  0.681878  0.767748  0.855568  1
  I  I3  1  0.318122  0.232252  0.144432  1
  Br  Br4  1  0.697841  0.292854  0.567967  1
  Br  Br5  1  0.302159  0.707146  0.432033  1
  Br  Br6  1  0.501489  0.752505  0.098837  1
  Br  Br7  1  0.498511  0.247495  0.901163  1
  Br  Br8  1  0.858252  0.767838  0.547919  1
  Br  Br9  1  0.141748  0.232162  0.452081  1
  Br  Br10  1  0.894315  0.457659  0.205326  1
  Br  Br11  1  0.105685  0.542341  0.794674  1
