# generated using pymatgen
data_Zr10Sn3GeBi3Au
_symmetry_space_group_name_H-M   'P 1'
_cell_length_a   8.81835600
_cell_length_b   8.81835523
_cell_length_c   5.97422900
_cell_angle_alpha   90.00000000
_cell_angle_beta   90.00000000
_cell_angle_gamma   119.99999540
_symmetry_Int_Tables_number   1
_chemical_formula_structural   Zr10Sn3GeBi3Au
_chemical_formula_sum   'Zr10 Sn3 Ge1 Bi3 Au1'
_cell_volume   402.33492578
_cell_formula_units_Z   1
loop_
 _symmetry_equiv_pos_site_id
 _symmetry_equiv_pos_as_xyz
  1  'x, y, z'
loop_
 _atom_site_type_symbol
 _atom_site_label
 _atom_site_symmetry_multiplicity
 _atom_site_fract_x
 _atom_site_fract_y
 _atom_site_fract_z
 _atom_site_occupancy
  Zr  Zr0  1  0.726913  0.000000  0.264402  1
  Zr  Zr1  1  0.000000  0.726913  0.264402  1
  Zr  Zr2  1  0.273087  0.273087  0.264402  1
  Zr  Zr3  1  0.264848  0.000000  0.734440  1
  Zr  Zr4  1  0.000000  0.264848  0.734440  1
  Zr  Zr5  1  0.735152  0.735152  0.734440  1
  Zr  Zr6  1  0.333333  0.666667  0.493763  1
  Zr  Zr7  1  0.666667  0.333333  0.493763  1
  Zr  Zr8  1  0.666667  0.333333  0.004287  1
  Zr  Zr9  1  0.333333  0.666667  0.004287  1
  Sn  Sn10  1  0.384440  0.000000  0.245677  1
  Sn  Sn11  1  0.000000  0.384440  0.245677  1
  Sn  Sn12  1  0.615560  0.615560  0.245677  1
  Ge  Ge13  1  0.000000  0.000000  0.490283  1
  Bi  Bi14  1  0.610049  0.000000  0.755586  1
  Bi  Bi15  1  0.000000  0.610049  0.755586  1
  Bi  Bi16  1  0.389951  0.389951  0.755586  1
  Au  Au17  1  0.000000  0.000000  0.013302  1
