# generated using pymatgen
data_DyNi2(PRu)3
_symmetry_space_group_name_H-M   'P 1'
_cell_length_a   3.80133000
_cell_length_b   10.71486100
_cell_length_c   12.09230900
_cell_angle_alpha   90.00000000
_cell_angle_beta   90.00000000
_cell_angle_gamma   90.00000000
_symmetry_Int_Tables_number   1
_chemical_formula_structural   DyNi2(PRu)3
_chemical_formula_sum   'Dy4 Ni8 P12 Ru12'
_cell_volume   492.52848305
_cell_formula_units_Z   4
loop_
 _symmetry_equiv_pos_site_id
 _symmetry_equiv_pos_as_xyz
  1  'x, y, z'
loop_
 _atom_site_type_symbol
 _atom_site_label
 _atom_site_symmetry_multiplicity
 _atom_site_fract_x
 _atom_site_fract_y
 _atom_site_fract_z
 _atom_site_occupancy
  Dy  Dy0  1  0.250000  0.588126  0.706796  1
  Dy  Dy1  1  0.250000  0.911874  0.206796  1
  Dy  Dy2  1  0.750000  0.411874  0.293204  1
  Dy  Dy3  1  0.750000  0.088126  0.793204  1
  Ni  Ni4  1  0.250000  0.891303  0.698237  1
  Ni  Ni5  1  0.250000  0.608697  0.198237  1
  Ni  Ni6  1  0.750000  0.108697  0.301763  1
  Ni  Ni7  1  0.750000  0.391303  0.801763  1
  Ni  Ni8  1  0.250000  0.461864  0.929942  1
  Ni  Ni9  1  0.250000  0.038136  0.429942  1
  Ni  Ni10  1  0.750000  0.538136  0.070058  1
  Ni  Ni11  1  0.750000  0.961864  0.570058  1
  P  P12  1  0.250000  0.419069  0.110254  1
  P  P13  1  0.250000  0.080931  0.610254  1
  P  P14  1  0.750000  0.580931  0.889746  1
  P  P15  1  0.750000  0.919069  0.389746  1
  P  P16  1  0.250000  0.269090  0.875190  1
  P  P17  1  0.250000  0.230910  0.375190  1
  P  P18  1  0.750000  0.730910  0.124810  1
  P  P19  1  0.750000  0.769090  0.624810  1
  P  P20  1  0.250000  0.601171  0.388894  1
  P  P21  1  0.250000  0.898829  0.888894  1
  P  P22  1  0.750000  0.398829  0.611106  1
  P  P23  1  0.750000  0.101171  0.111106  1
  Ru  Ru24  1  0.250000  0.708483  0.986325  1
  Ru  Ru25  1  0.250000  0.791517  0.486325  1
  Ru  Ru26  1  0.750000  0.291517  0.013675  1
  Ru  Ru27  1  0.750000  0.208483  0.513675  1
  Ru  Ru28  1  0.250000  0.406570  0.486565  1
  Ru  Ru29  1  0.250000  0.093430  0.986565  1
  Ru  Ru30  1  0.750000  0.593430  0.513435  1
  Ru  Ru31  1  0.750000  0.906570  0.013435  1
  Ru  Ru32  1  0.250000  0.221250  0.182648  1
  Ru  Ru33  1  0.250000  0.278750  0.682648  1
  Ru  Ru34  1  0.750000  0.778750  0.817352  1
  Ru  Ru35  1  0.750000  0.721250  0.317352  1
