# generated using pymatgen
data_Tm12TlCo2Si2Hg
_symmetry_space_group_name_H-M   'P 1'
_cell_length_a   8.34192326
_cell_length_b   8.34192191
_cell_length_c   8.34192267
_cell_angle_alpha   113.62484098
_cell_angle_beta   110.60552663
_cell_angle_gamma   104.31909040
_symmetry_Int_Tables_number   1
_chemical_formula_structural   Tm12TlCo2Si2Hg
_chemical_formula_sum   'Tm12 Tl1 Co2 Si2 Hg1'
_cell_volume   443.84751541
_cell_formula_units_Z   1
loop_
 _symmetry_equiv_pos_site_id
 _symmetry_equiv_pos_as_xyz
  1  'x, y, z'
loop_
 _atom_site_type_symbol
 _atom_site_label
 _atom_site_symmetry_multiplicity
 _atom_site_fract_x
 _atom_site_fract_y
 _atom_site_fract_z
 _atom_site_occupancy
  Tm  Tm0  1  0.439304  0.238648  0.200656  1
  Tm  Tm1  1  0.560696  0.761352  0.799344  1
  Tm  Tm2  1  0.037991  0.238648  0.799344  1
  Tm  Tm3  1  0.962009  0.761352  0.200656  1
  Tm  Tm4  1  0.186539  0.287994  0.474534  1
  Tm  Tm5  1  0.813461  0.712006  0.525466  1
  Tm  Tm6  1  0.186539  0.712006  0.898547  1
  Tm  Tm7  1  0.813461  0.287994  0.101453  1
  Tm  Tm8  1  0.304983  0.615852  0.310869  1
  Tm  Tm9  1  0.695017  0.384148  0.689131  1
  Tm  Tm10  1  0.304983  0.994114  0.689131  1
  Tm  Tm11  1  0.695017  0.005886  0.310869  1
  Tl  Tl12  1  0.500000  0.500000  0.000000  1
  Co  Co13  1  0.109166  0.609166  0.500000  1
  Co  Co14  1  0.890834  0.390834  0.500000  1
  Si  Si15  1  0.363212  0.000000  0.363212  1
  Si  Si16  1  0.636788  0.000000  0.636788  1
  Hg  Hg17  1  0.000000  0.000000  0.000000  1
