# generated using pymatgen
data_Dy5P12Ir6Ru10Rh3
_symmetry_space_group_name_H-M   'P 1'
_cell_length_a   12.60390740
_cell_length_b   12.58556197
_cell_length_c   3.95379300
_cell_angle_alpha   90.00000000
_cell_angle_beta   90.00000000
_cell_angle_gamma   119.84571865
_symmetry_Int_Tables_number   1
_chemical_formula_structural   Dy5P12Ir6Ru10Rh3
_chemical_formula_sum   'Dy5 P12 Ir6 Ru10 Rh3'
_cell_volume   543.99567991
_cell_formula_units_Z   1
loop_
 _symmetry_equiv_pos_site_id
 _symmetry_equiv_pos_as_xyz
  1  'x, y, z'
loop_
 _atom_site_type_symbol
 _atom_site_label
 _atom_site_symmetry_multiplicity
 _atom_site_fract_x
 _atom_site_fract_y
 _atom_site_fract_z
 _atom_site_occupancy
  Dy  Dy0  1  0.667200  0.332489  0.000000  1
  Dy  Dy1  1  0.333276  0.666730  0.000000  1
  Dy  Dy2  1  0.812508  0.001068  0.500000  1
  Dy  Dy3  1  0.185393  0.187470  0.500000  1
  Dy  Dy4  1  0.000212  0.813272  0.500000  1
  P  P5  1  0.631594  0.997573  0.000000  1
  P  P6  1  0.365398  0.370687  0.000000  1
  P  P7  1  0.005760  0.634578  0.000000  1
  P  P8  1  0.688762  0.519307  0.500000  1
  P  P9  1  0.829993  0.307319  0.500000  1
  P  P10  1  0.313606  0.830945  0.500000  1
  P  P11  1  0.517384  0.686763  0.500000  1
  P  P12  1  0.180957  0.001499  0.000000  1
  P  P13  1  0.819107  0.818636  0.000000  1
  P  P14  1  0.996219  0.181311  0.000000  1
  P  P15  1  0.479863  0.167233  0.500000  1
  P  P16  1  0.169325  0.483104  0.500000  1
  Ir  Ir17  1  0.623908  0.803624  0.000000  1
  Ir  Ir18  1  0.180937  0.376193  0.000000  1
  Ir  Ir19  1  0.375729  0.184497  0.000000  1
  Ir  Ir20  1  0.195799  0.821019  0.000000  1
  Ir  Ir21  1  0.808687  0.623733  0.000000  1
  Ir  Ir22  1  0.999319  0.000256  0.000000  1
  Ru  Ru23  1  0.127995  0.640524  0.500000  1
  Ru  Ru24  1  0.361248  0.488734  0.500000  1
  Ru  Ru25  1  0.510929  0.870901  0.500000  1
  Ru  Ru26  1  0.715399  0.713767  0.500000  1
  Ru  Ru27  1  0.000733  0.286046  0.500000  1
  Ru  Ru28  1  0.450511  0.002330  0.000000  1
  Ru  Ru29  1  0.552533  0.547449  0.000000  1
  Ru  Ru30  1  0.999391  0.449670  0.000000  1
  Ru  Ru31  1  0.816358  0.194843  0.000000  1
  Ru  Ru32  1  0.285444  0.001520  0.500000  1
  Rh  Rh33  1  0.869824  0.506311  0.500000  1
  Rh  Rh34  1  0.492274  0.361120  0.500000  1
  Rh  Rh35  1  0.636430  0.127480  0.500000  1
