# generated using pymatgen
data_HoTm7In3Ni
_symmetry_space_group_name_H-M   'P 1'
_cell_length_a   10.31755400
_cell_length_b   10.31755411
_cell_length_c   6.85344700
_cell_angle_alpha   90.00000000
_cell_angle_beta   90.00000000
_cell_angle_gamma   119.99999964
_symmetry_Int_Tables_number   1
_chemical_formula_structural   HoTm7In3Ni
_chemical_formula_sum   'Ho2 Tm14 In6 Ni2'
_cell_volume   631.81975061
_cell_formula_units_Z   2
loop_
 _symmetry_equiv_pos_site_id
 _symmetry_equiv_pos_as_xyz
  1  'x, y, z'
loop_
 _atom_site_type_symbol
 _atom_site_label
 _atom_site_symmetry_multiplicity
 _atom_site_fract_x
 _atom_site_fract_y
 _atom_site_fract_z
 _atom_site_occupancy
  Ho  Ho0  1  0.000000  0.000000  0.489476  1
  Ho  Ho1  1  0.000000  0.000000  0.989476  1
  Tm  Tm2  1  0.532057  0.064116  0.508319  1
  Tm  Tm3  1  0.935884  0.467943  0.508319  1
  Tm  Tm4  1  0.532057  0.467943  0.508319  1
  Tm  Tm5  1  0.467943  0.935884  0.008319  1
  Tm  Tm6  1  0.064116  0.532057  0.008319  1
  Tm  Tm7  1  0.467943  0.532057  0.008319  1
  Tm  Tm8  1  0.178133  0.356267  0.714356  1
  Tm  Tm9  1  0.643733  0.821867  0.714356  1
  Tm  Tm10  1  0.178133  0.821867  0.714356  1
  Tm  Tm11  1  0.821867  0.643733  0.214356  1
  Tm  Tm12  1  0.356267  0.178133  0.214356  1
  Tm  Tm13  1  0.821867  0.178133  0.214356  1
  Tm  Tm14  1  0.666667  0.333333  0.892745  1
  Tm  Tm15  1  0.333333  0.666667  0.392745  1
  In  In16  1  0.837331  0.674664  0.749398  1
  In  In17  1  0.325336  0.162669  0.749398  1
  In  In18  1  0.837331  0.162669  0.749398  1
  In  In19  1  0.162669  0.325336  0.249398  1
  In  In20  1  0.674664  0.837331  0.249398  1
  In  In21  1  0.162669  0.837331  0.249398  1
  Ni  Ni22  1  0.666667  0.333333  0.280578  1
  Ni  Ni23  1  0.333333  0.666667  0.780578  1
