# generated using pymatgen
data_CdOs2F12
_symmetry_space_group_name_H-M   'P 1'
_cell_length_a   7.28937783
_cell_length_b   7.28937884
_cell_length_c   10.38963887
_cell_angle_alpha   68.11789152
_cell_angle_beta   68.11788656
_cell_angle_gamma   76.72213592
_symmetry_Int_Tables_number   1
_chemical_formula_structural   CdOs2F12
_chemical_formula_sum   'Cd2 Os4 F24'
_cell_volume   472.72296611
_cell_formula_units_Z   2
loop_
 _symmetry_equiv_pos_site_id
 _symmetry_equiv_pos_as_xyz
  1  'x, y, z'
loop_
 _atom_site_type_symbol
 _atom_site_label
 _atom_site_symmetry_multiplicity
 _atom_site_fract_x
 _atom_site_fract_y
 _atom_site_fract_z
 _atom_site_occupancy
  Cd  Cd0  1  0.172298  0.827702  0.750000  1
  Cd  Cd1  1  0.827702  0.172298  0.250000  1
  Os  Os2  1  0.246224  0.257722  0.371845  1
  Os  Os3  1  0.257722  0.246224  0.871845  1
  Os  Os4  1  0.753776  0.742278  0.628155  1
  Os  Os5  1  0.742278  0.753776  0.128155  1
  F  F6  1  0.855775  0.869130  0.221763  1
  F  F7  1  0.144225  0.130870  0.778237  1
  F  F8  1  0.289455  0.988708  0.505141  1
  F  F9  1  0.991301  0.283017  0.505756  1
  F  F10  1  0.283017  0.991301  0.005756  1
  F  F11  1  0.364772  0.356857  0.461677  1
  F  F12  1  0.356857  0.364772  0.961677  1
  F  F13  1  0.869130  0.855775  0.721763  1
  F  F14  1  0.785026  0.486707  0.262671  1
  F  F15  1  0.011292  0.710545  0.994859  1
  F  F16  1  0.710545  0.011292  0.494859  1
  F  F17  1  0.988708  0.289455  0.005141  1
  F  F18  1  0.510262  0.206146  0.741205  1
  F  F19  1  0.635228  0.643143  0.538323  1
  F  F20  1  0.214974  0.513293  0.737329  1
  F  F21  1  0.643143  0.635228  0.038323  1
  F  F22  1  0.486707  0.785026  0.762671  1
  F  F23  1  0.793854  0.489738  0.758795  1
  F  F24  1  0.513293  0.214974  0.237329  1
  F  F25  1  0.489738  0.793854  0.258795  1
  F  F26  1  0.206146  0.510262  0.241205  1
  F  F27  1  0.716983  0.008699  0.994244  1
  F  F28  1  0.130870  0.144225  0.278237  1
  F  F29  1  0.008699  0.716983  0.494244  1
