# generated using pymatgen
data_Yb3PrY2(CoSn6)2
_symmetry_space_group_name_H-M   'P 1'
_cell_length_a   8.43697882
_cell_length_b   8.43698020
_cell_length_c   13.30321767
_cell_angle_alpha   90.13138894
_cell_angle_beta   89.86861075
_cell_angle_gamma   147.92425940
_symmetry_Int_Tables_number   1
_chemical_formula_structural   Yb3PrY2(CoSn6)2
_chemical_formula_sum   'Yb3 Pr1 Y2 Co2 Sn12'
_cell_volume   502.87097112
_cell_formula_units_Z   1
loop_
 _symmetry_equiv_pos_site_id
 _symmetry_equiv_pos_as_xyz
  1  'x, y, z'
loop_
 _atom_site_type_symbol
 _atom_site_label
 _atom_site_symmetry_multiplicity
 _atom_site_fract_x
 _atom_site_fract_y
 _atom_site_fract_z
 _atom_site_occupancy
  Yb  Yb0  1  0.100121  0.899879  0.596971  1
  Yb  Yb1  1  0.100400  0.899600  0.903015  1
  Yb  Yb2  1  0.899942  0.100058  0.404275  1
  Pr  Pr3  1  0.900103  0.099897  0.092922  1
  Y  Y4  1  0.901231  0.098769  0.752963  1
  Y  Y5  1  0.099443  0.900557  0.249485  1
  Co  Co6  1  0.297783  0.702217  0.250854  1
  Co  Co7  1  0.703197  0.296803  0.748757  1
  Sn  Sn8  1  0.757313  0.242687  0.571559  1
  Sn  Sn9  1  0.426723  0.573277  0.578559  1
  Sn  Sn10  1  0.573493  0.426507  0.423743  1
  Sn  Sn11  1  0.732573  0.267427  0.249942  1
  Sn  Sn12  1  0.266780  0.733220  0.749600  1
  Sn  Sn13  1  0.241083  0.758917  0.071911  1
  Sn  Sn14  1  0.243485  0.756515  0.428911  1
  Sn  Sn15  1  0.572929  0.427071  0.076855  1
  Sn  Sn16  1  0.455174  0.544826  0.252847  1
  Sn  Sn17  1  0.546481  0.453519  0.748872  1
  Sn  Sn18  1  0.754418  0.245582  0.927730  1
  Sn  Sn19  1  0.427328  0.572672  0.920231  1
