# generated using pymatgen
data_LaThP4IrRh3
_symmetry_space_group_name_H-M   'P 1'
_cell_length_a   4.21302100
_cell_length_b   4.21302100
_cell_length_c   9.62809400
_cell_angle_alpha   90.00000000
_cell_angle_beta   90.00000000
_cell_angle_gamma   90.00000000
_symmetry_Int_Tables_number   1
_chemical_formula_structural   LaThP4IrRh3
_chemical_formula_sum   'La1 Th1 P4 Ir1 Rh3'
_cell_volume   170.89429683
_cell_formula_units_Z   1
loop_
 _symmetry_equiv_pos_site_id
 _symmetry_equiv_pos_as_xyz
  1  'x, y, z'
loop_
 _atom_site_type_symbol
 _atom_site_label
 _atom_site_symmetry_multiplicity
 _atom_site_fract_x
 _atom_site_fract_y
 _atom_site_fract_z
 _atom_site_occupancy
  La  La0  1  0.500000  0.000000  0.743264  1
  Th  Th1  1  0.000000  0.500000  0.255604  1
  P  P2  1  0.000000  0.000000  0.499878  1
  P  P3  1  0.500000  0.500000  0.499878  1
  P  P4  1  0.000000  0.500000  0.860786  1
  P  P5  1  0.500000  0.000000  0.137274  1
  Ir  Ir6  1  0.500000  0.000000  0.385474  1
  Rh  Rh7  1  0.000000  0.000000  0.005576  1
  Rh  Rh8  1  0.500000  0.500000  0.005576  1
  Rh  Rh9  1  0.000000  0.500000  0.606690  1
