# generated using pymatgen
data_Tb2Co5(NiP)7
_symmetry_space_group_name_H-M   'P 1'
_cell_length_a   3.63898000
_cell_length_b   9.03813081
_cell_length_c   9.01908303
_cell_angle_alpha   119.98698591
_cell_angle_beta   90.00000000
_cell_angle_gamma   90.00000000
_symmetry_Int_Tables_number   1
_chemical_formula_structural   Tb2Co5(NiP)7
_chemical_formula_sum   'Tb2 Co5 Ni7 P7'
_cell_volume   256.92611264
_cell_formula_units_Z   1
loop_
 _symmetry_equiv_pos_site_id
 _symmetry_equiv_pos_as_xyz
  1  'x, y, z'
loop_
 _atom_site_type_symbol
 _atom_site_label
 _atom_site_symmetry_multiplicity
 _atom_site_fract_x
 _atom_site_fract_y
 _atom_site_fract_z
 _atom_site_occupancy
  Tb  Tb0  1  0.000000  0.666047  0.332772  1
  Tb  Tb1  1  0.500000  0.334131  0.667197  1
  Co  Co2  1  0.000000  0.879894  0.154271  1
  Co  Co3  1  0.000000  0.272890  0.119446  1
  Co  Co4  1  0.000000  0.847265  0.727118  1
  Co  Co5  1  0.500000  0.430415  0.048318  1
  Co  Co6  1  0.500000  0.618151  0.569114  1
  Ni  Ni7  1  0.000000  0.564073  0.938243  1
  Ni  Ni8  1  0.000000  0.375487  0.435200  1
  Ni  Ni9  1  0.000000  0.061431  0.624366  1
  Ni  Ni10  1  0.500000  0.786945  0.908852  1
  Ni  Ni11  1  0.500000  0.123804  0.215238  1
  Ni  Ni12  1  0.500000  0.090696  0.878975  1
  Ni  Ni13  1  0.500000  0.949886  0.382666  1
  P  P14  1  0.000000  0.999924  0.001063  1
  P  P15  1  0.500000  0.706748  0.109313  1
  P  P16  1  0.500000  0.403018  0.289158  1
  P  P17  1  0.500000  0.885693  0.600068  1
  P  P18  1  0.000000  0.595119  0.704063  1
  P  P19  1  0.000000  0.112790  0.403889  1
  P  P20  1  0.000000  0.295592  0.890668  1
