# generated using pymatgen
data_Sr8LaYb11Pt16
_symmetry_space_group_name_H-M   'P 1'
_cell_length_a   7.68308640
_cell_length_b   7.85966935
_cell_length_c   14.91629200
_cell_angle_alpha   89.97854598
_cell_angle_beta   90.06131468
_cell_angle_gamma   89.82469470
_symmetry_Int_Tables_number   1
_chemical_formula_structural   Sr8LaYb11Pt16
_chemical_formula_sum   'Sr8 La1 Yb11 Pt16'
_cell_volume   900.73814940
_cell_formula_units_Z   1
loop_
 _symmetry_equiv_pos_site_id
 _symmetry_equiv_pos_as_xyz
  1  'x, y, z'
loop_
 _atom_site_type_symbol
 _atom_site_label
 _atom_site_symmetry_multiplicity
 _atom_site_fract_x
 _atom_site_fract_y
 _atom_site_fract_z
 _atom_site_occupancy
  Sr  Sr0  1  0.502927  0.324810  0.903674  1
  Sr  Sr1  1  0.001197  0.176595  0.594969  1
  Sr  Sr2  1  0.498007  0.675513  0.403163  1
  Sr  Sr3  1  0.997013  0.824116  0.097969  1
  Sr  Sr4  1  0.499473  0.674114  0.099844  1
  Sr  Sr5  1  0.998043  0.824235  0.403137  1
  Sr  Sr6  1  0.502548  0.324001  0.595413  1
  Sr  Sr7  1  0.998987  0.179198  0.903503  1
  La  La8  1  0.338677  0.832069  0.877574  1
  Yb  Yb9  1  0.839232  0.666035  0.621848  1
  Yb  Yb10  1  0.660802  0.167481  0.376894  1
  Yb  Yb11  1  0.159730  0.333333  0.124275  1
  Yb  Yb12  1  0.661633  0.168163  0.124162  1
  Yb  Yb13  1  0.161054  0.333128  0.376840  1
  Yb  Yb14  1  0.338642  0.832754  0.621871  1
  Yb  Yb15  1  0.839397  0.666762  0.876750  1
  Yb  Yb16  1  0.175379  0.494739  0.747511  1
  Yb  Yb17  1  0.680876  0.004096  0.747866  1
  Yb  Yb18  1  0.822817  0.501175  0.250863  1
  Yb  Yb19  1  0.322361  0.998350  0.250848  1
  Pt  Pt20  1  0.332213  0.040099  0.043816  1
  Pt  Pt21  1  0.835312  0.460930  0.457179  1
  Pt  Pt22  1  0.664615  0.960976  0.542637  1
  Pt  Pt23  1  0.164010  0.539627  0.957856  1
  Pt  Pt24  1  0.667831  0.960952  0.957781  1
  Pt  Pt25  1  0.164145  0.537879  0.542745  1
  Pt  Pt26  1  0.336201  0.038730  0.457211  1
  Pt  Pt27  1  0.836338  0.460984  0.042667  1
  Pt  Pt28  1  0.545788  0.628277  0.750127  1
  Pt  Pt29  1  0.043427  0.870321  0.748715  1
  Pt  Pt30  1  0.454233  0.370480  0.249936  1
  Pt  Pt31  1  0.954292  0.129346  0.250478  1
  Pt  Pt32  1  0.304957  0.125754  0.749818  1
  Pt  Pt33  1  0.801927  0.375158  0.749632  1
  Pt  Pt34  1  0.698153  0.875460  0.250205  1
  Pt  Pt35  1  0.197760  0.624357  0.250222  1
