# generated using pymatgen
data_Tb4Nd4Er3In9Pd4
_symmetry_space_group_name_H-M   'P 1'
_cell_length_a   13.25959056
_cell_length_b   13.23305047
_cell_length_c   3.73283700
_cell_angle_alpha   90.00000000
_cell_angle_beta   90.00000000
_cell_angle_gamma   110.69858346
_symmetry_Int_Tables_number   1
_chemical_formula_structural   Tb4Nd4Er3In9Pd4
_chemical_formula_sum   'Tb4 Nd4 Er3 In9 Pd4'
_cell_volume   612.70436430
_cell_formula_units_Z   1
loop_
 _symmetry_equiv_pos_site_id
 _symmetry_equiv_pos_as_xyz
  1  'x, y, z'
loop_
 _atom_site_type_symbol
 _atom_site_label
 _atom_site_symmetry_multiplicity
 _atom_site_fract_x
 _atom_site_fract_y
 _atom_site_fract_z
 _atom_site_occupancy
  Tb  Tb0  1  0.371768  0.629019  0.000000  1
  Tb  Tb1  1  0.627672  0.370840  0.000000  1
  Tb  Tb2  1  0.311412  0.311159  0.000000  1
  Tb  Tb3  1  0.686809  0.688630  0.000000  1
  Nd  Nd4  1  0.930527  0.581761  0.000000  1
  Nd  Nd5  1  0.158438  0.842623  0.000000  1
  Nd  Nd6  1  0.841746  0.156979  0.000000  1
  Nd  Nd7  1  0.000141  0.000925  0.000000  1
  Er  Er8  1  0.419088  0.074710  0.000000  1
  Er  Er9  1  0.581005  0.925470  0.000000  1
  Er  Er10  1  0.076158  0.418933  0.000000  1
  In  In11  1  0.370400  0.843146  0.500000  1
  In  In12  1  0.629182  0.156297  0.500000  1
  In  In13  1  0.841304  0.366152  0.500000  1
  In  In14  1  0.161908  0.630199  0.500000  1
  In  In15  1  0.223035  0.079653  0.500000  1
  In  In16  1  0.776853  0.921669  0.500000  1
  In  In17  1  0.079870  0.223456  0.500000  1
  In  In18  1  0.918345  0.780194  0.500000  1
  In  In19  1  0.499290  0.499784  0.500000  1
  Pd  Pd20  1  0.450874  0.246228  0.500000  1
  Pd  Pd21  1  0.549086  0.753888  0.500000  1
  Pd  Pd22  1  0.247552  0.450508  0.500000  1
  Pd  Pd23  1  0.747537  0.547776  0.500000  1
