# generated using pymatgen
data_SmPa3(GaNi2)2
_symmetry_space_group_name_H-M   'P 1'
_cell_length_a   7.25898909
_cell_length_b   7.25898884
_cell_length_c   3.57269300
_cell_angle_alpha   90.00000000
_cell_angle_beta   90.00000000
_cell_angle_gamma   91.68083323
_symmetry_Int_Tables_number   1
_chemical_formula_structural   SmPa3(GaNi2)2
_chemical_formula_sum   'Sm1 Pa3 Ga2 Ni4'
_cell_volume   188.17462815
_cell_formula_units_Z   1
loop_
 _symmetry_equiv_pos_site_id
 _symmetry_equiv_pos_as_xyz
  1  'x, y, z'
loop_
 _atom_site_type_symbol
 _atom_site_label
 _atom_site_symmetry_multiplicity
 _atom_site_fract_x
 _atom_site_fract_y
 _atom_site_fract_z
 _atom_site_occupancy
  Sm  Sm0  1  0.819686  0.680314  0.500000  1
  Pa  Pa1  1  0.679180  0.178223  0.500000  1
  Pa  Pa2  1  0.321777  0.820820  0.500000  1
  Pa  Pa3  1  0.177506  0.322494  0.500000  1
  Ga  Ga4  1  0.498086  0.499374  0.000000  1
  Ga  Ga5  1  0.000626  0.001914  0.000000  1
  Ni  Ni6  1  0.145290  0.614132  0.000000  1
  Ni  Ni7  1  0.885868  0.354710  0.000000  1
  Ni  Ni8  1  0.606150  0.893850  0.000000  1
  Ni  Ni9  1  0.365831  0.134169  0.000000  1
