# generated using pymatgen
data_Nd12AlGa7Rh8
_symmetry_space_group_name_H-M   'P 1'
_cell_length_a   5.71173800
_cell_length_b   8.20215481
_cell_length_c   13.65393303
_cell_angle_alpha   90.07617586
_cell_angle_beta   90.00000000
_cell_angle_gamma   90.00000000
_symmetry_Int_Tables_number   1
_chemical_formula_structural   Nd12AlGa7Rh8
_chemical_formula_sum   'Nd12 Al1 Ga7 Rh8'
_cell_volume   639.66652559
_cell_formula_units_Z   1
loop_
 _symmetry_equiv_pos_site_id
 _symmetry_equiv_pos_as_xyz
  1  'x, y, z'
loop_
 _atom_site_type_symbol
 _atom_site_label
 _atom_site_symmetry_multiplicity
 _atom_site_fract_x
 _atom_site_fract_y
 _atom_site_fract_z
 _atom_site_occupancy
  Nd  Nd0  1  0.632062  0.257015  0.251371  1
  Nd  Nd1  1  0.366839  0.742035  0.748530  1
  Nd  Nd2  1  0.366839  0.757965  0.251470  1
  Nd  Nd3  1  0.632062  0.242985  0.748629  1
  Nd  Nd4  1  0.143327  0.400158  0.099095  1
  Nd  Nd5  1  0.858451  0.602917  0.901437  1
  Nd  Nd6  1  0.854596  0.602075  0.598688  1
  Nd  Nd7  1  0.854596  0.897925  0.401312  1
  Nd  Nd8  1  0.144031  0.398986  0.402182  1
  Nd  Nd9  1  0.144031  0.101014  0.597818  1
  Nd  Nd10  1  0.143327  0.099842  0.900905  1
  Nd  Nd11  1  0.858451  0.897083  0.098563  1
  Al  Al12  1  0.617682  0.250000  0.000000  1
  Ga  Ga13  1  0.134254  0.110697  0.250327  1
  Ga  Ga14  1  0.863476  0.890134  0.749451  1
  Ga  Ga15  1  0.863476  0.609866  0.250549  1
  Ga  Ga16  1  0.134254  0.389303  0.749673  1
  Ga  Ga17  1  0.375936  0.750000  0.000000  1
  Ga  Ga18  1  0.371012  0.750000  0.500000  1
  Ga  Ga19  1  0.627856  0.250000  0.500000  1
  Rh  Rh20  1  0.360417  0.032728  0.091484  1
  Rh  Rh21  1  0.646195  0.973837  0.910193  1
  Rh  Rh22  1  0.642274  0.969933  0.590914  1
  Rh  Rh23  1  0.642274  0.530067  0.409086  1
  Rh  Rh24  1  0.357836  0.030111  0.408445  1
  Rh  Rh25  1  0.357836  0.469889  0.591555  1
  Rh  Rh26  1  0.360417  0.467272  0.908516  1
  Rh  Rh27  1  0.646195  0.526163  0.089807  1
