# generated using pymatgen
data_DyHoZr2(NiAs)4
_symmetry_space_group_name_H-M   'P 1'
_cell_length_a   4.01623900
_cell_length_b   4.01623925
_cell_length_c   14.84276500
_cell_angle_alpha   90.00000000
_cell_angle_beta   90.00000000
_cell_angle_gamma   120.00000619
_symmetry_Int_Tables_number   1
_chemical_formula_structural   DyHoZr2(NiAs)4
_chemical_formula_sum   'Dy1 Ho1 Zr2 Ni4 As4'
_cell_volume   207.34069079
_cell_formula_units_Z   1
loop_
 _symmetry_equiv_pos_site_id
 _symmetry_equiv_pos_as_xyz
  1  'x, y, z'
loop_
 _atom_site_type_symbol
 _atom_site_label
 _atom_site_symmetry_multiplicity
 _atom_site_fract_x
 _atom_site_fract_y
 _atom_site_fract_z
 _atom_site_occupancy
  Dy  Dy0  1  0.000000  0.000000  0.000000  1
  Ho  Ho1  1  0.000000  0.000000  0.500000  1
  Zr  Zr2  1  0.000000  0.000000  0.250219  1
  Zr  Zr3  1  0.000000  0.000000  0.749781  1
  Ni  Ni4  1  0.333333  0.666667  0.154758  1
  Ni  Ni5  1  0.666667  0.333333  0.845242  1
  Ni  Ni6  1  0.666667  0.333333  0.654223  1
  Ni  Ni7  1  0.333333  0.666667  0.345777  1
  As  As8  1  0.333333  0.666667  0.621249  1
  As  As9  1  0.666667  0.333333  0.378751  1
  As  As10  1  0.666667  0.333333  0.121895  1
  As  As11  1  0.333333  0.666667  0.878105  1
