# generated using pymatgen
data_Cd2Ag5NO11
_symmetry_space_group_name_H-M   'P 1'
_cell_length_a   7.28380981
_cell_length_b   7.10471872
_cell_length_c   7.10471976
_cell_angle_alpha   60.41911070
_cell_angle_beta   59.72230670
_cell_angle_gamma   59.72230650
_symmetry_Int_Tables_number   1
_chemical_formula_structural   Cd2Ag5NO11
_chemical_formula_sum   'Cd2 Ag5 N1 O11'
_cell_volume   259.68491012
_cell_formula_units_Z   1
loop_
 _symmetry_equiv_pos_site_id
 _symmetry_equiv_pos_as_xyz
  1  'x, y, z'
loop_
 _atom_site_type_symbol
 _atom_site_label
 _atom_site_symmetry_multiplicity
 _atom_site_fract_x
 _atom_site_fract_y
 _atom_site_fract_z
 _atom_site_occupancy
  Cd  Cd0  1  0.998336  0.998579  0.998579  1
  Cd  Cd1  1  0.499807  0.999263  0.999263  1
  Ag  Ag2  1  0.498833  0.499582  0.999872  1
  Ag  Ag3  1  0.498833  0.999872  0.499582  1
  Ag  Ag4  1  0.001157  0.996910  0.497510  1
  Ag  Ag5  1  0.993424  0.497755  0.497755  1
  Ag  Ag6  1  0.001157  0.497510  0.996910  1
  N  N7  1  0.502261  0.505266  0.505266  1
  O  O8  1  0.586696  0.147083  0.147083  1
  O  O9  1  0.146149  0.569672  0.137446  1
  O  O10  1  0.122104  0.142167  0.142167  1
  O  O11  1  0.146149  0.137446  0.569672  1
  O  O12  1  0.607373  0.637328  0.331169  1
  O  O13  1  0.607373  0.331169  0.637328  1
  O  O14  1  0.297903  0.547904  0.547904  1
  O  O15  1  0.851467  0.858823  0.427212  1
  O  O16  1  0.851467  0.427212  0.858823  1
  O  O17  1  0.879594  0.852968  0.852968  1
  O  O18  1  0.409917  0.853490  0.853490  1
