# generated using pymatgen
data_Dy3HoTm4(B6Ru)4
_symmetry_space_group_name_H-M   'P 1'
_cell_length_a   3.63513700
_cell_length_b   9.09758600
_cell_length_c   11.47805200
_cell_angle_alpha   90.00121989
_cell_angle_beta   90.00000000
_cell_angle_gamma   90.00000000
_symmetry_Int_Tables_number   1
_chemical_formula_structural   Dy3HoTm4(B6Ru)4
_chemical_formula_sum   'Dy3 Ho1 Tm4 B24 Ru4'
_cell_volume   379.59033029
_cell_formula_units_Z   1
loop_
 _symmetry_equiv_pos_site_id
 _symmetry_equiv_pos_as_xyz
  1  'x, y, z'
loop_
 _atom_site_type_symbol
 _atom_site_label
 _atom_site_symmetry_multiplicity
 _atom_site_fract_x
 _atom_site_fract_y
 _atom_site_fract_z
 _atom_site_occupancy
  Dy  Dy0  1  0.000000  0.322072  0.414116  1
  Dy  Dy1  1  0.000000  0.677928  0.585899  1
  Dy  Dy2  1  0.000000  0.822102  0.085852  1
  Ho  Ho3  1  0.000000  0.178071  0.914150  1
  Tm  Tm4  1  0.000000  0.943854  0.372364  1
  Tm  Tm5  1  0.000000  0.056184  0.627669  1
  Tm  Tm6  1  0.000000  0.443777  0.127545  1
  Tm  Tm7  1  0.000000  0.556089  0.872406  1
  B  B8  1  0.500000  0.554382  0.432908  1
  B  B9  1  0.500000  0.445581  0.567128  1
  B  B10  1  0.500000  0.054458  0.066900  1
  B  B11  1  0.500000  0.945827  0.932943  1
  B  B12  1  0.500000  0.749057  0.419493  1
  B  B13  1  0.500000  0.250943  0.580561  1
  B  B14  1  0.500000  0.248976  0.080276  1
  B  B15  1  0.500000  0.751012  0.919482  1
  B  B16  1  0.500000  0.791606  0.265985  1
  B  B17  1  0.500000  0.208294  0.734196  1
  B  B18  1  0.500000  0.291578  0.233928  1
  B  B19  1  0.500000  0.708429  0.766019  1
  B  B20  1  0.500000  0.631164  0.184580  1
  B  B21  1  0.500000  0.368629  0.815528  1
  B  B22  1  0.500000  0.131200  0.315370  1
  B  B23  1  0.500000  0.868862  0.684645  1
  B  B24  1  0.500000  0.983166  0.213206  1
  B  B25  1  0.500000  0.017100  0.786856  1
  B  B26  1  0.500000  0.483110  0.286718  1
  B  B27  1  0.500000  0.516803  0.713307  1
  B  B28  1  0.500000  0.605714  0.029069  1
  B  B29  1  0.500000  0.393946  0.970840  1
  B  B30  1  0.500000  0.105685  0.470950  1
  B  B31  1  0.500000  0.894333  0.529070  1
  Ru  Ru32  1  0.000000  0.638308  0.320496  1
  Ru  Ru33  1  0.000000  0.361578  0.679592  1
  Ru  Ru34  1  0.000000  0.138301  0.179345  1
  Ru  Ru35  1  0.000000  0.861882  0.820608  1
