# generated using pymatgen
data_Cs4ZrPaTe6
_symmetry_space_group_name_H-M   'P 1'
_cell_length_a   15.30539800
_cell_length_b   7.19431279
_cell_length_c   10.34408640
_cell_angle_alpha   72.08597523
_cell_angle_beta   90.00000000
_cell_angle_gamma   90.00000000
_symmetry_Int_Tables_number   1
_chemical_formula_structural   Cs4ZrPaTe6
_chemical_formula_sum   'Cs8 Zr2 Pa2 Te12'
_cell_volume   1083.78618774
_cell_formula_units_Z   2
loop_
 _symmetry_equiv_pos_site_id
 _symmetry_equiv_pos_as_xyz
  1  'x, y, z'
loop_
 _atom_site_type_symbol
 _atom_site_label
 _atom_site_symmetry_multiplicity
 _atom_site_fract_x
 _atom_site_fract_y
 _atom_site_fract_z
 _atom_site_occupancy
  Cs  Cs0  1  0.954942  0.673484  0.654245  1
  Cs  Cs1  1  0.454942  0.826516  0.345755  1
  Cs  Cs2  1  0.045285  0.326747  0.346385  1
  Cs  Cs3  1  0.545285  0.173253  0.653615  1
  Cs  Cs4  1  0.868036  0.083831  0.902765  1
  Cs  Cs5  1  0.368036  0.416169  0.097235  1
  Cs  Cs6  1  0.131756  0.921775  0.098231  1
  Cs  Cs7  1  0.631756  0.578225  0.901769  1
  Zr  Zr8  1  0.250216  0.344748  0.703651  1
  Zr  Zr9  1  0.750216  0.155252  0.296349  1
  Pa  Pa10  1  0.749770  0.654368  0.297831  1
  Pa  Pa11  1  0.249770  0.845632  0.702169  1
  Te  Te12  1  0.907005  0.919191  0.280283  1
  Te  Te13  1  0.407005  0.580809  0.719717  1
  Te  Te14  1  0.092756  0.097915  0.720068  1
  Te  Te15  1  0.592756  0.402085  0.279932  1
  Te  Te16  1  0.815432  0.298163  0.518033  1
  Te  Te17  1  0.315432  0.201837  0.481967  1
  Te  Te18  1  0.184837  0.684702  0.481825  1
  Te  Te19  1  0.684837  0.815298  0.518175  1
  Te  Te20  1  0.841855  0.488181  0.094334  1
  Te  Te21  1  0.341855  0.011819  0.905666  1
  Te  Te22  1  0.158110  0.498322  0.905171  1
  Te  Te23  1  0.658110  0.001678  0.094829  1
