# generated using pymatgen
data_AcZnPIr3
_symmetry_space_group_name_H-M   'P 1'
_cell_length_a   6.87332447
_cell_length_b   6.86920922
_cell_length_c   6.87332400
_cell_angle_alpha   130.80961063
_cell_angle_beta   112.71614409
_cell_angle_gamma   87.74506675
_symmetry_Int_Tables_number   1
_chemical_formula_structural   AcZnPIr3
_chemical_formula_sum   'Ac2 Zn2 P2 Ir6'
_cell_volume   215.76583004
_cell_formula_units_Z   2
loop_
 _symmetry_equiv_pos_site_id
 _symmetry_equiv_pos_as_xyz
  1  'x, y, z'
loop_
 _atom_site_type_symbol
 _atom_site_label
 _atom_site_symmetry_multiplicity
 _atom_site_fract_x
 _atom_site_fract_y
 _atom_site_fract_z
 _atom_site_occupancy
  Ac  Ac0  1  0.241864  0.986467  0.744604  1
  Ac  Ac1  1  0.758136  0.013533  0.255396  1
  Zn  Zn2  1  0.067974  0.309246  0.241272  1
  Zn  Zn3  1  0.932026  0.690754  0.758728  1
  P  P4  1  0.397852  0.643785  0.245933  1
  P  P5  1  0.602148  0.356215  0.754067  1
  Ir  Ir6  1  0.500000  0.500000  0.500000  1
  Ir  Ir7  1  0.000000  0.500000  0.000000  1
  Ir  Ir8  1  0.291494  0.000000  0.291494  1
  Ir  Ir9  1  0.708506  0.000000  0.708506  1
  Ir  Ir10  1  0.286597  0.500000  0.786597  1
  Ir  Ir11  1  0.713403  0.500000  0.213403  1
