# generated using pymatgen
data_La4DyY5Si8
_symmetry_space_group_name_H-M   'P 1'
_cell_length_a   7.91006400
_cell_length_b   7.91214905
_cell_length_c   14.55807800
_cell_angle_alpha   90.09999060
_cell_angle_beta   90.00000000
_cell_angle_gamma   90.00000000
_symmetry_Int_Tables_number   1
_chemical_formula_structural   La4DyY5Si8
_chemical_formula_sum   'La8 Dy2 Y10 Si16'
_cell_volume   911.12473693
_cell_formula_units_Z   2
loop_
 _symmetry_equiv_pos_site_id
 _symmetry_equiv_pos_as_xyz
  1  'x, y, z'
loop_
 _atom_site_type_symbol
 _atom_site_label
 _atom_site_symmetry_multiplicity
 _atom_site_fract_x
 _atom_site_fract_y
 _atom_site_fract_z
 _atom_site_occupancy
  La  La0  1  0.642317  0.993079  0.458691  1
  La  La1  1  0.357866  0.007118  0.958726  1
  La  La2  1  0.993148  0.642103  0.541379  1
  La  La3  1  0.493148  0.857897  0.208621  1
  La  La4  1  0.507005  0.142272  0.708684  1
  La  La5  1  0.857866  0.492882  0.791274  1
  La  La6  1  0.142317  0.506921  0.291309  1
  La  La7  1  0.007005  0.357728  0.041316  1
  Dy  Dy8  1  0.492662  0.359878  0.124357  1
  Dy  Dy9  1  0.992662  0.140122  0.625643  1
  Y  Y10  1  0.859686  0.007248  0.874415  1
  Y  Y11  1  0.140291  0.992772  0.374360  1
  Y  Y12  1  0.507359  0.640427  0.624400  1
  Y  Y13  1  0.359686  0.492752  0.875585  1
  Y  Y14  1  0.640291  0.507228  0.375640  1
  Y  Y15  1  0.007359  0.859573  0.125600  1
  Y  Y16  1  0.317832  0.318050  0.500173  1
  Y  Y17  1  0.181863  0.818190  0.749982  1
  Y  Y18  1  0.817832  0.181950  0.249827  1
  Y  Y19  1  0.681863  0.681810  0.000018  1
  Si  Si20  1  0.289104  0.936143  0.561577  1
  Si  Si21  1  0.710361  0.064340  0.061627  1
  Si  Si22  1  0.936020  0.289394  0.438490  1
  Si  Si23  1  0.436020  0.210606  0.311510  1
  Si  Si24  1  0.564137  0.789630  0.811582  1
  Si  Si25  1  0.210361  0.435660  0.688373  1
  Si  Si26  1  0.789104  0.563857  0.188423  1
  Si  Si27  1  0.064137  0.710370  0.938418  1
  Si  Si28  1  0.795593  0.848217  0.690093  1
  Si  Si29  1  0.204885  0.152196  0.190031  1
  Si  Si30  1  0.847868  0.795297  0.309835  1
  Si  Si31  1  0.347868  0.704703  0.440165  1
  Si  Si32  1  0.652004  0.295609  0.940162  1
  Si  Si33  1  0.704885  0.347804  0.559969  1
  Si  Si34  1  0.295593  0.651783  0.059907  1
  Si  Si35  1  0.152004  0.204391  0.809838  1
