# generated using pymatgen
data_Er3GaNi7Ir
_symmetry_space_group_name_H-M   'P 1'
_cell_length_a   8.69490398
_cell_length_b   8.69490431
_cell_length_c   8.69490457
_cell_angle_alpha   33.36573609
_cell_angle_beta   33.36573181
_cell_angle_gamma   33.36573153
_symmetry_Int_Tables_number   1
_chemical_formula_structural   Er3GaNi7Ir
_chemical_formula_sum   'Er3 Ga1 Ni7 Ir1'
_cell_volume   177.05035422
_cell_formula_units_Z   1
loop_
 _symmetry_equiv_pos_site_id
 _symmetry_equiv_pos_as_xyz
  1  'x, y, z'
loop_
 _atom_site_type_symbol
 _atom_site_label
 _atom_site_symmetry_multiplicity
 _atom_site_fract_x
 _atom_site_fract_y
 _atom_site_fract_z
 _atom_site_occupancy
  Er  Er0  1  0.000187  0.000187  0.000187  1
  Er  Er1  1  0.861432  0.861432  0.861432  1
  Er  Er2  1  0.139695  0.139695  0.139695  1
  Ga  Ga3  1  0.665624  0.665624  0.665624  1
  Ni  Ni4  1  0.333946  0.333946  0.333946  1
  Ni  Ni5  1  0.416146  0.924622  0.416146  1
  Ni  Ni6  1  0.416146  0.416146  0.924622  1
  Ni  Ni7  1  0.924622  0.416146  0.416146  1
  Ni  Ni8  1  0.581532  0.079623  0.581532  1
  Ni  Ni9  1  0.581532  0.581532  0.079623  1
  Ni  Ni10  1  0.079623  0.581532  0.581532  1
  Ir  Ir11  1  0.499515  0.499515  0.499515  1
