# generated using pymatgen
data_PaI3Br8
_symmetry_space_group_name_H-M   'P 1'
_cell_length_a   8.00248914
_cell_length_b   8.47092243
_cell_length_c   8.74496313
_cell_angle_alpha   96.55042750
_cell_angle_beta   90.11243011
_cell_angle_gamma   105.41342552
_symmetry_Int_Tables_number   1
_chemical_formula_structural   PaI3Br8
_chemical_formula_sum   'Pa1 I3 Br8'
_cell_volume   567.43283599
_cell_formula_units_Z   1
loop_
 _symmetry_equiv_pos_site_id
 _symmetry_equiv_pos_as_xyz
  1  'x, y, z'
loop_
 _atom_site_type_symbol
 _atom_site_label
 _atom_site_symmetry_multiplicity
 _atom_site_fract_x
 _atom_site_fract_y
 _atom_site_fract_z
 _atom_site_occupancy
  Pa  Pa0  1  0.000000  0.500000  0.500000  1
  I  I1  1  0.000000  0.000000  0.000000  1
  I  I2  1  0.682073  0.768233  0.856340  1
  I  I3  1  0.317927  0.231767  0.143660  1
  Br  Br4  1  0.696408  0.291798  0.568374  1
  Br  Br5  1  0.303592  0.708202  0.431626  1
  Br  Br6  1  0.502096  0.752557  0.098408  1
  Br  Br7  1  0.497904  0.247443  0.901592  1
  Br  Br8  1  0.857251  0.769448  0.548293  1
  Br  Br9  1  0.142749  0.230552  0.451707  1
  Br  Br10  1  0.893759  0.457213  0.203812  1
  Br  Br11  1  0.106241  0.542787  0.796188  1
