# generated using pymatgen
data_HoFe3P3RuRh
_symmetry_space_group_name_H-M   'P 1'
_cell_length_a   3.75360300
_cell_length_b   10.33924400
_cell_length_c   12.09564700
_cell_angle_alpha   90.00000000
_cell_angle_beta   90.00000000
_cell_angle_gamma   90.00000000
_symmetry_Int_Tables_number   1
_chemical_formula_structural   HoFe3P3RuRh
_chemical_formula_sum   'Ho4 Fe12 P12 Ru4 Rh4'
_cell_volume   469.42501189
_cell_formula_units_Z   4
loop_
 _symmetry_equiv_pos_site_id
 _symmetry_equiv_pos_as_xyz
  1  'x, y, z'
loop_
 _atom_site_type_symbol
 _atom_site_label
 _atom_site_symmetry_multiplicity
 _atom_site_fract_x
 _atom_site_fract_y
 _atom_site_fract_z
 _atom_site_occupancy
  Ho  Ho0  1  0.250000  0.581795  0.710657  1
  Ho  Ho1  1  0.250000  0.918205  0.210657  1
  Ho  Ho2  1  0.750000  0.418205  0.289343  1
  Ho  Ho3  1  0.750000  0.081795  0.789343  1
  Fe  Fe4  1  0.250000  0.223545  0.173454  1
  Fe  Fe5  1  0.250000  0.276455  0.673454  1
  Fe  Fe6  1  0.750000  0.776455  0.826546  1
  Fe  Fe7  1  0.750000  0.723545  0.326546  1
  Fe  Fe8  1  0.250000  0.880706  0.697118  1
  Fe  Fe9  1  0.250000  0.619294  0.197118  1
  Fe  Fe10  1  0.750000  0.119294  0.302882  1
  Fe  Fe11  1  0.750000  0.380706  0.802882  1
  Fe  Fe12  1  0.250000  0.461757  0.935709  1
  Fe  Fe13  1  0.250000  0.038243  0.435709  1
  Fe  Fe14  1  0.750000  0.538243  0.064291  1
  Fe  Fe15  1  0.750000  0.961757  0.564291  1
  P  P16  1  0.250000  0.424935  0.112449  1
  P  P17  1  0.250000  0.075065  0.612449  1
  P  P18  1  0.750000  0.575065  0.887551  1
  P  P19  1  0.750000  0.924935  0.387551  1
  P  P20  1  0.250000  0.274616  0.856370  1
  P  P21  1  0.250000  0.225384  0.356370  1
  P  P22  1  0.750000  0.725384  0.143630  1
  P  P23  1  0.750000  0.774616  0.643630  1
  P  P24  1  0.250000  0.607411  0.379394  1
  P  P25  1  0.250000  0.892589  0.879394  1
  P  P26  1  0.750000  0.392589  0.620606  1
  P  P27  1  0.750000  0.107411  0.120606  1
  Ru  Ru28  1  0.250000  0.705020  0.985553  1
  Ru  Ru29  1  0.250000  0.794980  0.485553  1
  Ru  Ru30  1  0.750000  0.294980  0.014447  1
  Ru  Ru31  1  0.750000  0.205020  0.514447  1
  Rh  Rh32  1  0.250000  0.404382  0.480082  1
  Rh  Rh33  1  0.250000  0.095618  0.980082  1
  Rh  Rh34  1  0.750000  0.595618  0.519918  1
  Rh  Rh35  1  0.750000  0.904382  0.019918  1
