# generated using pymatgen
data_Sr5Np2PaO12
_symmetry_space_group_name_H-M   'P 1'
_cell_length_a   6.06262563
_cell_length_b   6.23360890
_cell_length_c   8.66590542
_cell_angle_alpha   89.42199024
_cell_angle_beta   89.61024201
_cell_angle_gamma   89.99013760
_symmetry_Int_Tables_number   1
_chemical_formula_structural   Sr5Np2PaO12
_chemical_formula_sum   'Sr5 Np2 Pa1 O12'
_cell_volume   327.47797536
_cell_formula_units_Z   1
loop_
 _symmetry_equiv_pos_site_id
 _symmetry_equiv_pos_as_xyz
  1  'x, y, z'
loop_
 _atom_site_type_symbol
 _atom_site_label
 _atom_site_symmetry_multiplicity
 _atom_site_fract_x
 _atom_site_fract_y
 _atom_site_fract_z
 _atom_site_occupancy
  Sr  Sr0  1  0.000000  0.000000  0.000000  1
  Sr  Sr1  1  0.982160  0.452289  0.247653  1
  Sr  Sr2  1  0.514723  0.955598  0.252486  1
  Sr  Sr3  1  0.485277  0.044402  0.747514  1
  Sr  Sr4  1  0.017840  0.547711  0.752347  1
  Np  Np5  1  0.500000  0.500000  0.500000  1
  Np  Np6  1  0.000000  0.000000  0.500000  1
  Pa  Pa7  1  0.500000  0.500000  0.000000  1
  O  O8  1  0.891752  0.954512  0.720481  1
  O  O9  1  0.782236  0.711272  0.436162  1
  O  O10  1  0.790629  0.674593  0.053622  1
  O  O11  1  0.708602  0.214258  0.443589  1
  O  O12  1  0.671503  0.211879  0.062836  1
  O  O13  1  0.611426  0.455254  0.743788  1
  O  O14  1  0.388574  0.544746  0.256212  1
  O  O15  1  0.328497  0.788121  0.937164  1
  O  O16  1  0.291398  0.785742  0.556411  1
  O  O17  1  0.209371  0.325407  0.946378  1
  O  O18  1  0.217764  0.288728  0.563838  1
  O  O19  1  0.108248  0.045488  0.279519  1
