# generated using pymatgen
data_DyHo11AlZnNi4
_symmetry_space_group_name_H-M   'P 1'
_cell_length_a   8.28815747
_cell_length_b   8.28988839
_cell_length_c   8.28988940
_cell_angle_alpha   105.81169154
_cell_angle_beta   109.58773962
_cell_angle_gamma   113.10549674
_symmetry_Int_Tables_number   1
_chemical_formula_structural   DyHo11AlZnNi4
_chemical_formula_sum   'Dy1 Ho11 Al1 Zn1 Ni4'
_cell_volume   436.63936863
_cell_formula_units_Z   1
loop_
 _symmetry_equiv_pos_site_id
 _symmetry_equiv_pos_as_xyz
  1  'x, y, z'
loop_
 _atom_site_type_symbol
 _atom_site_label
 _atom_site_symmetry_multiplicity
 _atom_site_fract_x
 _atom_site_fract_y
 _atom_site_fract_z
 _atom_site_occupancy
  Dy  Dy0  1  0.604841  0.784557  0.820284  1
  Ho  Ho1  1  0.307640  0.262968  0.570837  1
  Ho  Ho2  1  0.692144  0.736748  0.428573  1
  Ho  Ho3  1  0.307640  0.736800  0.044671  1
  Ho  Ho4  1  0.692144  0.263573  0.955397  1
  Ho  Ho5  1  0.190379  0.516398  0.325496  1
  Ho  Ho6  1  0.190379  0.864883  0.673982  1
  Ho  Ho7  1  0.809411  0.483420  0.674012  1
  Ho  Ho8  1  0.809411  0.135397  0.325989  1
  Ho  Ho9  1  0.395286  0.215427  0.179860  1
  Ho  Ho10  1  0.035781  0.215561  0.820221  1
  Ho  Ho11  1  0.964548  0.784491  0.180056  1
  Al  Al12  1  0.499908  0.999975  0.499934  1
  Zn  Zn13  1  0.499681  0.499535  0.000146  1
  Ni  Ni14  1  0.159538  0.499672  0.659866  1
  Ni  Ni15  1  0.839883  0.499987  0.339896  1
  Ni  Ni16  1  0.000692  0.121907  0.121994  1
  Ni  Ni17  1  0.000692  0.878699  0.878785  1
