# generated using pymatgen
data_CsHf2Cl9
_symmetry_space_group_name_H-M   'P 1'
_cell_length_a   6.77608200
_cell_length_b   9.97390468
_cell_length_c   13.10237573
_cell_angle_alpha   66.11230292
_cell_angle_beta   90.00000000
_cell_angle_gamma   90.00000000
_symmetry_Int_Tables_number   1
_chemical_formula_structural   CsHf2Cl9
_chemical_formula_sum   'Cs2 Hf4 Cl18'
_cell_volume   809.65886675
_cell_formula_units_Z   2
loop_
 _symmetry_equiv_pos_site_id
 _symmetry_equiv_pos_as_xyz
  1  'x, y, z'
loop_
 _atom_site_type_symbol
 _atom_site_label
 _atom_site_symmetry_multiplicity
 _atom_site_fract_x
 _atom_site_fract_y
 _atom_site_fract_z
 _atom_site_occupancy
  Cs  Cs0  1  0.595588  0.500000  0.750000  1
  Cs  Cs1  1  0.404412  0.500000  0.250000  1
  Hf  Hf2  1  0.253382  0.826954  0.867077  1
  Hf  Hf3  1  0.746618  0.173046  0.132923  1
  Hf  Hf4  1  0.253382  0.173046  0.632923  1
  Hf  Hf5  1  0.746618  0.826954  0.367077  1
  Cl  Cl6  1  0.106223  0.795450  0.037575  1
  Cl  Cl7  1  0.893777  0.204550  0.962425  1
  Cl  Cl8  1  0.106223  0.204550  0.462425  1
  Cl  Cl9  1  0.893777  0.795450  0.537575  1
  Cl  Cl10  1  0.112721  0.623871  0.843117  1
  Cl  Cl11  1  0.887279  0.376129  0.156883  1
  Cl  Cl12  1  0.112721  0.376129  0.656883  1
  Cl  Cl13  1  0.887279  0.623871  0.343117  1
  Cl  Cl14  1  0.977643  0.000000  0.750000  1
  Cl  Cl15  1  0.022357  0.000000  0.250000  1
  Cl  Cl16  1  0.396025  0.080470  0.835876  1
  Cl  Cl17  1  0.603975  0.919530  0.164124  1
  Cl  Cl18  1  0.396025  0.919530  0.664124  1
  Cl  Cl19  1  0.603975  0.080470  0.335876  1
  Cl  Cl20  1  0.559594  0.712374  0.939263  1
  Cl  Cl21  1  0.440406  0.287626  0.060737  1
  Cl  Cl22  1  0.559594  0.287626  0.560737  1
  Cl  Cl23  1  0.440406  0.712374  0.439263  1
