# generated using pymatgen
data_LuTe28
_symmetry_space_group_name_H-M   'P 1'
_cell_length_a   11.94840564
_cell_length_b   10.77129257
_cell_length_c   12.42422500
_cell_angle_alpha   114.70317048
_cell_angle_beta   123.63460921
_cell_angle_gamma   88.59305117
_symmetry_Int_Tables_number   1
_chemical_formula_structural   LuTe28
_chemical_formula_sum   'Lu1 Te28'
_cell_volume   1163.32830564
_cell_formula_units_Z   1
loop_
 _symmetry_equiv_pos_site_id
 _symmetry_equiv_pos_as_xyz
  1  'x, y, z'
loop_
 _atom_site_type_symbol
 _atom_site_label
 _atom_site_symmetry_multiplicity
 _atom_site_fract_x
 _atom_site_fract_y
 _atom_site_fract_z
 _atom_site_occupancy
  Lu  Lu0  1  0.500000  0.000000  0.000000  1
  Te  Te1  1  0.238716  0.104868  0.428451  1
  Te  Te2  1  0.604778  0.155866  0.433482  1
  Te  Te3  1  0.275938  0.266052  0.889159  1
  Te  Te4  1  0.911821  0.303743  0.887838  1
  Te  Te5  1  0.209371  0.555673  0.725758  1
  Te  Te6  1  0.802184  0.528254  0.633677  1
  Te  Te7  1  0.395222  0.844134  0.566518  1
  Te  Te8  1  0.761284  0.895132  0.571549  1
  Te  Te9  1  0.088179  0.696257  0.112162  1
  Te  Te10  1  0.724062  0.733948  0.110841  1
  Te  Te11  1  0.197816  0.471746  0.366323  1
  Te  Te12  1  0.790629  0.444327  0.274242  1
  Te  Te13  1  0.762490  0.073216  0.845215  1
  Te  Te14  1  0.228286  0.975932  0.724496  1
  Te  Te15  1  0.811151  0.682164  0.899545  1
  Te  Te16  1  0.378312  0.772072  0.030592  1
  Te  Te17  1  0.513156  0.263009  0.232803  1
  Te  Te18  1  0.042513  0.274961  0.360073  1
  Te  Te19  1  0.771714  0.024068  0.275504  1
  Te  Te20  1  0.237510  0.926784  0.154785  1
  Te  Te21  1  0.621688  0.227928  0.969408  1
  Te  Te22  1  0.188849  0.317836  0.100455  1
  Te  Te23  1  0.957487  0.725039  0.639927  1
  Te  Te24  1  0.486844  0.736991  0.767197  1
  Te  Te25  1  0.043754  0.380564  0.736302  1
  Te  Te26  1  0.498740  0.295260  0.589861  1
  Te  Te27  1  0.501260  0.704740  0.410139  1
  Te  Te28  1  0.956246  0.619436  0.263698  1
