# generated using pymatgen
data_Dy3Er3Th2(MgRu)2
_symmetry_space_group_name_H-M   'P 1'
_cell_length_a   9.73025747
_cell_length_b   9.73025671
_cell_length_c   9.73025600
_cell_angle_alpha   59.99999562
_cell_angle_beta   59.99999819
_cell_angle_gamma   59.99999818
_symmetry_Int_Tables_number   1
_chemical_formula_structural   Dy3Er3Th2(MgRu)2
_chemical_formula_sum   'Dy6 Er6 Th4 Mg4 Ru4'
_cell_volume   651.41517721
_cell_formula_units_Z   2
loop_
 _symmetry_equiv_pos_site_id
 _symmetry_equiv_pos_as_xyz
  1  'x, y, z'
loop_
 _atom_site_type_symbol
 _atom_site_label
 _atom_site_symmetry_multiplicity
 _atom_site_fract_x
 _atom_site_fract_y
 _atom_site_fract_z
 _atom_site_occupancy
  Dy  Dy0  1  0.935584  0.564416  0.564416  1
  Dy  Dy1  1  0.564416  0.935584  0.935584  1
  Dy  Dy2  1  0.564416  0.935584  0.564416  1
  Dy  Dy3  1  0.935584  0.564416  0.935584  1
  Dy  Dy4  1  0.564416  0.564416  0.935584  1
  Dy  Dy5  1  0.935584  0.935584  0.564416  1
  Er  Er6  1  0.813855  0.186145  0.186145  1
  Er  Er7  1  0.186145  0.813855  0.813855  1
  Er  Er8  1  0.186145  0.813855  0.186145  1
  Er  Er9  1  0.813855  0.186145  0.813855  1
  Er  Er10  1  0.186145  0.186145  0.813855  1
  Er  Er11  1  0.813855  0.813855  0.186145  1
  Th  Th12  1  0.346221  0.346221  0.346221  1
  Th  Th13  1  0.346221  0.346221  0.961336  1
  Th  Th14  1  0.346221  0.961336  0.346221  1
  Th  Th15  1  0.961336  0.346221  0.346221  1
  Mg  Mg16  1  0.579856  0.579856  0.579856  1
  Mg  Mg17  1  0.579856  0.579856  0.260432  1
  Mg  Mg18  1  0.579856  0.260432  0.579856  1
  Mg  Mg19  1  0.260432  0.579856  0.579856  1
  Ru  Ru20  1  0.143302  0.143302  0.143302  1
  Ru  Ru21  1  0.143302  0.143302  0.570094  1
  Ru  Ru22  1  0.143302  0.570094  0.143302  1
  Ru  Ru23  1  0.570094  0.143302  0.143302  1
