# generated using pymatgen
data_Tb3Y13Cd2(HgIr2)2
_symmetry_space_group_name_H-M   'P 1'
_cell_length_a   9.65706492
_cell_length_b   9.66580041
_cell_length_c   9.66758900
_cell_angle_alpha   59.99387521
_cell_angle_beta   59.96394038
_cell_angle_gamma   59.98728667
_symmetry_Int_Tables_number   1
_chemical_formula_structural   Tb3Y13Cd2(HgIr2)2
_chemical_formula_sum   'Tb3 Y13 Cd2 Hg2 Ir4'
_cell_volume   637.83132911
_cell_formula_units_Z   1
loop_
 _symmetry_equiv_pos_site_id
 _symmetry_equiv_pos_as_xyz
  1  'x, y, z'
loop_
 _atom_site_type_symbol
 _atom_site_label
 _atom_site_symmetry_multiplicity
 _atom_site_fract_x
 _atom_site_fract_y
 _atom_site_fract_z
 _atom_site_occupancy
  Tb  Tb0  1  0.349610  0.349682  0.348093  1
  Tb  Tb1  1  0.349610  0.349682  0.952616  1
  Tb  Tb2  1  0.351464  0.949155  0.349690  1
  Y  Y3  1  0.947881  0.351873  0.350123  1
  Y  Y4  1  0.809308  0.188814  0.191395  1
  Y  Y5  1  0.188659  0.809296  0.810602  1
  Y  Y6  1  0.188659  0.809296  0.191443  1
  Y  Y7  1  0.809308  0.188814  0.810483  1
  Y  Y8  1  0.189254  0.189476  0.810635  1
  Y  Y9  1  0.809016  0.808954  0.191015  1
  Y  Y10  1  0.938036  0.561299  0.562319  1
  Y  Y11  1  0.561187  0.937839  0.938717  1
  Y  Y12  1  0.561187  0.937839  0.562258  1
  Y  Y13  1  0.938036  0.561299  0.938346  1
  Y  Y14  1  0.561408  0.561441  0.938576  1
  Y  Y15  1  0.938266  0.937751  0.561991  1
  Cd  Cd16  1  0.580213  0.258267  0.580761  1
  Cd  Cd17  1  0.258379  0.580018  0.580802  1
  Hg  Hg18  1  0.583938  0.583770  0.585899  1
  Hg  Hg19  1  0.583938  0.583770  0.246394  1
  Ir  Ir20  1  0.142581  0.142082  0.141024  1
  Ir  Ir21  1  0.142581  0.142082  0.574313  1
  Ir  Ir22  1  0.142856  0.574940  0.141101  1
  Ir  Ir23  1  0.574625  0.142563  0.141406  1
