# generated using pymatgen
data_LiLaZn12
_symmetry_space_group_name_H-M   'P 1'
_cell_length_a   8.58630143
_cell_length_b   8.58630185
_cell_length_c   8.58630100
_cell_angle_alpha   59.99999942
_cell_angle_beta   59.99999781
_cell_angle_gamma   59.99999792
_symmetry_Int_Tables_number   1
_chemical_formula_structural   LiLaZn12
_chemical_formula_sum   'Li2 La2 Zn24'
_cell_volume   447.61370773
_cell_formula_units_Z   2
loop_
 _symmetry_equiv_pos_site_id
 _symmetry_equiv_pos_as_xyz
  1  'x, y, z'
loop_
 _atom_site_type_symbol
 _atom_site_label
 _atom_site_symmetry_multiplicity
 _atom_site_fract_x
 _atom_site_fract_y
 _atom_site_fract_z
 _atom_site_occupancy
  Li  Li0  1  0.500000  0.500000  0.500000  1
  Li  Li1  1  0.000000  0.000000  0.000000  1
  La  La2  1  0.250000  0.250000  0.250000  1
  La  La3  1  0.750000  0.750000  0.750000  1
  Zn  Zn4  1  0.798969  0.558154  0.201031  1
  Zn  Zn5  1  0.201031  0.441846  0.798969  1
  Zn  Zn6  1  0.558154  0.798969  0.441846  1
  Zn  Zn7  1  0.441846  0.201031  0.558154  1
  Zn  Zn8  1  0.298969  0.941846  0.701031  1
  Zn  Zn9  1  0.701031  0.058154  0.298969  1
  Zn  Zn10  1  0.941846  0.298969  0.058154  1
  Zn  Zn11  1  0.058154  0.701031  0.941846  1
  Zn  Zn12  1  0.201031  0.798969  0.558154  1
  Zn  Zn13  1  0.798969  0.201031  0.441846  1
  Zn  Zn14  1  0.441846  0.558154  0.798969  1
  Zn  Zn15  1  0.558154  0.441846  0.201031  1
  Zn  Zn16  1  0.701031  0.298969  0.941846  1
  Zn  Zn17  1  0.298969  0.701031  0.058154  1
  Zn  Zn18  1  0.058154  0.941846  0.298969  1
  Zn  Zn19  1  0.941846  0.058154  0.701031  1
  Zn  Zn20  1  0.558154  0.201031  0.798969  1
  Zn  Zn21  1  0.441846  0.798969  0.201031  1
  Zn  Zn22  1  0.798969  0.441846  0.558154  1
  Zn  Zn23  1  0.201031  0.558154  0.441846  1
  Zn  Zn24  1  0.941846  0.701031  0.298969  1
  Zn  Zn25  1  0.058154  0.298969  0.701031  1
  Zn  Zn26  1  0.298969  0.058154  0.941846  1
  Zn  Zn27  1  0.701031  0.941846  0.058154  1
