# generated using pymatgen
data_Li3(ThCd7)2
_symmetry_space_group_name_H-M   'P 1'
_cell_length_a   7.50743216
_cell_length_b   7.50743244
_cell_length_c   7.50743212
_cell_angle_alpha   82.45485742
_cell_angle_beta   82.45486659
_cell_angle_gamma   82.45486716
_symmetry_Int_Tables_number   1
_chemical_formula_structural   Li3(ThCd7)2
_chemical_formula_sum   'Li3 Th2 Cd14'
_cell_volume   413.02453942
_cell_formula_units_Z   1
loop_
 _symmetry_equiv_pos_site_id
 _symmetry_equiv_pos_as_xyz
  1  'x, y, z'
loop_
 _atom_site_type_symbol
 _atom_site_label
 _atom_site_symmetry_multiplicity
 _atom_site_fract_x
 _atom_site_fract_y
 _atom_site_fract_z
 _atom_site_occupancy
  Li  Li0  1  0.000000  0.499999  0.000000  1
  Li  Li1  1  0.000000  0.000000  0.500000  1
  Li  Li2  1  0.499999  0.000000  0.000000  1
  Th  Th3  1  0.658811  0.658811  0.658811  1
  Th  Th4  1  0.341188  0.341188  0.341188  1
  Cd  Cd5  1  0.351055  0.853470  0.351057  1
  Cd  Cd6  1  0.296642  0.703357  0.000001  1
  Cd  Cd7  1  0.351056  0.351056  0.853471  1
  Cd  Cd8  1  0.146530  0.648945  0.648943  1
  Cd  Cd9  1  0.853470  0.351055  0.351057  1
  Cd  Cd10  1  0.648944  0.648944  0.146529  1
  Cd  Cd11  1  0.648945  0.146530  0.648943  1
  Cd  Cd12  1  0.892105  0.892105  0.892105  1
  Cd  Cd13  1  0.107895  0.107895  0.107895  1
  Cd  Cd14  1  0.296641  0.000000  0.703359  1
  Cd  Cd15  1  0.000000  0.703358  0.296642  1
  Cd  Cd16  1  0.703358  0.000000  0.296642  1
  Cd  Cd17  1  0.703357  0.296642  0.000001  1
  Cd  Cd18  1  0.000000  0.296641  0.703359  1
