# generated using pymatgen
data_Sm2TcC2
_symmetry_space_group_name_H-M   'P 1'
_cell_length_a   5.24968500
_cell_length_b   6.65742100
_cell_length_c   10.07802300
_cell_angle_alpha   90.00000000
_cell_angle_beta   90.00000000
_cell_angle_gamma   90.00000000
_symmetry_Int_Tables_number   1
_chemical_formula_structural   Sm2TcC2
_chemical_formula_sum   'Sm8 Tc4 C8'
_cell_volume   352.22048579
_cell_formula_units_Z   4
loop_
 _symmetry_equiv_pos_site_id
 _symmetry_equiv_pos_as_xyz
  1  'x, y, z'
loop_
 _atom_site_type_symbol
 _atom_site_label
 _atom_site_symmetry_multiplicity
 _atom_site_fract_x
 _atom_site_fract_y
 _atom_site_fract_z
 _atom_site_occupancy
  Sm  Sm0  1  0.750000  0.472519  0.785271  1
  Sm  Sm1  1  0.250000  0.027481  0.285271  1
  Sm  Sm2  1  0.750000  0.972519  0.714729  1
  Sm  Sm3  1  0.250000  0.527481  0.214729  1
  Sm  Sm4  1  0.750000  0.816060  0.054412  1
  Sm  Sm5  1  0.250000  0.183940  0.945588  1
  Sm  Sm6  1  0.750000  0.316060  0.445588  1
  Sm  Sm7  1  0.250000  0.683940  0.554412  1
  Tc  Tc8  1  0.750000  0.774051  0.360987  1
  Tc  Tc9  1  0.250000  0.725949  0.860987  1
  Tc  Tc10  1  0.250000  0.225949  0.639013  1
  Tc  Tc11  1  0.750000  0.274051  0.139013  1
  C  C12  1  0.250000  0.961093  0.742176  1
  C  C13  1  0.750000  0.538907  0.242176  1
  C  C14  1  0.250000  0.461093  0.757824  1
  C  C15  1  0.750000  0.038907  0.257824  1
  C  C16  1  0.250000  0.316137  0.458620  1
  C  C17  1  0.750000  0.183863  0.958620  1
  C  C18  1  0.250000  0.816137  0.041380  1
  C  C19  1  0.750000  0.683863  0.541380  1
