# generated using pymatgen
data_Pr2Nd2Al17GaIr6
_symmetry_space_group_name_H-M   'P 1'
_cell_length_a   7.61322101
_cell_length_b   7.61322488
_cell_length_c   9.64783600
_cell_angle_alpha   90.00000000
_cell_angle_beta   90.00000000
_cell_angle_gamma   119.27160325
_symmetry_Int_Tables_number   1
_chemical_formula_structural   Pr2Nd2Al17GaIr6
_chemical_formula_sum   'Pr2 Nd2 Al17 Ga1 Ir6'
_cell_volume   487.79653542
_cell_formula_units_Z   1
loop_
 _symmetry_equiv_pos_site_id
 _symmetry_equiv_pos_as_xyz
  1  'x, y, z'
loop_
 _atom_site_type_symbol
 _atom_site_label
 _atom_site_symmetry_multiplicity
 _atom_site_fract_x
 _atom_site_fract_y
 _atom_site_fract_z
 _atom_site_occupancy
  Pr  Pr0  1  0.993532  0.674214  0.250000  1
  Pr  Pr1  1  0.674214  0.993532  0.250000  1
  Nd  Nd2  1  0.004838  0.328472  0.750000  1
  Nd  Nd3  1  0.328472  0.004838  0.750000  1
  Al  Al4  1  0.867938  0.867938  0.750000  1
  Al  Al5  1  0.003048  0.336083  0.070836  1
  Al  Al6  1  0.997184  0.664156  0.927710  1
  Al  Al7  1  0.997184  0.664156  0.572290  1
  Al  Al8  1  0.336083  0.003049  0.429164  1
  Al  Al9  1  0.003048  0.336083  0.429164  1
  Al  Al10  1  0.664156  0.997184  0.572289  1
  Al  Al11  1  0.664156  0.997184  0.927711  1
  Al  Al12  1  0.336083  0.003049  0.070836  1
  Al  Al13  1  0.333885  0.333885  0.548376  1
  Al  Al14  1  0.664763  0.664763  0.455426  1
  Al  Al15  1  0.664763  0.664763  0.044574  1
  Al  Al16  1  0.333885  0.333885  0.951624  1
  Al  Al17  1  0.338183  0.546831  0.250000  1
  Al  Al18  1  0.660523  0.453296  0.750000  1
  Al  Al19  1  0.546831  0.338183  0.250000  1
  Al  Al20  1  0.453295  0.660523  0.750000  1
  Ga  Ga21  1  0.137449  0.137449  0.250000  1
  Ir  Ir22  1  0.670220  0.328599  0.000034  1
  Ir  Ir23  1  0.328599  0.670219  0.000034  1
  Ir  Ir24  1  0.328599  0.670219  0.499966  1
  Ir  Ir25  1  0.670220  0.328599  0.499966  1
  Ir  Ir26  1  0.999426  0.999426  0.997062  1
  Ir  Ir27  1  0.999426  0.999426  0.502938  1
