# generated using pymatgen
data_SrNd6Y13Sn16
_symmetry_space_group_name_H-M   'P 1'
_cell_length_a   8.12873155
_cell_length_b   8.28278598
_cell_length_c   15.63014800
_cell_angle_alpha   90.06243002
_cell_angle_beta   90.24703133
_cell_angle_gamma   89.81074052
_symmetry_Int_Tables_number   1
_chemical_formula_structural   SrNd6Y13Sn16
_chemical_formula_sum   'Sr1 Nd6 Y13 Sn16'
_cell_volume   1052.33897207
_cell_formula_units_Z   1
loop_
 _symmetry_equiv_pos_site_id
 _symmetry_equiv_pos_as_xyz
  1  'x, y, z'
loop_
 _atom_site_type_symbol
 _atom_site_label
 _atom_site_symmetry_multiplicity
 _atom_site_fract_x
 _atom_site_fract_y
 _atom_site_fract_z
 _atom_site_occupancy
  Sr  Sr0  1  0.010512  0.178691  0.908129  1
  Nd  Nd1  1  0.007849  0.180421  0.594431  1
  Nd  Nd2  1  0.489405  0.677550  0.403238  1
  Nd  Nd3  1  0.990094  0.817213  0.096504  1
  Nd  Nd4  1  0.484388  0.676217  0.099162  1
  Nd  Nd5  1  0.989741  0.821708  0.403129  1
  Nd  Nd6  1  0.508658  0.322653  0.592697  1
  Y  Y7  1  0.353510  0.837959  0.873185  1
  Y  Y8  1  0.853209  0.663418  0.621303  1
  Y  Y9  1  0.645509  0.164205  0.375312  1
  Y  Y10  1  0.144704  0.338103  0.121400  1
  Y  Y11  1  0.645727  0.168578  0.126679  1
  Y  Y12  1  0.144500  0.333759  0.377110  1
  Y  Y13  1  0.356800  0.835277  0.624077  1
  Y  Y14  1  0.857538  0.660333  0.878146  1
  Y  Y15  1  0.514512  0.324295  0.902850  1
  Y  Y16  1  0.190182  0.499760  0.750217  1
  Y  Y17  1  0.690670  0.999282  0.750027  1
  Y  Y18  1  0.809834  0.499849  0.249972  1
  Y  Y19  1  0.311624  0.001022  0.251961  1
  Sn  Sn20  1  0.319728  0.035463  0.044598  1
  Sn  Sn21  1  0.807236  0.459042  0.457240  1
  Sn  Sn22  1  0.691531  0.960335  0.540740  1
  Sn  Sn23  1  0.204169  0.544052  0.957963  1
  Sn  Sn24  1  0.678816  0.956838  0.961699  1
  Sn  Sn25  1  0.191965  0.541864  0.540983  1
  Sn  Sn26  1  0.308363  0.038832  0.459107  1
  Sn  Sn27  1  0.797638  0.463819  0.043715  1
  Sn  Sn28  1  0.555098  0.620728  0.749477  1
  Sn  Sn29  1  0.052268  0.874723  0.747591  1
  Sn  Sn30  1  0.443019  0.378480  0.251500  1
  Sn  Sn31  1  0.948537  0.122215  0.248082  1
  Sn  Sn32  1  0.326387  0.146406  0.748323  1
  Sn  Sn33  1  0.814550  0.357948  0.748255  1
  Sn  Sn34  1  0.681873  0.856456  0.250755  1
  Sn  Sn35  1  0.179855  0.642508  0.250442  1
