# generated using pymatgen
data_U4BeCo6P
_symmetry_space_group_name_H-M   'P 1'
_cell_length_a   5.10793105
_cell_length_b   5.10292738
_cell_length_c   7.48034300
_cell_angle_alpha   90.00000000
_cell_angle_beta   89.99176671
_cell_angle_gamma   119.96759645
_symmetry_Int_Tables_number   1
_chemical_formula_structural   U4BeCo6P
_chemical_formula_sum   'U4 Be1 Co6 P1'
_cell_volume   168.91112930
_cell_formula_units_Z   1
loop_
 _symmetry_equiv_pos_site_id
 _symmetry_equiv_pos_as_xyz
  1  'x, y, z'
loop_
 _atom_site_type_symbol
 _atom_site_label
 _atom_site_symmetry_multiplicity
 _atom_site_fract_x
 _atom_site_fract_y
 _atom_site_fract_z
 _atom_site_occupancy
  U  U0  1  0.333534  0.666767  0.414169  1
  U  U1  1  0.666466  0.333233  0.585831  1
  U  U2  1  0.666482  0.333241  0.948762  1
  U  U3  1  0.333518  0.666759  0.051238  1
  Be  Be4  1  0.000000  0.000000  0.000000  1
  Co  Co5  1  0.834934  0.165216  0.247976  1
  Co  Co6  1  0.834934  0.669719  0.247976  1
  Co  Co7  1  0.330314  0.165157  0.247998  1
  Co  Co8  1  0.165066  0.834784  0.752024  1
  Co  Co9  1  0.165066  0.330281  0.752024  1
  Co  Co10  1  0.669686  0.834843  0.752002  1
  P  P11  1  0.000000  0.000000  0.500000  1
