# generated using pymatgen
data_Er3Pa(TcB6)2
_symmetry_space_group_name_H-M   'P 1'
_cell_length_a   3.68735200
_cell_length_b   9.12513931
_cell_length_c   11.49363408
_cell_angle_alpha   90.31417645
_cell_angle_beta   90.00000000
_cell_angle_gamma   90.00000000
_symmetry_Int_Tables_number   1
_chemical_formula_structural   Er3Pa(TcB6)2
_chemical_formula_sum   'Er6 Pa2 Tc4 B24'
_cell_volume   386.72739593
_cell_formula_units_Z   2
loop_
 _symmetry_equiv_pos_site_id
 _symmetry_equiv_pos_as_xyz
  1  'x, y, z'
loop_
 _atom_site_type_symbol
 _atom_site_label
 _atom_site_symmetry_multiplicity
 _atom_site_fract_x
 _atom_site_fract_y
 _atom_site_fract_z
 _atom_site_occupancy
  Er  Er0  1  0.000000  0.823987  0.085466  1
  Er  Er1  1  0.000000  0.176013  0.914534  1
  Er  Er2  1  0.000000  0.944584  0.371821  1
  Er  Er3  1  0.000000  0.055416  0.628179  1
  Er  Er4  1  0.000000  0.443460  0.126844  1
  Er  Er5  1  0.000000  0.556540  0.873156  1
  Pa  Pa6  1  0.000000  0.321660  0.413059  1
  Pa  Pa7  1  0.000000  0.678340  0.586941  1
  Tc  Tc8  1  0.000000  0.635751  0.324189  1
  Tc  Tc9  1  0.000000  0.364249  0.675811  1
  Tc  Tc10  1  0.000000  0.140376  0.181528  1
  Tc  Tc11  1  0.000000  0.859624  0.818472  1
  B  B12  1  0.500000  0.553549  0.432893  1
  B  B13  1  0.500000  0.446451  0.567107  1
  B  B14  1  0.500000  0.053356  0.066992  1
  B  B15  1  0.500000  0.946644  0.933008  1
  B  B16  1  0.500000  0.748735  0.419430  1
  B  B17  1  0.500000  0.251265  0.580570  1
  B  B18  1  0.500000  0.248113  0.079831  1
  B  B19  1  0.500000  0.751887  0.920169  1
  B  B20  1  0.500000  0.791869  0.265109  1
  B  B21  1  0.500000  0.208131  0.734891  1
  B  B22  1  0.500000  0.292197  0.233729  1
  B  B23  1  0.500000  0.707803  0.766271  1
  B  B24  1  0.500000  0.631481  0.184917  1
  B  B25  1  0.500000  0.368519  0.815083  1
  B  B26  1  0.500000  0.131825  0.314216  1
  B  B27  1  0.500000  0.868175  0.685784  1
  B  B28  1  0.500000  0.981815  0.211935  1
  B  B29  1  0.500000  0.018185  0.788065  1
  B  B30  1  0.500000  0.482934  0.286460  1
  B  B31  1  0.500000  0.517066  0.713540  1
  B  B32  1  0.500000  0.604985  0.029325  1
  B  B33  1  0.500000  0.395015  0.970675  1
  B  B34  1  0.500000  0.108957  0.469847  1
  B  B35  1  0.500000  0.891043  0.530153  1
