# generated using pymatgen
data_Dy4Cu(NiSb4)2
_symmetry_space_group_name_H-M   'P 1'
_cell_length_a   10.35644286
_cell_length_b   10.35644288
_cell_length_c   10.35644205
_cell_angle_alpha   145.47702403
_cell_angle_beta   145.47702172
_cell_angle_gamma   49.62422001
_symmetry_Int_Tables_number   1
_chemical_formula_structural   Dy4Cu(NiSb4)2
_chemical_formula_sum   'Dy4 Cu1 Ni2 Sb8'
_cell_volume   355.10816348
_cell_formula_units_Z   1
loop_
 _symmetry_equiv_pos_site_id
 _symmetry_equiv_pos_as_xyz
  1  'x, y, z'
loop_
 _atom_site_type_symbol
 _atom_site_label
 _atom_site_symmetry_multiplicity
 _atom_site_fract_x
 _atom_site_fract_y
 _atom_site_fract_z
 _atom_site_occupancy
  Dy  Dy0  1  0.635807  0.635807  0.505577  1
  Dy  Dy1  1  0.130230  0.130230  0.494423  1
  Dy  Dy2  1  0.364193  0.869770  0.000000  1
  Dy  Dy3  1  0.869770  0.364193  0.000000  1
  Cu  Cu4  1  0.000000  0.000000  0.000000  1
  Ni  Ni5  1  0.000000  0.500000  0.500000  1
  Ni  Ni6  1  0.500000  0.000000  0.500000  1
  Sb  Sb7  1  0.329178  0.329178  0.519561  1
  Sb  Sb8  1  0.809617  0.809617  0.480439  1
  Sb  Sb9  1  0.670822  0.190383  0.000000  1
  Sb  Sb10  1  0.190383  0.670822  0.000000  1
  Sb  Sb11  1  0.250023  0.250023  0.000000  1
  Sb  Sb12  1  0.749977  0.749977  0.000000  1
  Sb  Sb13  1  0.750000  0.250000  0.500000  1
  Sb  Sb14  1  0.250000  0.750000  0.500000  1
