# generated using pymatgen
data_Tb8Ho4Co4SnRu
_symmetry_space_group_name_H-M   'P 1'
_cell_length_a   8.31388097
_cell_length_b   8.31388101
_cell_length_c   8.31388022
_cell_angle_alpha   111.25489617
_cell_angle_beta   110.44726011
_cell_angle_gamma   106.74647200
_symmetry_Int_Tables_number   1
_chemical_formula_structural   Tb8Ho4Co4SnRu
_chemical_formula_sum   'Tb8 Ho4 Co4 Sn1 Ru1'
_cell_volume   441.60494654
_cell_formula_units_Z   1
loop_
 _symmetry_equiv_pos_site_id
 _symmetry_equiv_pos_as_xyz
  1  'x, y, z'
loop_
 _atom_site_type_symbol
 _atom_site_label
 _atom_site_symmetry_multiplicity
 _atom_site_fract_x
 _atom_site_fract_y
 _atom_site_fract_z
 _atom_site_occupancy
  Tb  Tb0  1  0.406805  0.213834  0.192971  1
  Tb  Tb1  1  0.593195  0.786166  0.807029  1
  Tb  Tb2  1  0.020862  0.213834  0.807029  1
  Tb  Tb3  1  0.979138  0.786166  0.192971  1
  Tb  Tb4  1  0.184381  0.288595  0.472976  1
  Tb  Tb5  1  0.815619  0.711405  0.527024  1
  Tb  Tb6  1  0.184381  0.711405  0.895786  1
  Tb  Tb7  1  0.815619  0.288595  0.104214  1
  Ho  Ho8  1  0.314073  0.622268  0.308195  1
  Ho  Ho9  1  0.685927  0.377732  0.691805  1
  Ho  Ho10  1  0.314073  0.005878  0.691805  1
  Ho  Ho11  1  0.685927  0.994122  0.308195  1
  Co  Co12  1  0.379414  0.000000  0.379414  1
  Co  Co13  1  0.620586  0.000000  0.620586  1
  Co  Co14  1  0.111781  0.611781  0.500000  1
  Co  Co15  1  0.888219  0.388219  0.500000  1
  Sn  Sn16  1  0.500000  0.500000  0.000000  1
  Ru  Ru17  1  0.000000  0.000000  0.000000  1
