# generated using pymatgen
data_HoTm15MgCo4Ag3
_symmetry_space_group_name_H-M   'P 1'
_cell_length_a   9.31979384
_cell_length_b   9.32946751
_cell_length_c   9.32946802
_cell_angle_alpha   59.99547651
_cell_angle_beta   59.95926839
_cell_angle_gamma   59.95927333
_symmetry_Int_Tables_number   1
_chemical_formula_structural   HoTm15MgCo4Ag3
_chemical_formula_sum   'Ho1 Tm15 Mg1 Co4 Ag3'
_cell_volume   573.22164162
_cell_formula_units_Z   1
loop_
 _symmetry_equiv_pos_site_id
 _symmetry_equiv_pos_as_xyz
  1  'x, y, z'
loop_
 _atom_site_type_symbol
 _atom_site_label
 _atom_site_symmetry_multiplicity
 _atom_site_fract_x
 _atom_site_fract_y
 _atom_site_fract_z
 _atom_site_occupancy
  Ho  Ho0  1  0.346625  0.345624  0.345624  1
  Tm  Tm1  1  0.346546  0.345483  0.962373  1
  Tm  Tm2  1  0.346546  0.962373  0.345483  1
  Tm  Tm3  1  0.952327  0.349195  0.349195  1
  Tm  Tm4  1  0.809897  0.189072  0.189072  1
  Tm  Tm5  1  0.185861  0.813740  0.813740  1
  Tm  Tm6  1  0.185687  0.813970  0.186624  1
  Tm  Tm7  1  0.809692  0.189237  0.811966  1
  Tm  Tm8  1  0.185687  0.186624  0.813970  1
  Tm  Tm9  1  0.809692  0.811966  0.189237  1
  Tm  Tm10  1  0.934859  0.562853  0.562853  1
  Tm  Tm11  1  0.561984  0.937162  0.937162  1
  Tm  Tm12  1  0.562129  0.936938  0.563829  1
  Tm  Tm13  1  0.935064  0.562735  0.939497  1
  Tm  Tm14  1  0.562129  0.563829  0.936938  1
  Tm  Tm15  1  0.935064  0.939497  0.562735  1
  Mg  Mg16  1  0.287572  0.570886  0.570886  1
  Co  Co17  1  0.138670  0.142552  0.142552  1
  Co  Co18  1  0.138384  0.142244  0.576506  1
  Co  Co19  1  0.138384  0.576506  0.142244  1
  Co  Co20  1  0.576214  0.141090  0.141090  1
  Ag  Ag21  1  0.583608  0.582883  0.582883  1
  Ag  Ag22  1  0.583691  0.582984  0.250556  1
  Ag  Ag23  1  0.583691  0.250556  0.582984  1
