# generated using pymatgen
data_Sm4C4Br3
_symmetry_space_group_name_H-M   'P 1'
_cell_length_a   4.19040354
_cell_length_b   11.02286386
_cell_length_c   11.07078671
_cell_angle_alpha   103.14678482
_cell_angle_beta   89.98918901
_cell_angle_gamma   94.27328930
_symmetry_Int_Tables_number   1
_chemical_formula_structural   Sm4C4Br3
_chemical_formula_sum   'Sm8 C8 Br6'
_cell_volume   496.50156867
_cell_formula_units_Z   2
loop_
 _symmetry_equiv_pos_site_id
 _symmetry_equiv_pos_as_xyz
  1  'x, y, z'
loop_
 _atom_site_type_symbol
 _atom_site_label
 _atom_site_symmetry_multiplicity
 _atom_site_fract_x
 _atom_site_fract_y
 _atom_site_fract_z
 _atom_site_occupancy
  Sm  Sm0  1  0.618107  0.167956  0.017754  1
  Sm  Sm1  1  0.235983  0.360826  0.830343  1
  Sm  Sm2  1  0.381893  0.832044  0.982246  1
  Sm  Sm3  1  0.621222  0.172491  0.562931  1
  Sm  Sm4  1  0.973851  0.976262  0.243748  1
  Sm  Sm5  1  0.026149  0.023738  0.756252  1
  Sm  Sm6  1  0.764017  0.639174  0.169657  1
  Sm  Sm7  1  0.378778  0.827509  0.437069  1
  C  C8  1  0.507790  0.845873  0.213459  1
  C  C9  1  0.869237  0.961449  0.999069  1
  C  C10  1  0.242178  0.763463  0.192606  1
  C  C11  1  0.130763  0.038551  0.000931  1
  C  C12  1  0.129815  0.037599  0.518266  1
  C  C13  1  0.870185  0.962401  0.481734  1
  C  C14  1  0.757822  0.236537  0.807394  1
  C  C15  1  0.492210  0.154127  0.786541  1
  Br  Br16  1  0.199350  0.386928  0.580394  1
  Br  Br17  1  0.210697  0.404687  0.107388  1
  Br  Br18  1  0.789303  0.595313  0.892612  1
  Br  Br19  1  0.590091  0.205063  0.296075  1
  Br  Br20  1  0.409909  0.794937  0.703925  1
  Br  Br21  1  0.800650  0.613072  0.419606  1
