# generated using pymatgen
data_SrNi5GeP2
_symmetry_space_group_name_H-M   'P 1'
_cell_length_a   6.20836794
_cell_length_b   6.20836893
_cell_length_c   11.71205000
_cell_angle_alpha   90.00000000
_cell_angle_beta   90.00000000
_cell_angle_gamma   145.22507515
_symmetry_Int_Tables_number   1
_chemical_formula_structural   SrNi5GeP2
_chemical_formula_sum   'Sr2 Ni10 Ge2 P4'
_cell_volume   257.47346722
_cell_formula_units_Z   2
loop_
 _symmetry_equiv_pos_site_id
 _symmetry_equiv_pos_as_xyz
  1  'x, y, z'
loop_
 _atom_site_type_symbol
 _atom_site_label
 _atom_site_symmetry_multiplicity
 _atom_site_fract_x
 _atom_site_fract_y
 _atom_site_fract_z
 _atom_site_occupancy
  Sr  Sr0  1  0.159504  0.840496  0.250000  1
  Sr  Sr1  1  0.840496  0.159504  0.750000  1
  Ni  Ni2  1  0.453558  0.546442  0.359006  1
  Ni  Ni3  1  0.453558  0.546442  0.140994  1
  Ni  Ni4  1  0.801666  0.198334  0.058395  1
  Ni  Ni5  1  0.198334  0.801666  0.941605  1
  Ni  Ni6  1  0.198334  0.801666  0.558395  1
  Ni  Ni7  1  0.801666  0.198334  0.441605  1
  Ni  Ni8  1  0.000000  0.000000  0.500000  1
  Ni  Ni9  1  0.000000  0.000000  0.000000  1
  Ni  Ni10  1  0.546442  0.453558  0.859006  1
  Ni  Ni11  1  0.546442  0.453558  0.640994  1
  Ge  Ge12  1  0.885018  0.114982  0.250000  1
  Ge  Ge13  1  0.114982  0.885018  0.750000  1
  P  P14  1  0.381418  0.618582  0.964050  1
  P  P15  1  0.618582  0.381418  0.035950  1
  P  P16  1  0.618582  0.381418  0.464050  1
  P  P17  1  0.381418  0.618582  0.535950  1
