# generated using pymatgen
data_PrRhI
_symmetry_space_group_name_H-M   'P 1'
_cell_length_a   4.39564300
_cell_length_b   4.39564405
_cell_length_c   11.87725400
_cell_angle_alpha   90.00000000
_cell_angle_beta   90.00000000
_cell_angle_gamma   119.99998461
_symmetry_Int_Tables_number   1
_chemical_formula_structural   PrRhI
_chemical_formula_sum   'Pr2 Rh2 I2'
_cell_volume   198.74292299
_cell_formula_units_Z   2
loop_
 _symmetry_equiv_pos_site_id
 _symmetry_equiv_pos_as_xyz
  1  'x, y, z'
loop_
 _atom_site_type_symbol
 _atom_site_label
 _atom_site_symmetry_multiplicity
 _atom_site_fract_x
 _atom_site_fract_y
 _atom_site_fract_z
 _atom_site_occupancy
  Pr  Pr0  1  0.000000  0.000000  0.157224  1
  Pr  Pr1  1  0.000000  0.000000  0.842776  1
  Rh  Rh2  1  0.333333  0.666667  0.002745  1
  Rh  Rh3  1  0.666667  0.333333  0.997255  1
  I  I4  1  0.333333  0.666667  0.663855  1
  I  I5  1  0.666667  0.333333  0.336145  1
