# generated using pymatgen
data_Ca7Tl2PbN2
_symmetry_space_group_name_H-M   'P 1'
_cell_length_a   12.71147200
_cell_length_b   12.71147192
_cell_length_c   4.88580600
_cell_angle_alpha   90.00000000
_cell_angle_beta   90.00000000
_cell_angle_gamma   157.84152794
_symmetry_Int_Tables_number   1
_chemical_formula_structural   Ca7Tl2PbN2
_chemical_formula_sum   'Ca7 Tl2 Pb1 N2'
_cell_volume   297.75880119
_cell_formula_units_Z   1
loop_
 _symmetry_equiv_pos_site_id
 _symmetry_equiv_pos_as_xyz
  1  'x, y, z'
loop_
 _atom_site_type_symbol
 _atom_site_label
 _atom_site_symmetry_multiplicity
 _atom_site_fract_x
 _atom_site_fract_y
 _atom_site_fract_z
 _atom_site_occupancy
  Ca  Ca0  1  0.000000  0.000000  0.000000  1
  Ca  Ca1  1  0.804977  0.195024  0.000000  1
  Ca  Ca2  1  0.594919  0.405082  0.000000  1
  Ca  Ca3  1  0.405082  0.594919  0.000000  1
  Ca  Ca4  1  0.195024  0.804977  0.000000  1
  Ca  Ca5  1  0.904052  0.095949  0.499999  1
  Ca  Ca6  1  0.095949  0.904052  0.499999  1
  Tl  Tl7  1  0.700709  0.299292  0.499999  1
  Tl  Tl8  1  0.299292  0.700709  0.499999  1
  Pb  Pb9  1  0.500000  0.500000  0.499999  1
  N  N10  1  0.897545  0.102456  0.000000  1
  N  N11  1  0.102456  0.897545  0.000000  1
