# generated using pymatgen
data_TlS27
_symmetry_space_group_name_H-M   'P 1'
_cell_length_a   14.30913745
_cell_length_b   14.30913824
_cell_length_c   14.30913699
_cell_angle_alpha   118.26052573
_cell_angle_beta   118.26053039
_cell_angle_gamma   118.26052677
_symmetry_Int_Tables_number   1
_chemical_formula_structural   TlS27
_chemical_formula_sum   'Tl1 S27'
_cell_volume   994.20150362
_cell_formula_units_Z   1
loop_
 _symmetry_equiv_pos_site_id
 _symmetry_equiv_pos_as_xyz
  1  'x, y, z'
loop_
 _atom_site_type_symbol
 _atom_site_label
 _atom_site_symmetry_multiplicity
 _atom_site_fract_x
 _atom_site_fract_y
 _atom_site_fract_z
 _atom_site_occupancy
  Tl  Tl0  1  0.574952  0.574952  0.574952  1
  S  S1  1  0.811928  0.535099  0.535099  1
  S  S2  1  0.535099  0.535099  0.811928  1
  S  S3  1  0.535099  0.811928  0.535099  1
  S  S4  1  0.267924  0.404364  0.653260  1
  S  S5  1  0.312894  0.924228  0.312894  1
  S  S6  1  0.312894  0.312894  0.924228  1
  S  S7  1  0.924228  0.312894  0.312894  1
  S  S8  1  0.113779  0.734569  0.250393  1
  S  S9  1  0.250393  0.113779  0.734569  1
  S  S10  1  0.734569  0.250393  0.113779  1
  S  S11  1  0.734569  0.113779  0.250393  1
  S  S12  1  0.250393  0.734569  0.113779  1
  S  S13  1  0.113779  0.250393  0.734569  1
  S  S14  1  0.329742  0.869783  0.522291  1
  S  S15  1  0.522291  0.329742  0.869783  1
  S  S16  1  0.869783  0.522291  0.329742  1
  S  S17  1  0.869783  0.329742  0.522291  1
  S  S18  1  0.522291  0.869783  0.329742  1
  S  S19  1  0.329742  0.522291  0.869783  1
  S  S20  1  0.267924  0.653260  0.404364  1
  S  S21  1  0.404364  0.267924  0.653260  1
  S  S22  1  0.653260  0.404364  0.267924  1
  S  S23  1  0.653260  0.267924  0.404364  1
  S  S24  1  0.404364  0.653260  0.267924  1
  S  S25  1  0.015542  0.105224  0.105224  1
  S  S26  1  0.105224  0.105224  0.015542  1
  S  S27  1  0.105224  0.015542  0.105224  1
