# generated using pymatgen
data_LiTa3(TiH4)4
_symmetry_space_group_name_H-M   'P 1'
_cell_length_a   6.30266079
_cell_length_b   6.32184276
_cell_length_c   6.28359954
_cell_angle_alpha   59.80696379
_cell_angle_beta   60.30185742
_cell_angle_gamma   59.69968660
_symmetry_Int_Tables_number   1
_chemical_formula_structural   LiTa3(TiH4)4
_chemical_formula_sum   'Li1 Ta3 Ti4 H16'
_cell_volume   176.76833167
_cell_formula_units_Z   1
loop_
 _symmetry_equiv_pos_site_id
 _symmetry_equiv_pos_as_xyz
  1  'x, y, z'
loop_
 _atom_site_type_symbol
 _atom_site_label
 _atom_site_symmetry_multiplicity
 _atom_site_fract_x
 _atom_site_fract_y
 _atom_site_fract_z
 _atom_site_occupancy
  Li  Li0  1  0.000000  0.000000  0.000000  1
  Ta  Ta1  1  0.500000  0.000000  0.500000  1
  Ta  Ta2  1  0.000000  0.500000  0.000000  1
  Ta  Ta3  1  0.500000  0.000000  0.000000  1
  Ti  Ti4  1  0.500000  0.500000  0.500000  1
  Ti  Ti5  1  0.000000  0.000000  0.500000  1
  Ti  Ti6  1  0.000000  0.500000  0.500000  1
  Ti  Ti7  1  0.500000  0.500000  0.000000  1
  H  H8  1  0.875198  0.874464  0.376245  1
  H  H9  1  0.874095  0.376245  0.874464  1
  H  H10  1  0.371164  0.874370  0.877281  1
  H  H11  1  0.877187  0.877281  0.874370  1
  H  H12  1  0.124802  0.125536  0.623755  1
  H  H13  1  0.125905  0.623755  0.125536  1
  H  H14  1  0.628836  0.125630  0.122719  1
  H  H15  1  0.122813  0.122719  0.125630  1
  H  H16  1  0.620271  0.621313  0.130436  1
  H  H17  1  0.627980  0.130436  0.621313  1
  H  H18  1  0.127932  0.626257  0.620699  1
  H  H19  1  0.625112  0.620699  0.626257  1
  H  H20  1  0.379729  0.378687  0.869564  1
  H  H21  1  0.372020  0.869564  0.378687  1
  H  H22  1  0.872068  0.373743  0.379301  1
  H  H23  1  0.374888  0.379301  0.373743  1
