# generated using pymatgen
data_Li4La2HoPb4
_symmetry_space_group_name_H-M   'P 1'
_cell_length_a   4.81928493
_cell_length_b   7.14210724
_cell_length_c   8.91810900
_cell_angle_alpha   113.60488749
_cell_angle_beta   105.67598576
_cell_angle_gamma   89.99999433
_symmetry_Int_Tables_number   1
_chemical_formula_structural   Li4La2HoPb4
_chemical_formula_sum   'Li4 La2 Ho1 Pb4'
_cell_volume   268.77000373
_cell_formula_units_Z   1
loop_
 _symmetry_equiv_pos_site_id
 _symmetry_equiv_pos_as_xyz
  1  'x, y, z'
loop_
 _atom_site_type_symbol
 _atom_site_label
 _atom_site_symmetry_multiplicity
 _atom_site_fract_x
 _atom_site_fract_y
 _atom_site_fract_z
 _atom_site_occupancy
  Li  Li0  1  0.672734  0.982570  0.345470  1
  Li  Li1  1  0.327266  0.017430  0.654530  1
  Li  Li2  1  0.327266  0.637100  0.654530  1
  Li  Li3  1  0.672734  0.362900  0.345470  1
  La  La4  1  0.129736  0.629736  0.259471  1
  La  La5  1  0.870264  0.370264  0.740529  1
  Ho  Ho6  1  0.000000  0.000000  0.000000  1
  Pb  Pb7  1  0.500000  0.713455  0.000000  1
  Pb  Pb8  1  0.500000  0.286545  0.000000  1
  Pb  Pb9  1  0.790159  0.790159  0.580319  1
  Pb  Pb10  1  0.209841  0.209841  0.419681  1
