# generated using pymatgen
data_Y2HoEr3(B7W)2
_symmetry_space_group_name_H-M   'P 1'
_cell_length_a   8.13193396
_cell_length_b   8.13193373
_cell_length_c   9.48154114
_cell_angle_alpha   89.94508033
_cell_angle_beta   90.05491873
_cell_angle_gamma   155.51024552
_symmetry_Int_Tables_number   1
_chemical_formula_structural   Y2HoEr3(B7W)2
_chemical_formula_sum   'Y2 Ho1 Er3 B14 W2'
_cell_volume   259.90995182
_cell_formula_units_Z   1
loop_
 _symmetry_equiv_pos_site_id
 _symmetry_equiv_pos_as_xyz
  1  'x, y, z'
loop_
 _atom_site_type_symbol
 _atom_site_label
 _atom_site_symmetry_multiplicity
 _atom_site_fract_x
 _atom_site_fract_y
 _atom_site_fract_z
 _atom_site_occupancy
  Y  Y0  1  0.753739  0.246261  0.250038  1
  Y  Y1  1  0.246127  0.753873  0.749933  1
  Ho  Ho2  1  0.892722  0.107278  0.939932  1
  Er  Er3  1  0.107088  0.892912  0.059671  1
  Er  Er4  1  0.892923  0.107077  0.559603  1
  Er  Er5  1  0.107106  0.892894  0.440339  1
  B  B6  1  0.546114  0.453886  0.250012  1
  B  B7  1  0.454086  0.545914  0.749624  1
  B  B8  1  0.519573  0.480427  0.908506  1
  B  B9  1  0.480756  0.519244  0.091641  1
  B  B10  1  0.480627  0.519373  0.408623  1
  B  B11  1  0.519407  0.480593  0.591357  1
  B  B12  1  0.634840  0.365160  0.853618  1
  B  B13  1  0.365113  0.634887  0.146801  1
  B  B14  1  0.727367  0.272633  0.967326  1
  B  B15  1  0.272250  0.727750  0.032892  1
  B  B16  1  0.272441  0.727559  0.467248  1
  B  B17  1  0.727557  0.272443  0.532745  1
  B  B18  1  0.634847  0.365153  0.646400  1
  B  B19  1  0.365158  0.634842  0.353576  1
  W  W20  1  0.053150  0.946850  0.749860  1
  W  W21  1  0.947008  0.052992  0.250254  1
