# generated using pymatgen
data_Y2Er3Tm15Pt16
_symmetry_space_group_name_H-M   'P 1'
_cell_length_a   7.40851201
_cell_length_b   7.48976284
_cell_length_c   14.60202700
_cell_angle_alpha   90.01520796
_cell_angle_beta   89.99661261
_cell_angle_gamma   89.97751025
_symmetry_Int_Tables_number   1
_chemical_formula_structural   Y2Er3Tm15Pt16
_chemical_formula_sum   'Y2 Er3 Tm15 Pt16'
_cell_volume   810.23715231
_cell_formula_units_Z   1
loop_
 _symmetry_equiv_pos_site_id
 _symmetry_equiv_pos_as_xyz
  1  'x, y, z'
loop_
 _atom_site_type_symbol
 _atom_site_label
 _atom_site_symmetry_multiplicity
 _atom_site_fract_x
 _atom_site_fract_y
 _atom_site_fract_z
 _atom_site_occupancy
  Y  Y0  1  0.999264  0.179654  0.407151  1
  Y  Y1  1  0.499388  0.321187  0.407599  1
  Er  Er2  1  0.998775  0.178834  0.092462  1
  Er  Er3  1  0.500930  0.679087  0.907590  1
  Er  Er4  1  0.001348  0.820129  0.592928  1
  Tm  Tm5  1  0.656219  0.167218  0.622788  1
  Tm  Tm6  1  0.155893  0.332776  0.877600  1
  Tm  Tm7  1  0.344236  0.832781  0.122102  1
  Tm  Tm8  1  0.844465  0.667412  0.377375  1
  Tm  Tm9  1  0.345151  0.832083  0.377629  1
  Tm  Tm10  1  0.844396  0.667464  0.121738  1
  Tm  Tm11  1  0.655703  0.167386  0.877882  1
  Tm  Tm12  1  0.156486  0.332857  0.622573  1
  Tm  Tm13  1  0.501568  0.680327  0.593271  1
  Tm  Tm14  1  0.001484  0.820006  0.906991  1
  Tm  Tm15  1  0.498454  0.320094  0.092846  1
  Tm  Tm16  1  0.818733  0.510108  0.750157  1
  Tm  Tm17  1  0.318737  0.989797  0.750235  1
  Tm  Tm18  1  0.181154  0.490030  0.249304  1
  Tm  Tm19  1  0.681276  0.010021  0.249422  1
  Pt  Pt20  1  0.682872  0.963592  0.459419  1
  Pt  Pt21  1  0.185355  0.532971  0.041525  1
  Pt  Pt22  1  0.314768  0.032851  0.958473  1
  Pt  Pt23  1  0.815182  0.468946  0.542634  1
  Pt  Pt24  1  0.316362  0.030967  0.542841  1
  Pt  Pt25  1  0.816186  0.467233  0.958309  1
  Pt  Pt26  1  0.683970  0.967247  0.041655  1
  Pt  Pt27  1  0.182742  0.536632  0.459573  1
  Pt  Pt28  1  0.453231  0.386995  0.750085  1
  Pt  Pt29  1  0.953119  0.113095  0.750330  1
  Pt  Pt30  1  0.546872  0.614203  0.249025  1
  Pt  Pt31  1  0.047218  0.885663  0.249347  1
  Pt  Pt32  1  0.681094  0.855562  0.750187  1
  Pt  Pt33  1  0.181043  0.644442  0.750541  1
  Pt  Pt34  1  0.318536  0.143419  0.248202  1
  Pt  Pt35  1  0.817791  0.356937  0.248209  1
