# generated using pymatgen
data_TbEr11Tc3Pt
_symmetry_space_group_name_H-M   'P 1'
_cell_length_a   6.25904356
_cell_length_b   7.32620418
_cell_length_c   9.09420200
_cell_angle_alpha   90.00000000
_cell_angle_beta   90.00000000
_cell_angle_gamma   89.98070223
_symmetry_Int_Tables_number   1
_chemical_formula_structural   TbEr11Tc3Pt
_chemical_formula_sum   'Tb1 Er11 Tc3 Pt1'
_cell_volume   417.01489203
_cell_formula_units_Z   1
loop_
 _symmetry_equiv_pos_site_id
 _symmetry_equiv_pos_as_xyz
  1  'x, y, z'
loop_
 _atom_site_type_symbol
 _atom_site_label
 _atom_site_symmetry_multiplicity
 _atom_site_fract_x
 _atom_site_fract_y
 _atom_site_fract_z
 _atom_site_occupancy
  Tb  Tb0  1  0.126692  0.456723  0.750000  1
  Er  Er1  1  0.327921  0.677069  0.066836  1
  Er  Er2  1  0.166730  0.177434  0.436553  1
  Er  Er3  1  0.668209  0.318037  0.558020  1
  Er  Er4  1  0.835361  0.826227  0.940711  1
  Er  Er5  1  0.668209  0.318037  0.941980  1
  Er  Er6  1  0.835361  0.826227  0.559289  1
  Er  Er7  1  0.327921  0.677069  0.433164  1
  Er  Er8  1  0.166730  0.177434  0.063447  1
  Er  Er9  1  0.873572  0.541384  0.250000  1
  Er  Er10  1  0.623144  0.038233  0.250000  1
  Er  Er11  1  0.372814  0.965316  0.750000  1
  Tc  Tc12  1  0.038358  0.886730  0.250000  1
  Tc  Tc13  1  0.463690  0.388028  0.250000  1
  Tc  Tc14  1  0.957836  0.112463  0.750000  1
  Pt  Pt15  1  0.547453  0.613589  0.750000  1
