# generated using pymatgen
data_Dy16Er3TmIr12
_symmetry_space_group_name_H-M   'P 1'
_cell_length_a   10.87515000
_cell_length_b   10.87515000
_cell_length_c   6.36149700
_cell_angle_alpha   90.00000000
_cell_angle_beta   90.00000000
_cell_angle_gamma   90.00000000
_symmetry_Int_Tables_number   1
_chemical_formula_structural   Dy16Er3TmIr12
_chemical_formula_sum   'Dy16 Er3 Tm1 Ir12'
_cell_volume   752.36717317
_cell_formula_units_Z   1
loop_
 _symmetry_equiv_pos_site_id
 _symmetry_equiv_pos_as_xyz
  1  'x, y, z'
loop_
 _atom_site_type_symbol
 _atom_site_label
 _atom_site_symmetry_multiplicity
 _atom_site_fract_x
 _atom_site_fract_y
 _atom_site_fract_z
 _atom_site_occupancy
  Dy  Dy0  1  0.290626  0.087711  0.377785  1
  Dy  Dy1  1  0.290710  0.912262  0.877736  1
  Dy  Dy2  1  0.709290  0.087738  0.877736  1
  Dy  Dy3  1  0.709374  0.912289  0.377785  1
  Dy  Dy4  1  0.587748  0.790758  0.877757  1
  Dy  Dy5  1  0.587772  0.209239  0.377741  1
  Dy  Dy6  1  0.412228  0.790761  0.377741  1
  Dy  Dy7  1  0.412252  0.209242  0.877757  1
  Dy  Dy8  1  0.209239  0.412228  0.622259  1
  Dy  Dy9  1  0.209242  0.587748  0.122243  1
  Dy  Dy10  1  0.790758  0.412252  0.122243  1
  Dy  Dy11  1  0.790761  0.587772  0.622259  1
  Dy  Dy12  1  0.912262  0.709290  0.122264  1
  Dy  Dy13  1  0.912289  0.290626  0.622215  1
  Dy  Dy14  1  0.087711  0.709374  0.622215  1
  Dy  Dy15  1  0.087738  0.290710  0.122264  1
  Er  Er16  1  0.000000  0.000000  0.000000  1
  Er  Er17  1  0.500000  0.500000  0.000000  1
  Er  Er18  1  0.500000  0.500000  0.500000  1
  Tm  Tm19  1  0.000000  0.000000  0.500000  1
  Ir  Ir20  1  0.847341  0.152662  0.250256  1
  Ir  Ir21  1  0.847338  0.847341  0.749744  1
  Ir  Ir22  1  0.152662  0.152659  0.749744  1
  Ir  Ir23  1  0.152659  0.847338  0.250256  1
  Ir  Ir24  1  0.652843  0.347153  0.750004  1
  Ir  Ir25  1  0.652847  0.652843  0.249996  1
  Ir  Ir26  1  0.347153  0.347157  0.249996  1
  Ir  Ir27  1  0.347157  0.652847  0.750004  1
  Ir  Ir28  1  0.500000  0.000000  0.121163  1
  Ir  Ir29  1  0.500000  0.000000  0.621165  1
  Ir  Ir30  1  0.000000  0.500000  0.878837  1
  Ir  Ir31  1  0.000000  0.500000  0.378835  1
