# generated using pymatgen
data_LiTbPr5IrBr12
_symmetry_space_group_name_H-M   'P 1'
_cell_length_a   9.58822724
_cell_length_b   9.66437272
_cell_length_c   9.57267411
_cell_angle_alpha   108.39950198
_cell_angle_beta   108.30198393
_cell_angle_gamma   107.50923347
_symmetry_Int_Tables_number   1
_chemical_formula_structural   LiTbPr5IrBr12
_chemical_formula_sum   'Li1 Tb1 Pr5 Ir1 Br12'
_cell_volume   716.03790865
_cell_formula_units_Z   1
loop_
 _symmetry_equiv_pos_site_id
 _symmetry_equiv_pos_as_xyz
  1  'x, y, z'
loop_
 _atom_site_type_symbol
 _atom_site_label
 _atom_site_symmetry_multiplicity
 _atom_site_fract_x
 _atom_site_fract_y
 _atom_site_fract_z
 _atom_site_occupancy
  Li  Li0  1  0.499970  0.500530  0.499792  1
  Tb  Tb1  1  0.119302  0.324581  0.037898  1
  Pr  Pr2  1  0.321632  0.035594  0.118165  1
  Pr  Pr3  1  0.038385  0.120420  0.324519  1
  Pr  Pr4  1  0.962865  0.883996  0.677556  1
  Pr  Pr5  1  0.678763  0.964274  0.881959  1
  Pr  Pr6  1  0.878025  0.666469  0.961845  1
  Ir  Ir7  1  0.000772  0.001049  0.001361  1
  Br  Br8  1  0.214411  0.679402  0.070654  1
  Br  Br9  1  0.455482  0.386067  0.173579  1
  Br  Br10  1  0.686977  0.071645  0.217575  1
  Br  Br11  1  0.929520  0.785554  0.314755  1
  Br  Br12  1  0.178029  0.465904  0.376039  1
  Br  Br13  1  0.388249  0.180888  0.469109  1
  Br  Br14  1  0.612108  0.819851  0.531320  1
  Br  Br15  1  0.819968  0.533836  0.612106  1
  Br  Br16  1  0.073932  0.222294  0.697124  1
  Br  Br17  1  0.313202  0.928761  0.782745  1
  Br  Br18  1  0.532675  0.614248  0.819443  1
  Br  Br19  1  0.795739  0.314640  0.932459  1
