# generated using pymatgen
data_Tm6Sc4(GaAs)3
_symmetry_space_group_name_H-M   'P 1'
_cell_length_a   8.27192800
_cell_length_b   8.25700933
_cell_length_c   6.06125000
_cell_angle_alpha   90.00000000
_cell_angle_beta   90.00000000
_cell_angle_gamma   120.05978610
_symmetry_Int_Tables_number   1
_chemical_formula_structural   Tm6Sc4(GaAs)3
_chemical_formula_sum   'Tm6 Sc4 Ga3 As3'
_cell_volume   358.31121046
_cell_formula_units_Z   1
loop_
 _symmetry_equiv_pos_site_id
 _symmetry_equiv_pos_as_xyz
  1  'x, y, z'
loop_
 _atom_site_type_symbol
 _atom_site_label
 _atom_site_symmetry_multiplicity
 _atom_site_fract_x
 _atom_site_fract_y
 _atom_site_fract_z
 _atom_site_occupancy
  Tm  Tm0  1  0.241835  0.000000  0.250000  1
  Tm  Tm1  1  0.243800  0.241735  0.750000  1
  Tm  Tm2  1  0.002066  0.758265  0.750000  1
  Tm  Tm3  1  0.002200  0.244233  0.250000  1
  Tm  Tm4  1  0.757966  0.755767  0.250000  1
  Tm  Tm5  1  0.755057  0.000000  0.750000  1
  Sc  Sc6  1  0.331766  0.665675  0.001674  1
  Sc  Sc7  1  0.666092  0.334325  0.498326  1
  Sc  Sc8  1  0.666092  0.334325  0.001674  1
  Sc  Sc9  1  0.331766  0.665675  0.498326  1
  Ga  Ga10  1  0.998305  0.599869  0.250000  1
  Ga  Ga11  1  0.398435  0.400131  0.250000  1
  Ga  Ga12  1  0.399199  0.000000  0.750000  1
  As  As13  1  0.604259  0.000000  0.250000  1
  As  As14  1  0.603286  0.605410  0.750000  1
  As  As15  1  0.997876  0.394590  0.750000  1
