# generated using pymatgen
data_CeErSe2
_symmetry_space_group_name_H-M   'P 1'
_cell_length_a   7.23102967
_cell_length_b   7.23102999
_cell_length_c   7.23102949
_cell_angle_alpha   32.57257947
_cell_angle_beta   32.57257579
_cell_angle_gamma   32.57256384
_symmetry_Int_Tables_number   1
_chemical_formula_structural   CeErSe2
_chemical_formula_sum   'Ce1 Er1 Se2'
_cell_volume   97.45567358
_cell_formula_units_Z   1
loop_
 _symmetry_equiv_pos_site_id
 _symmetry_equiv_pos_as_xyz
  1  'x, y, z'
loop_
 _atom_site_type_symbol
 _atom_site_label
 _atom_site_symmetry_multiplicity
 _atom_site_fract_x
 _atom_site_fract_y
 _atom_site_fract_z
 _atom_site_occupancy
  Ce  Ce0  1  0.500000  0.500000  0.500000  1
  Er  Er1  1  0.000000  0.000000  0.000000  1
  Se  Se2  1  0.255300  0.255300  0.255300  1
  Se  Se3  1  0.744700  0.744700  0.744700  1
