# generated using pymatgen
data_Ho9Tm11Ir7Rh5
_symmetry_space_group_name_H-M   'P 1'
_cell_length_a   10.78072335
_cell_length_b   10.77903685
_cell_length_c   6.32861807
_cell_angle_alpha   89.98130186
_cell_angle_beta   89.99490413
_cell_angle_gamma   89.90152163
_symmetry_Int_Tables_number   1
_chemical_formula_structural   Ho9Tm11Ir7Rh5
_chemical_formula_sum   'Ho9 Tm11 Ir7 Rh5'
_cell_volume   735.42108793
_cell_formula_units_Z   1
loop_
 _symmetry_equiv_pos_site_id
 _symmetry_equiv_pos_as_xyz
  1  'x, y, z'
loop_
 _atom_site_type_symbol
 _atom_site_label
 _atom_site_symmetry_multiplicity
 _atom_site_fract_x
 _atom_site_fract_y
 _atom_site_fract_z
 _atom_site_occupancy
  Ho  Ho0  1  0.289388  0.088593  0.378528  1
  Ho  Ho1  1  0.289693  0.911081  0.877913  1
  Ho  Ho2  1  0.709771  0.088446  0.877501  1
  Ho  Ho3  1  0.709762  0.909344  0.378815  1
  Ho  Ho4  1  0.588749  0.789398  0.878511  1
  Ho  Ho5  1  0.587439  0.210564  0.378135  1
  Ho  Ho6  1  0.410822  0.789618  0.378206  1
  Ho  Ho7  1  0.411283  0.210074  0.878315  1
  Ho  Ho8  1  0.209726  0.412139  0.621098  1
  Tm  Tm9  1  0.208994  0.588444  0.120771  1
  Tm  Tm10  1  0.790774  0.413703  0.120941  1
  Tm  Tm11  1  0.791035  0.588047  0.620984  1
  Tm  Tm12  1  0.912288  0.709320  0.120382  1
  Tm  Tm13  1  0.912202  0.291535  0.621750  1
  Tm  Tm14  1  0.087715  0.709268  0.621145  1
  Tm  Tm15  1  0.089425  0.291513  0.120277  1
  Tm  Tm16  1  0.999821  0.999778  0.500671  1
  Tm  Tm17  1  0.000200  0.000015  0.000926  1
  Tm  Tm18  1  0.499996  0.499733  0.000711  1
  Tm  Tm19  1  0.500704  0.500275  0.500864  1
  Ir  Ir20  1  0.847340  0.846326  0.750517  1
  Ir  Ir21  1  0.151613  0.153943  0.750555  1
  Ir  Ir22  1  0.152520  0.845493  0.250401  1
  Ir  Ir23  1  0.655255  0.346623  0.750331  1
  Ir  Ir24  1  0.654705  0.652247  0.250101  1
  Ir  Ir25  1  0.346248  0.346959  0.249592  1
  Ir  Ir26  1  0.345791  0.653132  0.750764  1
  Rh  Rh27  1  0.847081  0.154585  0.250366  1
  Rh  Rh28  1  0.500586  0.000208  0.124540  1
  Rh  Rh29  1  0.500458  0.000167  0.623853  1
  Rh  Rh30  1  0.999367  0.499765  0.877048  1
  Rh  Rh31  1  0.999248  0.499663  0.375491  1
