# generated using pymatgen
data_LaEu2(B3Rh4)2
_symmetry_space_group_name_H-M   'P 1'
_cell_length_a   9.98352576
_cell_length_b   9.09372982
_cell_length_c   5.70276858
_cell_angle_alpha   81.37929353
_cell_angle_beta   64.23478032
_cell_angle_gamma   34.38592878
_symmetry_Int_Tables_number   1
_chemical_formula_structural   LaEu2(B3Rh4)2
_chemical_formula_sum   'La1 Eu2 B6 Rh8'
_cell_volume   240.11119008
_cell_formula_units_Z   1
loop_
 _symmetry_equiv_pos_site_id
 _symmetry_equiv_pos_as_xyz
  1  'x, y, z'
loop_
 _atom_site_type_symbol
 _atom_site_label
 _atom_site_symmetry_multiplicity
 _atom_site_fract_x
 _atom_site_fract_y
 _atom_site_fract_z
 _atom_site_occupancy
  La  La0  1  0.500000  0.500000  0.500000  1
  Eu  Eu1  1  0.316190  0.316190  0.683810  1
  Eu  Eu2  1  0.683810  0.683810  0.316190  1
  B  B3  1  0.833936  0.166064  0.833936  1
  B  B4  1  0.667453  0.990064  0.009936  1
  B  B5  1  0.990064  0.667453  0.332547  1
  B  B6  1  0.009936  0.332547  0.667453  1
  B  B7  1  0.332547  0.009936  0.990064  1
  B  B8  1  0.166064  0.833936  0.166064  1
  Rh  Rh9  1  0.914765  0.914765  0.585235  1
  Rh  Rh10  1  0.085235  0.085235  0.414765  1
  Rh  Rh11  1  0.750000  0.750000  0.750000  1
  Rh  Rh12  1  0.087401  0.087401  0.912599  1
  Rh  Rh13  1  0.912599  0.912599  0.087401  1
  Rh  Rh14  1  0.414765  0.414765  0.085235  1
  Rh  Rh15  1  0.585235  0.585235  0.914765  1
  Rh  Rh16  1  0.250000  0.250000  0.250000  1
