# generated using pymatgen
data_Mn3Al4Zn(AsO5)4
_symmetry_space_group_name_H-M   'P 1'
_cell_length_a   10.84543409
_cell_length_b   5.66443725
_cell_length_c   7.55229587
_cell_angle_alpha   81.83111614
_cell_angle_beta   89.86327069
_cell_angle_gamma   89.75982262
_symmetry_Int_Tables_number   1
_chemical_formula_structural   Mn3Al4Zn(AsO5)4
_chemical_formula_sum   'Mn3 Al4 Zn1 As4 O20'
_cell_volume   459.24995391
_cell_formula_units_Z   1
loop_
 _symmetry_equiv_pos_site_id
 _symmetry_equiv_pos_as_xyz
  1  'x, y, z'
loop_
 _atom_site_type_symbol
 _atom_site_label
 _atom_site_symmetry_multiplicity
 _atom_site_fract_x
 _atom_site_fract_y
 _atom_site_fract_z
 _atom_site_occupancy
  Mn  Mn0  1  0.644177  0.610633  0.475351  1
  Mn  Mn1  1  0.857919  0.110246  0.475064  1
  Mn  Mn2  1  0.355106  0.388271  0.523837  1
  Al  Al3  1  0.319497  0.946459  0.855914  1
  Al  Al4  1  0.677364  0.056955  0.142331  1
  Al  Al5  1  0.179222  0.448232  0.858249  1
  Al  Al6  1  0.820273  0.555549  0.140432  1
  Zn  Zn7  1  0.144845  0.883484  0.523875  1
  As  As8  1  0.398810  0.933222  0.269070  1
  As  As9  1  0.903562  0.565717  0.729482  1
  As  As10  1  0.100021  0.432848  0.272555  1
  As  As11  1  0.598132  0.064391  0.730554  1
  O  O12  1  0.811166  0.615209  0.903924  1
  O  O13  1  0.542270  0.329833  0.621833  1
  O  O14  1  0.774090  0.263221  0.228299  1
  O  O15  1  0.521118  0.116041  0.201217  1
  O  O16  1  0.277029  0.242163  0.773324  1
  O  O17  1  0.184589  0.574119  0.419542  1
  O  O18  1  0.456689  0.668283  0.375693  1
  O  O19  1  0.048136  0.163860  0.383034  1
  O  O20  1  0.816494  0.432112  0.581592  1
  O  O21  1  0.475575  0.882843  0.799046  1
  O  O22  1  0.688756  0.112390  0.906041  1
  O  O23  1  0.191985  0.393953  0.095130  1
  O  O24  1  0.311097  0.064945  0.419386  1
  O  O25  1  0.975396  0.608080  0.202971  1
  O  O26  1  0.308273  0.888015  0.092516  1
  O  O27  1  0.686369  0.930883  0.582613  1
  O  O28  1  0.221755  0.743356  0.766297  1
  O  O29  1  0.724396  0.763909  0.227477  1
  O  O30  1  0.961552  0.829227  0.620229  1
  O  O31  1  0.024336  0.381551  0.803120  1
