# generated using pymatgen
data_Ac2SiAs5Pd21
_symmetry_space_group_name_H-M   'P 1'
_cell_length_a   8.88702455
_cell_length_b   8.85547541
_cell_length_c   8.85547500
_cell_angle_alpha   60.23584740
_cell_angle_beta   59.88208546
_cell_angle_gamma   59.88207326
_symmetry_Int_Tables_number   1
_chemical_formula_structural   Ac2SiAs5Pd21
_chemical_formula_sum   'Ac2 Si1 As5 Pd21'
_cell_volume   492.78114329
_cell_formula_units_Z   1
loop_
 _symmetry_equiv_pos_site_id
 _symmetry_equiv_pos_as_xyz
  1  'x, y, z'
loop_
 _atom_site_type_symbol
 _atom_site_label
 _atom_site_symmetry_multiplicity
 _atom_site_fract_x
 _atom_site_fract_y
 _atom_site_fract_z
 _atom_site_occupancy
  Ac  Ac0  1  0.750506  0.749494  0.749494  1
  Ac  Ac1  1  0.250510  0.249490  0.249490  1
  Si  Si2  1  0.261207  0.738793  0.738793  1
  As  As3  1  0.738800  0.738812  0.261191  1
  As  As4  1  0.261197  0.738812  0.261192  1
  As  As5  1  0.738883  0.261117  0.261117  1
  As  As6  1  0.261197  0.261192  0.738812  1
  As  As7  1  0.738800  0.261191  0.738812  1
  Pd  Pd8  1  0.001219  0.998781  0.998781  1
  Pd  Pd9  1  0.613423  0.614621  0.158533  1
  Pd  Pd10  1  0.613423  0.158533  0.614621  1
  Pd  Pd11  1  0.159114  0.616881  0.616881  1
  Pd  Pd12  1  0.607125  0.616881  0.616881  1
  Pd  Pd13  1  0.383120  0.392876  0.840884  1
  Pd  Pd14  1  0.383120  0.840884  0.392876  1
  Pd  Pd15  1  0.841468  0.386575  0.386575  1
  Pd  Pd16  1  0.385381  0.386575  0.386575  1
  Pd  Pd17  1  0.999370  0.000639  0.348486  1
  Pd  Pd18  1  0.651505  0.000639  0.348487  1
  Pd  Pd19  1  0.001593  0.651423  0.345391  1
  Pd  Pd20  1  0.651505  0.348487  0.000639  1
  Pd  Pd21  1  0.999370  0.348486  0.000639  1
  Pd  Pd22  1  0.001593  0.345391  0.651423  1
  Pd  Pd23  1  0.345505  0.654500  0.993808  1
  Pd  Pd24  1  0.345505  0.993808  0.654500  1
  Pd  Pd25  1  0.348571  0.998407  0.998407  1
  Pd  Pd26  1  0.006186  0.993808  0.654500  1
  Pd  Pd27  1  0.006186  0.654500  0.993808  1
  Pd  Pd28  1  0.654616  0.998406  0.998406  1
