# generated using pymatgen
data_NdPaN2
_symmetry_space_group_name_H-M   'P 1'
_cell_length_a   6.20821201
_cell_length_b   6.20821200
_cell_length_c   6.20821124
_cell_angle_alpha   33.40849356
_cell_angle_beta   33.40849334
_cell_angle_gamma   33.40850604
_symmetry_Int_Tables_number   1
_chemical_formula_structural   NdPaN2
_chemical_formula_sum   'Nd1 Pa1 N2'
_cell_volume   64.59754690
_cell_formula_units_Z   1
loop_
 _symmetry_equiv_pos_site_id
 _symmetry_equiv_pos_as_xyz
  1  'x, y, z'
loop_
 _atom_site_type_symbol
 _atom_site_label
 _atom_site_symmetry_multiplicity
 _atom_site_fract_x
 _atom_site_fract_y
 _atom_site_fract_z
 _atom_site_occupancy
  Nd  Nd0  1  0.000000  0.000000  0.000000  1
  Pa  Pa1  1  0.500000  0.500000  0.500000  1
  N  N2  1  0.236413  0.236413  0.236413  1
  N  N3  1  0.763587  0.763587  0.763587  1
