# generated using pymatgen
data_CaSc(Si7Ir3)2
_symmetry_space_group_name_H-M   'P 1'
_cell_length_a   8.00154332
_cell_length_b   8.00154391
_cell_length_c   8.00154386
_cell_angle_alpha   56.74345674
_cell_angle_beta   56.74345543
_cell_angle_gamma   56.74345342
_symmetry_Int_Tables_number   1
_chemical_formula_structural   CaSc(Si7Ir3)2
_chemical_formula_sum   'Ca1 Sc1 Si14 Ir6'
_cell_volume   335.01346830
_cell_formula_units_Z   1
loop_
 _symmetry_equiv_pos_site_id
 _symmetry_equiv_pos_as_xyz
  1  'x, y, z'
loop_
 _atom_site_type_symbol
 _atom_site_label
 _atom_site_symmetry_multiplicity
 _atom_site_fract_x
 _atom_site_fract_y
 _atom_site_fract_z
 _atom_site_occupancy
  Ca  Ca0  1  0.500000  0.500000  0.500000  1
  Sc  Sc1  1  0.000000  0.000000  0.000000  1
  Si  Si2  1  0.750022  0.750022  0.750022  1
  Si  Si3  1  0.249978  0.249978  0.249978  1
  Si  Si4  1  0.850408  0.064876  0.672955  1
  Si  Si5  1  0.672955  0.850408  0.064876  1
  Si  Si6  1  0.064876  0.672955  0.850408  1
  Si  Si7  1  0.649439  0.827562  0.434109  1
  Si  Si8  1  0.434109  0.649439  0.827562  1
  Si  Si9  1  0.827562  0.434109  0.649439  1
  Si  Si10  1  0.172438  0.565891  0.350561  1
  Si  Si11  1  0.565891  0.350561  0.172438  1
  Si  Si12  1  0.350561  0.172438  0.565891  1
  Si  Si13  1  0.935124  0.327045  0.149592  1
  Si  Si14  1  0.327045  0.149592  0.935124  1
  Si  Si15  1  0.149592  0.935124  0.327045  1
  Ir  Ir16  1  0.068830  0.424481  0.753777  1
  Ir  Ir17  1  0.246223  0.931170  0.575519  1
  Ir  Ir18  1  0.575519  0.246223  0.931170  1
  Ir  Ir19  1  0.931170  0.575519  0.246223  1
  Ir  Ir20  1  0.424481  0.753777  0.068830  1
  Ir  Ir21  1  0.753777  0.068830  0.424481  1
