# generated using pymatgen
data_Lu10Sn6Ge
_symmetry_space_group_name_H-M   'P 1'
_cell_length_a   6.41615602
_cell_length_b   8.93091327
_cell_length_c   8.93030401
_cell_angle_alpha   120.00226813
_cell_angle_beta   90.00263229
_cell_angle_gamma   89.99474141
_symmetry_Int_Tables_number   1
_chemical_formula_structural   Lu10Sn6Ge
_chemical_formula_sum   'Lu10 Sn6 Ge1'
_cell_volume   443.15712373
_cell_formula_units_Z   1
loop_
 _symmetry_equiv_pos_site_id
 _symmetry_equiv_pos_as_xyz
  1  'x, y, z'
loop_
 _atom_site_type_symbol
 _atom_site_label
 _atom_site_symmetry_multiplicity
 _atom_site_fract_x
 _atom_site_fract_y
 _atom_site_fract_z
 _atom_site_occupancy
  Lu  Lu0  1  0.499955  0.333264  0.666366  1
  Lu  Lu1  1  0.499955  0.666899  0.333634  1
  Lu  Lu2  1  0.999998  0.666477  0.332660  1
  Lu  Lu3  1  0.999998  0.333817  0.667340  1
  Lu  Lu4  1  0.749337  0.252071  0.000000  1
  Lu  Lu5  1  0.749085  0.747793  0.747695  1
  Lu  Lu6  1  0.749085  0.000097  0.252305  1
  Lu  Lu7  1  0.250530  0.747566  0.000000  1
  Lu  Lu8  1  0.250810  0.252368  0.252467  1
  Lu  Lu9  1  0.250810  0.999902  0.747533  1
  Sn  Sn10  1  0.749530  0.607622  0.000000  1
  Sn  Sn11  1  0.750793  0.392598  0.392679  1
  Sn  Sn12  1  0.750793  0.999919  0.607321  1
  Sn  Sn13  1  0.251110  0.391737  0.000000  1
  Sn  Sn14  1  0.249221  0.607743  0.607417  1
  Sn  Sn15  1  0.249221  0.000326  0.392583  1
  Ge  Ge16  1  0.499769  0.999800  0.000000  1
