# generated using pymatgen
data_Cs2ThCd2Se5
_symmetry_space_group_name_H-M   'P 1'
_cell_length_a   10.74053604
_cell_length_b   4.42458400
_cell_length_c   15.57585639
_cell_angle_alpha   90.00000000
_cell_angle_beta   102.81255139
_cell_angle_gamma   90.00000000
_symmetry_Int_Tables_number   1
_chemical_formula_structural   Cs2ThCd2Se5
_chemical_formula_sum   'Cs4 Th2 Cd4 Se10'
_cell_volume   721.77169574
_cell_formula_units_Z   2
loop_
 _symmetry_equiv_pos_site_id
 _symmetry_equiv_pos_as_xyz
  1  'x, y, z'
loop_
 _atom_site_type_symbol
 _atom_site_label
 _atom_site_symmetry_multiplicity
 _atom_site_fract_x
 _atom_site_fract_y
 _atom_site_fract_z
 _atom_site_occupancy
  Cs  Cs0  1  0.277071  0.309806  0.058799  1
  Cs  Cs1  1  0.222929  0.309806  0.441201  1
  Cs  Cs2  1  0.777070  0.690195  0.558799  1
  Cs  Cs3  1  0.722930  0.690195  0.941201  1
  Th  Th4  1  0.750000  0.187470  0.250000  1
  Th  Th5  1  0.250000  0.812529  0.750000  1
  Cd  Cd6  1  0.018877  0.677236  0.202412  1
  Cd  Cd7  1  0.481123  0.677236  0.297588  1
  Cd  Cd8  1  0.518877  0.322763  0.702412  1
  Cd  Cd9  1  0.981122  0.322763  0.797588  1
  Se  Se10  1  0.905045  0.190972  0.116692  1
  Se  Se11  1  0.597446  0.686799  0.153856  1
  Se  Se12  1  0.250000  0.881761  0.250000  1
  Se  Se13  1  0.902555  0.686799  0.346144  1
  Se  Se14  1  0.594956  0.190972  0.383308  1
  Se  Se15  1  0.405045  0.809029  0.616692  1
  Se  Se16  1  0.097446  0.313203  0.653856  1
  Se  Se17  1  0.750000  0.118240  0.750000  1
  Se  Se18  1  0.402554  0.313203  0.846144  1
  Se  Se19  1  0.094956  0.809029  0.883308  1
