# generated using pymatgen
data_HoLu15In4Ir3Os
_symmetry_space_group_name_H-M   'P 1'
_cell_length_a   9.49179372
_cell_length_b   9.49422275
_cell_length_c   9.47991943
_cell_angle_alpha   59.95007861
_cell_angle_beta   59.91096639
_cell_angle_gamma   59.99153797
_symmetry_Int_Tables_number   1
_chemical_formula_structural   HoLu15In4Ir3Os
_chemical_formula_sum   'Ho1 Lu15 In4 Ir3 Os1'
_cell_volume   603.41021515
_cell_formula_units_Z   1
loop_
 _symmetry_equiv_pos_site_id
 _symmetry_equiv_pos_as_xyz
  1  'x, y, z'
loop_
 _atom_site_type_symbol
 _atom_site_label
 _atom_site_symmetry_multiplicity
 _atom_site_fract_x
 _atom_site_fract_y
 _atom_site_fract_z
 _atom_site_occupancy
  Ho  Ho0  1  0.438114  0.058965  0.443958  1
  Lu  Lu1  1  0.439589  0.447493  0.056091  1
  Lu  Lu2  1  0.651014  0.651659  0.045669  1
  Lu  Lu3  1  0.193675  0.807391  0.191544  1
  Lu  Lu4  1  0.059804  0.439915  0.060366  1
  Lu  Lu5  1  0.193466  0.806504  0.809090  1
  Lu  Lu6  1  0.057772  0.442140  0.440697  1
  Lu  Lu7  1  0.808732  0.192114  0.192993  1
  Lu  Lu8  1  0.650447  0.652504  0.650938  1
  Lu  Lu9  1  0.807567  0.192249  0.807934  1
  Lu  Lu10  1  0.193466  0.190940  0.809090  1
  Lu  Lu11  1  0.046940  0.651038  0.650985  1
  Lu  Lu12  1  0.439589  0.056829  0.056091  1
  Lu  Lu13  1  0.057772  0.059391  0.440697  1
  Lu  Lu14  1  0.650447  0.046110  0.650938  1
  Lu  Lu15  1  0.808732  0.806160  0.192993  1
  In  In16  1  0.416110  0.417485  0.416490  1
  In  In17  1  0.416327  0.416225  0.751224  1
  In  In18  1  0.416110  0.749916  0.416490  1
  In  In19  1  0.750997  0.416212  0.416581  1
  Ir  Ir20  1  0.860430  0.859813  0.859216  1
  Ir  Ir21  1  0.860430  0.420540  0.859216  1
  Ir  Ir22  1  0.861024  0.859024  0.420928  1
  Os  Os23  1  0.421447  0.859385  0.859783  1
