# generated using pymatgen
data_Sm8Dy2B2Cl15
_symmetry_space_group_name_H-M   'P 1'
_cell_length_a   8.84109747
_cell_length_b   9.66663792
_cell_length_c   10.47401767
_cell_angle_alpha   91.06956892
_cell_angle_beta   114.56471893
_cell_angle_gamma   111.02316925
_symmetry_Int_Tables_number   1
_chemical_formula_structural   Sm8Dy2B2Cl15
_chemical_formula_sum   'Sm8 Dy2 B2 Cl15'
_cell_volume   744.94493951
_cell_formula_units_Z   1
loop_
 _symmetry_equiv_pos_site_id
 _symmetry_equiv_pos_as_xyz
  1  'x, y, z'
loop_
 _atom_site_type_symbol
 _atom_site_label
 _atom_site_symmetry_multiplicity
 _atom_site_fract_x
 _atom_site_fract_y
 _atom_site_fract_z
 _atom_site_occupancy
  Sm  Sm0  1  0.810660  0.417663  0.280307  1
  Sm  Sm1  1  0.189340  0.582337  0.719693  1
  Sm  Sm2  1  0.682296  0.744320  0.819511  1
  Sm  Sm3  1  0.317704  0.255680  0.180489  1
  Sm  Sm4  1  0.526989  0.700751  0.101179  1
  Sm  Sm5  1  0.473011  0.299249  0.898821  1
  Sm  Sm6  1  0.589982  0.036870  0.332350  1
  Sm  Sm7  1  0.410018  0.963130  0.667650  1
  Dy  Dy8  1  0.727745  0.075696  0.048582  1
  Dy  Dy9  1  0.272255  0.924304  0.951418  1
  B  B10  1  0.467087  0.820033  0.876461  1
  B  B11  1  0.532913  0.179967  0.123539  1
  Cl  Cl12  1  0.000000  0.000000  0.000000  1
  Cl  Cl13  1  0.635872  0.882893  0.585264  1
  Cl  Cl14  1  0.364128  0.117107  0.414736  1
  Cl  Cl15  1  0.882430  0.298536  0.525877  1
  Cl  Cl16  1  0.117570  0.701464  0.474123  1
  Cl  Cl17  1  0.289624  0.765766  0.174950  1
  Cl  Cl18  1  0.710376  0.234234  0.825050  1
  Cl  Cl19  1  0.048531  0.337211  0.222649  1
  Cl  Cl20  1  0.165727  0.054704  0.708881  1
  Cl  Cl21  1  0.834273  0.945296  0.291119  1
  Cl  Cl22  1  0.233739  0.410802  0.944495  1
  Cl  Cl23  1  0.766261  0.589198  0.055505  1
  Cl  Cl24  1  0.407501  0.465814  0.659027  1
  Cl  Cl25  1  0.592499  0.534186  0.340973  1
  Cl  Cl26  1  0.951469  0.662789  0.777351  1
