# generated using pymatgen
data_TbY11(OsRh)2
_symmetry_space_group_name_H-M   'P 1'
_cell_length_a   6.43984236
_cell_length_b   7.34625420
_cell_length_c   9.18072800
_cell_angle_alpha   90.00000000
_cell_angle_beta   90.00000000
_cell_angle_gamma   90.17500163
_symmetry_Int_Tables_number   1
_chemical_formula_structural   TbY11(OsRh)2
_chemical_formula_sum   'Tb1 Y11 Os2 Rh2'
_cell_volume   434.32645503
_cell_formula_units_Z   1
loop_
 _symmetry_equiv_pos_site_id
 _symmetry_equiv_pos_as_xyz
  1  'x, y, z'
loop_
 _atom_site_type_symbol
 _atom_site_label
 _atom_site_symmetry_multiplicity
 _atom_site_fract_x
 _atom_site_fract_y
 _atom_site_fract_z
 _atom_site_occupancy
  Tb  Tb0  1  0.633273  0.038648  0.250000  1
  Y  Y1  1  0.367695  0.962444  0.750000  1
  Y  Y2  1  0.126682  0.461447  0.750000  1
  Y  Y3  1  0.873154  0.538257  0.250000  1
  Y  Y4  1  0.175711  0.179001  0.065831  1
  Y  Y5  1  0.824026  0.820850  0.933908  1
  Y  Y6  1  0.667588  0.326989  0.938979  1
  Y  Y7  1  0.824026  0.820850  0.566092  1
  Y  Y8  1  0.332567  0.673068  0.061307  1
  Y  Y9  1  0.175711  0.179001  0.434169  1
  Y  Y10  1  0.332567  0.673068  0.438693  1
  Y  Y11  1  0.667588  0.326989  0.561021  1
  Os  Os12  1  0.466898  0.382636  0.250000  1
  Os  Os13  1  0.533771  0.616472  0.750000  1
  Rh  Rh14  1  0.955652  0.114486  0.750000  1
  Rh  Rh15  1  0.043089  0.885793  0.250000  1
