# generated using pymatgen
data_DyTm3(Lu2Co)4
_symmetry_space_group_name_H-M   'P 1'
_cell_length_a   6.10502529
_cell_length_b   6.84839339
_cell_length_c   9.13361300
_cell_angle_alpha   90.00000000
_cell_angle_beta   90.00000000
_cell_angle_gamma   89.96972692
_symmetry_Int_Tables_number   1
_chemical_formula_structural   DyTm3(Lu2Co)4
_chemical_formula_sum   'Dy1 Tm3 Lu8 Co4'
_cell_volume   381.87278837
_cell_formula_units_Z   1
loop_
 _symmetry_equiv_pos_site_id
 _symmetry_equiv_pos_as_xyz
  1  'x, y, z'
loop_
 _atom_site_type_symbol
 _atom_site_label
 _atom_site_symmetry_multiplicity
 _atom_site_fract_x
 _atom_site_fract_y
 _atom_site_fract_z
 _atom_site_occupancy
  Dy  Dy0  1  0.634789  0.042178  0.250000  1
  Tm  Tm1  1  0.136603  0.458738  0.750000  1
  Tm  Tm2  1  0.364274  0.957559  0.750000  1
  Tm  Tm3  1  0.865554  0.540825  0.250000  1
  Lu  Lu4  1  0.676007  0.326094  0.932885  1
  Lu  Lu5  1  0.174783  0.175117  0.434144  1
  Lu  Lu6  1  0.824483  0.824374  0.567080  1
  Lu  Lu7  1  0.174783  0.175117  0.065856  1
  Lu  Lu8  1  0.824483  0.824374  0.932920  1
  Lu  Lu9  1  0.676007  0.326094  0.567115  1
  Lu  Lu10  1  0.324189  0.674443  0.066700  1
  Lu  Lu11  1  0.324189  0.674443  0.433300  1
  Co  Co12  1  0.545217  0.613363  0.750000  1
  Co  Co13  1  0.954734  0.113338  0.750000  1
  Co  Co14  1  0.047039  0.886126  0.250000  1
  Co  Co15  1  0.452865  0.387818  0.250000  1
