# generated using pymatgen
data_YbThIr4
_symmetry_space_group_name_H-M   'P 1'
_cell_length_a   5.39309724
_cell_length_b   5.39309785
_cell_length_c   5.39309700
_cell_angle_alpha   59.99999910
_cell_angle_beta   59.99999536
_cell_angle_gamma   60.00000064
_symmetry_Int_Tables_number   1
_chemical_formula_structural   YbThIr4
_chemical_formula_sum   'Yb1 Th1 Ir4'
_cell_volume   110.91742255
_cell_formula_units_Z   1
loop_
 _symmetry_equiv_pos_site_id
 _symmetry_equiv_pos_as_xyz
  1  'x, y, z'
loop_
 _atom_site_type_symbol
 _atom_site_label
 _atom_site_symmetry_multiplicity
 _atom_site_fract_x
 _atom_site_fract_y
 _atom_site_fract_z
 _atom_site_occupancy
  Yb  Yb0  1  0.750000  0.750000  0.750000  1
  Th  Th1  1  0.500000  0.500000  0.500000  1
  Ir  Ir2  1  0.626416  0.124528  0.124528  1
  Ir  Ir3  1  0.124528  0.124528  0.124528  1
  Ir  Ir4  1  0.124528  0.124528  0.626416  1
  Ir  Ir5  1  0.124528  0.626416  0.124528  1
