# generated using pymatgen
data_RbPtF5
_symmetry_space_group_name_H-M   'P 1'
_cell_length_a   5.57508200
_cell_length_b   8.04033200
_cell_length_c   11.37399100
_cell_angle_alpha   90.00000000
_cell_angle_beta   90.00000000
_cell_angle_gamma   90.00000000
_symmetry_Int_Tables_number   1
_chemical_formula_structural   RbPtF5
_chemical_formula_sum   'Rb4 Pt4 F20'
_cell_volume   509.84494967
_cell_formula_units_Z   4
loop_
 _symmetry_equiv_pos_site_id
 _symmetry_equiv_pos_as_xyz
  1  'x, y, z'
loop_
 _atom_site_type_symbol
 _atom_site_label
 _atom_site_symmetry_multiplicity
 _atom_site_fract_x
 _atom_site_fract_y
 _atom_site_fract_z
 _atom_site_occupancy
  Rb  Rb0  1  0.500000  0.890152  0.964057  1
  Rb  Rb1  1  0.500000  0.109848  0.464057  1
  Rb  Rb2  1  0.000000  0.335248  0.113297  1
  Rb  Rb3  1  0.000000  0.664752  0.613297  1
  Pt  Pt4  1  0.000000  0.863928  0.241548  1
  Pt  Pt5  1  0.500000  0.573752  0.337594  1
  Pt  Pt6  1  0.500000  0.426248  0.837594  1
  Pt  Pt7  1  0.000000  0.136072  0.741548  1
  F  F8  1  0.257569  0.540904  0.928123  1
  F  F9  1  0.749843  0.679807  0.228755  1
  F  F10  1  0.242237  0.036413  0.240392  1
  F  F11  1  0.749843  0.320193  0.728755  1
  F  F12  1  0.500000  0.246988  0.955272  1
  F  F13  1  0.757763  0.963587  0.740392  1
  F  F14  1  0.500000  0.609680  0.722777  1
  F  F15  1  0.242237  0.963587  0.740392  1
  F  F16  1  0.000000  0.862510  0.068556  1
  F  F17  1  0.757763  0.036413  0.240392  1
  F  F18  1  0.500000  0.390320  0.222777  1
  F  F19  1  0.742431  0.459096  0.428123  1
  F  F20  1  0.250157  0.679807  0.228755  1
  F  F21  1  0.000000  0.867020  0.413870  1
  F  F22  1  0.000000  0.137490  0.568556  1
  F  F23  1  0.250157  0.320193  0.728755  1
  F  F24  1  0.000000  0.132980  0.913870  1
  F  F25  1  0.257569  0.459096  0.428123  1
  F  F26  1  0.500000  0.753012  0.455272  1
  F  F27  1  0.742431  0.540904  0.928123  1
