# generated using pymatgen
data_Gd4Hf3WF28
_symmetry_space_group_name_H-M   'P 1'
_cell_length_a   5.70781802
_cell_length_b   9.05740441
_cell_length_c   12.18100200
_cell_angle_alpha   62.42616926
_cell_angle_beta   89.99510140
_cell_angle_gamma   90.04140615
_symmetry_Int_Tables_number   1
_chemical_formula_structural   Gd4Hf3WF28
_chemical_formula_sum   'Gd4 Hf3 W1 F28'
_cell_volume   558.20519230
_cell_formula_units_Z   1
loop_
 _symmetry_equiv_pos_site_id
 _symmetry_equiv_pos_as_xyz
  1  'x, y, z'
loop_
 _atom_site_type_symbol
 _atom_site_label
 _atom_site_symmetry_multiplicity
 _atom_site_fract_x
 _atom_site_fract_y
 _atom_site_fract_z
 _atom_site_occupancy
  Gd  Gd0  1  0.255624  0.812891  0.266037  1
  Gd  Gd1  1  0.743697  0.186579  0.734226  1
  Gd  Gd2  1  0.757039  0.187376  0.234035  1
  Gd  Gd3  1  0.242621  0.813388  0.765456  1
  Hf  Hf4  1  0.754563  0.726412  0.043312  1
  Hf  Hf5  1  0.245243  0.274231  0.956071  1
  Hf  Hf6  1  0.255161  0.273974  0.456495  1
  W  W7  1  0.743736  0.726351  0.543881  1
  F  F8  1  0.952245  0.704877  0.418261  1
  F  F9  1  0.042286  0.291153  0.580076  1
  F  F10  1  0.457897  0.292269  0.079437  1
  F  F11  1  0.541717  0.708620  0.919965  1
  F  F12  1  0.480632  0.731480  0.143737  1
  F  F13  1  0.519778  0.269274  0.855880  1
  F  F14  1  0.980820  0.268845  0.356287  1
  F  F15  1  0.021867  0.732169  0.643435  1
  F  F16  1  0.958560  0.745455  0.170669  1
  F  F17  1  0.042496  0.254529  0.828417  1
  F  F18  1  0.458660  0.254568  0.328871  1
  F  F19  1  0.543850  0.745200  0.673564  1
  F  F20  1  0.769269  0.478695  0.141351  1
  F  F21  1  0.230396  0.521764  0.858063  1
  F  F22  1  0.268389  0.521286  0.358175  1
  F  F23  1  0.733225  0.478541  0.641438  1
  F  F24  1  0.953895  0.283038  0.046176  1
  F  F25  1  0.045763  0.717399  0.953293  1
  F  F26  1  0.453852  0.713771  0.452810  1
  F  F27  1  0.546143  0.283756  0.546357  1
  F  F28  1  0.741468  0.974961  0.447995  1
  F  F29  1  0.260663  0.026016  0.555264  1
  F  F30  1  0.239651  0.026326  0.055332  1
  F  F31  1  0.760307  0.974557  0.944537  1
  F  F32  1  0.580056  0.970086  0.233133  1
  F  F33  1  0.419790  0.030467  0.767245  1
  F  F34  1  0.079653  0.029993  0.268324  1
  F  F35  1  0.918987  0.969701  0.732396  1
