# generated using pymatgen
data_CaTb5DyCoI12
_symmetry_space_group_name_H-M   'P 1'
_cell_length_a   9.73935968
_cell_length_b   9.78711479
_cell_length_c   9.78335478
_cell_angle_alpha   106.80547632
_cell_angle_beta   106.95586470
_cell_angle_gamma   106.84113889
_symmetry_Int_Tables_number   1
_chemical_formula_structural   CaTb5DyCoI12
_chemical_formula_sum   'Ca1 Tb5 Dy1 Co1 I12'
_cell_volume   779.42701599
_cell_formula_units_Z   1
loop_
 _symmetry_equiv_pos_site_id
 _symmetry_equiv_pos_as_xyz
  1  'x, y, z'
loop_
 _atom_site_type_symbol
 _atom_site_label
 _atom_site_symmetry_multiplicity
 _atom_site_fract_x
 _atom_site_fract_y
 _atom_site_fract_z
 _atom_site_occupancy
  Ca  Ca0  1  0.499987  0.500020  0.500058  1
  Tb  Tb1  1  0.095720  0.296114  0.023783  1
  Tb  Tb2  1  0.282625  0.022085  0.091306  1
  Tb  Tb3  1  0.977002  0.903778  0.702967  1
  Tb  Tb4  1  0.904285  0.703889  0.976204  1
  Tb  Tb5  1  0.717441  0.978007  0.909078  1
  Dy  Dy6  1  0.022953  0.095765  0.295411  1
  Co  Co7  1  0.000085  0.000075  0.000091  1
  I  I8  1  0.148572  0.455816  0.378175  1
  I  I9  1  0.456429  0.376310  0.149985  1
  I  I10  1  0.377364  0.149366  0.455111  1
  I  I11  1  0.850879  0.543075  0.622000  1
  I  I12  1  0.543609  0.623713  0.850144  1
  I  I13  1  0.621572  0.850652  0.545010  1
  I  I14  1  0.679853  0.072209  0.223294  1
  I  I15  1  0.072603  0.224202  0.678284  1
  I  I16  1  0.226541  0.680524  0.073721  1
  I  I17  1  0.321372  0.928112  0.777655  1
  I  I18  1  0.927602  0.776791  0.321324  1
  I  I19  1  0.773505  0.319496  0.926401  1
