# generated using pymatgen
data_AcAg6NO11
_symmetry_space_group_name_H-M   'P 1'
_cell_length_a   7.22301808
_cell_length_b   7.22301802
_cell_length_c   7.22301797
_cell_angle_alpha   61.40850013
_cell_angle_beta   61.40850255
_cell_angle_gamma   61.40850023
_symmetry_Int_Tables_number   1
_chemical_formula_structural   AcAg6NO11
_chemical_formula_sum   'Ac1 Ag6 N1 O11'
_cell_volume   274.89585858
_cell_formula_units_Z   1
loop_
 _symmetry_equiv_pos_site_id
 _symmetry_equiv_pos_as_xyz
  1  'x, y, z'
loop_
 _atom_site_type_symbol
 _atom_site_label
 _atom_site_symmetry_multiplicity
 _atom_site_fract_x
 _atom_site_fract_y
 _atom_site_fract_z
 _atom_site_occupancy
  Ac  Ac0  1  0.999184  0.999184  0.999184  1
  Ag  Ag1  1  0.498647  0.000728  0.000728  1
  Ag  Ag2  1  0.500251  0.500251  0.000512  1
  Ag  Ag3  1  0.500251  0.000512  0.500251  1
  Ag  Ag4  1  0.000728  0.000728  0.498647  1
  Ag  Ag5  1  0.000512  0.500251  0.500251  1
  Ag  Ag6  1  0.000728  0.498647  0.000728  1
  N  N7  1  0.500121  0.500121  0.500121  1
  O  O8  1  0.567402  0.148893  0.148893  1
  O  O9  1  0.148893  0.567402  0.148893  1
  O  O10  1  0.145001  0.145001  0.145001  1
  O  O11  1  0.148893  0.148893  0.567402  1
  O  O12  1  0.599155  0.599155  0.301723  1
  O  O13  1  0.599155  0.301723  0.599155  1
  O  O14  1  0.301723  0.599155  0.599155  1
  O  O15  1  0.851995  0.851995  0.431021  1
  O  O16  1  0.851995  0.431021  0.851995  1
  O  O17  1  0.854343  0.854343  0.854343  1
  O  O18  1  0.431021  0.851995  0.851995  1
