# generated using pymatgen
data_Th2MnAl20FeRh2
_symmetry_space_group_name_H-M   'P 1'
_cell_length_a   6.84785613
_cell_length_b   6.83521682
_cell_length_c   9.14172849
_cell_angle_alpha   90.31645257
_cell_angle_beta   90.22810396
_cell_angle_gamma   97.56763626
_symmetry_Int_Tables_number   1
_chemical_formula_structural   Th2MnAl20FeRh2
_chemical_formula_sum   'Th2 Mn1 Al20 Fe1 Rh2'
_cell_volume   424.15489293
_cell_formula_units_Z   1
loop_
 _symmetry_equiv_pos_site_id
 _symmetry_equiv_pos_as_xyz
  1  'x, y, z'
loop_
 _atom_site_type_symbol
 _atom_site_label
 _atom_site_symmetry_multiplicity
 _atom_site_fract_x
 _atom_site_fract_y
 _atom_site_fract_z
 _atom_site_occupancy
  Th  Th0  1  0.875780  0.127801  0.750243  1
  Th  Th1  1  0.124220  0.872199  0.249757  1
  Mn  Mn2  1  0.000000  0.500000  0.000000  1
  Al  Al3  1  0.518724  0.775881  0.744429  1
  Al  Al4  1  0.481276  0.224119  0.255571  1
  Al  Al5  1  0.593628  0.862549  0.253570  1
  Al  Al6  1  0.778644  0.772165  0.002629  1
  Al  Al7  1  0.164295  0.843849  0.601566  1
  Al  Al8  1  0.221356  0.227835  0.997371  1
  Al  Al9  1  0.137642  0.406535  0.246944  1
  Al  Al10  1  0.626330  0.381625  0.950389  1
  Al  Al11  1  0.843647  0.163559  0.101276  1
  Al  Al12  1  0.381053  0.625969  0.449858  1
  Al  Al13  1  0.156353  0.836441  0.898724  1
  Al  Al14  1  0.224098  0.481505  0.755740  1
  Al  Al15  1  0.373670  0.618375  0.049611  1
  Al  Al16  1  0.835705  0.156151  0.398434  1
  Al  Al17  1  0.618947  0.374031  0.550142  1
  Al  Al18  1  0.406372  0.137451  0.746430  1
  Al  Al19  1  0.775902  0.518495  0.244260  1
  Al  Al20  1  0.771482  0.778130  0.502254  1
  Al  Al21  1  0.228518  0.221870  0.497746  1
  Al  Al22  1  0.862358  0.593465  0.753056  1
  Fe  Fe23  1  0.500000  0.000000  0.500000  1
  Rh  Rh24  1  0.000000  0.500000  0.500000  1
  Rh  Rh25  1  0.500000  0.000000  0.000000  1
