# generated using pymatgen
data_Sc8CuIr3Ru4
_symmetry_space_group_name_H-M   'P 1'
_cell_length_a   6.37750500
_cell_length_b   4.56698000
_cell_length_c   9.17398100
_cell_angle_alpha   90.00000000
_cell_angle_beta   90.00100274
_cell_angle_gamma   90.00000000
_symmetry_Int_Tables_number   1
_chemical_formula_structural   Sc8CuIr3Ru4
_chemical_formula_sum   'Sc8 Cu1 Ir3 Ru4'
_cell_volume   267.20079983
_cell_formula_units_Z   1
loop_
 _symmetry_equiv_pos_site_id
 _symmetry_equiv_pos_as_xyz
  1  'x, y, z'
loop_
 _atom_site_type_symbol
 _atom_site_label
 _atom_site_symmetry_multiplicity
 _atom_site_fract_x
 _atom_site_fract_y
 _atom_site_fract_z
 _atom_site_occupancy
  Sc  Sc0  1  0.003580  0.750000  0.125006  1
  Sc  Sc1  1  0.496231  0.750000  0.125026  1
  Sc  Sc2  1  0.001446  0.250000  0.377020  1
  Sc  Sc3  1  0.498397  0.250000  0.377019  1
  Sc  Sc4  1  0.500259  0.750000  0.624986  1
  Sc  Sc5  1  0.999946  0.750000  0.625002  1
  Sc  Sc6  1  0.498569  0.250000  0.872981  1
  Sc  Sc7  1  0.001638  0.250000  0.872996  1
  Cu  Cu8  1  0.749819  0.250000  0.124972  1
  Ir  Ir9  1  0.249929  0.750000  0.374347  1
  Ir  Ir10  1  0.750084  0.250000  0.624993  1
  Ir  Ir11  1  0.250090  0.750000  0.875674  1
  Ru  Ru12  1  0.249925  0.250000  0.124975  1
  Ru  Ru13  1  0.749919  0.750000  0.372583  1
  Ru  Ru14  1  0.250095  0.250000  0.624965  1
  Ru  Ru15  1  0.750073  0.750000  0.877452  1
