# generated using pymatgen
data_Tl(Rh2Pb3)2
_symmetry_space_group_name_H-M   'P 1'
_cell_length_a   7.22864298
_cell_length_b   7.22864389
_cell_length_c   7.22864242
_cell_angle_alpha   120.11278608
_cell_angle_beta   120.11279921
_cell_angle_gamma   89.80474928
_symmetry_Int_Tables_number   1
_chemical_formula_structural   Tl(Rh2Pb3)2
_chemical_formula_sum   'Tl1 Rh4 Pb6'
_cell_volume   266.63157026
_cell_formula_units_Z   1
loop_
 _symmetry_equiv_pos_site_id
 _symmetry_equiv_pos_as_xyz
  1  'x, y, z'
loop_
 _atom_site_type_symbol
 _atom_site_label
 _atom_site_symmetry_multiplicity
 _atom_site_fract_x
 _atom_site_fract_y
 _atom_site_fract_z
 _atom_site_occupancy
  Tl  Tl0  1  0.000000  0.000000  0.000000  1
  Rh  Rh1  1  0.746182  0.411170  0.000000  1
  Rh  Rh2  1  0.411170  0.746182  0.000000  1
  Rh  Rh3  1  0.588829  0.588829  0.335011  1
  Rh  Rh4  1  0.253818  0.253818  0.664989  1
  Pb  Pb5  1  0.460212  0.118174  0.000000  1
  Pb  Pb6  1  0.118174  0.460212  0.000000  1
  Pb  Pb7  1  0.881826  0.881826  0.342038  1
  Pb  Pb8  1  0.500000  0.000000  0.500000  1
  Pb  Pb9  1  0.000000  0.500000  0.500000  1
  Pb  Pb10  1  0.539788  0.539788  0.657962  1
