# generated using pymatgen
data_Sm4Lu4B24Mo3Ru
_symmetry_space_group_name_H-M   'P 1'
_cell_length_a   3.65853400
_cell_length_b   9.22111117
_cell_length_c   11.65390147
_cell_angle_alpha   89.94242788
_cell_angle_beta   90.00000000
_cell_angle_gamma   90.00000000
_symmetry_Int_Tables_number   1
_chemical_formula_structural   Sm4Lu4B24Mo3Ru
_chemical_formula_sum   'Sm4 Lu4 B24 Mo3 Ru1'
_cell_volume   393.15289304
_cell_formula_units_Z   1
loop_
 _symmetry_equiv_pos_site_id
 _symmetry_equiv_pos_as_xyz
  1  'x, y, z'
loop_
 _atom_site_type_symbol
 _atom_site_label
 _atom_site_symmetry_multiplicity
 _atom_site_fract_x
 _atom_site_fract_y
 _atom_site_fract_z
 _atom_site_occupancy
  Sm  Sm0  1  0.000000  0.321833  0.414256  1
  Sm  Sm1  1  0.000000  0.678172  0.585743  1
  Sm  Sm2  1  0.000000  0.821682  0.085164  1
  Sm  Sm3  1  0.000000  0.177289  0.914564  1
  Lu  Lu4  1  0.000000  0.943828  0.371717  1
  Lu  Lu5  1  0.000000  0.055049  0.630381  1
  Lu  Lu6  1  0.000000  0.444638  0.128393  1
  Lu  Lu7  1  0.000000  0.558255  0.870221  1
  B  B8  1  0.500000  0.552883  0.432573  1
  B  B9  1  0.500000  0.446604  0.567532  1
  B  B10  1  0.500000  0.052684  0.066627  1
  B  B11  1  0.500000  0.944171  0.930177  1
  B  B12  1  0.500000  0.753320  0.418865  1
  B  B13  1  0.500000  0.246658  0.581412  1
  B  B14  1  0.500000  0.253843  0.081211  1
  B  B15  1  0.500000  0.750007  0.916216  1
  B  B16  1  0.500000  0.795164  0.265456  1
  B  B17  1  0.500000  0.204257  0.735384  1
  B  B18  1  0.500000  0.294801  0.234590  1
  B  B19  1  0.500000  0.708636  0.765917  1
  B  B20  1  0.500000  0.630084  0.183360  1
  B  B21  1  0.500000  0.370579  0.817348  1
  B  B22  1  0.500000  0.129295  0.316246  1
  B  B23  1  0.500000  0.869911  0.685759  1
  B  B24  1  0.500000  0.980324  0.214187  1
  B  B25  1  0.500000  0.015215  0.786721  1
  B  B26  1  0.500000  0.480666  0.285574  1
  B  B27  1  0.500000  0.520127  0.714237  1
  B  B28  1  0.500000  0.598070  0.025845  1
  B  B29  1  0.500000  0.404018  0.972949  1
  B  B30  1  0.500000  0.096802  0.474078  1
  B  B31  1  0.500000  0.902861  0.527671  1
  Mo  Mo32  1  0.000000  0.640446  0.318998  1
  Mo  Mo33  1  0.000000  0.359113  0.682324  1
  Mo  Mo34  1  0.000000  0.139383  0.179757  1
  Ru  Ru35  1  0.000000  0.859332  0.818544  1
