# generated using pymatgen
data_Tb11Er5In3AgIr4
_symmetry_space_group_name_H-M   'P 1'
_cell_length_a   9.63772245
_cell_length_b   9.64401545
_cell_length_c   9.62670261
_cell_angle_alpha   60.02275610
_cell_angle_beta   60.00519120
_cell_angle_gamma   60.07916985
_symmetry_Int_Tables_number   1
_chemical_formula_structural   Tb11Er5In3AgIr4
_chemical_formula_sum   'Tb11 Er5 In3 Ag1 Ir4'
_cell_volume   633.20718146
_cell_formula_units_Z   1
loop_
 _symmetry_equiv_pos_site_id
 _symmetry_equiv_pos_as_xyz
  1  'x, y, z'
loop_
 _atom_site_type_symbol
 _atom_site_label
 _atom_site_symmetry_multiplicity
 _atom_site_fract_x
 _atom_site_fract_y
 _atom_site_fract_z
 _atom_site_occupancy
  Tb  Tb0  1  0.310077  0.312669  0.685151  1
  Tb  Tb1  1  0.098886  0.098993  0.100225  1
  Tb  Tb2  1  0.559630  0.559547  0.939823  1
  Tb  Tb3  1  0.099021  0.099973  0.701109  1
  Tb  Tb4  1  0.689695  0.310515  0.688217  1
  Tb  Tb5  1  0.689641  0.688504  0.309985  1
  Tb  Tb6  1  0.685506  0.312052  0.311333  1
  Tb  Tb7  1  0.308964  0.689284  0.689280  1
  Tb  Tb8  1  0.560840  0.938859  0.559718  1
  Tb  Tb9  1  0.701974  0.099143  0.099494  1
  Tb  Tb10  1  0.559396  0.940649  0.940788  1
  Er  Er11  1  0.099324  0.701995  0.100251  1
  Er  Er12  1  0.941514  0.939469  0.559302  1
  Er  Er13  1  0.941882  0.558761  0.940086  1
  Er  Er14  1  0.309610  0.686523  0.311444  1
  Er  Er15  1  0.939744  0.560704  0.559639  1
  In  In16  1  0.005758  0.333262  0.331368  1
  In  In17  1  0.332000  0.004943  0.332341  1
  In  In18  1  0.331181  0.332922  0.006008  1
  Ag  Ag19  1  0.332161  0.334688  0.332320  1
  Ir  Ir20  1  0.893417  0.889561  0.892104  1
  Ir  Ir21  1  0.893486  0.889036  0.326488  1
  Ir  Ir22  1  0.324629  0.890096  0.893235  1
  Ir  Ir23  1  0.891661  0.327850  0.890290  1
