# generated using pymatgen
data_YbSb12(OsRh)2
_symmetry_space_group_name_H-M   'P 1'
_cell_length_a   8.13620182
_cell_length_b   8.15726934
_cell_length_c   8.13620100
_cell_angle_alpha   109.46459872
_cell_angle_beta   109.37289523
_cell_angle_gamma   109.47131124
_symmetry_Int_Tables_number   1
_chemical_formula_structural   YbSb12(OsRh)2
_chemical_formula_sum   'Yb1 Sb12 Os2 Rh2'
_cell_volume   416.22362965
_cell_formula_units_Z   1
loop_
 _symmetry_equiv_pos_site_id
 _symmetry_equiv_pos_as_xyz
  1  'x, y, z'
loop_
 _atom_site_type_symbol
 _atom_site_label
 _atom_site_symmetry_multiplicity
 _atom_site_fract_x
 _atom_site_fract_y
 _atom_site_fract_z
 _atom_site_occupancy
  Yb  Yb0  1  0.000000  0.000000  0.000000  1
  Sb  Sb1  1  0.844769  0.660961  0.503807  1
  Sb  Sb2  1  0.155231  0.339039  0.496193  1
  Sb  Sb3  1  0.157154  0.660961  0.816194  1
  Sb  Sb4  1  0.842846  0.339039  0.183806  1
  Sb  Sb5  1  0.659241  0.503870  0.844630  1
  Sb  Sb6  1  0.340759  0.496130  0.155370  1
  Sb  Sb7  1  0.661139  0.818033  0.156892  1
  Sb  Sb8  1  0.338861  0.181967  0.843108  1
  Sb  Sb9  1  0.504014  0.844453  0.660448  1
  Sb  Sb10  1  0.495986  0.155547  0.339552  1
  Sb  Sb11  1  0.184004  0.844453  0.340439  1
  Sb  Sb12  1  0.815996  0.155547  0.659561  1
  Os  Os13  1  0.500000  0.000000  0.000000  1
  Os  Os14  1  0.000000  0.000000  0.500000  1
  Rh  Rh15  1  0.500000  0.500000  0.500000  1
  Rh  Rh16  1  0.000000  0.500000  0.000000  1
