# generated using pymatgen
data_Y3In3SnRh2
_symmetry_space_group_name_H-M   'P 1'
_cell_length_a   7.84832000
_cell_length_b   7.84832044
_cell_length_c   3.86986900
_cell_angle_alpha   90.00000000
_cell_angle_beta   90.00000000
_cell_angle_gamma   119.99999816
_symmetry_Int_Tables_number   1
_chemical_formula_structural   Y3In3SnRh2
_chemical_formula_sum   'Y3 In3 Sn1 Rh2'
_cell_volume   206.43357427
_cell_formula_units_Z   1
loop_
 _symmetry_equiv_pos_site_id
 _symmetry_equiv_pos_as_xyz
  1  'x, y, z'
loop_
 _atom_site_type_symbol
 _atom_site_label
 _atom_site_symmetry_multiplicity
 _atom_site_fract_x
 _atom_site_fract_y
 _atom_site_fract_z
 _atom_site_occupancy
  Y  Y0  1  0.972593  0.584021  0.500000  1
  Y  Y1  1  0.415979  0.388572  0.500000  1
  Y  Y2  1  0.611428  0.027407  0.500000  1
  In  In3  1  0.989162  0.247177  0.000000  1
  In  In4  1  0.258015  0.010838  0.000000  1
  In  In5  1  0.752823  0.741985  0.000000  1
  Sn  Sn6  1  0.333333  0.666667  0.000000  1
  Rh  Rh7  1  0.000000  0.000000  0.500000  1
  Rh  Rh8  1  0.666667  0.333333  0.000000  1
