# generated using pymatgen
data_Zr10AgBi7
_symmetry_space_group_name_H-M   'P 1'
_cell_length_a   9.00280700
_cell_length_b   9.00280762
_cell_length_c   6.01832400
_cell_angle_alpha   90.00000000
_cell_angle_beta   90.00000000
_cell_angle_gamma   120.00000138
_symmetry_Int_Tables_number   1
_chemical_formula_structural   Zr10AgBi7
_chemical_formula_sum   'Zr10 Ag1 Bi7'
_cell_volume   422.43714635
_cell_formula_units_Z   1
loop_
 _symmetry_equiv_pos_site_id
 _symmetry_equiv_pos_as_xyz
  1  'x, y, z'
loop_
 _atom_site_type_symbol
 _atom_site_label
 _atom_site_symmetry_multiplicity
 _atom_site_fract_x
 _atom_site_fract_y
 _atom_site_fract_z
 _atom_site_occupancy
  Zr  Zr0  1  0.280759  0.280759  0.740673  1
  Zr  Zr1  1  0.719241  0.719241  0.259327  1
  Zr  Zr2  1  0.719241  0.000000  0.740673  1
  Zr  Zr3  1  0.000000  0.280759  0.259327  1
  Zr  Zr4  1  0.333333  0.666667  0.500000  1
  Zr  Zr5  1  0.666667  0.333333  0.500000  1
  Zr  Zr6  1  0.000000  0.719241  0.740673  1
  Zr  Zr7  1  0.333333  0.666667  0.000000  1
  Zr  Zr8  1  0.280759  0.000000  0.259327  1
  Zr  Zr9  1  0.666667  0.333333  0.000000  1
  Ag  Ag10  1  0.000000  0.000000  0.500000  1
  Bi  Bi11  1  0.616188  0.616188  0.752354  1
  Bi  Bi12  1  0.383812  0.000000  0.752354  1
  Bi  Bi13  1  0.000000  0.000000  0.000000  1
  Bi  Bi14  1  0.616188  0.000000  0.247646  1
  Bi  Bi15  1  0.383812  0.383812  0.247646  1
  Bi  Bi16  1  0.000000  0.383812  0.752354  1
  Bi  Bi17  1  0.000000  0.616188  0.247646  1
