# generated using pymatgen
data_Tm2Zr3P12Ru19
_symmetry_space_group_name_H-M   'P 1'
_cell_length_a   12.45852401
_cell_length_b   12.45852362
_cell_length_c   3.94314200
_cell_angle_alpha   90.00000000
_cell_angle_beta   90.00000000
_cell_angle_gamma   119.99044067
_symmetry_Int_Tables_number   1
_chemical_formula_structural   Tm2Zr3P12Ru19
_chemical_formula_sum   'Tm2 Zr3 P12 Ru19'
_cell_volume   530.08809205
_cell_formula_units_Z   1
loop_
 _symmetry_equiv_pos_site_id
 _symmetry_equiv_pos_as_xyz
  1  'x, y, z'
loop_
 _atom_site_type_symbol
 _atom_site_label
 _atom_site_symmetry_multiplicity
 _atom_site_fract_x
 _atom_site_fract_y
 _atom_site_fract_z
 _atom_site_occupancy
  Tm  Tm0  1  0.813769  0.000258  0.500000  1
  Tm  Tm1  1  0.000258  0.813769  0.500000  1
  Zr  Zr2  1  0.187490  0.187490  0.500000  1
  Zr  Zr3  1  0.332077  0.664972  0.000000  1
  Zr  Zr4  1  0.664972  0.332077  0.000000  1
  P  P5  1  0.816999  0.816999  0.000000  1
  P  P6  1  0.183191  0.000519  0.000000  1
  P  P7  1  0.000519  0.183191  0.000000  1
  P  P8  1  0.173356  0.479332  0.500000  1
  P  P9  1  0.520519  0.694353  0.500000  1
  P  P10  1  0.305345  0.826937  0.500000  1
  P  P11  1  0.694353  0.520519  0.500000  1
  P  P12  1  0.826937  0.305345  0.500000  1
  P  P13  1  0.479332  0.173356  0.500000  1
  P  P14  1  0.370238  0.370238  0.000000  1
  P  P15  1  0.628752  0.000080  0.000000  1
  P  P16  1  0.000080  0.628752  0.000000  1
  Ru  Ru17  1  0.553519  0.553519  0.000000  1
  Ru  Ru18  1  0.446171  0.002342  0.000000  1
  Ru  Ru19  1  0.002342  0.446171  0.000000  1
  Ru  Ru20  1  0.717834  0.717834  0.500000  1
  Ru  Ru21  1  0.282311  0.002047  0.500000  1
  Ru  Ru22  1  0.002047  0.282311  0.500000  1
  Ru  Ru23  1  0.185381  0.374087  0.000000  1
  Ru  Ru24  1  0.621254  0.806987  0.000000  1
  Ru  Ru25  1  0.193033  0.815252  0.000000  1
  Ru  Ru26  1  0.806987  0.621254  0.000000  1
  Ru  Ru27  1  0.815252  0.193033  0.000000  1
  Ru  Ru28  1  0.374087  0.185381  0.000000  1
  Ru  Ru29  1  0.366027  0.494424  0.500000  1
  Ru  Ru30  1  0.504471  0.872238  0.500000  1
  Ru  Ru31  1  0.128415  0.633604  0.500000  1
  Ru  Ru32  1  0.872238  0.504471  0.500000  1
  Ru  Ru33  1  0.633604  0.128415  0.500000  1
  Ru  Ru34  1  0.494424  0.366027  0.500000  1
  Ru  Ru35  1  0.002413  0.002413  0.000000  1
