# generated using pymatgen
data_Sr2Lu2HgPb11
_symmetry_space_group_name_H-M   'P 1'
_cell_length_a   10.03494400
_cell_length_b   6.93202068
_cell_length_c   6.93580464
_cell_angle_alpha   89.32010240
_cell_angle_beta   90.00000000
_cell_angle_gamma   90.00000000
_symmetry_Int_Tables_number   1
_chemical_formula_structural   Sr2Lu2HgPb11
_chemical_formula_sum   'Sr2 Lu2 Hg1 Pb11'
_cell_volume   482.43752046
_cell_formula_units_Z   1
loop_
 _symmetry_equiv_pos_site_id
 _symmetry_equiv_pos_as_xyz
  1  'x, y, z'
loop_
 _atom_site_type_symbol
 _atom_site_label
 _atom_site_symmetry_multiplicity
 _atom_site_fract_x
 _atom_site_fract_y
 _atom_site_fract_z
 _atom_site_occupancy
  Sr  Sr0  1  0.750000  0.996181  0.999174  1
  Sr  Sr1  1  0.750000  0.508287  0.498278  1
  Lu  Lu2  1  0.250000  0.006991  0.003619  1
  Lu  Lu3  1  0.250000  0.500317  0.505318  1
  Hg  Hg4  1  0.750000  0.494425  0.997230  1
  Pb  Pb5  1  0.009964  0.242991  0.742180  1
  Pb  Pb6  1  0.490731  0.251848  0.248976  1
  Pb  Pb7  1  0.489357  0.751061  0.249664  1
  Pb  Pb8  1  0.010045  0.745594  0.754533  1
  Pb  Pb9  1  0.010643  0.751061  0.249664  1
  Pb  Pb10  1  0.489955  0.745594  0.754533  1
  Pb  Pb11  1  0.490036  0.242991  0.742180  1
  Pb  Pb12  1  0.009269  0.251848  0.248976  1
  Pb  Pb13  1  0.250000  0.997713  0.502476  1
  Pb  Pb14  1  0.250000  0.506141  0.004386  1
  Pb  Pb15  1  0.750000  0.006955  0.498811  1
