# generated using pymatgen
data_Pr4Pu(BiO6)2
_symmetry_space_group_name_H-M   'P 1'
_cell_length_a   6.76886813
_cell_length_b   6.88439133
_cell_length_c   6.99949000
_cell_angle_alpha   99.95764651
_cell_angle_beta   100.01815683
_cell_angle_gamma   97.55526326
_symmetry_Int_Tables_number   1
_chemical_formula_structural   Pr4Pu(BiO6)2
_chemical_formula_sum   'Pr4 Pu1 Bi2 O12'
_cell_volume   311.94120434
_cell_formula_units_Z   1
loop_
 _symmetry_equiv_pos_site_id
 _symmetry_equiv_pos_as_xyz
  1  'x, y, z'
loop_
 _atom_site_type_symbol
 _atom_site_label
 _atom_site_symmetry_multiplicity
 _atom_site_fract_x
 _atom_site_fract_y
 _atom_site_fract_z
 _atom_site_occupancy
  Pr  Pr0  1  0.298305  0.609928  0.138862  1
  Pr  Pr1  1  0.611794  0.140590  0.307131  1
  Pr  Pr2  1  0.388206  0.859410  0.692869  1
  Pr  Pr3  1  0.701695  0.390072  0.861138  1
  Pu  Pu4  1  0.000000  0.000000  0.000000  1
  Bi  Bi5  1  0.836965  0.671023  0.395800  1
  Bi  Bi6  1  0.163035  0.328977  0.604200  1
  O  O7  1  0.437412  0.179393  0.585278  1
  O  O8  1  0.937346  0.703161  0.033438  1
  O  O9  1  0.189647  0.568970  0.435505  1
  O  O10  1  0.810353  0.431030  0.564495  1
  O  O11  1  0.562588  0.820607  0.414722  1
  O  O12  1  0.596152  0.437454  0.175724  1
  O  O13  1  0.403848  0.562546  0.824276  1
  O  O14  1  0.963928  0.084791  0.282934  1
  O  O15  1  0.036072  0.915209  0.717066  1
  O  O16  1  0.692194  0.043834  0.926998  1
  O  O17  1  0.062654  0.296839  0.966562  1
  O  O18  1  0.307806  0.956166  0.073002  1
