# generated using pymatgen
data_Te12AsPtI6
_symmetry_space_group_name_H-M   'P 1'
_cell_length_a   10.08495025
_cell_length_b   10.08494972
_cell_length_c   10.08495077
_cell_angle_alpha   109.73362685
_cell_angle_beta   109.73362754
_cell_angle_gamma   109.73361681
_symmetry_Int_Tables_number   1
_chemical_formula_structural   Te12AsPtI6
_chemical_formula_sum   'Te12 As1 Pt1 I6'
_cell_volume   781.82085338
_cell_formula_units_Z   1
loop_
 _symmetry_equiv_pos_site_id
 _symmetry_equiv_pos_as_xyz
  1  'x, y, z'
loop_
 _atom_site_type_symbol
 _atom_site_label
 _atom_site_symmetry_multiplicity
 _atom_site_fract_x
 _atom_site_fract_y
 _atom_site_fract_z
 _atom_site_occupancy
  Te  Te0  1  0.914762  0.157545  0.181664  1
  Te  Te1  1  0.181664  0.914762  0.157545  1
  Te  Te2  1  0.157545  0.181664  0.914762  1
  Te  Te3  1  0.680980  0.660621  0.435003  1
  Te  Te4  1  0.435003  0.680980  0.660621  1
  Te  Te5  1  0.660621  0.435003  0.680980  1
  Te  Te6  1  0.064997  0.839379  0.819020  1
  Te  Te7  1  0.819020  0.064997  0.839379  1
  Te  Te8  1  0.839379  0.819020  0.064997  1
  Te  Te9  1  0.318336  0.342455  0.585238  1
  Te  Te10  1  0.585238  0.318336  0.342455  1
  Te  Te11  1  0.342455  0.585238  0.318336  1
  As  As12  1  0.250000  0.250000  0.250000  1
  Pt  Pt13  1  0.750000  0.750000  0.750000  1
  I  I14  1  0.986976  0.513024  0.250000  1
  I  I15  1  0.250000  0.986976  0.513024  1
  I  I16  1  0.513024  0.250000  0.986976  1
  I  I17  1  0.750000  0.009545  0.490455  1
  I  I18  1  0.490455  0.750000  0.009545  1
  I  I19  1  0.009545  0.490455  0.750000  1
