# generated using pymatgen
data_Ac2InNi2
_symmetry_space_group_name_H-M   'P 1'
_cell_length_a   7.86143357
_cell_length_b   7.86143403
_cell_length_c   4.09000100
_cell_angle_alpha   90.00000000
_cell_angle_beta   90.00000000
_cell_angle_gamma   149.38549521
_symmetry_Int_Tables_number   1
_chemical_formula_structural   Ac2InNi2
_chemical_formula_sum   'Ac2 In1 Ni2'
_cell_volume   128.72589135
_cell_formula_units_Z   1
loop_
 _symmetry_equiv_pos_site_id
 _symmetry_equiv_pos_as_xyz
  1  'x, y, z'
loop_
 _atom_site_type_symbol
 _atom_site_label
 _atom_site_symmetry_multiplicity
 _atom_site_fract_x
 _atom_site_fract_y
 _atom_site_fract_z
 _atom_site_occupancy
  Ac  Ac0  1  0.362127  0.637873  0.500000  1
  Ac  Ac1  1  0.637873  0.362127  0.500000  1
  In  In2  1  0.000000  0.000000  0.000000  1
  Ni  Ni3  1  0.201517  0.798483  0.000000  1
  Ni  Ni4  1  0.798483  0.201517  0.000000  1
