# generated using pymatgen
data_Ho7Zr(Ta3Si4)4
_symmetry_space_group_name_H-M   'P 1'
_cell_length_a   7.00281585
_cell_length_b   7.00506685
_cell_length_c   12.94782369
_cell_angle_alpha   89.98159401
_cell_angle_beta   90.12371168
_cell_angle_gamma   90.05327323
_symmetry_Int_Tables_number   1
_chemical_formula_structural   Ho7Zr(Ta3Si4)4
_chemical_formula_sum   'Ho7 Zr1 Ta12 Si16'
_cell_volume   635.15620432
_cell_formula_units_Z   1
loop_
 _symmetry_equiv_pos_site_id
 _symmetry_equiv_pos_as_xyz
  1  'x, y, z'
loop_
 _atom_site_type_symbol
 _atom_site_label
 _atom_site_symmetry_multiplicity
 _atom_site_fract_x
 _atom_site_fract_y
 _atom_site_fract_z
 _atom_site_occupancy
  Ho  Ho0  1  0.998663  0.659875  0.031641  1
  Ho  Ho1  1  0.002899  0.338933  0.530644  1
  Ho  Ho2  1  0.660093  0.998495  0.968547  1
  Ho  Ho3  1  0.159754  0.501446  0.780479  1
  Ho  Ho4  1  0.840579  0.498629  0.282618  1
  Ho  Ho5  1  0.501640  0.159849  0.219744  1
  Ho  Ho6  1  0.498553  0.840668  0.718456  1
  Zr  Zr7  1  0.344638  0.995098  0.467843  1
  Ta  Ta8  1  0.345336  0.507343  0.377278  1
  Ta  Ta9  1  0.846523  0.995013  0.374971  1
  Ta  Ta10  1  0.008720  0.154046  0.126986  1
  Ta  Ta11  1  0.993692  0.848858  0.624661  1
  Ta  Ta12  1  0.652823  0.493349  0.875722  1
  Ta  Ta13  1  0.504116  0.345553  0.622670  1
  Ta  Ta14  1  0.493362  0.653714  0.124680  1
  Ta  Ta15  1  0.154408  0.007509  0.873535  1
  Ta  Ta16  1  0.667490  0.672467  0.499792  1
  Ta  Ta17  1  0.828473  0.170481  0.748505  1
  Ta  Ta18  1  0.171968  0.829931  0.251144  1
  Ta  Ta19  1  0.329147  0.328974  0.999997  1
  Si  Si20  1  0.045206  0.706846  0.436654  1
  Si  Si21  1  0.956015  0.295239  0.935997  1
  Si  Si22  1  0.701260  0.044336  0.562874  1
  Si  Si23  1  0.204820  0.455684  0.187300  1
  Si  Si24  1  0.794228  0.544351  0.685662  1
  Si  Si25  1  0.455865  0.204458  0.813040  1
  Si  Si26  1  0.543570  0.796031  0.314626  1
  Si  Si27  1  0.295795  0.956220  0.063789  1
  Si  Si28  1  0.866520  0.796025  0.817920  1
  Si  Si29  1  0.136943  0.201774  0.321800  1
  Si  Si30  1  0.796005  0.866777  0.182188  1
  Si  Si31  1  0.294597  0.636817  0.568187  1
  Si  Si32  1  0.704257  0.366066  0.068490  1
  Si  Si33  1  0.630548  0.291944  0.430739  1
  Si  Si34  1  0.365824  0.703717  0.931681  1
  Si  Si35  1  0.205666  0.133483  0.679142  1
