# generated using pymatgen
data_Cs6AlTe4Br
_symmetry_space_group_name_H-M   'P 1'
_cell_length_a   11.81649800
_cell_length_b   11.81650119
_cell_length_c   8.97260400
_cell_angle_alpha   90.00000000
_cell_angle_beta   90.00000000
_cell_angle_gamma   120.00025422
_symmetry_Int_Tables_number   1
_chemical_formula_structural   Cs6AlTe4Br
_chemical_formula_sum   'Cs12 Al2 Te8 Br2'
_cell_volume   1084.98993365
_cell_formula_units_Z   2
loop_
 _symmetry_equiv_pos_site_id
 _symmetry_equiv_pos_as_xyz
  1  'x, y, z'
loop_
 _atom_site_type_symbol
 _atom_site_label
 _atom_site_symmetry_multiplicity
 _atom_site_fract_x
 _atom_site_fract_y
 _atom_site_fract_z
 _atom_site_occupancy
  Cs  Cs0  1  0.136132  0.863868  0.515485  1
  Cs  Cs1  1  0.727735  0.863869  0.515487  1
  Cs  Cs2  1  0.948967  0.474484  0.318620  1
  Cs  Cs3  1  0.525516  0.474483  0.318620  1
  Cs  Cs4  1  0.863868  0.727734  0.015485  1
  Cs  Cs5  1  0.272267  0.136133  0.015490  1
  Cs  Cs6  1  0.525516  0.051032  0.318618  1
  Cs  Cs7  1  0.136131  0.272265  0.515489  1
  Cs  Cs8  1  0.863866  0.136133  0.015489  1
  Cs  Cs9  1  0.051032  0.525516  0.818618  1
  Cs  Cs10  1  0.474485  0.948968  0.818620  1
  Cs  Cs11  1  0.474484  0.525516  0.818618  1
  Al  Al12  1  0.666667  0.333332  0.708951  1
  Al  Al13  1  0.333333  0.666667  0.208951  1
  Te  Te14  1  0.419812  0.209906  0.615811  1
  Te  Te15  1  0.580188  0.790094  0.115811  1
  Te  Te16  1  0.666667  0.333333  0.009195  1
  Te  Te17  1  0.790094  0.580187  0.615812  1
  Te  Te18  1  0.209906  0.419813  0.115812  1
  Te  Te19  1  0.333333  0.666667  0.509195  1
  Te  Te20  1  0.209907  0.790093  0.115812  1
  Te  Te21  1  0.790093  0.209907  0.615812  1
  Br  Br22  1  0.000001  0.000000  0.272700  1
  Br  Br23  1  0.999999  0.000000  0.772698  1
