# generated using pymatgen
data_Y3HfMg2Rh3
_symmetry_space_group_name_H-M   'P 1'
_cell_length_a   7.24919800
_cell_length_b   7.35527383
_cell_length_c   4.18324700
_cell_angle_alpha   90.00000000
_cell_angle_beta   90.00000000
_cell_angle_gamma   119.52405957
_symmetry_Int_Tables_number   1
_chemical_formula_structural   Y3HfMg2Rh3
_chemical_formula_sum   'Y3 Hf1 Mg2 Rh3'
_cell_volume   194.08673854
_cell_formula_units_Z   1
loop_
 _symmetry_equiv_pos_site_id
 _symmetry_equiv_pos_as_xyz
  1  'x, y, z'
loop_
 _atom_site_type_symbol
 _atom_site_label
 _atom_site_symmetry_multiplicity
 _atom_site_fract_x
 _atom_site_fract_y
 _atom_site_fract_z
 _atom_site_occupancy
  Y  Y0  1  0.991232  0.577832  0.500000  1
  Y  Y1  1  0.413400  0.422168  0.500000  1
  Y  Y2  1  0.600933  0.000000  0.500000  1
  Hf  Hf3  1  0.248358  0.000000  0.000000  1
  Mg  Mg4  1  0.753721  0.753132  0.000000  1
  Mg  Mg5  1  0.000589  0.246868  0.000000  1
  Rh  Rh6  1  0.642152  0.317199  0.000000  1
  Rh  Rh7  1  0.324952  0.682801  0.000000  1
  Rh  Rh8  1  0.024663  0.000000  0.500000  1
