# generated using pymatgen
data_Li4CaDy3Si8
_symmetry_space_group_name_H-M   'P 1'
_cell_length_a   3.78788800
_cell_length_b   7.72574092
_cell_length_c   10.23903070
_cell_angle_alpha   89.57551959
_cell_angle_beta   90.00000000
_cell_angle_gamma   90.00000000
_symmetry_Int_Tables_number   1
_chemical_formula_structural   Li4CaDy3Si8
_chemical_formula_sum   'Li4 Ca1 Dy3 Si8'
_cell_volume   299.62924229
_cell_formula_units_Z   1
loop_
 _symmetry_equiv_pos_site_id
 _symmetry_equiv_pos_as_xyz
  1  'x, y, z'
loop_
 _atom_site_type_symbol
 _atom_site_label
 _atom_site_symmetry_multiplicity
 _atom_site_fract_x
 _atom_site_fract_y
 _atom_site_fract_z
 _atom_site_occupancy
  Li  Li0  1  0.250000  0.997090  0.393268  1
  Li  Li1  1  0.750000  0.011479  0.609082  1
  Li  Li2  1  0.250000  0.487739  0.110067  1
  Li  Li3  1  0.750000  0.509971  0.893453  1
  Ca  Ca4  1  0.750000  0.362521  0.364259  1
  Dy  Dy5  1  0.250000  0.130255  0.863192  1
  Dy  Dy6  1  0.750000  0.865703  0.133145  1
  Dy  Dy7  1  0.250000  0.633755  0.635305  1
  Si  Si8  1  0.750000  0.260533  0.062102  1
  Si  Si9  1  0.250000  0.733294  0.932929  1
  Si  Si10  1  0.750000  0.773620  0.432895  1
  Si  Si11  1  0.250000  0.236571  0.572478  1
  Si  Si12  1  0.750000  0.838217  0.817410  1
  Si  Si13  1  0.250000  0.153187  0.173648  1
  Si  Si14  1  0.750000  0.341088  0.685265  1
  Si  Si15  1  0.250000  0.664978  0.321504  1
