# generated using pymatgen
data_HoEr2PdRh2Pb3
_symmetry_space_group_name_H-M   'P 1'
_cell_length_a   7.89729824
_cell_length_b   7.89241905
_cell_length_c   3.69903100
_cell_angle_alpha   90.00000000
_cell_angle_beta   90.00000000
_cell_angle_gamma   120.04873435
_symmetry_Int_Tables_number   1
_chemical_formula_structural   HoEr2PdRh2Pb3
_chemical_formula_sum   'Ho1 Er2 Pd1 Rh2 Pb3'
_cell_volume   199.56932826
_cell_formula_units_Z   1
loop_
 _symmetry_equiv_pos_site_id
 _symmetry_equiv_pos_as_xyz
  1  'x, y, z'
loop_
 _atom_site_type_symbol
 _atom_site_label
 _atom_site_symmetry_multiplicity
 _atom_site_fract_x
 _atom_site_fract_y
 _atom_site_fract_z
 _atom_site_occupancy
  Ho  Ho0  1  0.404243  0.390572  0.500000  1
  Er  Er1  1  0.609791  0.014149  0.500000  1
  Er  Er2  1  0.985845  0.595857  0.500000  1
  Pd  Pd3  1  0.333560  0.666254  0.000000  1
  Rh  Rh4  1  0.667475  0.333213  0.000000  1
  Rh  Rh5  1  0.999536  0.999787  0.500000  1
  Pb  Pb6  1  0.728400  0.733036  0.000000  1
  Pb  Pb7  1  0.267026  0.995013  0.000000  1
  Pb  Pb8  1  0.004123  0.272119  0.000000  1
