# generated using pymatgen
data_Rh2SeS3
_symmetry_space_group_name_H-M   'P 1'
_cell_length_a   3.62535900
_cell_length_b   5.70570400
_cell_length_c   20.43003500
_cell_angle_alpha   90.00000000
_cell_angle_beta   90.00000000
_cell_angle_gamma   90.00000000
_symmetry_Int_Tables_number   1
_chemical_formula_structural   Rh2SeS3
_chemical_formula_sum   'Rh8 Se4 S12'
_cell_volume   422.59987784
_cell_formula_units_Z   4
loop_
 _symmetry_equiv_pos_site_id
 _symmetry_equiv_pos_as_xyz
  1  'x, y, z'
loop_
 _atom_site_type_symbol
 _atom_site_label
 _atom_site_symmetry_multiplicity
 _atom_site_fract_x
 _atom_site_fract_y
 _atom_site_fract_z
 _atom_site_occupancy
  Rh  Rh0  1  0.250000  0.077609  0.580798  1
  Rh  Rh1  1  0.250000  0.422391  0.080798  1
  Rh  Rh2  1  0.750000  0.922391  0.419202  1
  Rh  Rh3  1  0.750000  0.577609  0.919202  1
  Rh  Rh4  1  0.250000  0.053387  0.802602  1
  Rh  Rh5  1  0.250000  0.446613  0.302602  1
  Rh  Rh6  1  0.750000  0.946613  0.197398  1
  Rh  Rh7  1  0.750000  0.553387  0.697398  1
  Se  Se8  1  0.750000  0.234138  0.507319  1
  Se  Se9  1  0.750000  0.265862  0.007319  1
  Se  Se10  1  0.250000  0.765862  0.492681  1
  Se  Se11  1  0.250000  0.734138  0.992681  1
  S  S12  1  0.250000  0.439127  0.853873  1
  S  S13  1  0.250000  0.060873  0.353873  1
  S  S14  1  0.750000  0.560873  0.146127  1
  S  S15  1  0.750000  0.939127  0.646127  1
  S  S16  1  0.750000  0.168067  0.734550  1
  S  S17  1  0.750000  0.331933  0.234550  1
  S  S18  1  0.250000  0.831933  0.265450  1
  S  S19  1  0.250000  0.668067  0.765450  1
  S  S20  1  0.750000  0.955749  0.873933  1
  S  S21  1  0.750000  0.544251  0.373933  1
  S  S22  1  0.250000  0.044251  0.126067  1
  S  S23  1  0.250000  0.455749  0.626067  1
