# generated using pymatgen
data_Li4Dy4Co3H22
_symmetry_space_group_name_H-M   'P 1'
_cell_length_a   6.28755000
_cell_length_b   6.28755000
_cell_length_c   6.28755000
_cell_angle_alpha   90.00000000
_cell_angle_beta   90.00000000
_cell_angle_gamma   90.00000000
_symmetry_Int_Tables_number   1
_chemical_formula_structural   Li4Dy4Co3H22
_chemical_formula_sum   'Li4 Dy4 Co3 H22'
_cell_volume   248.56750612
_cell_formula_units_Z   1
loop_
 _symmetry_equiv_pos_site_id
 _symmetry_equiv_pos_as_xyz
  1  'x, y, z'
loop_
 _atom_site_type_symbol
 _atom_site_label
 _atom_site_symmetry_multiplicity
 _atom_site_fract_x
 _atom_site_fract_y
 _atom_site_fract_z
 _atom_site_occupancy
  Li  Li0  1  0.788244  0.788244  0.211756  1
  Li  Li1  1  0.788244  0.211756  0.788244  1
  Li  Li2  1  0.211756  0.788244  0.788244  1
  Li  Li3  1  0.211756  0.211756  0.211756  1
  Dy  Dy4  1  0.289255  0.289255  0.710745  1
  Dy  Dy5  1  0.289255  0.710745  0.289255  1
  Dy  Dy6  1  0.710745  0.289255  0.289255  1
  Dy  Dy7  1  0.710745  0.710745  0.710745  1
  Co  Co8  1  0.000000  0.000000  0.500000  1
  Co  Co9  1  0.000000  0.500000  0.000000  1
  Co  Co10  1  0.500000  0.000000  0.000000  1
  H  H11  1  0.000000  0.500000  0.250063  1
  H  H12  1  0.500000  0.749937  0.000000  1
  H  H13  1  0.749937  0.000000  0.500000  1
  H  H14  1  0.000000  0.749937  0.500000  1
  H  H15  1  0.500000  0.000000  0.250063  1
  H  H16  1  0.749937  0.500000  0.000000  1
  H  H17  1  0.000000  0.500000  0.749937  1
  H  H18  1  0.500000  0.250063  0.000000  1
  H  H19  1  0.000000  0.250063  0.500000  1
  H  H20  1  0.500000  0.000000  0.749937  1
  H  H21  1  0.250063  0.000000  0.500000  1
  H  H22  1  0.250063  0.500000  0.000000  1
  H  H23  1  0.000000  0.000000  0.254641  1
  H  H24  1  0.000000  0.745359  0.000000  1
  H  H25  1  0.745359  0.000000  0.000000  1
  H  H26  1  0.000000  0.000000  0.745359  1
  H  H27  1  0.000000  0.254641  0.000000  1
  H  H28  1  0.254641  0.000000  0.000000  1
  H  H29  1  0.626516  0.626516  0.373484  1
  H  H30  1  0.626516  0.373484  0.626516  1
  H  H31  1  0.373484  0.626516  0.626516  1
  H  H32  1  0.373484  0.373484  0.373484  1
