# generated using pymatgen
data_AcIn4Ir
_symmetry_space_group_name_H-M   'P 1'
_cell_length_a   9.06539363
_cell_length_b   9.06539426
_cell_length_c   7.40800000
_cell_angle_alpha   90.00000000
_cell_angle_beta   90.00000000
_cell_angle_gamma   149.72513328
_symmetry_Int_Tables_number   1
_chemical_formula_structural   AcIn4Ir
_chemical_formula_sum   'Ac2 In8 Ir2'
_cell_volume   306.92559648
_cell_formula_units_Z   2
loop_
 _symmetry_equiv_pos_site_id
 _symmetry_equiv_pos_as_xyz
  1  'x, y, z'
loop_
 _atom_site_type_symbol
 _atom_site_label
 _atom_site_symmetry_multiplicity
 _atom_site_fract_x
 _atom_site_fract_y
 _atom_site_fract_z
 _atom_site_occupancy
  Ac  Ac0  1  0.624767  0.375233  0.750000  1
  Ac  Ac1  1  0.375233  0.624767  0.250000  1
  In  In2  1  0.812940  0.187060  0.946495  1
  In  In3  1  0.187060  0.812940  0.053505  1
  In  In4  1  0.812940  0.187060  0.553505  1
  In  In5  1  0.187060  0.812940  0.446495  1
  In  In6  1  0.427312  0.572688  0.750000  1
  In  In7  1  0.572688  0.427312  0.250000  1
  In  In8  1  0.000000  0.000000  0.000000  1
  In  In9  1  0.000000  0.000000  0.500000  1
  Ir  Ir10  1  0.274046  0.725954  0.750000  1
  Ir  Ir11  1  0.725954  0.274046  0.250000  1
