# generated using pymatgen
data_Tm8Zn4PtAu3
_symmetry_space_group_name_H-M   'P 1'
_cell_length_a   7.03577105
_cell_length_b   7.13567703
_cell_length_c   7.03521800
_cell_angle_alpha   90.00298697
_cell_angle_beta   90.00669395
_cell_angle_gamma   89.99584841
_symmetry_Int_Tables_number   1
_chemical_formula_structural   Tm8Zn4PtAu3
_chemical_formula_sum   'Tm8 Zn4 Pt1 Au3'
_cell_volume   353.20304443
_cell_formula_units_Z   1
loop_
 _symmetry_equiv_pos_site_id
 _symmetry_equiv_pos_as_xyz
  1  'x, y, z'
loop_
 _atom_site_type_symbol
 _atom_site_label
 _atom_site_symmetry_multiplicity
 _atom_site_fract_x
 _atom_site_fract_y
 _atom_site_fract_z
 _atom_site_occupancy
  Tm  Tm0  1  0.252528  0.503555  0.247494  1
  Tm  Tm1  1  0.252530  0.996445  0.247490  1
  Tm  Tm2  1  0.747478  0.997228  0.247461  1
  Tm  Tm3  1  0.747481  0.502772  0.247458  1
  Tm  Tm4  1  0.252530  0.503534  0.752504  1
  Tm  Tm5  1  0.252526  0.996470  0.752506  1
  Tm  Tm6  1  0.747469  0.997245  0.752554  1
  Tm  Tm7  1  0.747470  0.502757  0.752553  1
  Zn  Zn8  1  0.000764  0.250001  0.000006  1
  Zn  Zn9  1  0.999132  0.750000  0.999993  1
  Zn  Zn10  1  0.499223  0.250001  0.499968  1
  Zn  Zn11  1  0.500774  0.750001  0.500045  1
  Pt  Pt12  1  0.501192  0.749999  0.999899  1
  Au  Au13  1  0.498845  0.250004  0.000081  1
  Au  Au14  1  0.998882  0.749999  0.499946  1
  Au  Au15  1  0.001177  0.250001  0.500043  1
