# generated using pymatgen
data_Ho3Pa(TcB6)2
_symmetry_space_group_name_H-M   'P 1'
_cell_length_a   3.70091100
_cell_length_b   9.14998190
_cell_length_c   11.51747015
_cell_angle_alpha   90.32620418
_cell_angle_beta   90.00000000
_cell_angle_gamma   90.00000000
_symmetry_Int_Tables_number   1
_chemical_formula_structural   Ho3Pa(TcB6)2
_chemical_formula_sum   'Ho6 Pa2 Tc4 B24'
_cell_volume   390.01286508
_cell_formula_units_Z   2
loop_
 _symmetry_equiv_pos_site_id
 _symmetry_equiv_pos_as_xyz
  1  'x, y, z'
loop_
 _atom_site_type_symbol
 _atom_site_label
 _atom_site_symmetry_multiplicity
 _atom_site_fract_x
 _atom_site_fract_y
 _atom_site_fract_z
 _atom_site_occupancy
  Ho  Ho0  1  0.000000  0.824222  0.085340  1
  Ho  Ho1  1  0.000000  0.175778  0.914660  1
  Ho  Ho2  1  0.000000  0.944461  0.371907  1
  Ho  Ho3  1  0.000000  0.055539  0.628093  1
  Ho  Ho4  1  0.000000  0.443487  0.126980  1
  Ho  Ho5  1  0.000000  0.556513  0.873020  1
  Pa  Pa6  1  0.000000  0.321930  0.413104  1
  Pa  Pa7  1  0.000000  0.678070  0.586896  1
  Tc  Tc8  1  0.000000  0.635525  0.324542  1
  Tc  Tc9  1  0.000000  0.364475  0.675458  1
  Tc  Tc10  1  0.000000  0.140450  0.181745  1
  Tc  Tc11  1  0.000000  0.859550  0.818255  1
  B  B12  1  0.500000  0.553389  0.433035  1
  B  B13  1  0.500000  0.446611  0.566965  1
  B  B14  1  0.500000  0.053515  0.067173  1
  B  B15  1  0.500000  0.946485  0.932827  1
  B  B16  1  0.500000  0.748252  0.419502  1
  B  B17  1  0.500000  0.251748  0.580498  1
  B  B18  1  0.500000  0.247935  0.080101  1
  B  B19  1  0.500000  0.752065  0.919899  1
  B  B20  1  0.500000  0.791435  0.265393  1
  B  B21  1  0.500000  0.208565  0.734607  1
  B  B22  1  0.500000  0.292094  0.233952  1
  B  B23  1  0.500000  0.707906  0.766048  1
  B  B24  1  0.500000  0.631434  0.185288  1
  B  B25  1  0.500000  0.368566  0.814712  1
  B  B26  1  0.500000  0.132127  0.314231  1
  B  B27  1  0.500000  0.867873  0.685769  1
  B  B28  1  0.500000  0.982238  0.211987  1
  B  B29  1  0.500000  0.017762  0.788013  1
  B  B30  1  0.500000  0.482958  0.286892  1
  B  B31  1  0.500000  0.517042  0.713108  1
  B  B32  1  0.500000  0.605470  0.029496  1
  B  B33  1  0.500000  0.394530  0.970504  1
  B  B34  1  0.500000  0.110215  0.469536  1
  B  B35  1  0.500000  0.889785  0.530464  1
