# generated using pymatgen
data_Sc8Ti12Si15Pt
_symmetry_space_group_name_H-M   'P 1'
_cell_length_a   6.90856332
_cell_length_b   6.87481040
_cell_length_c   12.62365031
_cell_angle_alpha   89.88997564
_cell_angle_beta   89.84415859
_cell_angle_gamma   90.06487616
_symmetry_Int_Tables_number   1
_chemical_formula_structural   Sc8Ti12Si15Pt
_chemical_formula_sum   'Sc8 Ti12 Si15 Pt1'
_cell_volume   599.55735473
_cell_formula_units_Z   1
loop_
 _symmetry_equiv_pos_site_id
 _symmetry_equiv_pos_as_xyz
  1  'x, y, z'
loop_
 _atom_site_type_symbol
 _atom_site_label
 _atom_site_symmetry_multiplicity
 _atom_site_fract_x
 _atom_site_fract_y
 _atom_site_fract_z
 _atom_site_occupancy
  Sc  Sc0  1  0.341431  0.999623  0.464757  1
  Sc  Sc1  1  0.505368  0.836445  0.718289  1
  Sc  Sc2  1  0.499804  0.159017  0.217168  1
  Sc  Sc3  1  0.842583  0.497776  0.282589  1
  Sc  Sc4  1  0.155442  0.502748  0.783558  1
  Sc  Sc5  1  0.659405  0.998870  0.968396  1
  Sc  Sc6  1  0.999067  0.340072  0.533444  1
  Sc  Sc7  1  0.999453  0.658753  0.032998  1
  Ti  Ti8  1  0.326874  0.327556  0.001282  1
  Ti  Ti9  1  0.173024  0.826864  0.249839  1
  Ti  Ti10  1  0.824692  0.173281  0.750047  1
  Ti  Ti11  1  0.672470  0.671080  0.499305  1
  Ti  Ti12  1  0.151760  0.009878  0.875790  1
  Ti  Ti13  1  0.494116  0.649329  0.124406  1
  Ti  Ti14  1  0.501617  0.349747  0.625541  1
  Ti  Ti15  1  0.652068  0.497274  0.876822  1
  Ti  Ti16  1  0.350469  0.505846  0.374514  1
  Ti  Ti17  1  0.848749  0.993666  0.374048  1
  Ti  Ti18  1  0.005639  0.149303  0.126458  1
  Ti  Ti19  1  0.989009  0.850551  0.620080  1
  Si  Si20  1  0.363455  0.705346  0.929981  1
  Si  Si21  1  0.636503  0.295202  0.429119  1
  Si  Si22  1  0.704985  0.363517  0.071524  1
  Si  Si23  1  0.298194  0.639372  0.568391  1
  Si  Si24  1  0.794105  0.863116  0.178613  1
  Si  Si25  1  0.136293  0.204647  0.320040  1
  Si  Si26  1  0.863983  0.797488  0.820878  1
  Si  Si27  1  0.297263  0.954309  0.065533  1
  Si  Si28  1  0.546499  0.796343  0.314125  1
  Si  Si29  1  0.458866  0.205437  0.818804  1
  Si  Si30  1  0.794861  0.547002  0.686219  1
  Si  Si31  1  0.202381  0.454271  0.185134  1
  Si  Si32  1  0.700239  0.046444  0.563271  1
  Si  Si33  1  0.953105  0.297255  0.937206  1
  Si  Si34  1  0.046638  0.702369  0.433469  1
  Pt  Pt35  1  0.209594  0.130200  0.678362  1
