# generated using pymatgen
data_K2ZnSiSe4
_symmetry_space_group_name_H-M   'P 1'
_cell_length_a   13.45941823
_cell_length_b   11.98468715
_cell_length_c   7.52025332
_cell_angle_alpha   83.93955723
_cell_angle_beta   62.30752520
_cell_angle_gamma   33.75292218
_symmetry_Int_Tables_number   1
_chemical_formula_structural   K2ZnSiSe4
_chemical_formula_sum   'K4 Zn2 Si2 Se8'
_cell_volume   490.02192676
_cell_formula_units_Z   2
loop_
 _symmetry_equiv_pos_site_id
 _symmetry_equiv_pos_as_xyz
  1  'x, y, z'
loop_
 _atom_site_type_symbol
 _atom_site_label
 _atom_site_symmetry_multiplicity
 _atom_site_fract_x
 _atom_site_fract_y
 _atom_site_fract_z
 _atom_site_occupancy
  K  K0  1  0.680813  0.680813  0.319187  1
  K  K1  1  0.319187  0.319187  0.680813  1
  K  K2  1  0.569187  0.569187  0.930813  1
  K  K3  1  0.930813  0.930813  0.569187  1
  Zn  Zn4  1  0.000000  0.000000  0.000000  1
  Zn  Zn5  1  0.250000  0.250000  0.250000  1
  Si  Si6  1  0.500000  0.500000  0.500000  1
  Si  Si7  1  0.750000  0.750000  0.750000  1
  Se  Se8  1  0.374569  0.014321  0.932906  1
  Se  Se9  1  0.678204  0.932906  0.014321  1
  Se  Se10  1  0.932906  0.678204  0.374569  1
  Se  Se11  1  0.014321  0.374569  0.678204  1
  Se  Se12  1  0.875431  0.235679  0.317094  1
  Se  Se13  1  0.571796  0.317094  0.235679  1
  Se  Se14  1  0.317094  0.571796  0.875431  1
  Se  Se15  1  0.235679  0.875431  0.571796  1
