# generated using pymatgen
data_Nd4Y5ErSn8
_symmetry_space_group_name_H-M   'P 1'
_cell_length_a   8.07133500
_cell_length_b   8.22468500
_cell_length_c   15.53593400
_cell_angle_alpha   90.00000000
_cell_angle_beta   90.00000000
_cell_angle_gamma   90.00000000
_symmetry_Int_Tables_number   1
_chemical_formula_structural   Nd4Y5ErSn8
_chemical_formula_sum   'Nd8 Y10 Er2 Sn16'
_cell_volume   1031.34036193
_cell_formula_units_Z   2
loop_
 _symmetry_equiv_pos_site_id
 _symmetry_equiv_pos_as_xyz
  1  'x, y, z'
loop_
 _atom_site_type_symbol
 _atom_site_label
 _atom_site_symmetry_multiplicity
 _atom_site_fract_x
 _atom_site_fract_y
 _atom_site_fract_z
 _atom_site_occupancy
  Nd  Nd0  1  0.515342  0.321259  0.903436  1
  Nd  Nd1  1  0.015342  0.178741  0.596564  1
  Nd  Nd2  1  0.484696  0.678677  0.403020  1
  Nd  Nd3  1  0.984696  0.821323  0.096980  1
  Nd  Nd4  1  0.484696  0.678677  0.096980  1
  Nd  Nd5  1  0.984696  0.821323  0.403020  1
  Nd  Nd6  1  0.515342  0.321259  0.596564  1
  Nd  Nd7  1  0.015342  0.178741  0.903436  1
  Y  Y8  1  0.362492  0.835554  0.877580  1
  Y  Y9  1  0.862492  0.664446  0.622420  1
  Y  Y10  1  0.637494  0.164376  0.377137  1
  Y  Y11  1  0.137494  0.335624  0.122863  1
  Y  Y12  1  0.637494  0.164376  0.122863  1
  Y  Y13  1  0.137494  0.335624  0.377137  1
  Y  Y14  1  0.362492  0.835554  0.622420  1
  Y  Y15  1  0.862492  0.664446  0.877580  1
  Y  Y16  1  0.195498  0.502165  0.750000  1
  Y  Y17  1  0.695498  0.997835  0.750000  1
  Er  Er18  1  0.804352  0.497423  0.250000  1
  Er  Er19  1  0.304352  0.002577  0.250000  1
  Sn  Sn20  1  0.301096  0.039098  0.042090  1
  Sn  Sn21  1  0.801096  0.460902  0.457910  1
  Sn  Sn22  1  0.698905  0.960849  0.541639  1
  Sn  Sn23  1  0.198905  0.539151  0.958361  1
  Sn  Sn24  1  0.698905  0.960849  0.958361  1
  Sn  Sn25  1  0.198905  0.539151  0.541639  1
  Sn  Sn26  1  0.301096  0.039098  0.457910  1
  Sn  Sn27  1  0.801096  0.460902  0.042090  1
  Sn  Sn28  1  0.561947  0.621587  0.750000  1
  Sn  Sn29  1  0.061947  0.878413  0.750000  1
  Sn  Sn30  1  0.438460  0.378407  0.250000  1
  Sn  Sn31  1  0.938460  0.121593  0.250000  1
  Sn  Sn32  1  0.324197  0.142385  0.750000  1
  Sn  Sn33  1  0.824197  0.357615  0.750000  1
  Sn  Sn34  1  0.675500  0.856473  0.250000  1
  Sn  Sn35  1  0.175500  0.643527  0.250000  1
