# generated using pymatgen
data_Y2Zn12Co3Ir2
_symmetry_space_group_name_H-M   'P 1'
_cell_length_a   6.62404881
_cell_length_b   6.74261415
_cell_length_c   6.62404808
_cell_angle_alpha   83.75368725
_cell_angle_beta   82.84514505
_cell_angle_gamma   83.75367653
_symmetry_Int_Tables_number   1
_chemical_formula_structural   Y2Zn12Co3Ir2
_chemical_formula_sum   'Y2 Zn12 Co3 Ir2'
_cell_volume   290.44217315
_cell_formula_units_Z   1
loop_
 _symmetry_equiv_pos_site_id
 _symmetry_equiv_pos_as_xyz
  1  'x, y, z'
loop_
 _atom_site_type_symbol
 _atom_site_label
 _atom_site_symmetry_multiplicity
 _atom_site_fract_x
 _atom_site_fract_y
 _atom_site_fract_z
 _atom_site_occupancy
  Y  Y0  1  0.651955  0.626640  0.651955  1
  Y  Y1  1  0.341264  0.340078  0.341264  1
  Zn  Zn2  1  0.108090  0.106257  0.108090  1
  Zn  Zn3  1  0.886056  0.883622  0.886056  1
  Zn  Zn4  1  0.299972  0.703343  0.998803  1
  Zn  Zn5  1  0.711917  0.004683  0.294680  1
  Zn  Zn6  1  0.004546  0.298906  0.698159  1
  Zn  Zn7  1  0.698159  0.298906  0.004546  1
  Zn  Zn8  1  0.294680  0.004683  0.711917  1
  Zn  Zn9  1  0.998803  0.703343  0.299972  1
  Zn  Zn10  1  0.150412  0.661254  0.653131  1
  Zn  Zn11  1  0.653131  0.661254  0.150412  1
  Zn  Zn12  1  0.656357  0.146254  0.656357  1
  Zn  Zn13  1  0.346699  0.861357  0.346699  1
  Co  Co14  1  0.002293  0.999995  0.501010  1
  Co  Co15  1  0.001063  0.497550  0.001063  1
  Co  Co16  1  0.501010  0.999995  0.002293  1
  Ir  Ir17  1  0.345893  0.350940  0.847700  1
  Ir  Ir18  1  0.847700  0.350940  0.345893  1
