# generated using pymatgen
data_Pa4CrGe4Pt3
_symmetry_space_group_name_H-M   'P 1'
_cell_length_a   4.33333600
_cell_length_b   7.12232115
_cell_length_c   7.63418291
_cell_angle_alpha   91.53470832
_cell_angle_beta   90.00000000
_cell_angle_gamma   90.00000000
_symmetry_Int_Tables_number   1
_chemical_formula_structural   Pa4CrGe4Pt3
_chemical_formula_sum   'Pa4 Cr1 Ge4 Pt3'
_cell_volume   235.53240257
_cell_formula_units_Z   1
loop_
 _symmetry_equiv_pos_site_id
 _symmetry_equiv_pos_as_xyz
  1  'x, y, z'
loop_
 _atom_site_type_symbol
 _atom_site_label
 _atom_site_symmetry_multiplicity
 _atom_site_fract_x
 _atom_site_fract_y
 _atom_site_fract_z
 _atom_site_occupancy
  Pa  Pa0  1  0.250000  0.506969  0.194153  1
  Pa  Pa1  1  0.750000  0.504026  0.798404  1
  Pa  Pa2  1  0.750000  0.000231  0.710527  1
  Pa  Pa3  1  0.250000  0.988644  0.297703  1
  Cr  Cr4  1  0.250000  0.651249  0.567019  1
  Ge  Ge5  1  0.250000  0.790548  0.883999  1
  Ge  Ge6  1  0.750000  0.196697  0.106484  1
  Ge  Ge7  1  0.750000  0.730784  0.418408  1
  Ge  Ge8  1  0.250000  0.275886  0.593397  1
  Pt  Pt9  1  0.750000  0.348743  0.422970  1
  Pt  Pt10  1  0.750000  0.794103  0.080205  1
  Pt  Pt11  1  0.250000  0.212121  0.926728  1
