# generated using pymatgen
data_Tm4Ge2B4RuRh9
_symmetry_space_group_name_H-M   'P 1'
_cell_length_a   9.39306038
_cell_length_b   9.39306038
_cell_length_c   3.20504300
_cell_angle_alpha   90.00000000
_cell_angle_beta   90.00000000
_cell_angle_gamma   89.73889178
_symmetry_Int_Tables_number   1
_chemical_formula_structural   Tm4Ge2B4RuRh9
_chemical_formula_sum   'Tm4 Ge2 B4 Ru1 Rh9'
_cell_volume   282.77667224
_cell_formula_units_Z   1
loop_
 _symmetry_equiv_pos_site_id
 _symmetry_equiv_pos_as_xyz
  1  'x, y, z'
loop_
 _atom_site_type_symbol
 _atom_site_label
 _atom_site_symmetry_multiplicity
 _atom_site_fract_x
 _atom_site_fract_y
 _atom_site_fract_z
 _atom_site_occupancy
  Tm  Tm0  1  0.824711  0.324711  0.000000  1
  Tm  Tm1  1  0.325993  0.174007  0.000000  1
  Tm  Tm2  1  0.674007  0.825993  0.000000  1
  Tm  Tm3  1  0.175289  0.675289  0.000000  1
  Ge  Ge4  1  0.000000  0.000000  0.000000  1
  Ge  Ge5  1  0.500000  0.500000  0.000000  1
  B  B6  1  0.621773  0.121773  0.000000  1
  B  B7  1  0.122191  0.377809  0.000000  1
  B  B8  1  0.877809  0.622191  0.000000  1
  B  B9  1  0.378227  0.878227  0.000000  1
  Ru  Ru10  1  0.500000  0.000000  0.500000  1
  Rh  Rh11  1  0.070606  0.217685  0.500000  1
  Rh  Rh12  1  0.216168  0.928780  0.500000  1
  Rh  Rh13  1  0.783832  0.071220  0.500000  1
  Rh  Rh14  1  0.929394  0.782315  0.500000  1
  Rh  Rh15  1  0.428780  0.716168  0.500000  1
  Rh  Rh16  1  0.571220  0.283832  0.500000  1
  Rh  Rh17  1  0.717685  0.570606  0.500000  1
  Rh  Rh18  1  0.282315  0.429394  0.500000  1
  Rh  Rh19  1  0.000000  0.500000  0.500000  1
