# generated using pymatgen
data_BaAs3Pd5
_symmetry_space_group_name_H-M   'P 1'
_cell_length_a   6.95979969
_cell_length_b   6.95979974
_cell_length_c   13.05855000
_cell_angle_alpha   90.00000000
_cell_angle_beta   90.00000000
_cell_angle_gamma   146.13032253
_symmetry_Int_Tables_number   1
_chemical_formula_structural   BaAs3Pd5
_chemical_formula_sum   'Ba2 As6 Pd10'
_cell_volume   352.51855073
_cell_formula_units_Z   2
loop_
 _symmetry_equiv_pos_site_id
 _symmetry_equiv_pos_as_xyz
  1  'x, y, z'
loop_
 _atom_site_type_symbol
 _atom_site_label
 _atom_site_symmetry_multiplicity
 _atom_site_fract_x
 _atom_site_fract_y
 _atom_site_fract_z
 _atom_site_occupancy
  Ba  Ba0  1  0.159586  0.840414  0.250000  1
  Ba  Ba1  1  0.840414  0.159586  0.750000  1
  As  As2  1  0.618641  0.381359  0.462219  1
  As  As3  1  0.117517  0.882483  0.750000  1
  As  As4  1  0.618641  0.381359  0.037781  1
  As  As5  1  0.381359  0.618641  0.962219  1
  As  As6  1  0.882483  0.117517  0.250000  1
  As  As7  1  0.381359  0.618641  0.537781  1
  Pd  Pd8  1  0.200194  0.799806  0.932202  1
  Pd  Pd9  1  0.799806  0.200194  0.432202  1
  Pd  Pd10  1  0.000000  0.000000  0.000000  1
  Pd  Pd11  1  0.000000  0.000000  0.500000  1
  Pd  Pd12  1  0.551247  0.448753  0.645454  1
  Pd  Pd13  1  0.448753  0.551247  0.354546  1
  Pd  Pd14  1  0.448753  0.551247  0.145454  1
  Pd  Pd15  1  0.200194  0.799806  0.567798  1
  Pd  Pd16  1  0.799806  0.200194  0.067798  1
  Pd  Pd17  1  0.551247  0.448753  0.854546  1
