# generated using pymatgen
data_Nd4Al18(IrPt)3
_symmetry_space_group_name_H-M   'P 1'
_cell_length_a   7.65263875
_cell_length_b   7.65263972
_cell_length_c   9.57636802
_cell_angle_alpha   89.99627421
_cell_angle_beta   89.99627543
_cell_angle_gamma   119.65135632
_symmetry_Int_Tables_number   1
_chemical_formula_structural   Nd4Al18(IrPt)3
_chemical_formula_sum   'Nd4 Al18 Ir3 Pt3'
_cell_volume   487.38144223
_cell_formula_units_Z   1
loop_
 _symmetry_equiv_pos_site_id
 _symmetry_equiv_pos_as_xyz
  1  'x, y, z'
loop_
 _atom_site_type_symbol
 _atom_site_label
 _atom_site_symmetry_multiplicity
 _atom_site_fract_x
 _atom_site_fract_y
 _atom_site_fract_z
 _atom_site_occupancy
  Nd  Nd0  1  0.995282  0.669652  0.250369  1
  Nd  Nd1  1  0.004852  0.331019  0.749685  1
  Nd  Nd2  1  0.668981  0.995148  0.250315  1
  Nd  Nd3  1  0.330348  0.004718  0.749631  1
  Al  Al4  1  0.128406  0.128928  0.250423  1
  Al  Al5  1  0.871072  0.871594  0.749577  1
  Al  Al6  1  0.001593  0.331169  0.073861  1
  Al  Al7  1  0.998208  0.669210  0.925511  1
  Al  Al8  1  0.995236  0.665381  0.572685  1
  Al  Al9  1  0.334619  0.004764  0.427315  1
  Al  Al10  1  0.997918  0.330911  0.427601  1
  Al  Al11  1  0.669089  0.002082  0.572399  1
  Al  Al12  1  0.668831  0.998407  0.926139  1
  Al  Al13  1  0.330790  0.001792  0.074489  1
  Al  Al14  1  0.334007  0.330708  0.549742  1
  Al  Al15  1  0.669292  0.665993  0.450258  1
  Al  Al16  1  0.668602  0.668626  0.052181  1
  Al  Al17  1  0.331374  0.331398  0.947819  1
  Al  Al18  1  0.340150  0.543510  0.250351  1
  Al  Al19  1  0.659738  0.454410  0.747003  1
  Al  Al20  1  0.545590  0.340262  0.252997  1
  Al  Al21  1  0.456490  0.659850  0.749649  1
  Ir  Ir22  1  0.670999  0.329001  0.500000  1
  Ir  Ir23  1  0.999888  0.000112  0.000000  1
  Ir  Ir24  1  0.000161  0.999839  0.500000  1
  Pt  Pt25  1  0.671145  0.328855  0.000000  1
  Pt  Pt26  1  0.328637  0.671363  0.000000  1
  Pt  Pt27  1  0.328700  0.671300  0.500000  1
