# generated using pymatgen
data_Nd3Cu(NiSb)5
_symmetry_space_group_name_H-M   'P 1'
_cell_length_a   4.36659000
_cell_length_b   9.88348500
_cell_length_c   13.00682900
_cell_angle_alpha   90.00000000
_cell_angle_beta   90.00000000
_cell_angle_gamma   90.00000000
_symmetry_Int_Tables_number   1
_chemical_formula_structural   Nd3Cu(NiSb)5
_chemical_formula_sum   'Nd6 Cu2 Ni10 Sb10'
_cell_volume   561.33736798
_cell_formula_units_Z   2
loop_
 _symmetry_equiv_pos_site_id
 _symmetry_equiv_pos_as_xyz
  1  'x, y, z'
loop_
 _atom_site_type_symbol
 _atom_site_label
 _atom_site_symmetry_multiplicity
 _atom_site_fract_x
 _atom_site_fract_y
 _atom_site_fract_z
 _atom_site_occupancy
  Nd  Nd0  1  0.000000  0.240150  0.000000  1
  Nd  Nd1  1  0.500000  0.759850  0.500000  1
  Nd  Nd2  1  0.000000  0.247122  0.325445  1
  Nd  Nd3  1  0.500000  0.752878  0.174555  1
  Nd  Nd4  1  0.000000  0.247122  0.674555  1
  Nd  Nd5  1  0.500000  0.752878  0.825445  1
  Cu  Cu6  1  0.500000  0.495729  0.000000  1
  Cu  Cu7  1  0.000000  0.504271  0.500000  1
  Ni  Ni8  1  0.000000  0.996002  0.163303  1
  Ni  Ni9  1  0.500000  0.003998  0.336697  1
  Ni  Ni10  1  0.000000  0.996002  0.836697  1
  Ni  Ni11  1  0.500000  0.003998  0.663303  1
  Ni  Ni12  1  0.500000  0.985883  0.000000  1
  Ni  Ni13  1  0.000000  0.014117  0.500000  1
  Ni  Ni14  1  0.000000  0.613321  0.327922  1
  Ni  Ni15  1  0.500000  0.386679  0.172078  1
  Ni  Ni16  1  0.000000  0.613321  0.672078  1
  Ni  Ni17  1  0.500000  0.386679  0.827922  1
  Sb  Sb18  1  0.000000  0.512631  0.141122  1
  Sb  Sb19  1  0.500000  0.487369  0.358878  1
  Sb  Sb20  1  0.000000  0.512631  0.858878  1
  Sb  Sb21  1  0.500000  0.487369  0.641122  1
  Sb  Sb22  1  0.000000  0.869767  0.335910  1
  Sb  Sb23  1  0.500000  0.130233  0.164090  1
  Sb  Sb24  1  0.000000  0.869767  0.664090  1
  Sb  Sb25  1  0.500000  0.130233  0.835910  1
  Sb  Sb26  1  0.000000  0.849497  0.000000  1
  Sb  Sb27  1  0.500000  0.150503  0.500000  1
