# generated using pymatgen
data_Cs4Mg5Cd5Sb8
_symmetry_space_group_name_H-M   'P 1'
_cell_length_a   7.81578010
_cell_length_b   7.81577938
_cell_length_c   13.43218100
_cell_angle_alpha   90.00000000
_cell_angle_beta   90.00000000
_cell_angle_gamma   118.23750552
_symmetry_Int_Tables_number   1
_chemical_formula_structural   Cs4Mg5Cd5Sb8
_chemical_formula_sum   'Cs4 Mg5 Cd5 Sb8'
_cell_volume   722.87645100
_cell_formula_units_Z   1
loop_
 _symmetry_equiv_pos_site_id
 _symmetry_equiv_pos_as_xyz
  1  'x, y, z'
loop_
 _atom_site_type_symbol
 _atom_site_label
 _atom_site_symmetry_multiplicity
 _atom_site_fract_x
 _atom_site_fract_y
 _atom_site_fract_z
 _atom_site_occupancy
  Cs  Cs0  1  0.219711  0.780479  0.499526  1
  Cs  Cs1  1  0.219711  0.780479  0.000474  1
  Cs  Cs2  1  0.780479  0.219711  0.499526  1
  Cs  Cs3  1  0.780479  0.219711  0.000474  1
  Mg  Mg4  1  0.647605  0.647605  0.386403  1
  Mg  Mg5  1  0.353905  0.353905  0.613645  1
  Mg  Mg6  1  0.647605  0.647605  0.113597  1
  Mg  Mg7  1  0.353905  0.353905  0.886355  1
  Mg  Mg8  1  0.984307  0.984307  0.750000  1
  Cd  Cd9  1  0.527246  0.244680  0.250000  1
  Cd  Cd10  1  0.754683  0.471398  0.750000  1
  Cd  Cd11  1  0.471398  0.754683  0.750000  1
  Cd  Cd12  1  0.244680  0.527246  0.250000  1
  Cd  Cd13  1  0.012978  0.012978  0.250000  1
  Sb  Sb14  1  0.599542  0.916873  0.250000  1
  Sb  Sb15  1  0.082335  0.396247  0.750000  1
  Sb  Sb16  1  0.396247  0.082335  0.750000  1
  Sb  Sb17  1  0.916873  0.599542  0.250000  1
  Sb  Sb18  1  0.277291  0.277291  0.405811  1
  Sb  Sb19  1  0.725866  0.725866  0.594550  1
  Sb  Sb20  1  0.277291  0.277291  0.094189  1
  Sb  Sb21  1  0.725866  0.725866  0.905450  1
