# generated using pymatgen
data_Lu4InPd4Au
_symmetry_space_group_name_H-M   'P 1'
_cell_length_a   7.63375300
_cell_length_b   7.63375300
_cell_length_c   3.57464100
_cell_angle_alpha   90.00000000
_cell_angle_beta   90.00000000
_cell_angle_gamma   90.00000000
_symmetry_Int_Tables_number   1
_chemical_formula_structural   Lu4InPd4Au
_chemical_formula_sum   'Lu4 In1 Pd4 Au1'
_cell_volume   208.30929046
_cell_formula_units_Z   1
loop_
 _symmetry_equiv_pos_site_id
 _symmetry_equiv_pos_as_xyz
  1  'x, y, z'
loop_
 _atom_site_type_symbol
 _atom_site_label
 _atom_site_symmetry_multiplicity
 _atom_site_fract_x
 _atom_site_fract_y
 _atom_site_fract_z
 _atom_site_occupancy
  Lu  Lu0  1  0.308892  0.851217  0.500000  1
  Lu  Lu1  1  0.851217  0.691108  0.500000  1
  Lu  Lu2  1  0.148783  0.308892  0.500000  1
  Lu  Lu3  1  0.691108  0.148783  0.500000  1
  In  In4  1  0.500000  0.500000  0.000000  1
  Pd  Pd5  1  0.383063  0.143767  0.000000  1
  Pd  Pd6  1  0.856233  0.383063  0.000000  1
  Pd  Pd7  1  0.143767  0.616937  0.000000  1
  Pd  Pd8  1  0.616937  0.856233  0.000000  1
  Au  Au9  1  0.000000  0.000000  0.000000  1
