# generated using pymatgen
data_Hf6CoSi7Ni15
_symmetry_space_group_name_H-M   'P 1'
_cell_length_a   8.08347295
_cell_length_b   8.08569800
_cell_length_c   8.08523401
_cell_angle_alpha   60.00568705
_cell_angle_beta   59.99717436
_cell_angle_gamma   59.99076863
_symmetry_Int_Tables_number   1
_chemical_formula_structural   Hf6CoSi7Ni15
_chemical_formula_sum   'Hf6 Co1 Si7 Ni15'
_cell_volume   373.65618805
_cell_formula_units_Z   1
loop_
 _symmetry_equiv_pos_site_id
 _symmetry_equiv_pos_as_xyz
  1  'x, y, z'
loop_
 _atom_site_type_symbol
 _atom_site_label
 _atom_site_symmetry_multiplicity
 _atom_site_fract_x
 _atom_site_fract_y
 _atom_site_fract_z
 _atom_site_occupancy
  Hf  Hf0  1  0.794930  0.205099  0.794963  1
  Hf  Hf1  1  0.794914  0.794952  0.205116  1
  Hf  Hf2  1  0.205169  0.794913  0.794907  1
  Hf  Hf3  1  0.204562  0.204552  0.799118  1
  Hf  Hf4  1  0.799082  0.204607  0.204560  1
  Hf  Hf5  1  0.204583  0.799088  0.204527  1
  Co  Co6  1  0.166060  0.166172  0.166028  1
  Si  Si7  1  0.000248  0.498969  0.000264  1
  Si  Si8  1  0.499614  0.499626  0.499575  1
  Si  Si9  1  0.499731  0.499713  0.001725  1
  Si  Si10  1  0.499701  0.001746  0.499725  1
  Si  Si11  1  0.001733  0.499688  0.499731  1
  Si  Si12  1  0.000263  0.000275  0.498959  1
  Si  Si13  1  0.498962  0.000260  0.000264  1
  Ni  Ni14  1  0.618275  0.618244  0.145548  1
  Ni  Ni15  1  0.382039  0.382008  0.382089  1
  Ni  Ni16  1  0.167901  0.495524  0.167899  1
  Ni  Ni17  1  0.167917  0.167984  0.495466  1
  Ni  Ni18  1  0.145584  0.618243  0.618247  1
  Ni  Ni19  1  0.618248  0.145599  0.618211  1
  Ni  Ni20  1  0.832208  0.832080  0.832197  1
  Ni  Ni21  1  0.854928  0.382118  0.382135  1
  Ni  Ni22  1  0.382064  0.382094  0.854994  1
  Ni  Ni23  1  0.382104  0.854921  0.382156  1
  Ni  Ni24  1  0.505093  0.830634  0.830707  1
  Ni  Ni25  1  0.617215  0.617221  0.617167  1
  Ni  Ni26  1  0.830695  0.830604  0.505127  1
  Ni  Ni27  1  0.495499  0.167973  0.167920  1
  Ni  Ni28  1  0.830680  0.505094  0.830677  1
