# generated using pymatgen
data_Pr3ThPd4
_symmetry_space_group_name_H-M   'P 1'
_cell_length_a   4.74195700
_cell_length_b   5.78515641
_cell_length_c   7.31063773
_cell_angle_alpha   91.79749992
_cell_angle_beta   90.00000000
_cell_angle_gamma   90.00000000
_symmetry_Int_Tables_number   1
_chemical_formula_structural   Pr3ThPd4
_chemical_formula_sum   'Pr3 Th1 Pd4'
_cell_volume   200.45376811
_cell_formula_units_Z   1
loop_
 _symmetry_equiv_pos_site_id
 _symmetry_equiv_pos_as_xyz
  1  'x, y, z'
loop_
 _atom_site_type_symbol
 _atom_site_label
 _atom_site_symmetry_multiplicity
 _atom_site_fract_x
 _atom_site_fract_y
 _atom_site_fract_z
 _atom_site_occupancy
  Pr  Pr0  1  0.250000  0.143528  0.185494  1
  Pr  Pr1  1  0.750000  0.642720  0.317327  1
  Pr  Pr2  1  0.750000  0.857496  0.817078  1
  Th  Th3  1  0.250000  0.357231  0.682234  1
  Pd  Pd4  1  0.250000  0.847296  0.548803  1
  Pd  Pd5  1  0.250000  0.638234  0.034461  1
  Pd  Pd6  1  0.750000  0.159937  0.470767  1
  Pd  Pd7  1  0.750000  0.353558  0.943836  1
