# generated using pymatgen
data_LuMgScB2Ir5
_symmetry_space_group_name_H-M   'P 1'
_cell_length_a   3.06783000
_cell_length_b   9.60456826
_cell_length_c   9.60456826
_cell_angle_alpha   89.18610000
_cell_angle_beta   90.00000000
_cell_angle_gamma   90.00000000
_symmetry_Int_Tables_number   1
_chemical_formula_structural   LuMgScB2Ir5
_chemical_formula_sum   'Lu2 Mg2 Sc2 B4 Ir10'
_cell_volume   282.97180539
_cell_formula_units_Z   2
loop_
 _symmetry_equiv_pos_site_id
 _symmetry_equiv_pos_as_xyz
  1  'x, y, z'
loop_
 _atom_site_type_symbol
 _atom_site_label
 _atom_site_symmetry_multiplicity
 _atom_site_fract_x
 _atom_site_fract_y
 _atom_site_fract_z
 _atom_site_occupancy
  Lu  Lu0  1  0.000000  0.178312  0.678312  1
  Lu  Lu1  1  0.000000  0.821688  0.321688  1
  Mg  Mg2  1  0.000000  0.000000  0.000000  1
  Mg  Mg3  1  0.000000  0.500000  0.500000  1
  Sc  Sc4  1  0.000000  0.322596  0.177404  1
  Sc  Sc5  1  0.000000  0.677404  0.822596  1
  B  B6  1  0.000000  0.624242  0.124242  1
  B  B7  1  0.000000  0.375758  0.875758  1
  B  B8  1  0.000000  0.873899  0.626101  1
  B  B9  1  0.000000  0.126101  0.373899  1
  Ir  Ir10  1  0.500000  0.073192  0.219658  1
  Ir  Ir11  1  0.500000  0.926808  0.780342  1
  Ir  Ir12  1  0.500000  0.776979  0.065092  1
  Ir  Ir13  1  0.500000  0.434908  0.723021  1
  Ir  Ir14  1  0.500000  0.223021  0.934908  1
  Ir  Ir15  1  0.500000  0.565092  0.276979  1
  Ir  Ir16  1  0.500000  0.719658  0.573192  1
  Ir  Ir17  1  0.500000  0.280342  0.426808  1
  Ir  Ir18  1  0.500000  0.000000  0.500000  1
  Ir  Ir19  1  0.500000  0.500000  0.000000  1
