# generated using pymatgen
data_Y6Ho10MgHg3Pd4
_symmetry_space_group_name_H-M   'P 1'
_cell_length_a   9.66081569
_cell_length_b   9.67465837
_cell_length_c   9.67465800
_cell_angle_alpha   60.00000128
_cell_angle_beta   59.95259102
_cell_angle_gamma   59.95258896
_symmetry_Int_Tables_number   1
_chemical_formula_structural   Y6Ho10MgHg3Pd4
_chemical_formula_sum   'Y6 Ho10 Mg1 Hg3 Pd4'
_cell_volume   638.93764203
_cell_formula_units_Z   1
loop_
 _symmetry_equiv_pos_site_id
 _symmetry_equiv_pos_as_xyz
  1  'x, y, z'
loop_
 _atom_site_type_symbol
 _atom_site_label
 _atom_site_symmetry_multiplicity
 _atom_site_fract_x
 _atom_site_fract_y
 _atom_site_fract_z
 _atom_site_occupancy
  Y  Y0  1  0.933181  0.565977  0.565977  1
  Y  Y1  1  0.564880  0.934780  0.934780  1
  Y  Y2  1  0.564880  0.934780  0.565560  1
  Y  Y3  1  0.933181  0.565977  0.934866  1
  Y  Y4  1  0.564880  0.565560  0.934780  1
  Y  Y5  1  0.933181  0.934866  0.565977  1
  Ho  Ho6  1  0.356730  0.353005  0.353005  1
  Ho  Ho7  1  0.356730  0.353005  0.937260  1
  Ho  Ho8  1  0.356730  0.937260  0.353005  1
  Ho  Ho9  1  0.925758  0.358081  0.358081  1
  Ho  Ho10  1  0.809856  0.189486  0.189486  1
  Ho  Ho11  1  0.185592  0.813051  0.813051  1
  Ho  Ho12  1  0.185592  0.813051  0.188307  1
  Ho  Ho13  1  0.809856  0.189486  0.811173  1
  Ho  Ho14  1  0.185592  0.188307  0.813051  1
  Ho  Ho15  1  0.809856  0.811173  0.189486  1
  Mg  Mg16  1  0.279303  0.573565  0.573565  1
  Hg  Hg17  1  0.583090  0.589117  0.589117  1
  Hg  Hg18  1  0.583090  0.589117  0.238676  1
  Hg  Hg19  1  0.583090  0.238676  0.589117  1
  Pd  Pd20  1  0.143061  0.146410  0.146410  1
  Pd  Pd21  1  0.143061  0.146410  0.564119  1
  Pd  Pd22  1  0.143061  0.564119  0.146410  1
  Pd  Pd23  1  0.565768  0.144744  0.144744  1
