# generated using pymatgen
data_Pm7Ge4
_symmetry_space_group_name_H-M   'P 1'
_cell_length_a   4.37296442
_cell_length_b   6.84812337
_cell_length_c   11.76370005
_cell_angle_alpha   100.64326943
_cell_angle_beta   68.08622695
_cell_angle_gamma   108.70813240
_symmetry_Int_Tables_number   1
_chemical_formula_structural   Pm7Ge4
_chemical_formula_sum   'Pm7 Ge4'
_cell_volume   308.71334799
_cell_formula_units_Z   1
loop_
 _symmetry_equiv_pos_site_id
 _symmetry_equiv_pos_as_xyz
  1  'x, y, z'
loop_
 _atom_site_type_symbol
 _atom_site_label
 _atom_site_symmetry_multiplicity
 _atom_site_fract_x
 _atom_site_fract_y
 _atom_site_fract_z
 _atom_site_occupancy
  Pm  Pm0  1  0.426885  0.748845  0.469753  1
  Pm  Pm1  1  0.787379  0.987512  0.729514  1
  Pm  Pm2  1  0.901277  0.282547  0.265399  1
  Pm  Pm3  1  0.012500  0.915650  0.971059  1
  Pm  Pm4  1  0.219312  0.838643  0.226465  1
  Pm  Pm5  1  0.603685  0.366220  0.601557  1
  Pm  Pm6  1  0.327198  0.468954  0.935119  1
  Ge  Ge7  1  0.096624  0.626670  0.739228  1
  Ge  Ge8  1  0.117383  0.112173  0.461588  1
  Ge  Ge9  1  0.568678  0.190453  0.053824  1
  Ge  Ge10  1  0.660319  0.562969  0.146643  1
