# generated using pymatgen
data_PrSmCo2(As2Rh)2
_symmetry_space_group_name_H-M   'P 1'
_cell_length_a   4.21864800
_cell_length_b   4.21864800
_cell_length_c   9.68437300
_cell_angle_alpha   90.00000000
_cell_angle_beta   90.00000000
_cell_angle_gamma   90.00000000
_symmetry_Int_Tables_number   1
_chemical_formula_structural   PrSmCo2(As2Rh)2
_chemical_formula_sum   'Pr1 Sm1 Co2 As4 Rh2'
_cell_volume   172.35269862
_cell_formula_units_Z   1
loop_
 _symmetry_equiv_pos_site_id
 _symmetry_equiv_pos_as_xyz
  1  'x, y, z'
loop_
 _atom_site_type_symbol
 _atom_site_label
 _atom_site_symmetry_multiplicity
 _atom_site_fract_x
 _atom_site_fract_y
 _atom_site_fract_z
 _atom_site_occupancy
  Pr  Pr0  1  0.500000  0.000000  0.738856  1
  Sm  Sm1  1  0.000000  0.500000  0.261095  1
  Co  Co2  1  0.000000  0.500000  0.608242  1
  Co  Co3  1  0.500000  0.000000  0.389282  1
  As  As4  1  0.000000  0.000000  0.497869  1
  As  As5  1  0.500000  0.500000  0.497869  1
  As  As6  1  0.000000  0.500000  0.852359  1
  As  As7  1  0.500000  0.000000  0.149717  1
  Rh  Rh8  1  0.000000  0.000000  0.002356  1
  Rh  Rh9  1  0.500000  0.500000  0.002356  1
