# generated using pymatgen
data_Tb4Ni2B16IrRh
_symmetry_space_group_name_H-M   'P 1'
_cell_length_a   6.93336653
_cell_length_b   6.93423674
_cell_length_c   6.93439514
_cell_angle_alpha   113.33443333
_cell_angle_beta   111.20575738
_cell_angle_gamma   104.01897538
_symmetry_Int_Tables_number   1
_chemical_formula_structural   Tb4Ni2B16IrRh
_chemical_formula_sum   'Tb4 Ni2 B16 Ir1 Rh1'
_cell_volume   254.81264958
_cell_formula_units_Z   1
loop_
 _symmetry_equiv_pos_site_id
 _symmetry_equiv_pos_as_xyz
  1  'x, y, z'
loop_
 _atom_site_type_symbol
 _atom_site_label
 _atom_site_symmetry_multiplicity
 _atom_site_fract_x
 _atom_site_fract_y
 _atom_site_fract_z
 _atom_site_occupancy
  Tb  Tb0  1  0.208782  0.209166  0.000417  1
  Tb  Tb1  1  0.791252  0.791627  0.000427  1
  Tb  Tb2  1  0.748349  0.247967  0.499776  1
  Tb  Tb3  1  0.251644  0.751415  0.499619  1
  Ni  Ni4  1  0.744840  0.499612  0.245096  1
  Ni  Ni5  1  0.255083  0.499931  0.754191  1
  B  B6  1  0.108775  0.273082  0.381895  1
  B  B7  1  0.891452  0.727760  0.619203  1
  B  B8  1  0.891319  0.272917  0.164218  1
  B  B9  1  0.108495  0.727927  0.836450  1
  B  B10  1  0.729971  0.889531  0.619488  1
  B  B11  1  0.269996  0.111480  0.381490  1
  B  B12  1  0.729991  0.111434  0.841414  1
  B  B13  1  0.270034  0.889601  0.159650  1
  B  B14  1  0.412947  0.418419  0.527460  1
  B  B15  1  0.890290  0.884522  0.471054  1
  B  B16  1  0.586999  0.114383  0.005375  1
  B  B17  1  0.109746  0.580867  0.994340  1
  B  B18  1  0.586468  0.580667  0.471007  1
  B  B19  1  0.109056  0.114465  0.527337  1
  B  B20  1  0.890935  0.418261  0.005333  1
  B  B21  1  0.413543  0.884579  0.994298  1
  Ir  Ir22  1  0.500063  0.723054  0.223140  1
  Rh  Rh23  1  0.499970  0.277333  0.777322  1
