# generated using pymatgen
data_Cs4V2PbS8
_symmetry_space_group_name_H-M   'P 1'
_cell_length_a   9.67503220
_cell_length_b   9.88358409
_cell_length_c   11.91488168
_cell_angle_alpha   106.10276549
_cell_angle_beta   103.23348757
_cell_angle_gamma   93.86011997
_symmetry_Int_Tables_number   1
_chemical_formula_structural   Cs4V2PbS8
_chemical_formula_sum   'Cs8 V4 Pb2 S16'
_cell_volume   1055.10420544
_cell_formula_units_Z   2
loop_
 _symmetry_equiv_pos_site_id
 _symmetry_equiv_pos_as_xyz
  1  'x, y, z'
loop_
 _atom_site_type_symbol
 _atom_site_label
 _atom_site_symmetry_multiplicity
 _atom_site_fract_x
 _atom_site_fract_y
 _atom_site_fract_z
 _atom_site_occupancy
  Cs  Cs0  1  0.937975  0.524677  0.255573  1
  Cs  Cs1  1  0.062025  0.475323  0.744427  1
  Cs  Cs2  1  0.763639  0.995665  0.471298  1
  Cs  Cs3  1  0.236361  0.004335  0.528702  1
  Cs  Cs4  1  0.601851  0.746600  0.020825  1
  Cs  Cs5  1  0.398149  0.253400  0.979175  1
  Cs  Cs6  1  0.616738  0.681880  0.618011  1
  Cs  Cs7  1  0.383262  0.318120  0.381989  1
  V  V8  1  0.950739  0.112673  0.234141  1
  V  V9  1  0.049261  0.887327  0.765859  1
  V  V10  1  0.374646  0.682546  0.258591  1
  V  V11  1  0.625354  0.317454  0.741409  1
  Pb  Pb12  1  0.847910  0.139751  0.921893  1
  Pb  Pb13  1  0.152090  0.860249  0.078107  1
  S  S14  1  0.955997  0.892301  0.233336  1
  S  S15  1  0.044003  0.107699  0.766664  1
  S  S16  1  0.591931  0.091051  0.730066  1
  S  S17  1  0.408069  0.908949  0.269934  1
  S  S18  1  0.294145  0.660568  0.406757  1
  S  S19  1  0.705855  0.339432  0.593243  1
  S  S20  1  0.784451  0.421811  0.911502  1
  S  S21  1  0.215549  0.578189  0.088498  1
  S  S22  1  0.017746  0.251229  0.414554  1
  S  S23  1  0.982254  0.748771  0.585446  1
  S  S24  1  0.099103  0.162747  0.132880  1
  S  S25  1  0.900897  0.837253  0.867120  1
  S  S26  1  0.739497  0.138875  0.140487  1
  S  S27  1  0.260503  0.861125  0.859513  1
  S  S28  1  0.569280  0.590029  0.263808  1
  S  S29  1  0.430720  0.409971  0.736192  1
