# generated using pymatgen
data_Tb2ErPa(Ga3Ir)6
_symmetry_space_group_name_H-M   'P 1'
_cell_length_a   7.62410504
_cell_length_b   7.61467303
_cell_length_c   9.45356600
_cell_angle_alpha   90.00000000
_cell_angle_beta   90.00000000
_cell_angle_gamma   119.88314073
_symmetry_Int_Tables_number   1
_chemical_formula_structural   Tb2ErPa(Ga3Ir)6
_chemical_formula_sum   'Tb2 Er1 Pa1 Ga18 Ir6'
_cell_volume   475.85717702
_cell_formula_units_Z   1
loop_
 _symmetry_equiv_pos_site_id
 _symmetry_equiv_pos_as_xyz
  1  'x, y, z'
loop_
 _atom_site_type_symbol
 _atom_site_label
 _atom_site_symmetry_multiplicity
 _atom_site_fract_x
 _atom_site_fract_y
 _atom_site_fract_z
 _atom_site_occupancy
  Tb  Tb0  1  0.003932  0.331249  0.750000  1
  Tb  Tb1  1  0.331002  0.002916  0.750000  1
  Er  Er2  1  0.669732  0.996410  0.250000  1
  Pa  Pa3  1  0.997617  0.669131  0.250000  1
  Ga  Ga4  1  0.130207  0.130065  0.250000  1
  Ga  Ga5  1  0.872665  0.873587  0.750000  1
  Ga  Ga6  1  0.998482  0.330667  0.080314  1
  Ga  Ga7  1  0.000895  0.665480  0.917121  1
  Ga  Ga8  1  0.000895  0.665480  0.582879  1
  Ga  Ga9  1  0.338497  0.002557  0.419478  1
  Ga  Ga10  1  0.998482  0.330667  0.419686  1
  Ga  Ga11  1  0.665686  0.001519  0.580657  1
  Ga  Ga12  1  0.665686  0.001519  0.919343  1
  Ga  Ga13  1  0.338497  0.002557  0.080522  1
  Ga  Ga14  1  0.331659  0.331617  0.567192  1
  Ga  Ga15  1  0.664122  0.667844  0.434240  1
  Ga  Ga16  1  0.664122  0.667844  0.065760  1
  Ga  Ga17  1  0.331659  0.331617  0.932808  1
  Ga  Ga18  1  0.339394  0.544847  0.250000  1
  Ga  Ga19  1  0.660446  0.452885  0.750000  1
  Ga  Ga20  1  0.544363  0.339981  0.250000  1
  Ga  Ga21  1  0.453052  0.661310  0.750000  1
  Ir  Ir22  1  0.673977  0.331515  0.002293  1
  Ir  Ir23  1  0.326211  0.671296  0.002328  1
  Ir  Ir24  1  0.326211  0.671296  0.497672  1
  Ir  Ir25  1  0.673977  0.331515  0.497707  1
  Ir  Ir26  1  0.999266  0.996315  0.002812  1
  Ir  Ir27  1  0.999266  0.996315  0.497188  1
