# generated using pymatgen
data_Nd3Zr(P3Ir4)2
_symmetry_space_group_name_H-M   'P 1'
_cell_length_a   4.04311000
_cell_length_b   11.34399900
_cell_length_c   13.04097900
_cell_angle_alpha   90.00000000
_cell_angle_beta   90.00000000
_cell_angle_gamma   90.00000000
_symmetry_Int_Tables_number   1
_chemical_formula_structural   Nd3Zr(P3Ir4)2
_chemical_formula_sum   'Nd6 Zr2 P12 Ir16'
_cell_volume   598.12496866
_cell_formula_units_Z   2
loop_
 _symmetry_equiv_pos_site_id
 _symmetry_equiv_pos_as_xyz
  1  'x, y, z'
loop_
 _atom_site_type_symbol
 _atom_site_label
 _atom_site_symmetry_multiplicity
 _atom_site_fract_x
 _atom_site_fract_y
 _atom_site_fract_z
 _atom_site_occupancy
  Nd  Nd0  1  0.000000  0.500000  0.522283  1
  Nd  Nd1  1  0.500000  0.000000  0.477717  1
  Nd  Nd2  1  0.500000  0.819865  0.203176  1
  Nd  Nd3  1  0.500000  0.180135  0.203176  1
  Nd  Nd4  1  0.000000  0.680135  0.796824  1
  Nd  Nd5  1  0.000000  0.319865  0.796824  1
  Zr  Zr6  1  0.500000  0.500000  0.157317  1
  Zr  Zr7  1  0.000000  0.000000  0.842683  1
  P  P8  1  0.500000  0.500000  0.880212  1
  P  P9  1  0.000000  0.000000  0.119788  1
  P  P10  1  0.500000  0.500000  0.356786  1
  P  P11  1  0.000000  0.000000  0.643214  1
  P  P12  1  0.500000  0.311122  0.616152  1
  P  P13  1  0.500000  0.688878  0.616152  1
  P  P14  1  0.000000  0.188878  0.383848  1
  P  P15  1  0.000000  0.811122  0.383848  1
  P  P16  1  0.500000  0.842839  0.888987  1
  P  P17  1  0.500000  0.157161  0.888987  1
  P  P18  1  0.000000  0.657161  0.111013  1
  P  P19  1  0.000000  0.342839  0.111013  1
  Ir  Ir20  1  0.500000  0.500000  0.700113  1
  Ir  Ir21  1  0.000000  0.000000  0.299887  1
  Ir  Ir22  1  0.000000  0.500000  0.989533  1
  Ir  Ir23  1  0.500000  0.000000  0.010467  1
  Ir  Ir24  1  0.500000  0.331210  0.986286  1
  Ir  Ir25  1  0.500000  0.668790  0.986286  1
  Ir  Ir26  1  0.000000  0.168790  0.013714  1
  Ir  Ir27  1  0.000000  0.831210  0.013714  1
  Ir  Ir28  1  0.500000  0.291776  0.431599  1
  Ir  Ir29  1  0.500000  0.708224  0.431599  1
  Ir  Ir30  1  0.000000  0.208224  0.568401  1
  Ir  Ir31  1  0.000000  0.791776  0.568401  1
  Ir  Ir32  1  0.500000  0.873338  0.708268  1
  Ir  Ir33  1  0.500000  0.126662  0.708268  1
  Ir  Ir34  1  0.000000  0.626662  0.291732  1
  Ir  Ir35  1  0.000000  0.373338  0.291732  1
