# generated using pymatgen
data_NdSb12IrOs2Ru
_symmetry_space_group_name_H-M   'P 1'
_cell_length_a   8.14499994
_cell_length_b   8.16543109
_cell_length_c   8.15267790
_cell_angle_alpha   109.53207749
_cell_angle_beta   109.44475698
_cell_angle_gamma   109.50173853
_symmetry_Int_Tables_number   1
_chemical_formula_structural   NdSb12IrOs2Ru
_chemical_formula_sum   'Nd1 Sb12 Ir1 Os2 Ru1'
_cell_volume   417.06140756
_cell_formula_units_Z   1
loop_
 _symmetry_equiv_pos_site_id
 _symmetry_equiv_pos_as_xyz
  1  'x, y, z'
loop_
 _atom_site_type_symbol
 _atom_site_label
 _atom_site_symmetry_multiplicity
 _atom_site_fract_x
 _atom_site_fract_y
 _atom_site_fract_z
 _atom_site_occupancy
  Nd  Nd0  1  0.000000  0.000000  0.000000  1
  Sb  Sb1  1  0.337776  0.181000  0.842234  1
  Sb  Sb2  1  0.662224  0.819000  0.157766  1
  Sb  Sb3  1  0.659211  0.504584  0.842857  1
  Sb  Sb4  1  0.340789  0.495416  0.157143  1
  Sb  Sb5  1  0.182790  0.845618  0.341002  1
  Sb  Sb6  1  0.817210  0.154382  0.658998  1
  Sb  Sb7  1  0.504393  0.842961  0.661161  1
  Sb  Sb8  1  0.495607  0.157039  0.338839  1
  Sb  Sb9  1  0.843047  0.338457  0.183658  1
  Sb  Sb10  1  0.156953  0.661543  0.816342  1
  Sb  Sb11  1  0.843698  0.662646  0.504541  1
  Sb  Sb12  1  0.156302  0.337354  0.495459  1
  Ir  Ir13  1  0.000000  0.500000  0.000000  1
  Os  Os14  1  0.500000  0.000000  0.000000  1
  Os  Os15  1  0.500000  0.500000  0.500000  1
  Ru  Ru16  1  0.000000  0.000000  0.500000  1
