# generated using pymatgen
data_La8Tl5Zn3Rh8
_symmetry_space_group_name_H-M   'P 1'
_cell_length_a   4.18197900
_cell_length_b   7.70364604
_cell_length_c   16.94227400
_cell_angle_alpha   89.85985526
_cell_angle_beta   90.00000000
_cell_angle_gamma   90.00000000
_symmetry_Int_Tables_number   1
_chemical_formula_structural   La8Tl5Zn3Rh8
_chemical_formula_sum   'La8 Tl5 Zn3 Rh8'
_cell_volume   545.81890006
_cell_formula_units_Z   1
loop_
 _symmetry_equiv_pos_site_id
 _symmetry_equiv_pos_as_xyz
  1  'x, y, z'
loop_
 _atom_site_type_symbol
 _atom_site_label
 _atom_site_symmetry_multiplicity
 _atom_site_fract_x
 _atom_site_fract_y
 _atom_site_fract_z
 _atom_site_occupancy
  La  La0  1  0.250000  0.554713  0.786130  1
  La  La1  1  0.750000  0.444864  0.218475  1
  La  La2  1  0.750000  0.945831  0.290148  1
  La  La3  1  0.250000  0.054604  0.710181  1
  La  La4  1  0.250000  0.686651  0.559121  1
  La  La5  1  0.750000  0.315514  0.443391  1
  La  La6  1  0.750000  0.829321  0.057672  1
  La  La7  1  0.250000  0.178302  0.936731  1
  Tl  Tl8  1  0.250000  0.616854  0.352921  1
  Tl  Tl9  1  0.750000  0.384247  0.650121  1
  Tl  Tl10  1  0.750000  0.885699  0.844418  1
  Tl  Tl11  1  0.250000  0.111736  0.154703  1
  Tl  Tl12  1  0.250000  0.497979  0.063469  1
  Zn  Zn13  1  0.750000  0.501119  0.934632  1
  Zn  Zn14  1  0.750000  0.999539  0.560384  1
  Zn  Zn15  1  0.250000  0.003018  0.441344  1
  Rh  Rh16  1  0.250000  0.741638  0.188577  1
  Rh  Rh17  1  0.750000  0.263811  0.817121  1
  Rh  Rh18  1  0.750000  0.759779  0.679792  1
  Rh  Rh19  1  0.250000  0.243938  0.319786  1
  Rh  Rh20  1  0.250000  0.733233  0.932822  1
  Rh  Rh21  1  0.750000  0.243763  0.056661  1
  Rh  Rh22  1  0.750000  0.777666  0.439398  1
  Rh  Rh23  1  0.250000  0.226181  0.562003  1
