# generated using pymatgen
data_Lu3CdIr8
_symmetry_space_group_name_H-M   'P 1'
_cell_length_a   5.30389100
_cell_length_b   5.30389095
_cell_length_c   8.61440400
_cell_angle_alpha   90.00000000
_cell_angle_beta   90.00000000
_cell_angle_gamma   120.00000654
_symmetry_Int_Tables_number   1
_chemical_formula_structural   Lu3CdIr8
_chemical_formula_sum   'Lu3 Cd1 Ir8'
_cell_volume   209.86741599
_cell_formula_units_Z   1
loop_
 _symmetry_equiv_pos_site_id
 _symmetry_equiv_pos_as_xyz
  1  'x, y, z'
loop_
 _atom_site_type_symbol
 _atom_site_label
 _atom_site_symmetry_multiplicity
 _atom_site_fract_x
 _atom_site_fract_y
 _atom_site_fract_z
 _atom_site_occupancy
  Lu  Lu0  1  0.333333  0.666667  0.079772  1
  Lu  Lu1  1  0.666667  0.333333  0.558432  1
  Lu  Lu2  1  0.666667  0.333333  0.930736  1
  Cd  Cd3  1  0.333333  0.666667  0.440318  1
  Ir  Ir4  1  0.000000  0.000000  0.997029  1
  Ir  Ir5  1  0.000000  0.000000  0.498012  1
  Ir  Ir6  1  0.830042  0.660084  0.248058  1
  Ir  Ir7  1  0.170966  0.829034  0.750509  1
  Ir  Ir8  1  0.658068  0.829034  0.750509  1
  Ir  Ir9  1  0.339916  0.169958  0.248058  1
  Ir  Ir10  1  0.830042  0.169958  0.248058  1
  Ir  Ir11  1  0.170966  0.341932  0.750509  1
