# generated using pymatgen
data_LaNd(Si4Ni9)2
_symmetry_space_group_name_H-M   'P 1'
_cell_length_a   7.95521772
_cell_length_b   7.95521766
_cell_length_c   7.95521770
_cell_angle_alpha   121.00484333
_cell_angle_beta   121.00484146
_cell_angle_gamma   88.26819635
_symmetry_Int_Tables_number   1
_chemical_formula_structural   LaNd(Si4Ni9)2
_chemical_formula_sum   'La1 Nd1 Si8 Ni18'
_cell_volume   350.41217124
_cell_formula_units_Z   1
loop_
 _symmetry_equiv_pos_site_id
 _symmetry_equiv_pos_as_xyz
  1  'x, y, z'
loop_
 _atom_site_type_symbol
 _atom_site_label
 _atom_site_symmetry_multiplicity
 _atom_site_fract_x
 _atom_site_fract_y
 _atom_site_fract_z
 _atom_site_occupancy
  La  La0  1  0.250000  0.250000  0.000000  1
  Nd  Nd1  1  0.750000  0.750000  0.000000  1
  Si  Si2  1  0.447927  0.945971  0.159496  1
  Si  Si3  1  0.211569  0.713524  0.159496  1
  Si  Si4  1  0.713524  0.554029  0.501955  1
  Si  Si5  1  0.945971  0.786476  0.498045  1
  Si  Si6  1  0.288431  0.447927  0.501955  1
  Si  Si7  1  0.786476  0.288431  0.840504  1
  Si  Si8  1  0.554029  0.052073  0.840504  1
  Si  Si9  1  0.052073  0.211569  0.498045  1
  Ni  Ni10  1  0.568104  0.703827  0.271888  1
  Ni  Ni11  1  0.796173  0.931896  0.728112  1
  Ni  Ni12  1  0.316922  0.816809  0.763679  1
  Ni  Ni13  1  0.816809  0.053130  0.499886  1
  Ni  Ni14  1  0.431939  0.296216  0.728112  1
  Ni  Ni15  1  0.183078  0.946757  0.499886  1
  Ni  Ni16  1  0.446870  0.683191  0.500114  1
  Ni  Ni17  1  0.946757  0.446870  0.763679  1
  Ni  Ni18  1  0.683191  0.183078  0.236321  1
  Ni  Ni19  1  0.053130  0.553243  0.236321  1
  Ni  Ni20  1  0.500000  0.000000  0.500000  1
  Ni  Ni21  1  0.000000  0.500000  0.500000  1
  Ni  Ni22  1  0.296216  0.568104  0.864278  1
  Ni  Ni23  1  0.931896  0.203784  0.135722  1
  Ni  Ni24  1  0.068061  0.796173  0.864278  1
  Ni  Ni25  1  0.203784  0.068061  0.271888  1
  Ni  Ni26  1  0.553243  0.316922  0.500114  1
  Ni  Ni27  1  0.703827  0.431939  0.135722  1
