# generated using pymatgen
data_Sr(YbAs)2
_symmetry_space_group_name_H-M   'P 1'
_cell_length_a   4.82742600
_cell_length_b   4.82742602
_cell_length_c   7.62852800
_cell_angle_alpha   90.00000000
_cell_angle_beta   90.00000000
_cell_angle_gamma   120.00001355
_symmetry_Int_Tables_number   1
_chemical_formula_structural   Sr(YbAs)2
_chemical_formula_sum   'Sr1 Yb2 As2'
_cell_volume   153.95810943
_cell_formula_units_Z   1
loop_
 _symmetry_equiv_pos_site_id
 _symmetry_equiv_pos_as_xyz
  1  'x, y, z'
loop_
 _atom_site_type_symbol
 _atom_site_label
 _atom_site_symmetry_multiplicity
 _atom_site_fract_x
 _atom_site_fract_y
 _atom_site_fract_z
 _atom_site_occupancy
  Sr  Sr0  1  0.000000  0.000000  0.000000  1
  Yb  Yb1  1  0.333333  0.666667  0.645460  1
  Yb  Yb2  1  0.666667  0.333333  0.354540  1
  As  As3  1  0.666667  0.333333  0.756495  1
  As  As4  1  0.333333  0.666667  0.243505  1
