# generated using pymatgen
data_YHo7(Ta3Ge4)4
_symmetry_space_group_name_H-M   'P 1'
_cell_length_a   6.99643126
_cell_length_b   7.15360624
_cell_length_c   13.54044313
_cell_angle_alpha   90.00815627
_cell_angle_beta   89.99181672
_cell_angle_gamma   90.00331162
_symmetry_Int_Tables_number   1
_chemical_formula_structural   YHo7(Ta3Ge4)4
_chemical_formula_sum   'Y1 Ho7 Ta12 Ge16'
_cell_volume   677.69529591
_cell_formula_units_Z   1
loop_
 _symmetry_equiv_pos_site_id
 _symmetry_equiv_pos_as_xyz
  1  'x, y, z'
loop_
 _atom_site_type_symbol
 _atom_site_label
 _atom_site_symmetry_multiplicity
 _atom_site_fract_x
 _atom_site_fract_y
 _atom_site_fract_z
 _atom_site_occupancy
  Y  Y0  1  0.996607  0.173535  0.094256  1
  Ho  Ho1  1  0.496202  0.326234  0.094417  1
  Ho  Ho2  1  0.996151  0.173872  0.405579  1
  Ho  Ho3  1  0.503776  0.673990  0.594411  1
  Ho  Ho4  1  0.003798  0.825969  0.905324  1
  Ho  Ho5  1  0.503962  0.673760  0.905347  1
  Ho  Ho6  1  0.003821  0.826115  0.594437  1
  Ho  Ho7  1  0.496221  0.326166  0.405934  1
  Ta  Ta8  1  0.664056  0.013533  0.749853  1
  Ta  Ta9  1  0.164041  0.486549  0.749861  1
  Ta  Ta10  1  0.335903  0.986289  0.250192  1
  Ta  Ta11  1  0.835746  0.513574  0.250179  1
  Ta  Ta12  1  0.839942  0.329342  0.625998  1
  Ta  Ta13  1  0.340031  0.170733  0.873796  1
  Ta  Ta14  1  0.160017  0.670482  0.126135  1
  Ta  Ta15  1  0.659861  0.829073  0.374170  1
  Ta  Ta16  1  0.160190  0.670745  0.374208  1
  Ta  Ta17  1  0.659753  0.829139  0.126273  1
  Ta  Ta18  1  0.839518  0.329779  0.873676  1
  Ta  Ta19  1  0.339854  0.170700  0.626030  1
  Ge  Ge20  1  0.804459  0.640560  0.749830  1
  Ge  Ge21  1  0.304517  0.859514  0.749916  1
  Ge  Ge22  1  0.196092  0.360177  0.250565  1
  Ge  Ge23  1  0.694936  0.140371  0.250395  1
  Ge  Ge24  1  0.539893  0.378920  0.749823  1
  Ge  Ge25  1  0.039941  0.121189  0.749992  1
  Ge  Ge26  1  0.460022  0.621084  0.250166  1
  Ge  Ge27  1  0.959851  0.878357  0.250324  1
  Ge  Ge28  1  0.676255  0.037697  0.541536  1
  Ge  Ge29  1  0.176366  0.462764  0.958090  1
  Ge  Ge30  1  0.325210  0.961270  0.041224  1
  Ge  Ge31  1  0.823850  0.537673  0.458605  1
  Ge  Ge32  1  0.323766  0.962369  0.458612  1
  Ge  Ge33  1  0.823445  0.538627  0.041198  1
  Ge  Ge34  1  0.675710  0.037598  0.958112  1
  Ge  Ge35  1  0.176238  0.462251  0.541537  1
