# generated using pymatgen
data_HoEr3Co3Si4Ru
_symmetry_space_group_name_H-M   'P 1'
_cell_length_a   4.19489600
_cell_length_b   6.82361700
_cell_length_c   6.97256105
_cell_angle_alpha   90.21936873
_cell_angle_beta   90.00000000
_cell_angle_gamma   90.00000000
_symmetry_Int_Tables_number   1
_chemical_formula_structural   HoEr3Co3Si4Ru
_chemical_formula_sum   'Ho1 Er3 Co3 Si4 Ru1'
_cell_volume   199.58366029
_cell_formula_units_Z   1
loop_
 _symmetry_equiv_pos_site_id
 _symmetry_equiv_pos_as_xyz
  1  'x, y, z'
loop_
 _atom_site_type_symbol
 _atom_site_label
 _atom_site_symmetry_multiplicity
 _atom_site_fract_x
 _atom_site_fract_y
 _atom_site_fract_z
 _atom_site_occupancy
  Ho  Ho0  1  0.750000  0.012647  0.192599  1
  Er  Er1  1  0.250000  0.986437  0.805491  1
  Er  Er2  1  0.250000  0.481944  0.686401  1
  Er  Er3  1  0.750000  0.511605  0.314776  1
  Co  Co4  1  0.750000  0.852193  0.568238  1
  Co  Co5  1  0.250000  0.154525  0.435959  1
  Co  Co6  1  0.750000  0.349714  0.932964  1
  Si  Si7  1  0.250000  0.298913  0.103234  1
  Si  Si8  1  0.750000  0.696445  0.888247  1
  Si  Si9  1  0.250000  0.805465  0.399156  1
  Si  Si10  1  0.750000  0.195868  0.606667  1
  Ru  Ru11  1  0.250000  0.654244  0.066268  1
