# generated using pymatgen
data_SmHoTm2(WO6)2
_symmetry_space_group_name_H-M   'P 1'
_cell_length_a   5.40659400
_cell_length_b   7.70968338
_cell_length_c   11.44227115
_cell_angle_alpha   75.46159311
_cell_angle_beta   90.00000000
_cell_angle_gamma   90.00000000
_symmetry_Int_Tables_number   1
_chemical_formula_structural   SmHoTm2(WO6)2
_chemical_formula_sum   'Sm2 Ho2 Tm4 W4 O24'
_cell_volume   461.67752669
_cell_formula_units_Z   2
loop_
 _symmetry_equiv_pos_site_id
 _symmetry_equiv_pos_as_xyz
  1  'x, y, z'
loop_
 _atom_site_type_symbol
 _atom_site_label
 _atom_site_symmetry_multiplicity
 _atom_site_fract_x
 _atom_site_fract_y
 _atom_site_fract_z
 _atom_site_occupancy
  Sm  Sm0  1  0.684988  0.500000  0.750000  1
  Sm  Sm1  1  0.315012  0.500000  0.250000  1
  Ho  Ho2  1  0.742074  0.000000  0.750000  1
  Ho  Ho3  1  0.257926  0.000000  0.250000  1
  Tm  Tm4  1  0.184763  0.796020  0.578143  1
  Tm  Tm5  1  0.815237  0.796020  0.078143  1
  Tm  Tm6  1  0.184763  0.203980  0.921857  1
  Tm  Tm7  1  0.815237  0.203980  0.421857  1
  W  W8  1  0.255088  0.725752  0.885460  1
  W  W9  1  0.744912  0.725752  0.385460  1
  W  W10  1  0.255088  0.274248  0.614540  1
  W  W11  1  0.744912  0.274248  0.114540  1
  O  O12  1  0.043838  0.941549  0.896732  1
  O  O13  1  0.536510  0.844914  0.931860  1
  O  O14  1  0.956162  0.941549  0.396732  1
  O  O15  1  0.456290  0.793855  0.726102  1
  O  O16  1  0.463490  0.844914  0.431860  1
  O  O17  1  0.985055  0.716781  0.769598  1
  O  O18  1  0.543710  0.793855  0.226102  1
  O  O19  1  0.855672  0.638246  0.547791  1
  O  O20  1  0.352667  0.489953  0.887874  1
  O  O21  1  0.014945  0.716781  0.269598  1
  O  O22  1  0.352667  0.510047  0.612126  1
  O  O23  1  0.855672  0.361754  0.952209  1
  O  O24  1  0.144328  0.638246  0.047791  1
  O  O25  1  0.647333  0.489953  0.387874  1
  O  O26  1  0.985055  0.283219  0.730402  1
  O  O27  1  0.647333  0.510047  0.112126  1
  O  O28  1  0.144328  0.361754  0.452209  1
  O  O29  1  0.456290  0.206145  0.773898  1
  O  O30  1  0.014945  0.283219  0.230402  1
  O  O31  1  0.536510  0.155086  0.568140  1
  O  O32  1  0.543710  0.206145  0.273898  1
  O  O33  1  0.043838  0.058451  0.603268  1
  O  O34  1  0.463490  0.155086  0.068140  1
  O  O35  1  0.956162  0.058451  0.103268  1
