# generated using pymatgen
data_Mn2FeCo(MoP)4
_symmetry_space_group_name_H-M   'P 1'
_cell_length_a   3.69357000
_cell_length_b   5.90583987
_cell_length_c   6.77656939
_cell_angle_alpha   89.54327224
_cell_angle_beta   90.00000000
_cell_angle_gamma   90.00000000
_symmetry_Int_Tables_number   1
_chemical_formula_structural   Mn2FeCo(MoP)4
_chemical_formula_sum   'Mn2 Fe1 Co1 Mo4 P4'
_cell_volume   147.81690093
_cell_formula_units_Z   1
loop_
 _symmetry_equiv_pos_site_id
 _symmetry_equiv_pos_as_xyz
  1  'x, y, z'
loop_
 _atom_site_type_symbol
 _atom_site_label
 _atom_site_symmetry_multiplicity
 _atom_site_fract_x
 _atom_site_fract_y
 _atom_site_fract_z
 _atom_site_occupancy
  Mn  Mn0  1  0.250000  0.856815  0.938922  1
  Mn  Mn1  1  0.750000  0.142068  0.058919  1
  Fe  Fe2  1  0.750000  0.636353  0.438890  1
  Co  Co3  1  0.250000  0.360666  0.564691  1
  Mo  Mo4  1  0.250000  0.977031  0.322268  1
  Mo  Mo5  1  0.250000  0.470282  0.171310  1
  Mo  Mo6  1  0.750000  0.022467  0.675907  1
  Mo  Mo7  1  0.750000  0.533194  0.829142  1
  P  P8  1  0.250000  0.230568  0.877477  1
  P  P9  1  0.250000  0.734353  0.617579  1
  P  P10  1  0.750000  0.769981  0.125558  1
  P  P11  1  0.750000  0.266224  0.379336  1
