# generated using pymatgen
data_BaLaCu17Si8Ni
_symmetry_space_group_name_H-M   'P 1'
_cell_length_a   8.21962495
_cell_length_b   8.21962475
_cell_length_c   8.17986047
_cell_angle_alpha   120.36520449
_cell_angle_beta   120.36521040
_cell_angle_gamma   89.64884987
_symmetry_Int_Tables_number   1
_chemical_formula_structural   BaLaCu17Si8Ni
_chemical_formula_sum   'Ba1 La1 Cu17 Si8 Ni1'
_cell_volume   387.64901381
_cell_formula_units_Z   1
loop_
 _symmetry_equiv_pos_site_id
 _symmetry_equiv_pos_as_xyz
  1  'x, y, z'
loop_
 _atom_site_type_symbol
 _atom_site_label
 _atom_site_symmetry_multiplicity
 _atom_site_fract_x
 _atom_site_fract_y
 _atom_site_fract_z
 _atom_site_occupancy
  Ba  Ba0  1  0.750000  0.750000  0.000000  1
  La  La1  1  0.250000  0.250000  0.000000  1
  Cu  Cu2  1  0.935967  0.205321  0.138157  1
  Cu  Cu3  1  0.204144  0.068523  0.269762  1
  Cu  Cu4  1  0.798762  0.934381  0.730238  1
  Cu  Cu5  1  0.431477  0.295856  0.730238  1
  Cu  Cu6  1  0.067164  0.797810  0.861843  1
  Cu  Cu7  1  0.807549  0.059769  0.502611  1
  Cu  Cu8  1  0.557159  0.304938  0.497389  1
  Cu  Cu9  1  0.195062  0.942841  0.502611  1
  Cu  Cu10  1  0.440231  0.692451  0.497389  1
  Cu  Cu11  1  0.944996  0.442197  0.753123  1
  Cu  Cu12  1  0.689073  0.191873  0.246877  1
  Cu  Cu13  1  0.057803  0.555004  0.246877  1
  Cu  Cu14  1  0.702190  0.432836  0.138157  1
  Cu  Cu15  1  0.565619  0.701238  0.269762  1
  Cu  Cu16  1  0.000000  0.500000  0.500000  1
  Cu  Cu17  1  0.308127  0.810927  0.753123  1
  Cu  Cu18  1  0.294679  0.564033  0.861843  1
  Si  Si19  1  0.785790  0.281829  0.840185  1
  Si  Si20  1  0.554395  0.058356  0.840185  1
  Si  Si21  1  0.058899  0.211375  0.504623  1
  Si  Si22  1  0.288625  0.441101  0.495377  1
  Si  Si23  1  0.945724  0.793248  0.504623  1
  Si  Si24  1  0.441644  0.945605  0.159815  1
  Si  Si25  1  0.218171  0.714210  0.159815  1
  Si  Si26  1  0.706752  0.554276  0.495377  1
  Ni  Ni27  1  0.500000  0.000000  0.500000  1
