# generated using pymatgen
data_Y10Ir3PdRh2
_symmetry_space_group_name_H-M   'P 1'
_cell_length_a   11.00110111
_cell_length_b   10.98602200
_cell_length_c   6.38463207
_cell_angle_alpha   90.00000000
_cell_angle_beta   89.98347411
_cell_angle_gamma   90.00000000
_symmetry_Int_Tables_number   1
_chemical_formula_structural   Y10Ir3PdRh2
_chemical_formula_sum   'Y20 Ir6 Pd2 Rh4'
_cell_volume   771.63599373
_cell_formula_units_Z   2
loop_
 _symmetry_equiv_pos_site_id
 _symmetry_equiv_pos_as_xyz
  1  'x, y, z'
loop_
 _atom_site_type_symbol
 _atom_site_label
 _atom_site_symmetry_multiplicity
 _atom_site_fract_x
 _atom_site_fract_y
 _atom_site_fract_z
 _atom_site_occupancy
  Y  Y0  1  0.290934  0.089411  0.379400  1
  Y  Y1  1  0.290934  0.910589  0.879400  1
  Y  Y2  1  0.703923  0.092703  0.874324  1
  Y  Y3  1  0.703923  0.907297  0.374324  1
  Y  Y4  1  0.582958  0.788858  0.880953  1
  Y  Y5  1  0.582958  0.211142  0.380953  1
  Y  Y6  1  0.408695  0.790464  0.380989  1
  Y  Y7  1  0.408695  0.209536  0.880989  1
  Y  Y8  1  0.210227  0.410078  0.618229  1
  Y  Y9  1  0.210227  0.589922  0.118229  1
  Y  Y10  1  0.789462  0.415699  0.119412  1
  Y  Y11  1  0.789462  0.584301  0.619412  1
  Y  Y12  1  0.913361  0.707345  0.127261  1
  Y  Y13  1  0.913361  0.292655  0.627261  1
  Y  Y14  1  0.094667  0.706707  0.619808  1
  Y  Y15  1  0.094667  0.293293  0.119808  1
  Y  Y16  1  0.004084  0.998936  0.499763  1
  Y  Y17  1  0.004084  0.001064  0.999763  1
  Y  Y18  1  0.499804  0.498827  0.000230  1
  Y  Y19  1  0.499804  0.501173  0.500230  1
  Ir  Ir20  1  0.152947  0.154705  0.750011  1
  Ir  Ir21  1  0.152947  0.845295  0.250011  1
  Ir  Ir22  1  0.656216  0.345351  0.748839  1
  Ir  Ir23  1  0.656216  0.654649  0.248839  1
  Ir  Ir24  1  0.346599  0.345716  0.251018  1
  Ir  Ir25  1  0.346599  0.654284  0.751018  1
  Pd  Pd26  1  0.844955  0.154138  0.249877  1
  Pd  Pd27  1  0.844955  0.845862  0.749877  1
  Rh  Rh28  1  0.501687  0.999764  0.126417  1
  Rh  Rh29  1  0.501687  0.000236  0.626417  1
  Rh  Rh30  1  0.999481  0.500586  0.873468  1
  Rh  Rh31  1  0.999481  0.499414  0.373468  1
