# generated using pymatgen
data_Zn3GaP6N13
_symmetry_space_group_name_H-M   'P 1'
_cell_length_a   6.99331544
_cell_length_b   6.95626139
_cell_length_c   6.99331626
_cell_angle_alpha   109.36391519
_cell_angle_beta   109.57829693
_cell_angle_gamma   109.36392639
_symmetry_Int_Tables_number   1
_chemical_formula_structural   Zn3GaP6N13
_chemical_formula_sum   'Zn3 Ga1 P6 N13'
_cell_volume   262.23685815
_cell_formula_units_Z   1
loop_
 _symmetry_equiv_pos_site_id
 _symmetry_equiv_pos_as_xyz
  1  'x, y, z'
loop_
 _atom_site_type_symbol
 _atom_site_label
 _atom_site_symmetry_multiplicity
 _atom_site_fract_x
 _atom_site_fract_y
 _atom_site_fract_z
 _atom_site_occupancy
  Zn  Zn0  1  0.716175  0.996903  0.000000  1
  Zn  Zn1  1  0.000000  0.996903  0.716175  1
  Zn  Zn2  1  0.283825  0.280728  0.283825  1
  Ga  Ga3  1  0.000000  0.702385  0.000000  1
  P  P4  1  0.498672  0.250956  0.748095  1
  P  P5  1  0.501328  0.752284  0.249423  1
  P  P6  1  0.750577  0.502861  0.251905  1
  P  P7  1  0.249423  0.752284  0.501328  1
  P  P8  1  0.748095  0.250956  0.498672  1
  P  P9  1  0.251905  0.502861  0.750577  1
  N  N10  1  0.000000  0.739580  0.457600  1
  N  N11  1  0.273738  0.539669  0.538210  1
  N  N12  1  0.738949  0.464565  0.000000  1
  N  N13  1  0.261051  0.725617  0.261051  1
  N  N14  1  0.461790  0.001458  0.735528  1
  N  N15  1  0.726262  0.265930  0.264472  1
  N  N16  1  0.542400  0.281979  0.542400  1
  N  N17  1  0.735528  0.001458  0.461790  1
  N  N18  1  0.264472  0.265930  0.726262  1
  N  N19  1  0.457600  0.739580  0.000000  1
  N  N20  1  0.538210  0.539669  0.273738  1
  N  N21  1  0.000000  0.464565  0.738949  1
  N  N22  1  0.000000  0.980878  0.000000  1
