# generated using pymatgen
data_Tm3Lu(Bi2O7)2
_symmetry_space_group_name_H-M   'P 1'
_cell_length_a   6.51085417
_cell_length_b   6.61091181
_cell_length_c   7.68337700
_cell_angle_alpha   106.63076393
_cell_angle_beta   89.63354622
_cell_angle_gamma   98.05298316
_symmetry_Int_Tables_number   1
_chemical_formula_structural   Tm3Lu(Bi2O7)2
_chemical_formula_sum   'Tm3 Lu1 Bi4 O14'
_cell_volume   313.55636463
_cell_formula_units_Z   1
loop_
 _symmetry_equiv_pos_site_id
 _symmetry_equiv_pos_as_xyz
  1  'x, y, z'
loop_
 _atom_site_type_symbol
 _atom_site_label
 _atom_site_symmetry_multiplicity
 _atom_site_fract_x
 _atom_site_fract_y
 _atom_site_fract_z
 _atom_site_occupancy
  Tm  Tm0  1  0.536720  0.994110  0.749768  1
  Tm  Tm1  1  0.263873  0.537900  0.887659  1
  Tm  Tm2  1  0.735551  0.462576  0.111726  1
  Lu  Lu3  1  0.464757  0.004239  0.248828  1
  Bi  Bi4  1  0.000487  0.000290  0.500056  1
  Bi  Bi5  1  0.001100  0.000562  0.001321  1
  Bi  Bi6  1  0.727573  0.466018  0.614565  1
  Bi  Bi7  1  0.269386  0.531099  0.380225  1
  O  O8  1  0.451949  0.656508  0.160965  1
  O  O9  1  0.548352  0.344714  0.838995  1
  O  O10  1  0.305908  0.920725  0.949515  1
  O  O11  1  0.696908  0.079501  0.053774  1
  O  O12  1  0.305791  0.922896  0.511495  1
  O  O13  1  0.695203  0.077430  0.484624  1
  O  O14  1  0.543277  0.356350  0.334239  1
  O  O15  1  0.452371  0.639838  0.662382  1
  O  O16  1  0.934836  0.667375  0.965245  1
  O  O17  1  0.068530  0.334794  0.039666  1
  O  O18  1  0.089129  0.328911  0.634973  1
  O  O19  1  0.904187  0.671457  0.367983  1
  O  O20  1  0.870451  0.918387  0.730823  1
  O  O21  1  0.133662  0.084319  0.271171  1
