# generated using pymatgen
data_Sr6Co5NiN6
_symmetry_space_group_name_H-M   'P 1'
_cell_length_a   5.23603868
_cell_length_b   9.18564516
_cell_length_c   13.29270703
_cell_angle_alpha   90.06917437
_cell_angle_beta   90.01351316
_cell_angle_gamma   89.77042906
_symmetry_Int_Tables_number   1
_chemical_formula_structural   Sr6Co5NiN6
_chemical_formula_sum   'Sr12 Co10 Ni2 N12'
_cell_volume   639.32565164
_cell_formula_units_Z   2
loop_
 _symmetry_equiv_pos_site_id
 _symmetry_equiv_pos_as_xyz
  1  'x, y, z'
loop_
 _atom_site_type_symbol
 _atom_site_label
 _atom_site_symmetry_multiplicity
 _atom_site_fract_x
 _atom_site_fract_y
 _atom_site_fract_z
 _atom_site_occupancy
  Sr  Sr0  1  0.008760  0.002885  0.249588  1
  Sr  Sr1  1  0.506251  0.497016  0.750298  1
  Sr  Sr2  1  0.493749  0.502984  0.249702  1
  Sr  Sr3  1  0.991240  0.997115  0.750412  1
  Sr  Sr4  1  0.025120  0.329458  0.086902  1
  Sr  Sr5  1  0.523578  0.169840  0.912534  1
  Sr  Sr6  1  0.974880  0.670542  0.913098  1
  Sr  Sr7  1  0.475275  0.830143  0.413006  1
  Sr  Sr8  1  0.975386  0.670828  0.587772  1
  Sr  Sr9  1  0.024614  0.329172  0.412228  1
  Sr  Sr10  1  0.524725  0.169857  0.586994  1
  Sr  Sr11  1  0.476422  0.830160  0.087466  1
  Co  Co12  1  0.540650  0.155434  0.161764  1
  Co  Co13  1  0.000000  0.000000  0.500000  1
  Co  Co14  1  0.500000  0.500000  0.500000  1
  Co  Co15  1  0.500000  0.500000  0.000000  1
  Co  Co16  1  0.000000  0.000000  0.000000  1
  Co  Co17  1  0.035812  0.344038  0.839741  1
  Co  Co18  1  0.964188  0.655962  0.160259  1
  Co  Co19  1  0.459198  0.845976  0.662232  1
  Co  Co20  1  0.459350  0.844566  0.838236  1
  Co  Co21  1  0.540802  0.154024  0.337768  1
  Ni  Ni22  1  0.040589  0.344426  0.658819  1
  Ni  Ni23  1  0.959411  0.655574  0.341181  1
  N  N24  1  0.731589  0.576508  0.425075  1
  N  N25  1  0.688280  0.765007  0.749736  1
  N  N26  1  0.187758  0.733795  0.249389  1
  N  N27  1  0.812242  0.266205  0.750611  1
  N  N28  1  0.311720  0.234993  0.250264  1
  N  N29  1  0.764952  0.077184  0.422121  1
  N  N30  1  0.268411  0.423492  0.574925  1
  N  N31  1  0.735942  0.577425  0.077606  1
  N  N32  1  0.235496  0.921862  0.922493  1
  N  N33  1  0.235048  0.922816  0.577879  1
  N  N34  1  0.264058  0.422575  0.922394  1
  N  N35  1  0.764504  0.078138  0.077507  1
