# generated using pymatgen
data_Yb2ZrPa(Al3Ir)6
_symmetry_space_group_name_H-M   'P 1'
_cell_length_a   7.56179244
_cell_length_b   7.54876800
_cell_length_c   9.39731000
_cell_angle_alpha   90.00000000
_cell_angle_beta   90.00000000
_cell_angle_gamma   119.47021792
_symmetry_Int_Tables_number   1
_chemical_formula_structural   Yb2ZrPa(Al3Ir)6
_chemical_formula_sum   'Yb2 Zr1 Pa1 Al18 Ir6'
_cell_volume   467.01281993
_cell_formula_units_Z   1
loop_
 _symmetry_equiv_pos_site_id
 _symmetry_equiv_pos_as_xyz
  1  'x, y, z'
loop_
 _atom_site_type_symbol
 _atom_site_label
 _atom_site_symmetry_multiplicity
 _atom_site_fract_x
 _atom_site_fract_y
 _atom_site_fract_z
 _atom_site_occupancy
  Yb  Yb0  1  0.672502  0.993669  0.250000  1
  Yb  Yb1  1  0.328513  0.004346  0.750000  1
  Zr  Zr2  1  0.002815  0.328941  0.750000  1
  Pa  Pa3  1  0.996786  0.674257  0.250000  1
  Al  Al4  1  0.134719  0.132443  0.250000  1
  Al  Al5  1  0.874493  0.880094  0.750000  1
  Al  Al6  1  0.999948  0.331630  0.071776  1
  Al  Al7  1  0.999636  0.662032  0.917385  1
  Al  Al8  1  0.999636  0.662032  0.582615  1
  Al  Al9  1  0.341193  0.005564  0.427110  1
  Al  Al10  1  0.999948  0.331630  0.428224  1
  Al  Al11  1  0.666659  0.002131  0.577493  1
  Al  Al12  1  0.666659  0.002131  0.922507  1
  Al  Al13  1  0.341193  0.005564  0.072890  1
  Al  Al14  1  0.329383  0.331029  0.557476  1
  Al  Al15  1  0.662955  0.666044  0.451630  1
  Al  Al16  1  0.662955  0.666044  0.048370  1
  Al  Al17  1  0.329383  0.331029  0.942524  1
  Al  Al18  1  0.337572  0.546520  0.250000  1
  Al  Al19  1  0.663145  0.448365  0.750000  1
  Al  Al20  1  0.548395  0.344267  0.250000  1
  Al  Al21  1  0.443301  0.654708  0.750000  1
  Ir  Ir22  1  0.674914  0.330869  0.000218  1
  Ir  Ir23  1  0.324381  0.670063  0.000907  1
  Ir  Ir24  1  0.324381  0.670063  0.499093  1
  Ir  Ir25  1  0.674914  0.330869  0.499782  1
  Ir  Ir26  1  0.999809  0.996831  0.002497  1
  Ir  Ir27  1  0.999809  0.996831  0.497503  1
