# generated using pymatgen
data_Ba6Dy(TcO6)2
_symmetry_space_group_name_H-M   'P 1'
_cell_length_a   9.26973384
_cell_length_b   9.26973295
_cell_length_c   7.42485300
_cell_angle_alpha   68.01817859
_cell_angle_beta   68.01818081
_cell_angle_gamma   36.86115077
_symmetry_Int_Tables_number   1
_chemical_formula_structural   Ba6Dy(TcO6)2
_chemical_formula_sum   'Ba6 Dy1 Tc2 O12'
_cell_volume   351.67492137
_cell_formula_units_Z   1
loop_
 _symmetry_equiv_pos_site_id
 _symmetry_equiv_pos_as_xyz
  1  'x, y, z'
loop_
 _atom_site_type_symbol
 _atom_site_label
 _atom_site_symmetry_multiplicity
 _atom_site_fract_x
 _atom_site_fract_y
 _atom_site_fract_z
 _atom_site_occupancy
  Ba  Ba0  1  0.215221  0.215221  0.706023  1
  Ba  Ba1  1  0.881840  0.881840  0.709644  1
  Ba  Ba2  1  0.548647  0.548647  0.708020  1
  Ba  Ba3  1  0.784779  0.784779  0.293977  1
  Ba  Ba4  1  0.451353  0.451353  0.291980  1
  Ba  Ba5  1  0.118160  0.118160  0.290356  1
  Dy  Dy6  1  0.000000  0.000000  0.000000  1
  Tc  Tc7  1  0.672723  0.672723  0.999833  1
  Tc  Tc8  1  0.327277  0.327277  0.000167  1
  O  O9  1  0.281185  0.281185  0.304118  1
  O  O10  1  0.942793  0.942793  0.331856  1
  O  O11  1  0.618625  0.618625  0.301795  1
  O  O12  1  0.718815  0.718815  0.695882  1
  O  O13  1  0.381375  0.381375  0.698205  1
  O  O14  1  0.057207  0.057207  0.668144  1
  O  O15  1  0.000000  0.500000  0.000000  1
  O  O16  1  0.642522  0.175609  0.001096  1
  O  O17  1  0.357478  0.824391  0.998904  1
  O  O18  1  0.500000  0.000000  0.000000  1
  O  O19  1  0.175609  0.642522  0.001096  1
  O  O20  1  0.824391  0.357478  0.998904  1
