# generated using pymatgen
data_Nd10Sn6HgI
_symmetry_space_group_name_H-M   'P 1'
_cell_length_a   9.62298500
_cell_length_b   9.62326970
_cell_length_c   6.82568100
_cell_angle_alpha   90.00127155
_cell_angle_beta   89.99937200
_cell_angle_gamma   120.00098273
_symmetry_Int_Tables_number   1
_chemical_formula_structural   Nd10Sn6HgI
_chemical_formula_sum   'Nd10 Sn6 Hg1 I1'
_cell_volume   547.39998957
_cell_formula_units_Z   1
loop_
 _symmetry_equiv_pos_site_id
 _symmetry_equiv_pos_as_xyz
  1  'x, y, z'
loop_
 _atom_site_type_symbol
 _atom_site_label
 _atom_site_symmetry_multiplicity
 _atom_site_fract_x
 _atom_site_fract_y
 _atom_site_fract_z
 _atom_site_occupancy
  Nd  Nd0  1  0.723947  0.723949  0.245535  1
  Nd  Nd1  1  0.333315  0.666658  0.500000  1
  Nd  Nd2  1  0.276053  0.276051  0.754465  1
  Nd  Nd3  1  0.000000  0.276047  0.245543  1
  Nd  Nd4  1  0.666685  0.333342  0.500000  1
  Nd  Nd5  1  0.276053  0.000003  0.245535  1
  Nd  Nd6  1  0.723947  0.999997  0.754465  1
  Nd  Nd7  1  0.333318  0.666659  0.000000  1
  Nd  Nd8  1  0.666682  0.333341  0.000000  1
  Nd  Nd9  1  0.000000  0.723953  0.754457  1
  Sn  Sn10  1  0.383175  0.383154  0.249183  1
  Sn  Sn11  1  0.616825  0.616846  0.750817  1
  Sn  Sn12  1  0.383175  0.000022  0.750817  1
  Sn  Sn13  1  0.000000  0.616836  0.249167  1
  Sn  Sn14  1  0.616825  0.999978  0.249183  1
  Sn  Sn15  1  0.000000  0.383164  0.750833  1
  Hg  Hg16  1  0.000000  0.000000  0.000000  1
  I  I17  1  0.000000  0.000000  0.500000  1
