# generated using pymatgen
data_Ho20Ir7PdRu4
_symmetry_space_group_name_H-M   'P 1'
_cell_length_a   10.80265920
_cell_length_b   10.80265920
_cell_length_c   6.42462471
_cell_angle_alpha   90.07434534
_cell_angle_beta   90.07434534
_cell_angle_gamma   89.95246398
_symmetry_Int_Tables_number   1
_chemical_formula_structural   Ho20Ir7PdRu4
_chemical_formula_sum   'Ho20 Ir7 Pd1 Ru4'
_cell_volume   749.73577387
_cell_formula_units_Z   1
loop_
 _symmetry_equiv_pos_site_id
 _symmetry_equiv_pos_as_xyz
  1  'x, y, z'
loop_
 _atom_site_type_symbol
 _atom_site_label
 _atom_site_symmetry_multiplicity
 _atom_site_fract_x
 _atom_site_fract_y
 _atom_site_fract_z
 _atom_site_occupancy
  Ho  Ho0  1  0.292983  0.086301  0.377682  1
  Ho  Ho1  1  0.293850  0.913493  0.877093  1
  Ho  Ho2  1  0.703706  0.084851  0.871584  1
  Ho  Ho3  1  0.704661  0.909649  0.379745  1
  Ho  Ho4  1  0.586439  0.793266  0.877863  1
  Ho  Ho5  1  0.582113  0.206887  0.378328  1
  Ho  Ho6  1  0.412953  0.793327  0.377896  1
  Ho  Ho7  1  0.413211  0.206679  0.878086  1
  Ho  Ho8  1  0.206734  0.413561  0.622137  1
  Ho  Ho9  1  0.206673  0.587047  0.122104  1
  Ho  Ho10  1  0.793113  0.417887  0.121672  1
  Ho  Ho11  1  0.793321  0.586789  0.621914  1
  Ho  Ho12  1  0.913699  0.707017  0.122318  1
  Ho  Ho13  1  0.915149  0.296294  0.628416  1
  Ho  Ho14  1  0.086507  0.706150  0.622907  1
  Ho  Ho15  1  0.090351  0.295339  0.120255  1
  Ho  Ho16  1  0.001950  0.997797  0.501961  1
  Ho  Ho17  1  0.002203  0.998050  0.998039  1
  Ho  Ho18  1  0.499863  0.500123  0.999827  1
  Ho  Ho19  1  0.499877  0.500137  0.500173  1
  Ir  Ir20  1  0.847979  0.848893  0.749979  1
  Ir  Ir21  1  0.151107  0.152021  0.750021  1
  Ir  Ir22  1  0.152224  0.847776  0.250000  1
  Ir  Ir23  1  0.653306  0.346694  0.750000  1
  Ir  Ir24  1  0.652457  0.652173  0.250194  1
  Ir  Ir25  1  0.347827  0.347543  0.249806  1
  Ir  Ir26  1  0.347718  0.652282  0.750000  1
  Pd  Pd27  1  0.846790  0.153210  0.250000  1
  Ru  Ru28  1  0.500880  0.000402  0.123105  1
  Ru  Ru29  1  0.500920  0.000161  0.622061  1
  Ru  Ru30  1  0.999839  0.499080  0.877939  1
  Ru  Ru31  1  0.999598  0.499120  0.376895  1
