# generated using pymatgen
data_Li12La3Dy9(WO6)8
_symmetry_space_group_name_H-M   'P 1'
_cell_length_a   10.81873312
_cell_length_b   10.77151627
_cell_length_c   10.77151552
_cell_angle_alpha   109.38225406
_cell_angle_beta   109.56003659
_cell_angle_gamma   109.56003729
_symmetry_Int_Tables_number   1
_chemical_formula_structural   Li12La3Dy9(WO6)8
_chemical_formula_sum   'Li12 La3 Dy9 W8 O48'
_cell_volume   965.23038306
_cell_formula_units_Z   1
loop_
 _symmetry_equiv_pos_site_id
 _symmetry_equiv_pos_as_xyz
  1  'x, y, z'
loop_
 _atom_site_type_symbol
 _atom_site_label
 _atom_site_symmetry_multiplicity
 _atom_site_fract_x
 _atom_site_fract_y
 _atom_site_fract_z
 _atom_site_occupancy
  Li  Li0  1  0.250598  0.373686  0.125171  1
  Li  Li1  1  0.874576  0.251486  0.125172  1
  Li  Li2  1  0.377072  0.127758  0.249888  1
  Li  Li3  1  0.872816  0.622130  0.249888  1
  Li  Li4  1  0.627183  0.750111  0.377868  1
  Li  Li5  1  0.750686  0.127758  0.377868  1
  Li  Li6  1  0.249402  0.874829  0.626314  1
  Li  Li7  1  0.376911  0.251486  0.626314  1
  Li  Li8  1  0.123089  0.373686  0.748514  1
  Li  Li9  1  0.625425  0.874830  0.748514  1
  Li  Li10  1  0.749314  0.622131  0.872242  1
  Li  Li11  1  0.122929  0.750111  0.872242  1
  La  La12  1  0.750000  0.876528  0.123471  1
  La  La13  1  0.373473  0.746945  0.123472  1
  La  La14  1  0.126528  0.876529  0.253056  1
  Dy  Dy15  1  0.624326  0.374325  0.248652  1
  Dy  Dy16  1  0.250000  0.622937  0.377064  1
  Dy  Dy17  1  0.127064  0.254128  0.377064  1
  Dy  Dy18  1  0.749999  0.374326  0.625675  1
  Dy  Dy19  1  0.875675  0.751349  0.625676  1
  Dy  Dy20  1  0.372935  0.622936  0.745872  1
  Dy  Dy21  1  0.875341  0.125341  0.750680  1
  Dy  Dy22  1  0.250001  0.125341  0.874660  1
  Dy  Dy23  1  0.624660  0.249320  0.874660  1
  W  W24  1  0.002818  0.004059  0.998695  1
  W  W25  1  0.497182  0.001305  0.995941  1
  W  W26  1  0.498758  0.494635  0.995941  1
  W  W27  1  0.995876  0.494636  0.998695  1
  W  W28  1  0.001241  0.004059  0.505364  1
  W  W29  1  0.504124  0.001305  0.505364  1
  W  W30  1  0.501140  0.500000  0.500000  1
  W  W31  1  0.998860  0.500001  0.500001  1
  O  O32  1  0.109489  0.691101  0.018670  1
  O  O33  1  0.909181  0.827570  0.018670  1
  O  O34  1  0.672028  0.200810  0.079415  1
  O  O35  1  0.407388  0.378606  0.079416  1
  O  O36  1  0.672024  0.469506  0.089902  1
  O  O37  1  0.417877  0.120398  0.089903  1
  O  O38  1  0.925675  0.098094  0.119700  1
  O  O39  1  0.194025  0.521604  0.119700  1
  O  O40  1  0.581612  0.691099  0.172431  1
  O  O41  1  0.590819  0.981332  0.172431  1
  O  O42  1  0.022874  0.610179  0.198602  1
  O  O43  1  0.175729  0.088426  0.198604  1
  O  O44  1  0.390512  0.981330  0.308899  1
  O  O45  1  0.918388  0.827569  0.308901  1
  O  O46  1  0.027082  0.407481  0.328137  1
  O  O47  1  0.301055  0.420656  0.328137  1
  O  O48  1  0.912696  0.088425  0.389822  1
  O  O49  1  0.477126  0.801397  0.389822  1
  O  O50  1  0.880104  0.580008  0.407825  1
  O  O51  1  0.527721  0.327815  0.407825  1
  O  O52  1  0.619895  0.592175  0.419991  1
  O  O53  1  0.800095  0.327815  0.419992  1
  O  O54  1  0.305974  0.880300  0.478394  1
  O  O55  1  0.172419  0.098095  0.478396  1
  O  O56  1  0.827975  0.910096  0.530493  1
  O  O57  1  0.702519  0.120399  0.530495  1
  O  O58  1  0.380398  0.407480  0.579343  1
  O  O59  1  0.198944  0.671862  0.579344  1
  O  O60  1  0.472918  0.671862  0.592518  1
  O  O61  1  0.119602  0.420657  0.592519  1
  O  O62  1  0.092613  0.920584  0.621394  1
  O  O63  1  0.528782  0.200811  0.621394  1
  O  O64  1  0.699904  0.580008  0.672184  1
  O  O65  1  0.972280  0.592175  0.672185  1
  O  O66  1  0.622955  0.030824  0.705181  1
  O  O67  1  0.082227  0.174358  0.705181  1
  O  O68  1  0.827971  0.920584  0.799188  1
  O  O69  1  0.971219  0.378605  0.799189  1
  O  O70  1  0.407868  0.030823  0.825642  1
  O  O71  1  0.417773  0.294819  0.825643  1
  O  O72  1  0.082122  0.910097  0.879601  1
  O  O73  1  0.797480  0.469506  0.879603  1
  O  O74  1  0.327582  0.521606  0.901906  1
  O  O75  1  0.574324  0.880301  0.901906  1
  O  O76  1  0.324270  0.801397  0.911575  1
  O  O77  1  0.587304  0.610178  0.911575  1
  O  O78  1  0.092132  0.174358  0.969176  1
  O  O79  1  0.877045  0.294820  0.969176  1
