# generated using pymatgen
data_Dy2Y9Cd9Pd4
_symmetry_space_group_name_H-M   'P 1'
_cell_length_a   13.17186200
_cell_length_b   13.17186177
_cell_length_c   3.75049700
_cell_angle_alpha   90.00000000
_cell_angle_beta   90.00000000
_cell_angle_gamma   113.06138231
_symmetry_Int_Tables_number   1
_chemical_formula_structural   Dy2Y9Cd9Pd4
_chemical_formula_sum   'Dy2 Y9 Cd9 Pd4'
_cell_volume   598.70302447
_cell_formula_units_Z   1
loop_
 _symmetry_equiv_pos_site_id
 _symmetry_equiv_pos_as_xyz
  1  'x, y, z'
loop_
 _atom_site_type_symbol
 _atom_site_label
 _atom_site_symmetry_multiplicity
 _atom_site_fract_x
 _atom_site_fract_y
 _atom_site_fract_z
 _atom_site_occupancy
  Dy  Dy0  1  0.307585  0.307585  0.000000  1
  Dy  Dy1  1  0.692415  0.692415  0.000000  1
  Y  Y2  1  0.414787  0.074529  0.000000  1
  Y  Y3  1  0.585213  0.925471  0.000000  1
  Y  Y4  1  0.074529  0.414787  0.000000  1
  Y  Y5  1  0.925471  0.585213  0.000000  1
  Y  Y6  1  0.163571  0.836429  0.000000  1
  Y  Y7  1  0.836429  0.163571  0.000000  1
  Y  Y8  1  0.373144  0.626856  0.000000  1
  Y  Y9  1  0.626856  0.373144  0.000000  1
  Y  Y10  1  0.000000  0.000000  0.000000  1
  Cd  Cd11  1  0.367063  0.842183  0.500000  1
  Cd  Cd12  1  0.632937  0.157817  0.500000  1
  Cd  Cd13  1  0.842183  0.367063  0.500000  1
  Cd  Cd14  1  0.157817  0.632937  0.500000  1
  Cd  Cd15  1  0.213445  0.068230  0.500000  1
  Cd  Cd16  1  0.786555  0.931770  0.500000  1
  Cd  Cd17  1  0.068230  0.213445  0.500000  1
  Cd  Cd18  1  0.931770  0.786555  0.500000  1
  Cd  Cd19  1  0.500000  0.500000  0.500000  1
  Pd  Pd20  1  0.449479  0.249592  0.500000  1
  Pd  Pd21  1  0.550521  0.750408  0.500000  1
  Pd  Pd22  1  0.249592  0.449479  0.500000  1
  Pd  Pd23  1  0.750408  0.550521  0.500000  1
