# generated using pymatgen
data_HfZr9CuSiSb6
_symmetry_space_group_name_H-M   'P 1'
_cell_length_a   8.64744400
_cell_length_b   8.64744421
_cell_length_c   5.84792900
_cell_angle_alpha   90.00000000
_cell_angle_beta   90.00000000
_cell_angle_gamma   119.99999155
_symmetry_Int_Tables_number   1
_chemical_formula_structural   HfZr9CuSiSb6
_chemical_formula_sum   'Hf1 Zr9 Cu1 Si1 Sb6'
_cell_volume   378.71132008
_cell_formula_units_Z   1
loop_
 _symmetry_equiv_pos_site_id
 _symmetry_equiv_pos_as_xyz
  1  'x, y, z'
loop_
 _atom_site_type_symbol
 _atom_site_label
 _atom_site_symmetry_multiplicity
 _atom_site_fract_x
 _atom_site_fract_y
 _atom_site_fract_z
 _atom_site_occupancy
  Hf  Hf0  1  0.666667  0.333333  0.000000  1
  Zr  Zr1  1  0.333333  0.666667  0.000000  1
  Zr  Zr2  1  0.333333  0.666667  0.500000  1
  Zr  Zr3  1  0.666667  0.333333  0.500000  1
  Zr  Zr4  1  0.737568  0.737320  0.747560  1
  Zr  Zr5  1  0.262680  0.000248  0.747560  1
  Zr  Zr6  1  0.999752  0.262432  0.747560  1
  Zr  Zr7  1  0.262680  0.262432  0.252440  1
  Zr  Zr8  1  0.737568  0.000248  0.252440  1
  Zr  Zr9  1  0.999752  0.737320  0.252440  1
  Cu  Cu10  1  0.000000  0.000000  0.000000  1
  Si  Si11  1  0.000000  0.000000  0.500000  1
  Sb  Sb12  1  0.390350  0.389649  0.753390  1
  Sb  Sb13  1  0.610351  0.000701  0.753390  1
  Sb  Sb14  1  0.999299  0.609650  0.753390  1
  Sb  Sb15  1  0.610351  0.609650  0.246610  1
  Sb  Sb16  1  0.390350  0.000701  0.246610  1
  Sb  Sb17  1  0.999299  0.389649  0.246610  1
