# generated using pymatgen
data_Er8In3Ni
_symmetry_space_group_name_H-M   'P 1'
_cell_length_a   10.37771100
_cell_length_b   10.37771094
_cell_length_c   6.90438900
_cell_angle_alpha   90.00000000
_cell_angle_beta   90.00000000
_cell_angle_gamma   120.00000338
_symmetry_Int_Tables_number   1
_chemical_formula_structural   Er8In3Ni
_chemical_formula_sum   'Er16 In6 Ni2'
_cell_volume   643.96017655
_cell_formula_units_Z   2
loop_
 _symmetry_equiv_pos_site_id
 _symmetry_equiv_pos_as_xyz
  1  'x, y, z'
loop_
 _atom_site_type_symbol
 _atom_site_label
 _atom_site_symmetry_multiplicity
 _atom_site_fract_x
 _atom_site_fract_y
 _atom_site_fract_z
 _atom_site_occupancy
  Er  Er0  1  0.532758  0.065515  0.513914  1
  Er  Er1  1  0.934485  0.467242  0.513914  1
  Er  Er2  1  0.532758  0.467242  0.513914  1
  Er  Er3  1  0.467242  0.934485  0.013914  1
  Er  Er4  1  0.065515  0.532758  0.013914  1
  Er  Er5  1  0.467242  0.532758  0.013914  1
  Er  Er6  1  0.177106  0.354212  0.721866  1
  Er  Er7  1  0.645788  0.822894  0.721866  1
  Er  Er8  1  0.177106  0.822894  0.721866  1
  Er  Er9  1  0.822894  0.645788  0.221866  1
  Er  Er10  1  0.354212  0.177106  0.221866  1
  Er  Er11  1  0.822894  0.177106  0.221866  1
  Er  Er12  1  0.666667  0.333333  0.901296  1
  Er  Er13  1  0.333333  0.666667  0.401296  1
  Er  Er14  1  0.000000  0.000000  0.499496  1
  Er  Er15  1  0.000000  0.000000  0.999496  1
  In  In16  1  0.836820  0.673641  0.758382  1
  In  In17  1  0.326359  0.163180  0.758382  1
  In  In18  1  0.836820  0.163180  0.758382  1
  In  In19  1  0.163180  0.326359  0.258382  1
  In  In20  1  0.673641  0.836820  0.258382  1
  In  In21  1  0.163180  0.836820  0.258382  1
  Ni  Ni22  1  0.666667  0.333333  0.288821  1
  Ni  Ni23  1  0.333333  0.666667  0.788821  1
