# generated using pymatgen
data_Zr6Ga3As
_symmetry_space_group_name_H-M   'P 1'
_cell_length_a   7.32717559
_cell_length_b   7.32717555
_cell_length_c   3.71483200
_cell_angle_alpha   90.00000000
_cell_angle_beta   90.00000000
_cell_angle_gamma   89.25283355
_symmetry_Int_Tables_number   1
_chemical_formula_structural   Zr6Ga3As
_chemical_formula_sum   'Zr6 Ga3 As1'
_cell_volume   199.42309220
_cell_formula_units_Z   1
loop_
 _symmetry_equiv_pos_site_id
 _symmetry_equiv_pos_as_xyz
  1  'x, y, z'
loop_
 _atom_site_type_symbol
 _atom_site_label
 _atom_site_symmetry_multiplicity
 _atom_site_fract_x
 _atom_site_fract_y
 _atom_site_fract_z
 _atom_site_occupancy
  Zr  Zr0  1  0.998019  0.000526  0.000000  1
  Zr  Zr1  1  0.500526  0.498019  0.000000  1
  Zr  Zr2  1  0.677542  0.177542  0.500000  1
  Zr  Zr3  1  0.170310  0.323479  0.500000  1
  Zr  Zr4  1  0.823479  0.670310  0.500000  1
  Zr  Zr5  1  0.325393  0.825393  0.500000  1
  Ga  Ga6  1  0.375534  0.124807  0.000000  1
  Ga  Ga7  1  0.624807  0.875534  0.000000  1
  Ga  Ga8  1  0.129530  0.629530  0.000000  1
  As  As9  1  0.874861  0.374861  0.000000  1
