# generated using pymatgen
data_Ti2Re3Ge2BMo
_symmetry_space_group_name_H-M   'P 1'
_cell_length_a   6.84086800
_cell_length_b   6.76755248
_cell_length_c   3.14733700
_cell_angle_alpha   90.00000000
_cell_angle_beta   90.00000000
_cell_angle_gamma   120.35902717
_symmetry_Int_Tables_number   1
_chemical_formula_structural   Ti2Re3Ge2BMo
_chemical_formula_sum   'Ti2 Re3 Ge2 B1 Mo1'
_cell_volume   125.72861649
_cell_formula_units_Z   1
loop_
 _symmetry_equiv_pos_site_id
 _symmetry_equiv_pos_as_xyz
  1  'x, y, z'
loop_
 _atom_site_type_symbol
 _atom_site_label
 _atom_site_symmetry_multiplicity
 _atom_site_fract_x
 _atom_site_fract_y
 _atom_site_fract_z
 _atom_site_occupancy
  Ti  Ti0  1  0.388472  0.385158  0.000000  1
  Ti  Ti1  1  0.003315  0.614842  0.000000  1
  Re  Re2  1  0.241969  0.000000  0.500000  1
  Re  Re3  1  0.759352  0.760462  0.500000  1
  Re  Re4  1  0.998890  0.239538  0.500000  1
  Ge  Ge5  1  0.331206  0.663108  0.500000  1
  Ge  Ge6  1  0.668098  0.336892  0.500000  1
  B  B7  1  0.000729  0.000000  0.000000  1
  Mo  Mo8  1  0.607968  0.000000  0.000000  1
