# generated using pymatgen
data_Y3ScNb(ReN4)3
_symmetry_space_group_name_H-M   'P 1'
_cell_length_a   11.15186228
_cell_length_b   11.15186181
_cell_length_c   11.15186203
_cell_angle_alpha   109.47536506
_cell_angle_beta   109.47536529
_cell_angle_gamma   109.46293526
_symmetry_Int_Tables_number   1
_chemical_formula_structural   Y3ScNb(ReN4)3
_chemical_formula_sum   'Y12 Sc4 Nb4 Re12 N48'
_cell_volume   1067.62872080
_cell_formula_units_Z   4
loop_
 _symmetry_equiv_pos_site_id
 _symmetry_equiv_pos_as_xyz
  1  'x, y, z'
loop_
 _atom_site_type_symbol
 _atom_site_label
 _atom_site_symmetry_multiplicity
 _atom_site_fract_x
 _atom_site_fract_y
 _atom_site_fract_z
 _atom_site_occupancy
  Y  Y0  1  0.250218  0.375137  0.125193  1
  Y  Y1  1  0.375138  0.749944  0.124919  1
  Y  Y2  1  0.375517  0.125517  0.250000  1
  Y  Y3  1  0.874483  0.624483  0.250000  1
  Y  Y4  1  0.749944  0.125025  0.374808  1
  Y  Y5  1  0.125025  0.250218  0.375081  1
  Y  Y6  1  0.874975  0.749782  0.624919  1
  Y  Y7  1  0.250056  0.874975  0.625193  1
  Y  Y8  1  0.125517  0.375518  0.750000  1
  Y  Y9  1  0.624483  0.874483  0.750000  1
  Y  Y10  1  0.624863  0.250056  0.875081  1
  Y  Y11  1  0.749782  0.624863  0.874807  1
  Sc  Sc12  1  0.500000  0.000000  0.000000  1
  Sc  Sc13  1  0.500000  0.500000  0.000000  1
  Sc  Sc14  1  0.000000  0.500000  0.500000  1
  Sc  Sc15  1  0.500000  0.500000  0.500000  1
  Nb  Nb16  1  0.000000  0.000000  0.000000  1
  Nb  Nb17  1  0.000000  0.500000  0.000000  1
  Nb  Nb18  1  0.000000  0.000000  0.500000  1
  Nb  Nb19  1  0.500000  0.000000  0.500000  1
  Re  Re20  1  0.874764  0.249263  0.124760  1
  Re  Re21  1  0.750004  0.874763  0.125501  1
  Re  Re22  1  0.625000  0.375000  0.250000  1
  Re  Re23  1  0.125000  0.875000  0.250000  1
  Re  Re24  1  0.249263  0.624503  0.374499  1
  Re  Re25  1  0.624503  0.750004  0.375240  1
  Re  Re26  1  0.375497  0.249996  0.624760  1
  Re  Re27  1  0.750737  0.375497  0.625501  1
  Re  Re28  1  0.874999  0.125000  0.750000  1
  Re  Re29  1  0.375000  0.625000  0.750000  1
  Re  Re30  1  0.249996  0.125236  0.874499  1
  Re  Re31  1  0.125236  0.750737  0.875239  1
  N  N32  1  0.309143  0.900467  0.024209  1
  N  N33  1  0.206100  0.117133  0.019249  1
  N  N34  1  0.882868  0.402117  0.088967  1
  N  N35  1  0.715066  0.690857  0.091324  1
  N  N36  1  0.623418  0.407711  0.099020  1
  N  N37  1  0.981819  0.685617  0.098262  1
  N  N38  1  0.598708  0.908500  0.123425  1
  N  N39  1  0.019084  0.205459  0.117933  1
  N  N40  1  0.205459  0.587526  0.186375  1
  N  N41  1  0.475284  0.598708  0.190208  1
  N  N42  1  0.116444  0.018181  0.203798  1
  N  N43  1  0.592288  0.191308  0.215708  1
  N  N44  1  0.475601  0.376582  0.284293  1
  N  N45  1  0.314383  0.912646  0.296203  1
  N  N46  1  0.901151  0.019084  0.313625  1
  N  N47  1  0.908500  0.285076  0.309791  1
  N  N48  1  0.285076  0.475284  0.376576  1
  N  N49  1  0.587526  0.901151  0.382068  1
  N  N50  1  0.808691  0.524399  0.400980  1
  N  N51  1  0.087354  0.883557  0.401738  1
  N  N52  1  0.099533  0.623742  0.408675  1
  N  N53  1  0.813150  0.793901  0.411033  1
  N  N54  1  0.597883  0.186850  0.480751  1
  N  N55  1  0.376258  0.284934  0.475791  1
  N  N56  1  0.623743  0.715067  0.524210  1
  N  N57  1  0.402117  0.813149  0.519249  1
  N  N58  1  0.186850  0.206100  0.588967  1
  N  N59  1  0.900467  0.376258  0.591324  1
  N  N60  1  0.912646  0.116444  0.598262  1
  N  N61  1  0.191308  0.475601  0.599020  1
  N  N62  1  0.412473  0.098849  0.617932  1
  N  N63  1  0.714925  0.524717  0.623425  1
  N  N64  1  0.091500  0.714924  0.690208  1
  N  N65  1  0.098849  0.980916  0.686376  1
  N  N66  1  0.685616  0.087354  0.703797  1
  N  N67  1  0.524400  0.623419  0.715708  1
  N  N68  1  0.407712  0.808692  0.784293  1
  N  N69  1  0.883557  0.981819  0.796203  1
  N  N70  1  0.524716  0.401292  0.809791  1
  N  N71  1  0.794542  0.412474  0.813625  1
  N  N72  1  0.401292  0.091500  0.876576  1
  N  N73  1  0.980916  0.794542  0.882068  1
  N  N74  1  0.018181  0.314384  0.901738  1
  N  N75  1  0.376582  0.592288  0.900980  1
  N  N76  1  0.284934  0.309142  0.908676  1
  N  N77  1  0.117133  0.597883  0.911033  1
  N  N78  1  0.690858  0.099533  0.975791  1
  N  N79  1  0.793901  0.882868  0.980751  1
