# generated using pymatgen
data_CeNd3(HgRh2)2
_symmetry_space_group_name_H-M   'P 1'
_cell_length_a   7.68405950
_cell_length_b   7.68405950
_cell_length_c   3.83218000
_cell_angle_alpha   90.00000000
_cell_angle_beta   90.00000000
_cell_angle_gamma   87.94921858
_symmetry_Int_Tables_number   1
_chemical_formula_structural   CeNd3(HgRh2)2
_chemical_formula_sum   'Ce1 Nd3 Hg2 Rh4'
_cell_volume   226.12526301
_cell_formula_units_Z   1
loop_
 _symmetry_equiv_pos_site_id
 _symmetry_equiv_pos_as_xyz
  1  'x, y, z'
loop_
 _atom_site_type_symbol
 _atom_site_label
 _atom_site_symmetry_multiplicity
 _atom_site_fract_x
 _atom_site_fract_y
 _atom_site_fract_z
 _atom_site_occupancy
  Ce  Ce0  1  0.669462  0.830539  0.499999  1
  Nd  Nd1  1  0.329104  0.170896  0.499999  1
  Nd  Nd2  1  0.831004  0.328507  0.499999  1
  Nd  Nd3  1  0.171493  0.668997  0.499999  1
  Hg  Hg4  1  0.008141  0.001458  0.000000  1
  Hg  Hg5  1  0.498542  0.491859  0.000000  1
  Rh  Rh6  1  0.640459  0.115741  0.000000  1
  Rh  Rh7  1  0.120429  0.379572  0.000000  1
  Rh  Rh8  1  0.847108  0.652892  0.000000  1
  Rh  Rh9  1  0.384260  0.859541  0.000000  1
