# generated using pymatgen
data_Lu(Mn2P)2
_symmetry_space_group_name_H-M   'P 1'
_cell_length_a   3.68750200
_cell_length_b   6.91987900
_cell_length_c   6.91987900
_cell_angle_alpha   90.00000000
_cell_angle_beta   90.00000000
_cell_angle_gamma   90.00000000
_symmetry_Int_Tables_number   1
_chemical_formula_structural   Lu(Mn2P)2
_chemical_formula_sum   'Lu2 Mn8 P4'
_cell_volume   176.57502059
_cell_formula_units_Z   2
loop_
 _symmetry_equiv_pos_site_id
 _symmetry_equiv_pos_as_xyz
  1  'x, y, z'
loop_
 _atom_site_type_symbol
 _atom_site_label
 _atom_site_symmetry_multiplicity
 _atom_site_fract_x
 _atom_site_fract_y
 _atom_site_fract_z
 _atom_site_occupancy
  Lu  Lu0  1  0.000000  0.500000  0.500000  1
  Lu  Lu1  1  0.500000  0.000000  0.000000  1
  Mn  Mn2  1  0.500000  0.153996  0.584760  1
  Mn  Mn3  1  0.500000  0.846004  0.415240  1
  Mn  Mn4  1  0.000000  0.346004  0.084760  1
  Mn  Mn5  1  0.000000  0.653996  0.915240  1
  Mn  Mn6  1  0.500000  0.584760  0.153996  1
  Mn  Mn7  1  0.500000  0.415240  0.846004  1
  Mn  Mn8  1  0.000000  0.084760  0.346004  1
  Mn  Mn9  1  0.000000  0.915240  0.653996  1
  P  P10  1  0.500000  0.714992  0.714992  1
  P  P11  1  0.500000  0.285008  0.285008  1
  P  P12  1  0.000000  0.785008  0.214992  1
  P  P13  1  0.000000  0.214992  0.785008  1
