# generated using pymatgen
data_Sr5CdAu2
_symmetry_space_group_name_H-M   'P 1'
_cell_length_a   8.54939724
_cell_length_b   8.54939781
_cell_length_c   9.97866180
_cell_angle_alpha   115.36504157
_cell_angle_beta   115.36504455
_cell_angle_gamma   89.99999708
_symmetry_Int_Tables_number   1
_chemical_formula_structural   Sr5CdAu2
_chemical_formula_sum   'Sr10 Cd2 Au4'
_cell_volume   580.27841878
_cell_formula_units_Z   2
loop_
 _symmetry_equiv_pos_site_id
 _symmetry_equiv_pos_as_xyz
  1  'x, y, z'
loop_
 _atom_site_type_symbol
 _atom_site_label
 _atom_site_symmetry_multiplicity
 _atom_site_fract_x
 _atom_site_fract_y
 _atom_site_fract_z
 _atom_site_occupancy
  Sr  Sr0  1  0.000000  0.000000  0.000000  1
  Sr  Sr1  1  0.500000  0.500000  0.000000  1
  Sr  Sr2  1  0.471599  0.305709  0.277308  1
  Sr  Sr3  1  0.971599  0.471599  0.277308  1
  Sr  Sr4  1  0.305709  0.805708  0.277308  1
  Sr  Sr5  1  0.805708  0.971599  0.277308  1
  Sr  Sr6  1  0.194291  0.028401  0.722692  1
  Sr  Sr7  1  0.694291  0.194291  0.722692  1
  Sr  Sr8  1  0.028401  0.528401  0.722692  1
  Sr  Sr9  1  0.528401  0.694291  0.722692  1
  Cd  Cd10  1  0.250000  0.250000  0.500000  1
  Cd  Cd11  1  0.750000  0.750000  0.500000  1
  Au  Au12  1  0.627718  0.127718  0.000000  1
  Au  Au13  1  0.127718  0.372283  0.000000  1
  Au  Au14  1  0.872282  0.627718  0.000000  1
  Au  Au15  1  0.372283  0.872282  0.000000  1
