# generated using pymatgen
data_DyEr15(AlIr)4
_symmetry_space_group_name_H-M   'P 1'
_cell_length_a   9.47053017
_cell_length_b   9.47048277
_cell_length_c   9.48126700
_cell_angle_alpha   59.96214951
_cell_angle_beta   59.96210453
_cell_angle_gamma   59.92961850
_symmetry_Int_Tables_number   1
_chemical_formula_structural   DyEr15(AlIr)4
_chemical_formula_sum   'Dy1 Er15 Al4 Ir4'
_cell_volume   600.64472465
_cell_formula_units_Z   1
loop_
 _symmetry_equiv_pos_site_id
 _symmetry_equiv_pos_as_xyz
  1  'x, y, z'
loop_
 _atom_site_type_symbol
 _atom_site_label
 _atom_site_symmetry_multiplicity
 _atom_site_fract_x
 _atom_site_fract_y
 _atom_site_fract_z
 _atom_site_occupancy
  Dy  Dy0  1  0.062289  0.062290  0.437711  1
  Er  Er1  1  0.646291  0.057107  0.648302  1
  Er  Er2  1  0.195001  0.805933  0.193324  1
  Er  Er3  1  0.438185  0.061623  0.438792  1
  Er  Er4  1  0.194539  0.194535  0.805467  1
  Er  Er5  1  0.647801  0.647801  0.650352  1
  Er  Er6  1  0.057101  0.646295  0.648306  1
  Er  Er7  1  0.438165  0.061625  0.061407  1
  Er  Er8  1  0.647805  0.647800  0.054040  1
  Er  Er9  1  0.195005  0.805928  0.805743  1
  Er  Er10  1  0.805930  0.194998  0.805741  1
  Er  Er11  1  0.805938  0.194998  0.193329  1
  Er  Er12  1  0.805698  0.805703  0.194297  1
  Er  Er13  1  0.061618  0.438195  0.438793  1
  Er  Er14  1  0.437485  0.437492  0.062511  1
  Er  Er15  1  0.061634  0.438174  0.061396  1
  Al  Al16  1  0.733557  0.422563  0.421939  1
  Al  Al17  1  0.421457  0.421458  0.735557  1
  Al  Al18  1  0.422564  0.733556  0.421939  1
  Al  Al19  1  0.421459  0.421459  0.421525  1
  Ir  Ir20  1  0.858517  0.858514  0.858669  1
  Ir  Ir21  1  0.423827  0.859618  0.858280  1
  Ir  Ir22  1  0.858514  0.858511  0.424303  1
  Ir  Ir23  1  0.859622  0.423823  0.858279  1
