# generated using pymatgen
data_Zr10AlSn6Au
_symmetry_space_group_name_H-M   'P 1'
_cell_length_a   8.76457600
_cell_length_b   8.76457646
_cell_length_c   5.92116300
_cell_angle_alpha   90.00000000
_cell_angle_beta   90.00000000
_cell_angle_gamma   119.99999827
_symmetry_Int_Tables_number   1
_chemical_formula_structural   Zr10AlSn6Au
_chemical_formula_sum   'Zr10 Al1 Sn6 Au1'
_cell_volume   393.91226308
_cell_formula_units_Z   1
loop_
 _symmetry_equiv_pos_site_id
 _symmetry_equiv_pos_as_xyz
  1  'x, y, z'
loop_
 _atom_site_type_symbol
 _atom_site_label
 _atom_site_symmetry_multiplicity
 _atom_site_fract_x
 _atom_site_fract_y
 _atom_site_fract_z
 _atom_site_occupancy
  Zr  Zr0  1  0.333333  0.666667  0.000000  1
  Zr  Zr1  1  0.666667  0.333333  0.500000  1
  Zr  Zr2  1  0.666667  0.333333  0.000000  1
  Zr  Zr3  1  0.333333  0.666667  0.500000  1
  Zr  Zr4  1  0.273171  0.000000  0.256054  1
  Zr  Zr5  1  0.273171  0.273171  0.743946  1
  Zr  Zr6  1  0.000000  0.726829  0.743946  1
  Zr  Zr7  1  0.000000  0.273171  0.256054  1
  Zr  Zr8  1  0.726829  0.726829  0.256054  1
  Zr  Zr9  1  0.726829  0.000000  0.743946  1
  Al  Al10  1  0.000000  0.000000  0.500000  1
  Sn  Sn11  1  0.615446  0.000000  0.249498  1
  Sn  Sn12  1  0.615446  0.615446  0.750502  1
  Sn  Sn13  1  0.000000  0.384554  0.750502  1
  Sn  Sn14  1  0.000000  0.615446  0.249498  1
  Sn  Sn15  1  0.384554  0.384554  0.249498  1
  Sn  Sn16  1  0.384554  0.000000  0.750502  1
  Au  Au17  1  0.000000  0.000000  0.000000  1
