# generated using pymatgen
data_DyLu2Be2Ni7
_symmetry_space_group_name_H-M   'P 1'
_cell_length_a   4.99511800
_cell_length_b   4.99511793
_cell_length_c   15.05683200
_cell_angle_alpha   90.00000000
_cell_angle_beta   90.00000000
_cell_angle_gamma   120.00000048
_symmetry_Int_Tables_number   1
_chemical_formula_structural   DyLu2Be2Ni7
_chemical_formula_sum   'Dy2 Lu4 Be4 Ni14'
_cell_volume   325.35368664
_cell_formula_units_Z   2
loop_
 _symmetry_equiv_pos_site_id
 _symmetry_equiv_pos_as_xyz
  1  'x, y, z'
loop_
 _atom_site_type_symbol
 _atom_site_label
 _atom_site_symmetry_multiplicity
 _atom_site_fract_x
 _atom_site_fract_y
 _atom_site_fract_z
 _atom_site_occupancy
  Dy  Dy0  1  0.333333  0.666667  0.750000  1
  Dy  Dy1  1  0.666667  0.333333  0.250000  1
  Lu  Lu2  1  0.333333  0.666667  0.538577  1
  Lu  Lu3  1  0.666667  0.333333  0.038577  1
  Lu  Lu4  1  0.666667  0.333333  0.461423  1
  Lu  Lu5  1  0.333333  0.666667  0.961423  1
  Be  Be6  1  0.333333  0.666667  0.250000  1
  Be  Be7  1  0.666667  0.333333  0.750000  1
  Be  Be8  1  0.000000  0.000000  0.250000  1
  Be  Be9  1  0.000000  0.000000  0.750000  1
  Ni  Ni10  1  0.000000  0.000000  0.000000  1
  Ni  Ni11  1  0.000000  0.000000  0.500000  1
  Ni  Ni12  1  0.167391  0.334782  0.134822  1
  Ni  Ni13  1  0.832609  0.665218  0.634822  1
  Ni  Ni14  1  0.665218  0.832609  0.134822  1
  Ni  Ni15  1  0.167391  0.832609  0.134822  1
  Ni  Ni16  1  0.832609  0.167391  0.634822  1
  Ni  Ni17  1  0.334782  0.167391  0.634822  1
  Ni  Ni18  1  0.832609  0.665218  0.865178  1
  Ni  Ni19  1  0.832609  0.167391  0.865178  1
  Ni  Ni20  1  0.334782  0.167391  0.865178  1
  Ni  Ni21  1  0.665218  0.832609  0.365178  1
  Ni  Ni22  1  0.167391  0.832609  0.365178  1
  Ni  Ni23  1  0.167391  0.334782  0.365178  1
