# generated using pymatgen
data_Ho5Tm15Co3Bi8Os
_symmetry_space_group_name_H-M   'P 1'
_cell_length_a   7.87403292
_cell_length_b   8.89729900
_cell_length_c   12.32900044
_cell_angle_alpha   90.00000000
_cell_angle_beta   89.77913320
_cell_angle_gamma   90.00000000
_symmetry_Int_Tables_number   1
_chemical_formula_structural   Ho5Tm15Co3Bi8Os
_chemical_formula_sum   'Ho5 Tm15 Co3 Bi8 Os1'
_cell_volume   863.73407432
_cell_formula_units_Z   1
loop_
 _symmetry_equiv_pos_site_id
 _symmetry_equiv_pos_as_xyz
  1  'x, y, z'
loop_
 _atom_site_type_symbol
 _atom_site_label
 _atom_site_symmetry_multiplicity
 _atom_site_fract_x
 _atom_site_fract_y
 _atom_site_fract_z
 _atom_site_occupancy
  Ho  Ho0  1  0.847929  0.250000  0.798833  1
  Ho  Ho1  1  0.114284  0.250000  0.187471  1
  Ho  Ho2  1  0.383751  0.250000  0.686339  1
  Ho  Ho3  1  0.943289  0.250000  0.502475  1
  Ho  Ho4  1  0.559524  0.250000  0.003973  1
  Tm  Tm5  1  0.345523  0.750000  0.702150  1
  Tm  Tm6  1  0.651966  0.250000  0.300983  1
  Tm  Tm7  1  0.156203  0.750000  0.207113  1
  Tm  Tm8  1  0.881029  0.750000  0.806708  1
  Tm  Tm9  1  0.614941  0.750000  0.314936  1
  Tm  Tm10  1  0.672758  0.539625  0.563375  1
  Tm  Tm11  1  0.326376  0.462850  0.436220  1
  Tm  Tm12  1  0.174139  0.459280  0.935347  1
  Tm  Tm13  1  0.326376  0.037150  0.436220  1
  Tm  Tm14  1  0.825991  0.541133  0.064276  1
  Tm  Tm15  1  0.672758  0.960375  0.563375  1
  Tm  Tm16  1  0.825991  0.958867  0.064276  1
  Tm  Tm17  1  0.174139  0.040720  0.935347  1
  Tm  Tm18  1  0.056612  0.750000  0.497938  1
  Tm  Tm19  1  0.443122  0.750000  0.996584  1
  Co  Co20  1  0.930230  0.250000  0.007895  1
  Co  Co21  1  0.562988  0.250000  0.506341  1
  Co  Co22  1  0.433294  0.750000  0.493579  1
  Bi  Bi23  1  0.570226  0.508628  0.826615  1
  Bi  Bi24  1  0.431877  0.492106  0.173322  1
  Bi  Bi25  1  0.070534  0.491784  0.671477  1
  Bi  Bi26  1  0.431877  0.007894  0.173322  1
  Bi  Bi27  1  0.928912  0.509158  0.327545  1
  Bi  Bi28  1  0.570226  0.991372  0.826615  1
  Bi  Bi29  1  0.928912  0.990842  0.327545  1
  Bi  Bi30  1  0.070534  0.008216  0.671477  1
  Os  Os31  1  0.073688  0.750000  0.990323  1
