# generated using pymatgen
data_Pr12Co3PtBr12
_symmetry_space_group_name_H-M   'P 1'
_cell_length_a   10.48555908
_cell_length_b   10.48555913
_cell_length_c   10.48555796
_cell_angle_alpha   109.74048921
_cell_angle_beta   109.74048824
_cell_angle_gamma   109.74048480
_symmetry_Int_Tables_number   1
_chemical_formula_structural   Pr12Co3PtBr12
_chemical_formula_sum   'Pr12 Co3 Pt1 Br12'
_cell_volume   878.50946171
_cell_formula_units_Z   1
loop_
 _symmetry_equiv_pos_site_id
 _symmetry_equiv_pos_as_xyz
  1  'x, y, z'
loop_
 _atom_site_type_symbol
 _atom_site_label
 _atom_site_symmetry_multiplicity
 _atom_site_fract_x
 _atom_site_fract_y
 _atom_site_fract_z
 _atom_site_occupancy
  Pr  Pr0  1  0.467193  0.490702  0.227159  1
  Pr  Pr1  1  0.750000  0.231523  0.268477  1
  Pr  Pr2  1  0.750000  0.017672  0.482328  1
  Pr  Pr3  1  0.227159  0.467193  0.490702  1
  Pr  Pr4  1  0.268477  0.750000  0.231523  1
  Pr  Pr5  1  0.032807  0.272841  0.009298  1
  Pr  Pr6  1  0.009298  0.032807  0.272841  1
  Pr  Pr7  1  0.482328  0.750000  0.017672  1
  Pr  Pr8  1  0.490702  0.227159  0.467193  1
  Pr  Pr9  1  0.017672  0.482328  0.750000  1
  Pr  Pr10  1  0.272841  0.009298  0.032807  1
  Pr  Pr11  1  0.231523  0.268477  0.750000  1
  Co  Co12  1  0.500416  0.999584  0.250000  1
  Co  Co13  1  0.999584  0.250000  0.500416  1
  Co  Co14  1  0.250000  0.500416  0.999584  1
  Pt  Pt15  1  0.250000  0.250000  0.250000  1
  Br  Br16  1  0.250000  0.757123  0.742877  1
  Br  Br17  1  0.510496  0.506106  0.756191  1
  Br  Br18  1  0.989504  0.743809  0.993894  1
  Br  Br19  1  0.742877  0.250000  0.757123  1
  Br  Br20  1  0.993894  0.989504  0.743809  1
  Br  Br21  1  0.250000  0.994798  0.505202  1
  Br  Br22  1  0.756191  0.510496  0.506106  1
  Br  Br23  1  0.505202  0.250000  0.994798  1
  Br  Br24  1  0.757123  0.742877  0.250000  1
  Br  Br25  1  0.743809  0.993894  0.989504  1
  Br  Br26  1  0.994798  0.505202  0.250000  1
  Br  Br27  1  0.506106  0.756191  0.510496  1
