# generated using pymatgen
data_NaY4P12Ru8Rh11
_symmetry_space_group_name_H-M   'P 1'
_cell_length_a   12.61578035
_cell_length_b   12.63190776
_cell_length_c   3.93828600
_cell_angle_alpha   90.00000000
_cell_angle_beta   90.00000000
_cell_angle_gamma   120.04228299
_symmetry_Int_Tables_number   1
_chemical_formula_structural   NaY4P12Ru8Rh11
_chemical_formula_sum   'Na1 Y4 P12 Ru8 Rh11'
_cell_volume   543.29505212
_cell_formula_units_Z   1
loop_
 _symmetry_equiv_pos_site_id
 _symmetry_equiv_pos_as_xyz
  1  'x, y, z'
loop_
 _atom_site_type_symbol
 _atom_site_label
 _atom_site_symmetry_multiplicity
 _atom_site_fract_x
 _atom_site_fract_y
 _atom_site_fract_z
 _atom_site_occupancy
  Na  Na0  1  0.000000  0.185573  0.500000  1
  Y  Y1  1  0.815470  0.817774  0.500000  1
  Y  Y2  1  0.184530  0.002303  0.500000  1
  Y  Y3  1  0.665633  0.332585  0.000000  1
  Y  Y4  1  0.334367  0.666954  0.000000  1
  P  P5  1  0.000000  0.820385  0.000000  1
  P  P6  1  0.182910  0.183899  0.000000  1
  P  P7  1  0.817090  0.000989  0.000000  1
  P  P8  1  0.690106  0.170638  0.500000  1
  P  P9  1  0.827530  0.514395  0.500000  1
  P  P10  1  0.481865  0.311690  0.500000  1
  P  P11  1  0.172470  0.686865  0.500000  1
  P  P12  1  0.518135  0.829825  0.500000  1
  P  P13  1  0.309894  0.480531  0.500000  1
  P  P14  1  0.000000  0.369172  0.000000  1
  P  P15  1  0.630976  0.631486  0.000000  1
  P  P16  1  0.369024  0.000510  0.000000  1
  Ru  Ru17  1  0.285093  0.283538  0.500000  1
  Ru  Ru18  1  0.714907  0.998444  0.500000  1
  Ru  Ru19  1  0.874228  0.361591  0.500000  1
  Ru  Ru20  1  0.639955  0.511906  0.500000  1
  Ru  Ru21  1  0.488421  0.125752  0.500000  1
  Ru  Ru22  1  0.360045  0.871951  0.500000  1
  Ru  Ru23  1  0.511579  0.637331  0.500000  1
  Ru  Ru24  1  0.125772  0.487362  0.500000  1
  Rh  Rh25  1  0.000000  0.549691  0.000000  1
  Rh  Rh26  1  0.452780  0.448745  0.000000  1
  Rh  Rh27  1  0.547220  0.995967  0.000000  1
  Rh  Rh28  1  0.000000  0.716674  0.500000  1
  Rh  Rh29  1  0.805110  0.183590  0.000000  1
  Rh  Rh30  1  0.818941  0.626480  0.000000  1
  Rh  Rh31  1  0.375847  0.192822  0.000000  1
  Rh  Rh32  1  0.181059  0.807537  0.000000  1
  Rh  Rh33  1  0.624153  0.816973  0.000000  1
  Rh  Rh34  1  0.194890  0.378479  0.000000  1
  Rh  Rh35  1  0.000000  0.999591  0.000000  1
