# generated using pymatgen
data_La7Tm3ZnSi7O3
_symmetry_space_group_name_H-M   'P 1'
_cell_length_a   10.81371933
_cell_length_b   10.82601970
_cell_length_c   4.49856100
_cell_angle_alpha   90.00000000
_cell_angle_beta   90.00000000
_cell_angle_gamma   120.03763568
_symmetry_Int_Tables_number   1
_chemical_formula_structural   La7Tm3ZnSi7O3
_chemical_formula_sum   'La7 Tm3 Zn1 Si7 O3'
_cell_volume   455.91441559
_cell_formula_units_Z   1
loop_
 _symmetry_equiv_pos_site_id
 _symmetry_equiv_pos_as_xyz
  1  'x, y, z'
loop_
 _atom_site_type_symbol
 _atom_site_label
 _atom_site_symmetry_multiplicity
 _atom_site_fract_x
 _atom_site_fract_y
 _atom_site_fract_z
 _atom_site_occupancy
  La  La0  1  0.213056  0.787217  0.000000  1
  La  La1  1  0.575564  0.788090  0.000000  1
  La  La2  1  0.786944  0.574161  0.000000  1
  La  La3  1  0.000000  0.002695  0.000000  1
  La  La4  1  0.211967  0.423518  0.000000  1
  La  La5  1  0.424436  0.212526  0.000000  1
  La  La6  1  0.788033  0.211551  0.000000  1
  Tm  Tm7  1  0.000000  0.495751  0.500000  1
  Tm  Tm8  1  0.499812  0.501007  0.500000  1
  Tm  Tm9  1  0.500188  0.001195  0.500000  1
  Zn  Zn10  1  0.000000  0.776153  0.500000  1
  Si  Si11  1  0.000000  0.221771  0.500000  1
  Si  Si12  1  0.224119  0.223941  0.500000  1
  Si  Si13  1  0.775881  0.999823  0.500000  1
  Si  Si14  1  0.333144  0.666154  0.500000  1
  Si  Si15  1  0.224622  0.003069  0.500000  1
  Si  Si16  1  0.666856  0.333010  0.500000  1
  Si  Si17  1  0.775378  0.778447  0.500000  1
  O  O18  1  0.000000  0.499198  0.000000  1
  O  O19  1  0.499469  0.500097  0.000000  1
  O  O20  1  0.500531  0.000628  0.000000  1
