# generated using pymatgen
data_Tb2Mn6P7Ir5Rh
_symmetry_space_group_name_H-M   'P 1'
_cell_length_a   9.43413941
_cell_length_b   9.41903263
_cell_length_c   3.82858200
_cell_angle_alpha   90.00000000
_cell_angle_beta   90.00000000
_cell_angle_gamma   119.97274466
_symmetry_Int_Tables_number   1
_chemical_formula_structural   Tb2Mn6P7Ir5Rh
_chemical_formula_sum   'Tb2 Mn6 P7 Ir5 Rh1'
_cell_volume   294.71102738
_cell_formula_units_Z   1
loop_
 _symmetry_equiv_pos_site_id
 _symmetry_equiv_pos_as_xyz
  1  'x, y, z'
loop_
 _atom_site_type_symbol
 _atom_site_label
 _atom_site_symmetry_multiplicity
 _atom_site_fract_x
 _atom_site_fract_y
 _atom_site_fract_z
 _atom_site_occupancy
  Tb  Tb0  1  0.667199  0.334174  0.000000  1
  Tb  Tb1  1  0.332811  0.666791  0.500000  1
  Mn  Mn2  1  0.269729  0.111185  0.000000  1
  Mn  Mn3  1  0.840366  0.729190  0.000000  1
  Mn  Mn4  1  0.888313  0.158105  0.000000  1
  Mn  Mn5  1  0.098815  0.883513  0.500000  1
  Mn  Mn6  1  0.784988  0.902116  0.500000  1
  Mn  Mn7  1  0.117080  0.214537  0.500000  1
  P  P8  1  0.299578  0.889583  0.000000  1
  P  P9  1  0.590100  0.700321  0.000000  1
  P  P10  1  0.109852  0.409880  0.000000  1
  P  P11  1  0.396891  0.278341  0.500000  1
  P  P12  1  0.881512  0.603700  0.500000  1
  P  P13  1  0.722156  0.119058  0.500000  1
  P  P14  1  0.999553  0.998888  0.000000  1
  Ir  Ir15  1  0.574762  0.935772  0.000000  1
  Ir  Ir16  1  0.360827  0.425179  0.000000  1
  Ir  Ir17  1  0.441846  0.054972  0.500000  1
  Ir  Ir18  1  0.612571  0.558496  0.500000  1
  Ir  Ir19  1  0.946800  0.387360  0.500000  1
  Rh  Rh20  1  0.064252  0.638837  0.000000  1
