# generated using pymatgen
data_YbTcP2Ru
_symmetry_space_group_name_H-M   'P 1'
_cell_length_a   5.58102187
_cell_length_b   5.58102168
_cell_length_c   5.58102159
_cell_angle_alpha   136.69804775
_cell_angle_beta   136.69804531
_cell_angle_gamma   62.90296977
_symmetry_Int_Tables_number   1
_chemical_formula_structural   YbTcP2Ru
_chemical_formula_sum   'Yb1 Tc1 P2 Ru1'
_cell_volume   80.74784497
_cell_formula_units_Z   1
loop_
 _symmetry_equiv_pos_site_id
 _symmetry_equiv_pos_as_xyz
  1  'x, y, z'
loop_
 _atom_site_type_symbol
 _atom_site_label
 _atom_site_symmetry_multiplicity
 _atom_site_fract_x
 _atom_site_fract_y
 _atom_site_fract_z
 _atom_site_occupancy
  Yb  Yb0  1  0.000000  0.000000  0.000000  1
  Tc  Tc1  1  0.250000  0.750000  0.500000  1
  P  P2  1  0.367878  0.367878  0.000000  1
  P  P3  1  0.632122  0.632122  0.000000  1
  Ru  Ru4  1  0.750000  0.250000  0.500000  1
