# generated using pymatgen
data_NdEu2Ho(Mo2O7)2
_symmetry_space_group_name_H-M   'P 1'
_cell_length_a   7.50300187
_cell_length_b   7.53263961
_cell_length_c   7.53263895
_cell_angle_alpha   58.87071638
_cell_angle_beta   59.14790412
_cell_angle_gamma   59.14790541
_symmetry_Int_Tables_number   1
_chemical_formula_structural   NdEu2Ho(Mo2O7)2
_chemical_formula_sum   'Nd1 Eu2 Ho1 Mo4 O14'
_cell_volume   294.54503955
_cell_formula_units_Z   1
loop_
 _symmetry_equiv_pos_site_id
 _symmetry_equiv_pos_as_xyz
  1  'x, y, z'
loop_
 _atom_site_type_symbol
 _atom_site_label
 _atom_site_symmetry_multiplicity
 _atom_site_fract_x
 _atom_site_fract_y
 _atom_site_fract_z
 _atom_site_occupancy
  Nd  Nd0  1  0.125000  0.125000  0.125000  1
  Eu  Eu1  1  0.125000  0.625000  0.125000  1
  Eu  Eu2  1  0.125000  0.125000  0.625000  1
  Ho  Ho3  1  0.625000  0.125000  0.125000  1
  Mo  Mo4  1  0.125000  0.625000  0.625000  1
  Mo  Mo5  1  0.625000  0.125000  0.625000  1
  Mo  Mo6  1  0.625000  0.625000  0.125000  1
  Mo  Mo7  1  0.625000  0.625000  0.625000  1
  O  O8  1  0.262824  0.244000  0.244000  1
  O  O9  1  0.987176  0.006000  0.006000  1
  O  O10  1  0.696790  0.711451  0.299493  1
  O  O11  1  0.292393  0.291650  0.704462  1
  O  O12  1  0.696790  0.299493  0.711451  1
  O  O13  1  0.292393  0.704462  0.291650  1
  O  O14  1  0.304103  0.702190  0.702190  1
  O  O15  1  0.699026  0.288440  0.288440  1
  O  O16  1  0.553210  0.538549  0.950507  1
  O  O17  1  0.957607  0.958350  0.545538  1
  O  O18  1  0.553210  0.950507  0.538549  1
  O  O19  1  0.957607  0.545538  0.958350  1
  O  O20  1  0.945897  0.547810  0.547810  1
  O  O21  1  0.550974  0.961560  0.961560  1
