# generated using pymatgen
data_Nb12Al9Zn13Ir2
_symmetry_space_group_name_H-M   'P 1'
_cell_length_a   8.84173700
_cell_length_b   8.84173638
_cell_length_c   8.19253500
_cell_angle_alpha   90.00000000
_cell_angle_beta   90.00000000
_cell_angle_gamma   119.99999111
_symmetry_Int_Tables_number   1
_chemical_formula_structural   Nb12Al9Zn13Ir2
_chemical_formula_sum   'Nb12 Al9 Zn13 Ir2'
_cell_volume   554.65653013
_cell_formula_units_Z   1
loop_
 _symmetry_equiv_pos_site_id
 _symmetry_equiv_pos_as_xyz
  1  'x, y, z'
loop_
 _atom_site_type_symbol
 _atom_site_label
 _atom_site_symmetry_multiplicity
 _atom_site_fract_x
 _atom_site_fract_y
 _atom_site_fract_z
 _atom_site_occupancy
  Nb  Nb0  1  0.332550  0.000050  0.069691  1
  Nb  Nb1  1  0.667500  0.000050  0.930309  1
  Nb  Nb2  1  0.999950  0.332500  0.069691  1
  Nb  Nb3  1  0.668651  0.000795  0.570006  1
  Nb  Nb4  1  0.999205  0.331349  0.429994  1
  Nb  Nb5  1  0.999950  0.667450  0.930309  1
  Nb  Nb6  1  0.332144  0.000795  0.429994  1
  Nb  Nb7  1  0.999205  0.667856  0.570006  1
  Nb  Nb8  1  0.667500  0.667450  0.069691  1
  Nb  Nb9  1  0.332550  0.332500  0.930309  1
  Nb  Nb10  1  0.332144  0.331349  0.570006  1
  Nb  Nb11  1  0.668651  0.667856  0.429994  1
  Al  Al12  1  0.666667  0.333333  0.500000  1
  Al  Al13  1  0.666667  0.333333  0.000000  1
  Al  Al14  1  0.333333  0.666667  0.000000  1
  Al  Al15  1  0.171604  0.999774  0.750163  1
  Al  Al16  1  0.828171  0.999774  0.249837  1
  Al  Al17  1  0.000226  0.171829  0.750163  1
  Al  Al18  1  0.000226  0.828396  0.249837  1
  Al  Al19  1  0.828171  0.828396  0.750163  1
  Al  Al20  1  0.171604  0.171829  0.249837  1
  Zn  Zn21  1  0.161479  0.494932  0.747396  1
  Zn  Zn22  1  0.839215  0.505580  0.249928  1
  Zn  Zn23  1  0.505068  0.666547  0.747396  1
  Zn  Zn24  1  0.494420  0.160785  0.750072  1
  Zn  Zn25  1  0.494420  0.333635  0.249928  1
  Zn  Zn26  1  0.505068  0.838521  0.252604  1
  Zn  Zn27  1  0.333453  0.838521  0.747396  1
  Zn  Zn28  1  0.666365  0.505580  0.750072  1
  Zn  Zn29  1  0.666365  0.160785  0.249928  1
  Zn  Zn30  1  0.333453  0.494932  0.252604  1
  Zn  Zn31  1  0.839215  0.333635  0.750072  1
  Zn  Zn32  1  0.161479  0.666547  0.252604  1
  Zn  Zn33  1  0.333333  0.666667  0.500000  1
  Ir  Ir34  1  0.000000  0.000000  0.500000  1
  Ir  Ir35  1  0.000000  0.000000  0.000000  1
