# generated using pymatgen
data_CeLu7(MgCo)2
_symmetry_space_group_name_H-M   'P 1'
_cell_length_a   9.28595720
_cell_length_b   9.47654457
_cell_length_c   9.47654434
_cell_angle_alpha   58.67383395
_cell_angle_beta   60.66308178
_cell_angle_gamma   60.66308093
_symmetry_Int_Tables_number   1
_chemical_formula_structural   CeLu7(MgCo)2
_chemical_formula_sum   'Ce2 Lu14 Mg4 Co4'
_cell_volume   589.20593684
_cell_formula_units_Z   2
loop_
 _symmetry_equiv_pos_site_id
 _symmetry_equiv_pos_as_xyz
  1  'x, y, z'
loop_
 _atom_site_type_symbol
 _atom_site_label
 _atom_site_symmetry_multiplicity
 _atom_site_fract_x
 _atom_site_fract_y
 _atom_site_fract_z
 _atom_site_occupancy
  Ce  Ce0  1  0.817323  0.182677  0.182677  1
  Ce  Ce1  1  0.182677  0.817323  0.817323  1
  Lu  Lu2  1  0.189229  0.810771  0.189229  1
  Lu  Lu3  1  0.810771  0.189229  0.810771  1
  Lu  Lu4  1  0.189229  0.189229  0.810771  1
  Lu  Lu5  1  0.810771  0.810771  0.189229  1
  Lu  Lu6  1  0.924527  0.575473  0.575473  1
  Lu  Lu7  1  0.575473  0.924527  0.924527  1
  Lu  Lu8  1  0.557871  0.942129  0.557871  1
  Lu  Lu9  1  0.942129  0.557871  0.942129  1
  Lu  Lu10  1  0.557871  0.557871  0.942129  1
  Lu  Lu11  1  0.942129  0.942129  0.557871  1
  Lu  Lu12  1  0.333275  0.347282  0.347282  1
  Lu  Lu13  1  0.347282  0.333275  0.972162  1
  Lu  Lu14  1  0.347282  0.972162  0.333275  1
  Lu  Lu15  1  0.972162  0.347282  0.347282  1
  Mg  Mg16  1  0.583888  0.577583  0.577583  1
  Mg  Mg17  1  0.577583  0.583888  0.260946  1
  Mg  Mg18  1  0.577583  0.260946  0.583888  1
  Mg  Mg19  1  0.260946  0.577583  0.577583  1
  Co  Co20  1  0.097455  0.154216  0.154216  1
  Co  Co21  1  0.154216  0.097455  0.594113  1
  Co  Co22  1  0.154216  0.594113  0.097455  1
  Co  Co23  1  0.594113  0.154216  0.154216  1
