# generated using pymatgen
data_Nd4Y2OsBr10
_symmetry_space_group_name_H-M   'P 1'
_cell_length_a   7.53468180
_cell_length_b   9.47023708
_cell_length_c   9.48906099
_cell_angle_alpha   108.41356760
_cell_angle_beta   95.89862558
_cell_angle_gamma   105.49301133
_symmetry_Int_Tables_number   1
_chemical_formula_structural   Nd4Y2OsBr10
_chemical_formula_sum   'Nd4 Y2 Os1 Br10'
_cell_volume   605.97699606
_cell_formula_units_Z   1
loop_
 _symmetry_equiv_pos_site_id
 _symmetry_equiv_pos_as_xyz
  1  'x, y, z'
loop_
 _atom_site_type_symbol
 _atom_site_label
 _atom_site_symmetry_multiplicity
 _atom_site_fract_x
 _atom_site_fract_y
 _atom_site_fract_z
 _atom_site_occupancy
  Nd  Nd0  1  0.470793  0.796756  0.593612  1
  Nd  Nd1  1  0.529207  0.203244  0.406388  1
  Nd  Nd2  1  0.373722  0.454081  0.747807  1
  Nd  Nd3  1  0.626278  0.545919  0.252193  1
  Y  Y4  1  0.863966  0.636832  0.679140  1
  Y  Y5  1  0.136034  0.363168  0.320860  1
  Os  Os6  1  0.500000  0.500000  0.500000  1
  Br  Br7  1  0.412350  0.132560  0.674896  1
  Br  Br8  1  0.587650  0.867440  0.325104  1
  Br  Br9  1  0.047090  0.672821  0.417912  1
  Br  Br10  1  0.952910  0.327179  0.582088  1
  Br  Br11  1  0.274212  0.755271  0.845626  1
  Br  Br12  1  0.725788  0.244729  0.154374  1
  Br  Br13  1  0.241796  0.412794  0.050251  1
  Br  Br14  1  0.758204  0.587206  0.949749  1
  Br  Br15  1  0.857905  0.946623  0.770902  1
  Br  Br16  1  0.142095  0.053377  0.229098  1
