# generated using pymatgen
data_Tb5YNi20As2P11
_symmetry_space_group_name_H-M   'P 1'
_cell_length_a   12.75255423
_cell_length_b   12.73778459
_cell_length_c   3.78733600
_cell_angle_alpha   90.00000000
_cell_angle_beta   90.00000000
_cell_angle_gamma   120.19172031
_symmetry_Int_Tables_number   1
_chemical_formula_structural   Tb5YNi20As2P11
_chemical_formula_sum   'Tb5 Y1 Ni20 As2 P11'
_cell_volume   531.75708765
_cell_formula_units_Z   1
loop_
 _symmetry_equiv_pos_site_id
 _symmetry_equiv_pos_as_xyz
  1  'x, y, z'
loop_
 _atom_site_type_symbol
 _atom_site_label
 _atom_site_symmetry_multiplicity
 _atom_site_fract_x
 _atom_site_fract_y
 _atom_site_fract_z
 _atom_site_occupancy
  Tb  Tb0  1  0.472229  0.188566  0.000000  1
  Tb  Tb1  1  0.718113  0.530171  0.000000  1
  Tb  Tb2  1  0.811328  0.281511  0.000000  1
  Tb  Tb3  1  0.531845  0.812448  0.500000  1
  Tb  Tb4  1  0.282529  0.473618  0.500000  1
  Y  Y5  1  0.190884  0.717332  0.500000  1
  Ni  Ni6  1  0.333939  0.666601  0.000000  1
  Ni  Ni7  1  0.666421  0.332888  0.500000  1
  Ni  Ni8  1  0.194819  0.083748  0.000000  1
  Ni  Ni9  1  0.889961  0.806140  0.000000  1
  Ni  Ni10  1  0.909172  0.105314  0.000000  1
  Ni  Ni11  1  0.847972  0.928160  0.500000  1
  Ni  Ni12  1  0.072568  0.143897  0.500000  1
  Ni  Ni13  1  0.069453  0.925430  0.500000  1
  Ni  Ni14  1  0.445746  0.421956  0.000000  1
  Ni  Ni15  1  0.976645  0.554195  0.000000  1
  Ni  Ni16  1  0.584344  0.021941  0.000000  1
  Ni  Ni17  1  0.564707  0.587794  0.500000  1
  Ni  Ni18  1  0.021824  0.435348  0.500000  1
  Ni  Ni19  1  0.415092  0.977681  0.500000  1
  Ni  Ni20  1  0.070270  0.322912  0.000000  1
  Ni  Ni21  1  0.255034  0.928358  0.000000  1
  Ni  Ni22  1  0.678443  0.758603  0.000000  1
  Ni  Ni23  1  0.921312  0.680014  0.500000  1
  Ni  Ni24  1  0.753512  0.070393  0.500000  1
  Ni  Ni25  1  0.320208  0.241556  0.500000  1
  As  As26  1  0.231513  0.281539  0.000000  1
  As  As27  1  0.050009  0.767834  0.000000  1
  P  P28  1  0.717987  0.953349  0.000000  1
  P  P29  1  0.766397  0.722955  0.500000  1
  P  P30  1  0.953556  0.231726  0.500000  1
  P  P31  1  0.278181  0.043311  0.500000  1
  P  P32  1  0.477835  0.615102  0.000000  1
  P  P33  1  0.137267  0.523789  0.000000  1
  P  P34  1  0.388738  0.862554  0.000000  1
  P  P35  1  0.523713  0.386592  0.500000  1
  P  P36  1  0.862726  0.477094  0.500000  1
  P  P37  1  0.614121  0.136766  0.500000  1
  P  P38  1  0.999590  0.000809  0.000000  1
