# generated using pymatgen
data_Y3Er5Tc2(B12Rh)2
_symmetry_space_group_name_H-M   'P 1'
_cell_length_a   3.66668200
_cell_length_b   9.12047137
_cell_length_c   11.51786907
_cell_angle_alpha   90.35490957
_cell_angle_beta   90.00000000
_cell_angle_gamma   90.00000000
_symmetry_Int_Tables_number   1
_chemical_formula_structural   Y3Er5Tc2(B12Rh)2
_chemical_formula_sum   'Y3 Er5 Tc2 B24 Rh2'
_cell_volume   385.17166989
_cell_formula_units_Z   1
loop_
 _symmetry_equiv_pos_site_id
 _symmetry_equiv_pos_as_xyz
  1  'x, y, z'
loop_
 _atom_site_type_symbol
 _atom_site_label
 _atom_site_symmetry_multiplicity
 _atom_site_fract_x
 _atom_site_fract_y
 _atom_site_fract_z
 _atom_site_occupancy
  Y  Y0  1  0.500000  0.318728  0.411105  1
  Y  Y1  1  0.500000  0.681244  0.588829  1
  Y  Y2  1  0.500000  0.173759  0.916973  1
  Er  Er3  1  0.500000  0.826543  0.082744  1
  Er  Er4  1  0.500000  0.442046  0.126807  1
  Er  Er5  1  0.500000  0.558279  0.873405  1
  Er  Er6  1  0.500000  0.053795  0.628657  1
  Er  Er7  1  0.500000  0.946032  0.371289  1
  Tc  Tc8  1  0.500000  0.138977  0.179979  1
  Tc  Tc9  1  0.500000  0.860547  0.820229  1
  B  B10  1  0.000000  0.106155  0.471429  1
  B  B11  1  0.000000  0.893712  0.528490  1
  B  B12  1  0.000000  0.394722  0.970765  1
  B  B13  1  0.000000  0.606236  0.029509  1
  B  B14  1  0.000000  0.131680  0.314771  1
  B  B15  1  0.000000  0.868009  0.685183  1
  B  B16  1  0.000000  0.367987  0.816664  1
  B  B17  1  0.000000  0.632748  0.182993  1
  B  B18  1  0.000000  0.052675  0.067670  1
  B  B19  1  0.000000  0.946293  0.932891  1
  B  B20  1  0.000000  0.445326  0.566206  1
  B  B21  1  0.000000  0.554827  0.433639  1
  B  B22  1  0.000000  0.483882  0.287184  1
  B  B23  1  0.000000  0.516428  0.712736  1
  B  B24  1  0.000000  0.016382  0.786938  1
  B  B25  1  0.000000  0.982768  0.212935  1
  B  B26  1  0.000000  0.248514  0.081528  1
  B  B27  1  0.000000  0.751381  0.919230  1
  B  B28  1  0.000000  0.250130  0.579179  1
  B  B29  1  0.000000  0.749835  0.420600  1
  B  B30  1  0.000000  0.292857  0.234554  1
  B  B31  1  0.000000  0.707083  0.765660  1
  B  B32  1  0.000000  0.208270  0.734791  1
  B  B33  1  0.000000  0.792004  0.264643  1
  Rh  Rh34  1  0.500000  0.361536  0.678909  1
  Rh  Rh35  1  0.500000  0.638608  0.320887  1
