# generated using pymatgen
data_Nd9Lu11Si15Ge
_symmetry_space_group_name_H-M   'P 1'
_cell_length_a   7.69409423
_cell_length_b   7.70934108
_cell_length_c   14.17072931
_cell_angle_alpha   89.67111241
_cell_angle_beta   90.22614792
_cell_angle_gamma   90.05313696
_symmetry_Int_Tables_number   1
_chemical_formula_structural   Nd9Lu11Si15Ge
_chemical_formula_sum   'Nd9 Lu11 Si15 Ge1'
_cell_volume   840.53586162
_cell_formula_units_Z   1
loop_
 _symmetry_equiv_pos_site_id
 _symmetry_equiv_pos_as_xyz
  1  'x, y, z'
loop_
 _atom_site_type_symbol
 _atom_site_label
 _atom_site_symmetry_multiplicity
 _atom_site_fract_x
 _atom_site_fract_y
 _atom_site_fract_z
 _atom_site_occupancy
  Nd  Nd0  1  0.010401  0.859915  0.126097  1
  Nd  Nd1  1  0.643327  0.993391  0.460671  1
  Nd  Nd2  1  0.358296  0.005485  0.956975  1
  Nd  Nd3  1  0.990754  0.644261  0.539949  1
  Nd  Nd4  1  0.494106  0.855537  0.210123  1
  Nd  Nd5  1  0.508853  0.146773  0.711326  1
  Nd  Nd6  1  0.855895  0.491249  0.788811  1
  Nd  Nd7  1  0.141097  0.508096  0.291798  1
  Nd  Nd8  1  0.008765  0.356127  0.040297  1
  Lu  Lu9  1  0.491832  0.357604  0.123350  1
  Lu  Lu10  1  0.990730  0.142509  0.626648  1
  Lu  Lu11  1  0.860220  0.006008  0.873260  1
  Lu  Lu12  1  0.140436  0.994062  0.375844  1
  Lu  Lu13  1  0.505702  0.640280  0.624162  1
  Lu  Lu14  1  0.361986  0.491725  0.873215  1
  Lu  Lu15  1  0.640515  0.506196  0.377156  1
  Lu  Lu16  1  0.316732  0.322262  0.499849  1
  Lu  Lu17  1  0.180780  0.817524  0.750029  1
  Lu  Lu18  1  0.816050  0.183768  0.250927  1
  Lu  Lu19  1  0.683158  0.679624  0.999483  1
  Si  Si20  1  0.707801  0.064405  0.060255  1
  Si  Si21  1  0.937872  0.290389  0.438486  1
  Si  Si22  1  0.438883  0.211505  0.313539  1
  Si  Si23  1  0.562820  0.787839  0.811398  1
  Si  Si24  1  0.210378  0.438777  0.686688  1
  Si  Si25  1  0.784622  0.556319  0.189171  1
  Si  Si26  1  0.063677  0.704969  0.933655  1
  Si  Si27  1  0.795110  0.850051  0.687398  1
  Si  Si28  1  0.206485  0.157467  0.192962  1
  Si  Si29  1  0.847424  0.796322  0.317501  1
  Si  Si30  1  0.350079  0.700997  0.435969  1
  Si  Si31  1  0.650733  0.294289  0.936848  1
  Si  Si32  1  0.702169  0.350708  0.562980  1
  Si  Si33  1  0.303732  0.646650  0.057225  1
  Si  Si34  1  0.150188  0.203234  0.811423  1
  Ge  Ge35  1  0.288392  0.943676  0.564532  1
