# generated using pymatgen
data_YbSm(ThPt2)2
_symmetry_space_group_name_H-M   'P 1'
_cell_length_a   4.56563100
_cell_length_b   5.77122645
_cell_length_c   7.25469411
_cell_angle_alpha   88.06671666
_cell_angle_beta   90.00000000
_cell_angle_gamma   90.00000000
_symmetry_Int_Tables_number   1
_chemical_formula_structural   YbSm(ThPt2)2
_chemical_formula_sum   'Yb1 Sm1 Th2 Pt4'
_cell_volume   191.04723329
_cell_formula_units_Z   1
loop_
 _symmetry_equiv_pos_site_id
 _symmetry_equiv_pos_as_xyz
  1  'x, y, z'
loop_
 _atom_site_type_symbol
 _atom_site_label
 _atom_site_symmetry_multiplicity
 _atom_site_fract_x
 _atom_site_fract_y
 _atom_site_fract_z
 _atom_site_occupancy
  Yb  Yb0  1  0.250000  0.355501  0.682081  1
  Sm  Sm1  1  0.750000  0.641054  0.320738  1
  Th  Th2  1  0.250000  0.146038  0.183323  1
  Th  Th3  1  0.750000  0.853968  0.815639  1
  Pt  Pt4  1  0.750000  0.153731  0.451628  1
  Pt  Pt5  1  0.250000  0.847729  0.545796  1
  Pt  Pt6  1  0.250000  0.669404  0.042988  1
  Pt  Pt7  1  0.750000  0.332576  0.957808  1
