# generated using pymatgen
data_MnFeHg2(AsO5)2
_symmetry_space_group_name_H-M   'P 1'
_cell_length_a   6.35441288
_cell_length_b   8.29703281
_cell_length_c   8.58739700
_cell_angle_alpha   90.00000000
_cell_angle_beta   90.00000000
_cell_angle_gamma   92.74449819
_symmetry_Int_Tables_number   1
_chemical_formula_structural   MnFeHg2(AsO5)2
_chemical_formula_sum   'Mn2 Fe2 Hg4 As4 O20'
_cell_volume   452.23206476
_cell_formula_units_Z   2
loop_
 _symmetry_equiv_pos_site_id
 _symmetry_equiv_pos_as_xyz
  1  'x, y, z'
loop_
 _atom_site_type_symbol
 _atom_site_label
 _atom_site_symmetry_multiplicity
 _atom_site_fract_x
 _atom_site_fract_y
 _atom_site_fract_z
 _atom_site_occupancy
  Mn  Mn0  1  0.749875  0.250167  0.500292  1
  Mn  Mn1  1  0.750125  0.749833  0.000292  1
  Fe  Fe2  1  0.250154  0.750312  0.999620  1
  Fe  Fe3  1  0.249846  0.249688  0.499620  1
  Hg  Hg4  1  0.996962  0.821753  0.661056  1
  Hg  Hg5  1  0.503038  0.178247  0.161056  1
  Hg  Hg6  1  0.996301  0.322275  0.838972  1
  Hg  Hg7  1  0.503699  0.677725  0.338972  1
  As  As8  1  0.489889  0.074055  0.789980  1
  As  As9  1  0.010111  0.925945  0.289980  1
  As  As10  1  0.492078  0.573764  0.710043  1
  As  As11  1  0.007922  0.426236  0.210043  1
  O  O12  1  0.487540  0.893644  0.891323  1
  O  O13  1  0.012460  0.106356  0.391323  1
  O  O14  1  0.486592  0.393335  0.608661  1
  O  O15  1  0.013408  0.606665  0.108661  1
  O  O16  1  0.496326  0.230681  0.925314  1
  O  O17  1  0.003674  0.769319  0.425314  1
  O  O18  1  0.508533  0.730421  0.574690  1
  O  O19  1  0.991467  0.269579  0.074690  1
  O  O20  1  0.717154  0.094832  0.680166  1
  O  O21  1  0.782846  0.905168  0.180166  1
  O  O22  1  0.266405  0.590343  0.818161  1
  O  O23  1  0.233595  0.409657  0.318161  1
  O  O24  1  0.266347  0.087756  0.679111  1
  O  O25  1  0.233653  0.912244  0.179111  1
  O  O26  1  0.717154  0.591931  0.822540  1
  O  O27  1  0.782846  0.408069  0.322540  1
  O  O28  1  0.999280  0.845406  0.901031  1
  O  O29  1  0.500720  0.154594  0.401031  1
  O  O30  1  0.000358  0.345500  0.599040  1
  O  O31  1  0.499642  0.654500  0.099040  1
