# generated using pymatgen
data_Tb5Dy(HfPt2)2
_symmetry_space_group_name_H-M   'P 1'
_cell_length_a   4.73951400
_cell_length_b   7.19710470
_cell_length_c   8.46824024
_cell_angle_alpha   90.23485480
_cell_angle_beta   90.00000000
_cell_angle_gamma   90.00000000
_symmetry_Int_Tables_number   1
_chemical_formula_structural   Tb5Dy(HfPt2)2
_chemical_formula_sum   'Tb5 Dy1 Hf2 Pt4'
_cell_volume   288.85584000
_cell_formula_units_Z   1
loop_
 _symmetry_equiv_pos_site_id
 _symmetry_equiv_pos_as_xyz
  1  'x, y, z'
loop_
 _atom_site_type_symbol
 _atom_site_label
 _atom_site_symmetry_multiplicity
 _atom_site_fract_x
 _atom_site_fract_y
 _atom_site_fract_z
 _atom_site_occupancy
  Tb  Tb0  1  0.250000  0.854748  0.916859  1
  Tb  Tb1  1  0.750000  0.508937  0.821066  1
  Tb  Tb2  1  0.250000  0.490585  0.178965  1
  Tb  Tb3  1  0.750000  0.018834  0.667820  1
  Tb  Tb4  1  0.250000  0.981327  0.332133  1
  Dy  Dy5  1  0.750000  0.145383  0.083195  1
  Hf  Hf6  1  0.750000  0.643168  0.424957  1
  Hf  Hf7  1  0.250000  0.356809  0.574990  1
  Pt  Pt8  1  0.750000  0.275774  0.419920  1
  Pt  Pt9  1  0.250000  0.724141  0.579618  1
  Pt  Pt10  1  0.750000  0.743993  0.107027  1
  Pt  Pt11  1  0.250000  0.256302  0.893451  1
