# generated using pymatgen
data_SmHoTmNi9
_symmetry_space_group_name_H-M   'P 1'
_cell_length_a   8.59612114
_cell_length_b   8.59612147
_cell_length_c   8.59612055
_cell_angle_alpha   33.78866275
_cell_angle_beta   33.78866160
_cell_angle_gamma   33.78866397
_symmetry_Int_Tables_number   1
_chemical_formula_structural   SmHoTmNi9
_chemical_formula_sum   'Sm1 Ho1 Tm1 Ni9'
_cell_volume   175.05347403
_cell_formula_units_Z   1
loop_
 _symmetry_equiv_pos_site_id
 _symmetry_equiv_pos_as_xyz
  1  'x, y, z'
loop_
 _atom_site_type_symbol
 _atom_site_label
 _atom_site_symmetry_multiplicity
 _atom_site_fract_x
 _atom_site_fract_y
 _atom_site_fract_z
 _atom_site_occupancy
  Sm  Sm0  1  0.999750  0.999750  0.999750  1
  Ho  Ho1  1  0.139746  0.139746  0.139746  1
  Tm  Tm2  1  0.860476  0.860476  0.860476  1
  Ni  Ni3  1  0.416261  0.416261  0.918296  1
  Ni  Ni4  1  0.918296  0.416261  0.416261  1
  Ni  Ni5  1  0.416261  0.918296  0.416261  1
  Ni  Ni6  1  0.500125  0.500125  0.500125  1
  Ni  Ni7  1  0.333208  0.333208  0.333208  1
  Ni  Ni8  1  0.666876  0.666876  0.666876  1
  Ni  Ni9  1  0.081358  0.583822  0.583822  1
  Ni  Ni10  1  0.583822  0.583822  0.081358  1
  Ni  Ni11  1  0.583822  0.081358  0.583822  1
