# generated using pymatgen
data_LuHf4Re17Tc7
_symmetry_space_group_name_H-M   'P 1'
_cell_length_a   8.47792822
_cell_length_b   8.47792802
_cell_length_c   8.46796900
_cell_angle_alpha   109.47775453
_cell_angle_beta   109.47763943
_cell_angle_gamma   109.58153879
_symmetry_Int_Tables_number   1
_chemical_formula_structural   LuHf4Re17Tc7
_chemical_formula_sum   'Lu1 Hf4 Re17 Tc7'
_cell_volume   467.81485160
_cell_formula_units_Z   1
loop_
 _symmetry_equiv_pos_site_id
 _symmetry_equiv_pos_as_xyz
  1  'x, y, z'
loop_
 _atom_site_type_symbol
 _atom_site_label
 _atom_site_symmetry_multiplicity
 _atom_site_fract_x
 _atom_site_fract_y
 _atom_site_fract_z
 _atom_site_occupancy
  Lu  Lu0  1  0.999337  0.999337  0.999670  1
  Hf  Hf1  1  0.625768  0.999661  0.999696  1
  Hf  Hf2  1  0.999659  0.625763  0.999688  1
  Hf  Hf3  1  0.001457  0.001459  0.628209  1
  Hf  Hf4  1  0.371929  0.371928  0.372426  1
  Re  Re5  1  0.000802  0.676076  0.396014  1
  Re  Re6  1  0.676064  0.000784  0.396012  1
  Re  Re7  1  0.603916  0.603922  0.278941  1
  Re  Re8  1  0.279502  0.605096  0.604186  1
  Re  Re9  1  0.605083  0.279493  0.604190  1
  Re  Re10  1  0.377137  0.195487  0.000903  1
  Re  Re11  1  0.180584  0.805778  0.805082  1
  Re  Re12  1  0.375646  0.000610  0.194755  1
  Re  Re13  1  0.195493  0.377143  0.000913  1
  Re  Re14  1  0.000623  0.375658  0.194757  1
  Re  Re15  1  0.805769  0.180576  0.805085  1
  Re  Re16  1  0.805758  0.805756  0.181533  1
  Re  Re17  1  0.000633  0.194309  0.377469  1
  Re  Re18  1  0.194315  0.000627  0.377474  1
  Re  Re19  1  0.622324  0.622327  0.816090  1
  Re  Re20  1  0.816119  0.622744  0.622125  1
  Re  Re21  1  0.622733  0.816121  0.622121  1
  Tc  Tc22  1  0.396210  0.677607  0.000542  1
  Tc  Tc23  1  0.719852  0.323105  0.322640  1
  Tc  Tc24  1  0.397239  0.001845  0.678117  1
  Tc  Tc25  1  0.677607  0.396209  0.000541  1
  Tc  Tc26  1  0.001843  0.397238  0.678123  1
  Tc  Tc27  1  0.323112  0.719857  0.322647  1
  Tc  Tc28  1  0.323485  0.323483  0.720052  1
