# generated using pymatgen
data_Tb2Y8Si5P
_symmetry_space_group_name_H-M   'P 1'
_cell_length_a   8.43863800
_cell_length_b   8.44347190
_cell_length_c   6.33884004
_cell_angle_alpha   90.01182839
_cell_angle_beta   90.00000000
_cell_angle_gamma   119.98106362
_symmetry_Int_Tables_number   1
_chemical_formula_structural   Tb2Y8Si5P
_chemical_formula_sum   'Tb2 Y8 Si5 P1'
_cell_volume   391.21605547
_cell_formula_units_Z   1
loop_
 _symmetry_equiv_pos_site_id
 _symmetry_equiv_pos_as_xyz
  1  'x, y, z'
loop_
 _atom_site_type_symbol
 _atom_site_label
 _atom_site_symmetry_multiplicity
 _atom_site_fract_x
 _atom_site_fract_y
 _atom_site_fract_z
 _atom_site_occupancy
  Tb  Tb0  1  0.333728  0.667519  0.500485  1
  Tb  Tb1  1  0.666209  0.332481  0.999515  1
  Y  Y2  1  0.000933  0.756367  0.750010  1
  Y  Y3  1  0.000952  0.244678  0.250003  1
  Y  Y4  1  0.756274  0.755322  0.249997  1
  Y  Y5  1  0.754450  0.000000  0.750000  1
  Y  Y6  1  0.244565  0.243633  0.749990  1
  Y  Y7  1  0.244497  0.000000  0.250000  1
  Y  Y8  1  0.666217  0.332507  0.500461  1
  Y  Y9  1  0.333709  0.667493  0.999539  1
  Si  Si10  1  0.393819  0.393155  0.250023  1
  Si  Si11  1  0.000665  0.606845  0.249977  1
  Si  Si12  1  0.000143  0.393230  0.750004  1
  Si  Si13  1  0.606913  0.606770  0.749996  1
  Si  Si14  1  0.607726  0.000000  0.250000  1
  P  P15  1  0.389198  0.000000  0.750000  1
