# generated using pymatgen
data_Mg2Zn3(BRh2)4
_symmetry_space_group_name_H-M   'P 1'
_cell_length_a   9.50680663
_cell_length_b   9.50680635
_cell_length_c   2.90777900
_cell_angle_alpha   90.00000000
_cell_angle_beta   90.00000000
_cell_angle_gamma   125.82601280
_symmetry_Int_Tables_number   1
_chemical_formula_structural   Mg2Zn3(BRh2)4
_chemical_formula_sum   'Mg2 Zn3 B4 Rh8'
_cell_volume   213.08037754
_cell_formula_units_Z   1
loop_
 _symmetry_equiv_pos_site_id
 _symmetry_equiv_pos_as_xyz
  1  'x, y, z'
loop_
 _atom_site_type_symbol
 _atom_site_label
 _atom_site_symmetry_multiplicity
 _atom_site_fract_x
 _atom_site_fract_y
 _atom_site_fract_z
 _atom_site_occupancy
  Mg  Mg0  1  0.201187  0.798813  0.500000  1
  Mg  Mg1  1  0.798813  0.201187  0.500000  1
  Zn  Zn2  1  0.357574  0.357574  0.500000  1
  Zn  Zn3  1  0.000000  0.000000  0.500000  1
  Zn  Zn4  1  0.642426  0.642426  0.500000  1
  B  B5  1  0.463021  0.152679  0.500000  1
  B  B6  1  0.152679  0.463021  0.500000  1
  B  B7  1  0.536979  0.847321  0.500000  1
  B  B8  1  0.847321  0.536979  0.500000  1
  Rh  Rh9  1  0.628097  0.371903  0.000000  1
  Rh  Rh10  1  0.371903  0.628097  0.000000  1
  Rh  Rh11  1  0.911171  0.730423  0.000000  1
  Rh  Rh12  1  0.088829  0.269577  0.000000  1
  Rh  Rh13  1  0.500000  0.000000  0.000000  1
  Rh  Rh14  1  0.269577  0.088829  0.000000  1
  Rh  Rh15  1  0.730423  0.911171  0.000000  1
  Rh  Rh16  1  0.000000  0.500000  0.000000  1
