# generated using pymatgen
data_Li2Ce2(NiRh4)3
_symmetry_space_group_name_H-M   'P 1'
_cell_length_a   6.69865456
_cell_length_b   6.69865396
_cell_length_c   6.69865488
_cell_angle_alpha   82.50143173
_cell_angle_beta   97.49856250
_cell_angle_gamma   97.49855840
_symmetry_Int_Tables_number   1
_chemical_formula_structural   Li2Ce2(NiRh4)3
_chemical_formula_sum   'Li2 Ce2 Ni3 Rh12'
_cell_volume   293.48752948
_cell_formula_units_Z   1
loop_
 _symmetry_equiv_pos_site_id
 _symmetry_equiv_pos_as_xyz
  1  'x, y, z'
loop_
 _atom_site_type_symbol
 _atom_site_label
 _atom_site_symmetry_multiplicity
 _atom_site_fract_x
 _atom_site_fract_y
 _atom_site_fract_z
 _atom_site_occupancy
  Li  Li0  1  0.905553  0.094446  0.094446  1
  Li  Li1  1  0.094445  0.905554  0.905554  1
  Ce  Ce2  1  0.657496  0.342503  0.342503  1
  Ce  Ce3  1  0.342502  0.657497  0.657497  1
  Ni  Ni4  1  0.500000  0.000000  0.000000  1
  Ni  Ni5  1  0.000000  0.500000  0.000000  1
  Ni  Ni6  1  0.000000  0.000000  0.500000  1
  Rh  Rh7  1  0.300698  0.300699  0.000000  1
  Rh  Rh8  1  0.699302  0.699302  0.000000  1
  Rh  Rh9  1  0.344701  0.655299  0.151343  1
  Rh  Rh10  1  0.000000  0.699302  0.300697  1
  Rh  Rh11  1  0.300698  0.000000  0.300698  1
  Rh  Rh12  1  0.655298  0.848657  0.344701  1
  Rh  Rh13  1  0.151342  0.344702  0.344702  1
  Rh  Rh14  1  0.344701  0.151343  0.655298  1
  Rh  Rh15  1  0.848657  0.655299  0.655299  1
  Rh  Rh16  1  0.000000  0.300699  0.699301  1
  Rh  Rh17  1  0.699302  0.000000  0.699302  1
  Rh  Rh18  1  0.655298  0.344702  0.848658  1
