# generated using pymatgen
data_LaPrTc17C3
_symmetry_space_group_name_H-M   'P 1'
_cell_length_a   7.02682494
_cell_length_b   7.02682502
_cell_length_c   7.02682520
_cell_angle_alpha   83.12117634
_cell_angle_beta   83.12118445
_cell_angle_gamma   83.12118719
_symmetry_Int_Tables_number   1
_chemical_formula_structural   LaPrTc17C3
_chemical_formula_sum   'La1 Pr1 Tc17 C3'
_cell_volume   340.01955174
_cell_formula_units_Z   1
loop_
 _symmetry_equiv_pos_site_id
 _symmetry_equiv_pos_as_xyz
  1  'x, y, z'
loop_
 _atom_site_type_symbol
 _atom_site_label
 _atom_site_symmetry_multiplicity
 _atom_site_fract_x
 _atom_site_fract_y
 _atom_site_fract_z
 _atom_site_occupancy
  La  La0  1  0.648745  0.648745  0.648745  1
  Pr  Pr1  1  0.350548  0.350548  0.350548  1
  Tc  Tc2  1  0.000236  0.000236  0.499931  1
  Tc  Tc3  1  0.499931  0.000236  0.000236  1
  Tc  Tc4  1  0.000236  0.499931  0.000236  1
  Tc  Tc5  1  0.721998  0.277994  0.000281  1
  Tc  Tc6  1  0.000281  0.721998  0.277994  1
  Tc  Tc7  1  0.277994  0.000281  0.721998  1
  Tc  Tc8  1  0.000281  0.277994  0.721998  1
  Tc  Tc9  1  0.721998  0.000281  0.277994  1
  Tc  Tc10  1  0.277994  0.721998  0.000281  1
  Tc  Tc11  1  0.346858  0.346858  0.867223  1
  Tc  Tc12  1  0.867223  0.346858  0.346858  1
  Tc  Tc13  1  0.346858  0.867223  0.346858  1
  Tc  Tc14  1  0.652891  0.652891  0.132951  1
  Tc  Tc15  1  0.132951  0.652891  0.652891  1
  Tc  Tc16  1  0.652891  0.132951  0.652891  1
  Tc  Tc17  1  0.903211  0.903211  0.903211  1
  Tc  Tc18  1  0.096867  0.096867  0.096867  1
  C  C19  1  0.499513  0.499513  0.000982  1
  C  C20  1  0.000982  0.499513  0.499513  1
  C  C21  1  0.499513  0.000982  0.499513  1
