# generated using pymatgen
data_YbY4Ge12Ir19
_symmetry_space_group_name_H-M   'P 1'
_cell_length_a   13.13255901
_cell_length_b   13.13354918
_cell_length_c   4.04890200
_cell_angle_alpha   90.00000000
_cell_angle_beta   90.00000000
_cell_angle_gamma   120.00249762
_symmetry_Int_Tables_number   1
_chemical_formula_structural   YbY4Ge12Ir19
_chemical_formula_sum   'Yb1 Y4 Ge12 Ir19'
_cell_volume   604.76748290
_cell_formula_units_Z   1
loop_
 _symmetry_equiv_pos_site_id
 _symmetry_equiv_pos_as_xyz
  1  'x, y, z'
loop_
 _atom_site_type_symbol
 _atom_site_label
 _atom_site_symmetry_multiplicity
 _atom_site_fract_x
 _atom_site_fract_y
 _atom_site_fract_z
 _atom_site_occupancy
  Yb  Yb0  1  0.000000  0.815172  0.500000  1
  Y  Y1  1  0.334206  0.666543  0.000000  1
  Y  Y2  1  0.665794  0.332336  0.000000  1
  Y  Y3  1  0.183606  0.182938  0.500000  1
  Y  Y4  1  0.816394  0.999332  0.500000  1
  Ge  Ge5  1  0.821107  0.818055  0.000000  1
  Ge  Ge6  1  0.178893  0.996949  0.000000  1
  Ge  Ge7  1  0.000000  0.181645  0.000000  1
  Ge  Ge8  1  0.315159  0.830751  0.500000  1
  Ge  Ge9  1  0.169264  0.484752  0.500000  1
  Ge  Ge10  1  0.515993  0.685050  0.500000  1
  Ge  Ge11  1  0.830736  0.315487  0.500000  1
  Ge  Ge12  1  0.484007  0.169056  0.500000  1
  Ge  Ge13  1  0.684841  0.515591  0.500000  1
  Ge  Ge14  1  0.363903  0.364126  0.000000  1
  Ge  Ge15  1  0.636097  0.000224  0.000000  1
  Ge  Ge16  1  0.000000  0.637206  0.000000  1
  Ir  Ir17  1  0.197638  0.817717  0.000000  1
  Ir  Ir18  1  0.181312  0.377270  0.000000  1
  Ir  Ir19  1  0.624329  0.805191  0.000000  1
  Ir  Ir20  1  0.818688  0.195958  0.000000  1
  Ir  Ir21  1  0.375671  0.180861  0.000000  1
  Ir  Ir22  1  0.802362  0.620079  0.000000  1
  Ir  Ir23  1  0.714036  0.714544  0.500000  1
  Ir  Ir24  1  0.285964  0.000508  0.500000  1
  Ir  Ir25  1  0.000000  0.286521  0.500000  1
  Ir  Ir26  1  0.124924  0.640611  0.500000  1
  Ir  Ir27  1  0.358813  0.484624  0.500000  1
  Ir  Ir28  1  0.515802  0.874991  0.500000  1
  Ir  Ir29  1  0.641187  0.125812  0.500000  1
  Ir  Ir30  1  0.484198  0.359189  0.500000  1
  Ir  Ir31  1  0.875076  0.515688  0.500000  1
  Ir  Ir32  1  0.551410  0.553535  0.000000  1
  Ir  Ir33  1  0.448590  0.002126  0.000000  1
  Ir  Ir34  1  0.000000  0.447920  0.000000  1
  Ir  Ir35  1  0.000000  0.001641  0.000000  1
