# generated using pymatgen
data_Nd4Co16Re4(Si3P)3
_symmetry_space_group_name_H-M   'P 1'
_cell_length_a   3.78562500
_cell_length_b   10.60767886
_cell_length_c   12.07274880
_cell_angle_alpha   89.95601526
_cell_angle_beta   90.00000000
_cell_angle_gamma   90.00000000
_symmetry_Int_Tables_number   1
_chemical_formula_structural   Nd4Co16Re4(Si3P)3
_chemical_formula_sum   'Nd4 Co16 Re4 Si9 P3'
_cell_volume   484.80154006
_cell_formula_units_Z   1
loop_
 _symmetry_equiv_pos_site_id
 _symmetry_equiv_pos_as_xyz
  1  'x, y, z'
loop_
 _atom_site_type_symbol
 _atom_site_label
 _atom_site_symmetry_multiplicity
 _atom_site_fract_x
 _atom_site_fract_y
 _atom_site_fract_z
 _atom_site_occupancy
  Nd  Nd0  1  0.250000  0.578699  0.702077  1
  Nd  Nd1  1  0.250000  0.919687  0.203719  1
  Nd  Nd2  1  0.750000  0.419486  0.295077  1
  Nd  Nd3  1  0.750000  0.079772  0.797286  1
  Co  Co4  1  0.250000  0.404122  0.491907  1
  Co  Co5  1  0.250000  0.091899  0.990935  1
  Co  Co6  1  0.750000  0.591260  0.511889  1
  Co  Co7  1  0.750000  0.908185  0.009626  1
  Co  Co8  1  0.250000  0.213899  0.171982  1
  Co  Co9  1  0.250000  0.285018  0.673134  1
  Co  Co10  1  0.750000  0.786502  0.828044  1
  Co  Co11  1  0.750000  0.715521  0.327086  1
  Co  Co12  1  0.250000  0.885638  0.701745  1
  Co  Co13  1  0.250000  0.615402  0.196906  1
  Co  Co14  1  0.750000  0.115048  0.299751  1
  Co  Co15  1  0.750000  0.384486  0.798802  1
  Co  Co16  1  0.250000  0.468721  0.932512  1
  Co  Co17  1  0.250000  0.032676  0.434258  1
  Co  Co18  1  0.750000  0.531048  0.064436  1
  Co  Co19  1  0.750000  0.969173  0.567061  1
  Re  Re20  1  0.250000  0.704832  0.988905  1
  Re  Re21  1  0.250000  0.800197  0.493494  1
  Re  Re22  1  0.750000  0.295029  0.009694  1
  Re  Re23  1  0.750000  0.203493  0.509775  1
  Si  Si24  1  0.250000  0.416102  0.110624  1
  Si  Si25  1  0.250000  0.084055  0.612385  1
  Si  Si26  1  0.750000  0.584142  0.887058  1
  Si  Si27  1  0.750000  0.915949  0.389030  1
  Si  Si28  1  0.250000  0.273424  0.865671  1
  Si  Si29  1  0.250000  0.227260  0.365383  1
  Si  Si30  1  0.750000  0.725780  0.134225  1
  Si  Si31  1  0.750000  0.773399  0.635202  1
  Si  Si32  1  0.250000  0.602727  0.394047  1
  P  P33  1  0.250000  0.898302  0.894458  1
  P  P34  1  0.750000  0.396789  0.605497  1
  P  P35  1  0.750000  0.102277  0.106318  1
