# generated using pymatgen
data_Tb15YCd3InPd4
_symmetry_space_group_name_H-M   'P 1'
_cell_length_a   9.73114008
_cell_length_b   9.73113978
_cell_length_c   9.73508936
_cell_angle_alpha   60.14778610
_cell_angle_beta   60.14778858
_cell_angle_gamma   60.15649272
_symmetry_Int_Tables_number   1
_chemical_formula_structural   Tb15YCd3InPd4
_chemical_formula_sum   'Tb15 Y1 Cd3 In1 Pd4'
_cell_volume   654.08200285
_cell_formula_units_Z   1
loop_
 _symmetry_equiv_pos_site_id
 _symmetry_equiv_pos_as_xyz
  1  'x, y, z'
loop_
 _atom_site_type_symbol
 _atom_site_label
 _atom_site_symmetry_multiplicity
 _atom_site_fract_x
 _atom_site_fract_y
 _atom_site_fract_z
 _atom_site_occupancy
  Tb  Tb0  1  0.351195  0.351195  0.351268  1
  Tb  Tb1  1  0.355362  0.355362  0.937711  1
  Tb  Tb2  1  0.355441  0.937651  0.355374  1
  Tb  Tb3  1  0.937651  0.355441  0.355374  1
  Tb  Tb4  1  0.811248  0.189689  0.189622  1
  Tb  Tb5  1  0.190308  0.809428  0.809474  1
  Tb  Tb6  1  0.189689  0.811248  0.189622  1
  Tb  Tb7  1  0.809428  0.190308  0.809474  1
  Tb  Tb8  1  0.189670  0.189670  0.811215  1
  Tb  Tb9  1  0.809422  0.809422  0.190204  1
  Tb  Tb10  1  0.936279  0.566682  0.566795  1
  Tb  Tb11  1  0.564292  0.935790  0.935648  1
  Tb  Tb12  1  0.566682  0.936279  0.566795  1
  Tb  Tb13  1  0.935790  0.564292  0.935648  1
  Tb  Tb14  1  0.566904  0.566904  0.936116  1
  Y  Y15  1  0.935784  0.935784  0.564356  1
  Cd  Cd16  1  0.580715  0.580715  0.252843  1
  Cd  Cd17  1  0.580850  0.252777  0.580672  1
  Cd  Cd18  1  0.252777  0.580850  0.580672  1
  In  In19  1  0.581925  0.581925  0.582084  1
  Pd  Pd20  1  0.145428  0.145428  0.145790  1
  Pd  Pd21  1  0.142526  0.142526  0.567980  1
  Pd  Pd22  1  0.142657  0.567975  0.142632  1
  Pd  Pd23  1  0.567975  0.142657  0.142632  1
