# generated using pymatgen
data_La5Tc3(P3Rh4)4
_symmetry_space_group_name_H-M   'P 1'
_cell_length_a   12.81609700
_cell_length_b   12.81609848
_cell_length_c   4.04603800
_cell_angle_alpha   90.00000000
_cell_angle_beta   90.00000000
_cell_angle_gamma   119.99999876
_symmetry_Int_Tables_number   1
_chemical_formula_structural   La5Tc3(P3Rh4)4
_chemical_formula_sum   'La5 Tc3 P12 Rh16'
_cell_volume   575.53563159
_cell_formula_units_Z   1
loop_
 _symmetry_equiv_pos_site_id
 _symmetry_equiv_pos_as_xyz
  1  'x, y, z'
loop_
 _atom_site_type_symbol
 _atom_site_label
 _atom_site_symmetry_multiplicity
 _atom_site_fract_x
 _atom_site_fract_y
 _atom_site_fract_z
 _atom_site_occupancy
  La  La0  1  0.000000  0.815406  0.500000  1
  La  La1  1  0.184594  0.184594  0.500000  1
  La  La2  1  0.815406  0.000000  0.500000  1
  La  La3  1  0.333333  0.666667  0.000000  1
  La  La4  1  0.666667  0.333333  0.000000  1
  Tc  Tc5  1  0.000000  0.289461  0.500000  1
  Tc  Tc6  1  0.710539  0.710539  0.500000  1
  Tc  Tc7  1  0.289461  0.000000  0.500000  1
  P  P8  1  0.000000  0.185251  0.000000  1
  P  P9  1  0.814749  0.814749  0.000000  1
  P  P10  1  0.185251  0.000000  0.000000  1
  P  P11  1  0.521550  0.690284  0.500000  1
  P  P12  1  0.309716  0.831265  0.500000  1
  P  P13  1  0.168735  0.478450  0.500000  1
  P  P14  1  0.478450  0.168735  0.500000  1
  P  P15  1  0.690284  0.521550  0.500000  1
  P  P16  1  0.831265  0.309716  0.500000  1
  P  P17  1  0.000000  0.630290  0.000000  1
  P  P18  1  0.369710  0.369710  0.000000  1
  P  P19  1  0.630290  0.000000  0.000000  1
  Rh  Rh20  1  0.620331  0.803364  0.000000  1
  Rh  Rh21  1  0.196636  0.816967  0.000000  1
  Rh  Rh22  1  0.183033  0.379669  0.000000  1
  Rh  Rh23  1  0.379669  0.183033  0.000000  1
  Rh  Rh24  1  0.803364  0.620331  0.000000  1
  Rh  Rh25  1  0.816967  0.196636  0.000000  1
  Rh  Rh26  1  0.510794  0.872901  0.500000  1
  Rh  Rh27  1  0.127099  0.637893  0.500000  1
  Rh  Rh28  1  0.362107  0.489206  0.500000  1
  Rh  Rh29  1  0.489206  0.362107  0.500000  1
  Rh  Rh30  1  0.872901  0.510794  0.500000  1
  Rh  Rh31  1  0.637893  0.127099  0.500000  1
  Rh  Rh32  1  0.000000  0.000000  0.000000  1
  Rh  Rh33  1  0.000000  0.450749  0.000000  1
  Rh  Rh34  1  0.549251  0.549251  0.000000  1
  Rh  Rh35  1  0.450749  0.000000  0.000000  1
