# generated using pymatgen
data_TlAuS5
_symmetry_space_group_name_H-M   'P 1'
_cell_length_a   10.60317776
_cell_length_b   10.60317844
_cell_length_c   10.60317778
_cell_angle_alpha   130.45857564
_cell_angle_beta   118.85977567
_cell_angle_gamma   82.43991896
_symmetry_Int_Tables_number   1
_chemical_formula_structural   TlAuS5
_chemical_formula_sum   'Tl4 Au4 S20'
_cell_volume   764.30104730
_cell_formula_units_Z   4
loop_
 _symmetry_equiv_pos_site_id
 _symmetry_equiv_pos_as_xyz
  1  'x, y, z'
loop_
 _atom_site_type_symbol
 _atom_site_label
 _atom_site_symmetry_multiplicity
 _atom_site_fract_x
 _atom_site_fract_y
 _atom_site_fract_z
 _atom_site_occupancy
  Tl  Tl0  1  0.000000  0.000000  0.000000  1
  Tl  Tl1  1  0.500000  0.500000  0.000000  1
  Tl  Tl2  1  0.250000  0.749999  0.500000  1
  Tl  Tl3  1  0.750000  0.250000  0.500000  1
  Au  Au4  1  0.391888  0.250000  0.141888  1
  Au  Au5  1  0.108111  0.250000  0.858111  1
  Au  Au6  1  0.608111  0.749999  0.858111  1
  Au  Au7  1  0.891888  0.749999  0.141888  1
  S  S8  1  0.341314  0.926157  0.267473  1
  S  S9  1  0.658686  0.073841  0.732526  1
  S  S10  1  0.158685  0.426157  0.584843  1
  S  S11  1  0.841314  0.573841  0.415155  1
  S  S12  1  0.285321  0.398114  0.472030  1
  S  S13  1  0.926084  0.813290  0.527970  1
  S  S14  1  0.214680  0.686710  0.112793  1
  S  S15  1  0.573916  0.101886  0.887207  1
  S  S16  1  0.714680  0.601886  0.527970  1
  S  S17  1  0.073916  0.186709  0.472030  1
  S  S18  1  0.785321  0.313290  0.887207  1
  S  S19  1  0.426083  0.898114  0.112793  1
  S  S20  1  0.489204  0.540944  0.331139  1
  S  S21  1  0.209804  0.158064  0.668860  1
  S  S22  1  0.010796  0.341936  0.051741  1
  S  S23  1  0.290195  0.959055  0.948259  1
  S  S24  1  0.510795  0.459056  0.668860  1
  S  S25  1  0.790195  0.841935  0.331139  1
  S  S26  1  0.989204  0.658064  0.948259  1
  S  S27  1  0.709804  0.040944  0.051740  1
