# generated using pymatgen
data_Lu4Mn3VB16
_symmetry_space_group_name_H-M   'P 1'
_cell_length_a   3.37082800
_cell_length_b   5.86757019
_cell_length_c   11.33908400
_cell_angle_alpha   90.03632843
_cell_angle_beta   90.00000000
_cell_angle_gamma   90.00000000
_symmetry_Int_Tables_number   1
_chemical_formula_structural   Lu4Mn3VB16
_chemical_formula_sum   'Lu4 Mn3 V1 B16'
_cell_volume   224.27082036
_cell_formula_units_Z   1
loop_
 _symmetry_equiv_pos_site_id
 _symmetry_equiv_pos_as_xyz
  1  'x, y, z'
loop_
 _atom_site_type_symbol
 _atom_site_label
 _atom_site_symmetry_multiplicity
 _atom_site_fract_x
 _atom_site_fract_y
 _atom_site_fract_z
 _atom_site_occupancy
  Lu  Lu0  1  0.500000  0.373158  0.148888  1
  Lu  Lu1  1  0.500000  0.626661  0.850083  1
  Lu  Lu2  1  0.500000  0.124023  0.651957  1
  Lu  Lu3  1  0.500000  0.874471  0.348608  1
  Mn  Mn4  1  0.500000  0.624383  0.583190  1
  Mn  Mn5  1  0.500000  0.129108  0.914982  1
  Mn  Mn6  1  0.500000  0.871148  0.082401  1
  V  V7  1  0.500000  0.374610  0.418430  1
  B  B8  1  0.000000  0.113387  0.046215  1
  B  B9  1  0.000000  0.886969  0.952303  1
  B  B10  1  0.000000  0.388491  0.549923  1
  B  B11  1  0.000000  0.617597  0.455033  1
  B  B12  1  0.000000  0.133023  0.469286  1
  B  B13  1  0.000000  0.863348  0.534140  1
  B  B14  1  0.000000  0.363457  0.967742  1
  B  B15  1  0.000000  0.636552  0.031393  1
  B  B16  1  0.000000  0.023989  0.190972  1
  B  B17  1  0.000000  0.974814  0.807856  1
  B  B18  1  0.000000  0.476964  0.693284  1
  B  B19  1  0.000000  0.527363  0.306473  1
  B  B20  1  0.000000  0.213572  0.313112  1
  B  B21  1  0.000000  0.781800  0.684555  1
  B  B22  1  0.000000  0.282874  0.815792  1
  B  B23  1  0.000000  0.718237  0.183380  1
