# generated using pymatgen
data_SrLi2Yb3(AlSn2)2
_symmetry_space_group_name_H-M   'P 1'
_cell_length_a   4.72430000
_cell_length_b   7.73590550
_cell_length_c   8.38200084
_cell_angle_alpha   90.41078931
_cell_angle_beta   90.00000000
_cell_angle_gamma   90.00000000
_symmetry_Int_Tables_number   1
_chemical_formula_structural   SrLi2Yb3(AlSn2)2
_chemical_formula_sum   'Sr1 Li2 Yb3 Al2 Sn4'
_cell_volume   306.32691833
_cell_formula_units_Z   1
loop_
 _symmetry_equiv_pos_site_id
 _symmetry_equiv_pos_as_xyz
  1  'x, y, z'
loop_
 _atom_site_type_symbol
 _atom_site_label
 _atom_site_symmetry_multiplicity
 _atom_site_fract_x
 _atom_site_fract_y
 _atom_site_fract_z
 _atom_site_occupancy
  Sr  Sr0  1  0.750000  0.998519  0.700783  1
  Li  Li1  1  0.250000  0.162099  0.932595  1
  Li  Li2  1  0.250000  0.660733  0.569404  1
  Yb  Yb3  1  0.250000  0.006336  0.297643  1
  Yb  Yb4  1  0.250000  0.503600  0.201322  1
  Yb  Yb5  1  0.750000  0.495034  0.802432  1
  Al  Al6  1  0.750000  0.840178  0.081184  1
  Al  Al7  1  0.750000  0.347014  0.417727  1
  Sn  Sn8  1  0.250000  0.284997  0.594959  1
  Sn  Sn9  1  0.250000  0.765748  0.905694  1
  Sn  Sn10  1  0.750000  0.717487  0.392917  1
  Sn  Sn11  1  0.750000  0.218253  0.103338  1
