# generated using pymatgen
data_Th2Ga9IrRh2
_symmetry_space_group_name_H-M   'P 1'
_cell_length_a   7.72426885
_cell_length_b   7.72425070
_cell_length_c   9.51895409
_cell_angle_alpha   90.02635893
_cell_angle_beta   90.02641938
_cell_angle_gamma   119.76994058
_symmetry_Int_Tables_number   1
_chemical_formula_structural   Th2Ga9IrRh2
_chemical_formula_sum   'Th4 Ga18 Ir2 Rh4'
_cell_volume   492.98710240
_cell_formula_units_Z   2
loop_
 _symmetry_equiv_pos_site_id
 _symmetry_equiv_pos_as_xyz
  1  'x, y, z'
loop_
 _atom_site_type_symbol
 _atom_site_label
 _atom_site_symmetry_multiplicity
 _atom_site_fract_x
 _atom_site_fract_y
 _atom_site_fract_z
 _atom_site_occupancy
  Th  Th0  1  0.997433  0.668117  0.249170  1
  Th  Th1  1  0.002567  0.331883  0.750830  1
  Th  Th2  1  0.668118  0.997433  0.249170  1
  Th  Th3  1  0.331882  0.002567  0.750830  1
  Ga  Ga4  1  0.130287  0.130287  0.250161  1
  Ga  Ga5  1  0.869713  0.869713  0.749839  1
  Ga  Ga6  1  0.004746  0.333370  0.077855  1
  Ga  Ga7  1  0.995254  0.666630  0.922145  1
  Ga  Ga8  1  0.996393  0.665713  0.577399  1
  Ga  Ga9  1  0.334287  0.003607  0.422600  1
  Ga  Ga10  1  0.003607  0.334287  0.422601  1
  Ga  Ga11  1  0.665713  0.996393  0.577400  1
  Ga  Ga12  1  0.666631  0.995254  0.922145  1
  Ga  Ga13  1  0.333369  0.004746  0.077855  1
  Ga  Ga14  1  0.335581  0.335581  0.561535  1
  Ga  Ga15  1  0.664419  0.664419  0.438465  1
  Ga  Ga16  1  0.664027  0.664027  0.061288  1
  Ga  Ga17  1  0.335973  0.335973  0.938712  1
  Ga  Ga18  1  0.339487  0.543080  0.250921  1
  Ga  Ga19  1  0.660513  0.456920  0.749079  1
  Ga  Ga20  1  0.543080  0.339487  0.250921  1
  Ga  Ga21  1  0.456920  0.660513  0.749079  1
  Ir  Ir22  1  0.672739  0.327260  0.000000  1
  Ir  Ir23  1  0.327261  0.672740  0.000000  1
  Rh  Rh24  1  0.328318  0.671678  0.500000  1
  Rh  Rh25  1  0.671682  0.328322  0.500000  1
  Rh  Rh26  1  0.000000  0.000000  0.000000  1
  Rh  Rh27  1  0.000000  0.000000  0.500000  1
