# generated using pymatgen
data_Tm5(TlBi)2
_symmetry_space_group_name_H-M   'P 1'
_cell_length_a   8.80801885
_cell_length_b   8.80801789
_cell_length_c   8.14977000
_cell_angle_alpha   90.00000000
_cell_angle_beta   90.00000000
_cell_angle_gamma   124.94499494
_symmetry_Int_Tables_number   1
_chemical_formula_structural   Tm5(TlBi)2
_chemical_formula_sum   'Tm10 Tl4 Bi4'
_cell_volume   518.27222602
_cell_formula_units_Z   2
loop_
 _symmetry_equiv_pos_site_id
 _symmetry_equiv_pos_as_xyz
  1  'x, y, z'
loop_
 _atom_site_type_symbol
 _atom_site_label
 _atom_site_symmetry_multiplicity
 _atom_site_fract_x
 _atom_site_fract_y
 _atom_site_fract_z
 _atom_site_occupancy
  Tm  Tm0  1  0.534868  0.799511  0.165790  1
  Tm  Tm1  1  0.299511  0.034868  0.334210  1
  Tm  Tm2  1  0.200489  0.465132  0.834210  1
  Tm  Tm3  1  0.965132  0.700489  0.665790  1
  Tm  Tm4  1  0.700489  0.965132  0.665790  1
  Tm  Tm5  1  0.465132  0.200489  0.834210  1
  Tm  Tm6  1  0.799511  0.534868  0.165790  1
  Tm  Tm7  1  0.034868  0.299511  0.334210  1
  Tm  Tm8  1  0.500000  0.500000  0.500000  1
  Tm  Tm9  1  0.000000  0.000000  0.000000  1
  Tl  Tl10  1  0.634932  0.634932  0.865433  1
  Tl  Tl11  1  0.134932  0.134932  0.634567  1
  Tl  Tl12  1  0.865068  0.865068  0.365433  1
  Tl  Tl13  1  0.365068  0.365068  0.134567  1
  Bi  Bi14  1  0.293976  0.706024  0.500000  1
  Bi  Bi15  1  0.206024  0.793976  0.000000  1
  Bi  Bi16  1  0.706024  0.293976  0.500000  1
  Bi  Bi17  1  0.793976  0.206024  0.000000  1
