# generated using pymatgen
data_TbEr2Al3Ge2Pd
_symmetry_space_group_name_H-M   'P 1'
_cell_length_a   6.98481100
_cell_length_b   6.99808785
_cell_length_c   4.23081500
_cell_angle_alpha   90.00000000
_cell_angle_beta   90.00000000
_cell_angle_gamma   119.93725584
_symmetry_Int_Tables_number   1
_chemical_formula_structural   TbEr2Al3Ge2Pd
_chemical_formula_sum   'Tb1 Er2 Al3 Ge2 Pd1'
_cell_volume   179.21029427
_cell_formula_units_Z   1
loop_
 _symmetry_equiv_pos_site_id
 _symmetry_equiv_pos_as_xyz
  1  'x, y, z'
loop_
 _atom_site_type_symbol
 _atom_site_label
 _atom_site_symmetry_multiplicity
 _atom_site_fract_x
 _atom_site_fract_y
 _atom_site_fract_z
 _atom_site_occupancy
  Tb  Tb0  1  0.414513  0.000000  0.000000  1
  Er  Er1  1  0.000791  0.413817  0.000000  1
  Er  Er2  1  0.586974  0.586183  0.000000  1
  Al  Al3  1  0.766946  0.000000  0.500001  1
  Al  Al4  1  0.233468  0.233807  0.500001  1
  Al  Al5  1  0.999661  0.766193  0.500001  1
  Ge  Ge6  1  0.668609  0.336137  0.500001  1
  Ge  Ge7  1  0.332472  0.663863  0.500001  1
  Pd  Pd8  1  0.996566  0.000000  0.000000  1
