# generated using pymatgen
data_Dy6Ho10MgHg3Ir4
_symmetry_space_group_name_H-M   'P 1'
_cell_length_a   9.59256079
_cell_length_b   9.59637266
_cell_length_c   9.59637400
_cell_angle_alpha   60.00000229
_cell_angle_beta   59.98685625
_cell_angle_gamma   59.98685522
_symmetry_Int_Tables_number   1
_chemical_formula_structural   Dy6Ho10MgHg3Ir4
_chemical_formula_sum   'Dy6 Ho10 Mg1 Hg3 Ir4'
_cell_volume   624.52169215
_cell_formula_units_Z   1
loop_
 _symmetry_equiv_pos_site_id
 _symmetry_equiv_pos_as_xyz
  1  'x, y, z'
loop_
 _atom_site_type_symbol
 _atom_site_label
 _atom_site_symmetry_multiplicity
 _atom_site_fract_x
 _atom_site_fract_y
 _atom_site_fract_z
 _atom_site_occupancy
  Dy  Dy0  1  0.936059  0.562909  0.562909  1
  Dy  Dy1  1  0.562069  0.937381  0.937381  1
  Dy  Dy2  1  0.562069  0.937381  0.563170  1
  Dy  Dy3  1  0.936059  0.562909  0.938123  1
  Dy  Dy4  1  0.562069  0.563170  0.937381  1
  Dy  Dy5  1  0.936059  0.938123  0.562909  1
  Ho  Ho6  1  0.350276  0.348329  0.348329  1
  Ho  Ho7  1  0.350276  0.348329  0.953065  1
  Ho  Ho8  1  0.350276  0.953065  0.348329  1
  Ho  Ho9  1  0.944029  0.351990  0.351990  1
  Ho  Ho10  1  0.810068  0.189821  0.189821  1
  Ho  Ho11  1  0.186030  0.812978  0.812978  1
  Ho  Ho12  1  0.186030  0.812978  0.188014  1
  Ho  Ho13  1  0.810068  0.189821  0.810291  1
  Ho  Ho14  1  0.186030  0.188014  0.812978  1
  Ho  Ho15  1  0.810068  0.810291  0.189821  1
  Mg  Mg16  1  0.285321  0.571560  0.571560  1
  Hg  Hg17  1  0.580810  0.586369  0.586369  1
  Hg  Hg18  1  0.580810  0.586369  0.246451  1
  Hg  Hg19  1  0.580810  0.246451  0.586369  1
  Ir  Ir20  1  0.140248  0.143280  0.143280  1
  Ir  Ir21  1  0.140248  0.143280  0.573193  1
  Ir  Ir22  1  0.140248  0.573193  0.143280  1
  Ir  Ir23  1  0.573966  0.142011  0.142011  1
