# generated using pymatgen
data_Mg4Nb2Sb6Pt5Rh
_symmetry_space_group_name_H-M   'P 1'
_cell_length_a   7.75210123
_cell_length_b   7.74777268
_cell_length_c   7.75477038
_cell_angle_alpha   120.21386442
_cell_angle_beta   99.66739671
_cell_angle_gamma   99.65741476
_symmetry_Int_Tables_number   1
_chemical_formula_structural   Mg4Nb2Sb6Pt5Rh
_chemical_formula_sum   'Mg4 Nb2 Sb6 Pt5 Rh1'
_cell_volume   378.97941313
_cell_formula_units_Z   1
loop_
 _symmetry_equiv_pos_site_id
 _symmetry_equiv_pos_as_xyz
  1  'x, y, z'
loop_
 _atom_site_type_symbol
 _atom_site_label
 _atom_site_symmetry_multiplicity
 _atom_site_fract_x
 _atom_site_fract_y
 _atom_site_fract_z
 _atom_site_occupancy
  Mg  Mg0  1  0.001792  0.501070  0.999263  1
  Mg  Mg1  1  0.496222  0.327118  0.161029  1
  Mg  Mg2  1  0.001317  0.165150  0.329337  1
  Mg  Mg3  1  0.498322  0.998084  0.502657  1
  Nb  Nb4  1  0.001725  0.837121  0.672034  1
  Nb  Nb5  1  0.499502  0.668662  0.832623  1
  Sb  Sb6  1  0.245942  0.924653  0.095906  1
  Sb  Sb7  1  0.750033  0.750219  0.257131  1
  Sb  Sb8  1  0.250825  0.570310  0.401140  1
  Sb  Sb9  1  0.754193  0.407995  0.576879  1
  Sb  Sb10  1  0.248030  0.257730  0.755369  1
  Sb  Sb11  1  0.751644  0.097047  0.922115  1
  Pt  Pt12  1  0.621167  0.028566  0.197531  1
  Pt  Pt13  1  0.123505  0.874474  0.387613  1
  Pt  Pt14  1  0.631947  0.709551  0.555612  1
  Pt  Pt15  1  0.134312  0.557394  0.710755  1
  Pt  Pt16  1  0.621966  0.386644  0.872890  1
  Rh  Rh17  1  0.117641  0.188189  0.020092  1
