# generated using pymatgen
data_Sc10Cd2HgPt
_symmetry_space_group_name_H-M   'P 1'
_cell_length_a   8.99962100
_cell_length_b   8.96902861
_cell_length_c   9.13173500
_cell_angle_alpha   90.00000000
_cell_angle_beta   90.00000000
_cell_angle_gamma   119.88761493
_symmetry_Int_Tables_number   1
_chemical_formula_structural   Sc10Cd2HgPt
_chemical_formula_sum   'Sc20 Cd4 Hg2 Pt2'
_cell_volume   639.06388031
_cell_formula_units_Z   2
loop_
 _symmetry_equiv_pos_site_id
 _symmetry_equiv_pos_as_xyz
  1  'x, y, z'
loop_
 _atom_site_type_symbol
 _atom_site_label
 _atom_site_symmetry_multiplicity
 _atom_site_fract_x
 _atom_site_fract_y
 _atom_site_fract_z
 _atom_site_occupancy
  Sc  Sc0  1  0.997357  0.998679  0.495774  1
  Sc  Sc1  1  0.997357  0.998679  0.004226  1
  Sc  Sc2  1  0.208382  0.791761  0.444325  1
  Sc  Sc3  1  0.208382  0.416624  0.444325  1
  Sc  Sc4  1  0.583775  0.791888  0.443955  1
  Sc  Sc5  1  0.791851  0.208537  0.555319  1
  Sc  Sc6  1  0.791851  0.583312  0.555319  1
  Sc  Sc7  1  0.416907  0.208453  0.555175  1
  Sc  Sc8  1  0.791851  0.208537  0.944681  1
  Sc  Sc9  1  0.791851  0.583312  0.944681  1
  Sc  Sc10  1  0.416907  0.208453  0.944825  1
  Sc  Sc11  1  0.208382  0.791761  0.055675  1
  Sc  Sc12  1  0.208382  0.416624  0.055675  1
  Sc  Sc13  1  0.583775  0.791888  0.056045  1
  Sc  Sc14  1  0.543368  0.461182  0.250000  1
  Sc  Sc15  1  0.543368  0.082185  0.250000  1
  Sc  Sc16  1  0.917604  0.458802  0.250000  1
  Sc  Sc17  1  0.458906  0.541104  0.750000  1
  Sc  Sc18  1  0.458906  0.917803  0.750000  1
  Sc  Sc19  1  0.082100  0.541050  0.750000  1
  Cd  Cd20  1  0.234827  0.117414  0.250000  1
  Cd  Cd21  1  0.115025  0.884895  0.750000  1
  Cd  Cd22  1  0.115025  0.230128  0.750000  1
  Cd  Cd23  1  0.769171  0.884584  0.750000  1
  Hg  Hg24  1  0.882156  0.120412  0.250000  1
  Hg  Hg25  1  0.882156  0.761744  0.250000  1
  Pt  Pt26  1  0.334028  0.667015  0.250000  1
  Pt  Pt27  1  0.666352  0.333175  0.750000  1
