# generated using pymatgen
data_Y2Co11Si7Ni
_symmetry_space_group_name_H-M   'P 1'
_cell_length_a   9.16541500
_cell_length_b   9.13075903
_cell_length_c   3.64638700
_cell_angle_alpha   90.00000000
_cell_angle_beta   90.00000000
_cell_angle_gamma   120.18993083
_symmetry_Int_Tables_number   1
_chemical_formula_structural   Y2Co11Si7Ni
_chemical_formula_sum   'Y2 Co11 Si7 Ni1'
_cell_volume   263.76552946
_cell_formula_units_Z   1
loop_
 _symmetry_equiv_pos_site_id
 _symmetry_equiv_pos_as_xyz
  1  'x, y, z'
loop_
 _atom_site_type_symbol
 _atom_site_label
 _atom_site_symmetry_multiplicity
 _atom_site_fract_x
 _atom_site_fract_y
 _atom_site_fract_z
 _atom_site_occupancy
  Y  Y0  1  0.998903  0.000994  0.000000  1
  Y  Y1  1  0.667304  0.332733  0.500000  1
  Co  Co2  1  0.389528  0.284597  0.000000  1
  Co  Co3  1  0.894144  0.609388  0.000000  1
  Co  Co4  1  0.714819  0.104631  0.000000  1
  Co  Co5  1  0.611225  0.795214  0.000000  1
  Co  Co6  1  0.184899  0.389561  0.000000  1
  Co  Co7  1  0.762977  0.717737  0.500000  1
  Co  Co8  1  0.954743  0.236204  0.500000  1
  Co  Co9  1  0.280947  0.044386  0.500000  1
  Co  Co10  1  0.435971  0.548326  0.500000  1
  Co  Co11  1  0.112036  0.565378  0.500000  1
  Co  Co12  1  0.453827  0.889228  0.500000  1
  Si  Si13  1  0.616946  0.554741  0.000000  1
  Si  Si14  1  0.938823  0.382981  0.000000  1
  Si  Si15  1  0.446783  0.063607  0.000000  1
  Si  Si16  1  0.733342  0.960834  0.500000  1
  Si  Si17  1  0.227573  0.266693  0.500000  1
  Si  Si18  1  0.034930  0.770585  0.500000  1
  Si  Si19  1  0.335582  0.666900  0.000000  1
  Ni  Ni20  1  0.204701  0.815280  0.000000  1
