# generated using pymatgen
data_Tm2IrPdO7
_symmetry_space_group_name_H-M   'P 1'
_cell_length_a   7.18530807
_cell_length_b   7.21771379
_cell_length_c   7.18530794
_cell_angle_alpha   59.85069232
_cell_angle_beta   59.65659395
_cell_angle_gamma   59.85068535
_symmetry_Int_Tables_number   1
_chemical_formula_structural   Tm2IrPdO7
_chemical_formula_sum   'Tm4 Ir2 Pd2 O14'
_cell_volume   262.21460779
_cell_formula_units_Z   2
loop_
 _symmetry_equiv_pos_site_id
 _symmetry_equiv_pos_as_xyz
  1  'x, y, z'
loop_
 _atom_site_type_symbol
 _atom_site_label
 _atom_site_symmetry_multiplicity
 _atom_site_fract_x
 _atom_site_fract_y
 _atom_site_fract_z
 _atom_site_occupancy
  Tm  Tm0  1  0.625000  0.125000  0.125000  1
  Tm  Tm1  1  0.125000  0.625000  0.125000  1
  Tm  Tm2  1  0.125000  0.125000  0.625000  1
  Tm  Tm3  1  0.125000  0.125000  0.125000  1
  Ir  Ir4  1  0.625000  0.125000  0.625000  1
  Ir  Ir5  1  0.625000  0.625000  0.625000  1
  Pd  Pd6  1  0.125000  0.625000  0.625000  1
  Pd  Pd7  1  0.625000  0.625000  0.125000  1
  O  O8  1  0.713504  0.720252  0.286264  1
  O  O9  1  0.286264  0.279980  0.713504  1
  O  O10  1  0.712020  0.287980  0.712020  1
  O  O11  1  0.278863  0.721137  0.278863  1
  O  O12  1  0.286264  0.720252  0.713504  1
  O  O13  1  0.713504  0.279980  0.286264  1
  O  O14  1  0.536496  0.529748  0.963736  1
  O  O15  1  0.963736  0.970020  0.536496  1
  O  O16  1  0.537980  0.962020  0.537980  1
  O  O17  1  0.971137  0.528863  0.971137  1
  O  O18  1  0.963736  0.529748  0.536496  1
  O  O19  1  0.536496  0.970020  0.963736  1
  O  O20  1  0.250333  0.249667  0.250333  1
  O  O21  1  0.999667  0.000333  0.999667  1
