# generated using pymatgen
data_Yb6ZnSi24Ru7
_symmetry_space_group_name_H-M   'P 1'
_cell_length_a   10.15577053
_cell_length_b   10.15576989
_cell_length_c   8.18088618
_cell_angle_alpha   90.06126420
_cell_angle_beta   90.06125899
_cell_angle_gamma   132.36329643
_symmetry_Int_Tables_number   1
_chemical_formula_structural   Yb6ZnSi24Ru7
_chemical_formula_sum   'Yb6 Zn1 Si24 Ru7'
_cell_volume   623.45149559
_cell_formula_units_Z   1
loop_
 _symmetry_equiv_pos_site_id
 _symmetry_equiv_pos_as_xyz
  1  'x, y, z'
loop_
 _atom_site_type_symbol
 _atom_site_label
 _atom_site_symmetry_multiplicity
 _atom_site_fract_x
 _atom_site_fract_y
 _atom_site_fract_z
 _atom_site_occupancy
  Yb  Yb0  1  0.998158  0.001842  0.000000  1
  Yb  Yb1  1  0.500961  0.499039  0.500000  1
  Yb  Yb2  1  0.003036  0.503275  0.250988  1
  Yb  Yb3  1  0.998131  0.498248  0.749931  1
  Yb  Yb4  1  0.496725  0.996964  0.749012  1
  Yb  Yb5  1  0.501752  0.001869  0.250069  1
  Zn  Zn6  1  0.829937  0.170063  0.000000  1
  Si  Si7  1  0.697634  0.302366  0.000000  1
  Si  Si8  1  0.292798  0.707202  0.000000  1
  Si  Si9  1  0.792342  0.207658  0.500000  1
  Si  Si10  1  0.204711  0.795289  0.500000  1
  Si  Si11  1  0.338307  0.328451  0.167981  1
  Si  Si12  1  0.671549  0.661693  0.832019  1
  Si  Si13  1  0.169468  0.164614  0.666263  1
  Si  Si14  1  0.835386  0.830532  0.333737  1
  Si  Si15  1  0.848406  0.618183  0.003720  1
  Si  Si16  1  0.173322  0.404807  0.998330  1
  Si  Si17  1  0.651252  0.883644  0.505191  1
  Si  Si18  1  0.116356  0.348748  0.494809  1
  Si  Si19  1  0.346212  0.111966  0.493466  1
  Si  Si20  1  0.888034  0.653788  0.506534  1
  Si  Si21  1  0.381817  0.151594  0.996280  1
  Si  Si22  1  0.595193  0.826678  0.001670  1
  Si  Si23  1  0.886539  0.117446  0.288416  1
  Si  Si24  1  0.106978  0.874350  0.730274  1
  Si  Si25  1  0.610883  0.378923  0.767700  1
  Si  Si26  1  0.621077  0.389117  0.232300  1
  Si  Si27  1  0.391572  0.623142  0.232930  1
  Si  Si28  1  0.376858  0.608428  0.767070  1
  Si  Si29  1  0.882554  0.113461  0.711584  1
  Si  Si30  1  0.125650  0.893022  0.269726  1
  Ru  Ru31  1  0.168777  0.831223  0.000000  1
  Ru  Ru32  1  0.668544  0.331456  0.500000  1
  Ru  Ru33  1  0.330533  0.669467  0.500000  1
  Ru  Ru34  1  0.125313  0.126123  0.374188  1
  Ru  Ru35  1  0.873877  0.874687  0.625812  1
  Ru  Ru36  1  0.373050  0.373695  0.873893  1
  Ru  Ru37  1  0.626305  0.626950  0.126107  1
