# generated using pymatgen
data_La8Er2PdRu3
_symmetry_space_group_name_H-M   'P 1'
_cell_length_a   6.63725282
_cell_length_b   7.29676782
_cell_length_c   9.12142203
_cell_angle_alpha   95.17238857
_cell_angle_beta   110.36256186
_cell_angle_gamma   90.32544957
_symmetry_Int_Tables_number   1
_chemical_formula_structural   La8Er2PdRu3
_chemical_formula_sum   'La8 Er2 Pd1 Ru3'
_cell_volume   412.13821274
_cell_formula_units_Z   1
loop_
 _symmetry_equiv_pos_site_id
 _symmetry_equiv_pos_as_xyz
  1  'x, y, z'
loop_
 _atom_site_type_symbol
 _atom_site_label
 _atom_site_symmetry_multiplicity
 _atom_site_fract_x
 _atom_site_fract_y
 _atom_site_fract_z
 _atom_site_occupancy
  La  La0  1  0.812975  0.573680  0.818561  1
  La  La1  1  0.988604  0.909339  0.183656  1
  La  La2  1  0.196752  0.408548  0.185150  1
  La  La3  1  0.032215  0.089750  0.821442  1
  La  La4  1  0.203804  0.683060  0.575454  1
  La  La5  1  0.634510  0.816146  0.416318  1
  La  La6  1  0.780771  0.314925  0.422601  1
  La  La7  1  0.351823  0.192251  0.565730  1
  Er  Er8  1  0.435088  0.744827  0.002165  1
  Er  Er9  1  0.570790  0.256847  0.006117  1
  Pd  Pd10  1  0.594459  0.931866  0.792822  1
  Ru  Ru11  1  0.817459  0.583338  0.213074  1
  Ru  Ru12  1  0.397810  0.074134  0.215666  1
  Ru  Ru13  1  0.182941  0.421289  0.781246  1
