# generated using pymatgen
data_K4NdUS6
_symmetry_space_group_name_H-M   'P 1'
_cell_length_a   7.25830506
_cell_length_b   7.25830467
_cell_length_c   7.64820500
_cell_angle_alpha   80.74029463
_cell_angle_beta   80.74029513
_cell_angle_gamma   119.95016775
_symmetry_Int_Tables_number   1
_chemical_formula_structural   K4NdUS6
_chemical_formula_sum   'K4 Nd1 U1 S6'
_cell_volume   330.57871849
_cell_formula_units_Z   1
loop_
 _symmetry_equiv_pos_site_id
 _symmetry_equiv_pos_as_xyz
  1  'x, y, z'
loop_
 _atom_site_type_symbol
 _atom_site_label
 _atom_site_symmetry_multiplicity
 _atom_site_fract_x
 _atom_site_fract_y
 _atom_site_fract_z
 _atom_site_occupancy
  K  K0  1  0.343537  0.656463  0.500000  1
  K  K1  1  0.655302  0.344698  0.500000  1
  K  K2  1  0.000678  0.999322  0.500000  1
  K  K3  1  0.499967  0.500033  0.000000  1
  Nd  Nd4  1  0.167764  0.832236  0.000000  1
  U  U5  1  0.832533  0.167467  0.000000  1
  S  S6  1  0.790202  0.810265  0.207280  1
  S  S7  1  0.449529  0.067694  0.210507  1
  S  S8  1  0.045687  0.407240  0.209175  1
  S  S9  1  0.592760  0.954313  0.790825  1
  S  S10  1  0.932306  0.550471  0.789493  1
  S  S11  1  0.189735  0.209798  0.792720  1
