# generated using pymatgen
data_HoHf(ReO4)6
_symmetry_space_group_name_H-M   'P 1'
_cell_length_a   10.24290200
_cell_length_b   10.24290084
_cell_length_c   5.94548600
_cell_angle_alpha   90.00000000
_cell_angle_beta   90.00000000
_cell_angle_gamma   119.99999816
_symmetry_Int_Tables_number   1
_chemical_formula_structural   HoHf(ReO4)6
_chemical_formula_sum   'Ho1 Hf1 Re6 O24'
_cell_volume   540.21170066
_cell_formula_units_Z   1
loop_
 _symmetry_equiv_pos_site_id
 _symmetry_equiv_pos_as_xyz
  1  'x, y, z'
loop_
 _atom_site_type_symbol
 _atom_site_label
 _atom_site_symmetry_multiplicity
 _atom_site_fract_x
 _atom_site_fract_y
 _atom_site_fract_z
 _atom_site_occupancy
  Ho  Ho0  1  0.333333  0.666667  0.250000  1
  Hf  Hf1  1  0.666667  0.333333  0.750000  1
  Re  Re2  1  0.084401  0.390797  0.750000  1
  Re  Re3  1  0.404148  0.299505  0.250000  1
  Re  Re4  1  0.609203  0.693602  0.750000  1
  Re  Re5  1  0.895356  0.595852  0.250000  1
  Re  Re6  1  0.306398  0.915599  0.750000  1
  Re  Re7  1  0.700495  0.104644  0.250000  1
  O  O8  1  0.492242  0.651185  0.511579  1
  O  O9  1  0.348815  0.841057  0.511579  1
  O  O10  1  0.826649  0.719228  0.250000  1
  O  O11  1  0.117329  0.860543  0.750000  1
  O  O12  1  0.280772  0.107421  0.250000  1
  O  O13  1  0.139457  0.256786  0.750000  1
  O  O14  1  0.521414  0.348011  0.005328  1
  O  O15  1  0.892579  0.173351  0.250000  1
  O  O16  1  0.092777  0.691837  0.250000  1
  O  O17  1  0.158943  0.507758  0.988421  1
  O  O18  1  0.158943  0.507758  0.511579  1
  O  O19  1  0.886599  0.304006  0.750000  1
  O  O20  1  0.308163  0.400940  0.250000  1
  O  O21  1  0.695994  0.582593  0.750000  1
  O  O22  1  0.826597  0.478586  0.494672  1
  O  O23  1  0.417407  0.113401  0.750000  1
  O  O24  1  0.651989  0.173403  0.005328  1
  O  O25  1  0.492242  0.651185  0.988421  1
  O  O26  1  0.348815  0.841057  0.988421  1
  O  O27  1  0.651989  0.173403  0.494672  1
  O  O28  1  0.521414  0.348011  0.494672  1
  O  O29  1  0.826597  0.478586  0.005328  1
  O  O30  1  0.743214  0.882671  0.750000  1
  O  O31  1  0.599060  0.907223  0.250000  1
