# generated using pymatgen
data_CeHo5CoCl10
_symmetry_space_group_name_H-M   'P 1'
_cell_length_a   6.99389973
_cell_length_b   8.78092021
_cell_length_c   8.72544400
_cell_angle_alpha   108.24003515
_cell_angle_beta   104.52456892
_cell_angle_gamma   96.93334683
_symmetry_Int_Tables_number   1
_chemical_formula_structural   CeHo5CoCl10
_chemical_formula_sum   'Ce1 Ho5 Co1 Cl10'
_cell_volume   480.96042052
_cell_formula_units_Z   1
loop_
 _symmetry_equiv_pos_site_id
 _symmetry_equiv_pos_as_xyz
  1  'x, y, z'
loop_
 _atom_site_type_symbol
 _atom_site_label
 _atom_site_symmetry_multiplicity
 _atom_site_fract_x
 _atom_site_fract_y
 _atom_site_fract_z
 _atom_site_occupancy
  Ce  Ce0  1  0.966571  0.097863  0.302643  1
  Ho  Ho1  1  0.365216  0.185365  0.132566  1
  Ho  Ho2  1  0.035534  0.907392  0.714109  1
  Ho  Ho3  1  0.128089  0.749206  0.053292  1
  Ho  Ho4  1  0.633455  0.812988  0.860970  1
  Ho  Ho5  1  0.867214  0.250567  0.949831  1
  Co  Co6  1  0.997213  0.002695  0.010162  1
  Cl  Cl7  1  0.449879  0.079276  0.818443  1
  Cl  Cl8  1  0.752362  0.541901  0.911226  1
  Cl  Cl9  1  0.244764  0.453703  0.074171  1
  Cl  Cl10  1  0.914087  0.168450  0.639178  1
  Cl  Cl11  1  0.660412  0.730969  0.552505  1
  Cl  Cl12  1  0.537284  0.912328  0.168482  1
  Cl  Cl13  1  0.091838  0.820138  0.373392  1
  Cl  Cl14  1  0.773275  0.356555  0.242388  1
  Cl  Cl15  1  0.214286  0.653643  0.749109  1
  Cl  Cl16  1  0.368518  0.276960  0.447529  1
