# generated using pymatgen
data_LiTb(CoH3)2
_symmetry_space_group_name_H-M   'P 1'
_cell_length_a   4.79958632
_cell_length_b   4.79958655
_cell_length_c   4.79958673
_cell_angle_alpha   59.93613145
_cell_angle_beta   59.93613153
_cell_angle_gamma   59.93613935
_symmetry_Int_Tables_number   1
_chemical_formula_structural   LiTb(CoH3)2
_chemical_formula_sum   'Li1 Tb1 Co2 H6'
_cell_volume   78.06689644
_cell_formula_units_Z   1
loop_
 _symmetry_equiv_pos_site_id
 _symmetry_equiv_pos_as_xyz
  1  'x, y, z'
loop_
 _atom_site_type_symbol
 _atom_site_label
 _atom_site_symmetry_multiplicity
 _atom_site_fract_x
 _atom_site_fract_y
 _atom_site_fract_z
 _atom_site_occupancy
  Li  Li0  1  0.750000  0.750000  0.750000  1
  Tb  Tb1  1  0.250000  0.250000  0.250000  1
  Co  Co2  1  0.000079  0.000079  0.000079  1
  Co  Co3  1  0.499921  0.499921  0.499921  1
  H  H4  1  0.749999  0.263241  0.236760  1
  H  H5  1  0.746850  0.753148  0.250001  1
  H  H6  1  0.236758  0.750001  0.263241  1
  H  H7  1  0.753150  0.249999  0.746850  1
  H  H8  1  0.263240  0.236761  0.749999  1
  H  H9  1  0.250001  0.746850  0.753149  1
