# generated using pymatgen
data_Pu3Pa(ReN3)4
_symmetry_space_group_name_H-M   'P 1'
_cell_length_a   5.34548020
_cell_length_b   5.76027520
_cell_length_c   7.70486500
_cell_angle_alpha   90.00000000
_cell_angle_beta   90.00000000
_cell_angle_gamma   90.03097250
_symmetry_Int_Tables_number   1
_chemical_formula_structural   Pu3Pa(ReN3)4
_chemical_formula_sum   'Pu3 Pa1 Re4 N12'
_cell_volume   237.24383102
_cell_formula_units_Z   1
loop_
 _symmetry_equiv_pos_site_id
 _symmetry_equiv_pos_as_xyz
  1  'x, y, z'
loop_
 _atom_site_type_symbol
 _atom_site_label
 _atom_site_symmetry_multiplicity
 _atom_site_fract_x
 _atom_site_fract_y
 _atom_site_fract_z
 _atom_site_occupancy
  Pu  Pu0  1  0.466640  0.439730  0.250000  1
  Pu  Pu1  1  0.032492  0.936117  0.250000  1
  Pu  Pu2  1  0.505027  0.576066  0.750000  1
  Pa  Pa3  1  0.993964  0.076014  0.750000  1
  Re  Re4  1  0.506639  0.007046  0.496362  1
  Re  Re5  1  0.987039  0.506525  0.003259  1
  Re  Re6  1  0.987039  0.506525  0.496741  1
  Re  Re7  1  0.506639  0.007046  0.003638  1
  N  N8  1  0.693546  0.296474  0.552126  1
  N  N9  1  0.313078  0.698117  0.050093  1
  N  N10  1  0.187865  0.196357  0.046504  1
  N  N11  1  0.390177  0.963552  0.750000  1
  N  N12  1  0.912679  0.518514  0.250000  1
  N  N13  1  0.313078  0.698117  0.449907  1
  N  N14  1  0.814434  0.802681  0.940236  1
  N  N15  1  0.693546  0.296474  0.947874  1
  N  N16  1  0.814434  0.802681  0.559764  1
  N  N17  1  0.106803  0.457292  0.750000  1
  N  N18  1  0.187865  0.196357  0.453496  1
  N  N19  1  0.587016  0.018314  0.250000  1
