# generated using pymatgen
data_Ce3SmHf2Zr2O14
_symmetry_space_group_name_H-M   'P 1'
_cell_length_a   7.59034810
_cell_length_b   7.60311645
_cell_length_c   7.60311693
_cell_angle_alpha   60.08699379
_cell_angle_beta   60.13696792
_cell_angle_gamma   60.13696191
_symmetry_Int_Tables_number   1
_chemical_formula_structural   Ce3SmHf2Zr2O14
_chemical_formula_sum   'Ce3 Sm1 Hf2 Zr2 O14'
_cell_volume   311.10851131
_cell_formula_units_Z   1
loop_
 _symmetry_equiv_pos_site_id
 _symmetry_equiv_pos_as_xyz
  1  'x, y, z'
loop_
 _atom_site_type_symbol
 _atom_site_label
 _atom_site_symmetry_multiplicity
 _atom_site_fract_x
 _atom_site_fract_y
 _atom_site_fract_z
 _atom_site_occupancy
  Ce  Ce0  1  0.125000  0.625000  0.125000  1
  Ce  Ce1  1  0.125000  0.125000  0.625000  1
  Ce  Ce2  1  0.125000  0.125000  0.125000  1
  Sm  Sm3  1  0.625000  0.125000  0.125000  1
  Hf  Hf4  1  0.625000  0.125000  0.625000  1
  Hf  Hf5  1  0.625000  0.625000  0.125000  1
  Zr  Zr6  1  0.125000  0.625000  0.625000  1
  Zr  Zr7  1  0.625000  0.625000  0.625000  1
  O  O8  1  0.706850  0.712327  0.288290  1
  O  O9  1  0.293400  0.289175  0.709734  1
  O  O10  1  0.706850  0.288290  0.712327  1
  O  O11  1  0.293400  0.709734  0.289175  1
  O  O12  1  0.288062  0.712134  0.712134  1
  O  O13  1  0.704893  0.293972  0.293972  1
  O  O14  1  0.543150  0.537673  0.961710  1
  O  O15  1  0.956600  0.960825  0.540266  1
  O  O16  1  0.543150  0.961710  0.537673  1
  O  O17  1  0.956600  0.540266  0.960825  1
  O  O18  1  0.961938  0.537866  0.537866  1
  O  O19  1  0.545107  0.956028  0.956028  1
  O  O20  1  0.253688  0.248616  0.248616  1
  O  O21  1  0.996312  0.001384  0.001384  1
