# generated using pymatgen
data_Er5Co7(PRu)12
_symmetry_space_group_name_H-M   'P 1'
_cell_length_a   12.34359600
_cell_length_b   12.34359525
_cell_length_c   3.79794500
_cell_angle_alpha   90.00000000
_cell_angle_beta   90.00000000
_cell_angle_gamma   119.99999129
_symmetry_Int_Tables_number   1
_chemical_formula_structural   Er5Co7(PRu)12
_chemical_formula_sum   'Er5 Co7 P12 Ru12'
_cell_volume   501.14420501
_cell_formula_units_Z   1
loop_
 _symmetry_equiv_pos_site_id
 _symmetry_equiv_pos_as_xyz
  1  'x, y, z'
loop_
 _atom_site_type_symbol
 _atom_site_label
 _atom_site_symmetry_multiplicity
 _atom_site_fract_x
 _atom_site_fract_y
 _atom_site_fract_z
 _atom_site_occupancy
  Er  Er0  1  0.666667  0.333333  0.000000  1
  Er  Er1  1  0.333333  0.666667  0.000000  1
  Er  Er2  1  0.181765  0.181572  0.500000  1
  Er  Er3  1  0.818428  0.000193  0.500000  1
  Er  Er4  1  0.999807  0.818235  0.500000  1
  Co  Co5  1  0.194114  0.823938  0.000000  1
  Co  Co6  1  0.629824  0.805886  0.000000  1
  Co  Co7  1  0.176062  0.370176  0.000000  1
  Co  Co8  1  0.716179  0.722884  0.500000  1
  Co  Co9  1  0.277116  0.993295  0.500000  1
  Co  Co10  1  0.006705  0.283821  0.500000  1
  Co  Co11  1  0.000000  0.000000  0.000000  1
  P  P12  1  0.363609  0.366921  0.000000  1
  P  P13  1  0.633079  0.996688  0.000000  1
  P  P14  1  0.003312  0.636391  0.000000  1
  P  P15  1  0.837276  0.312917  0.500000  1
  P  P16  1  0.687083  0.524360  0.500000  1
  P  P17  1  0.475640  0.162724  0.500000  1
  P  P18  1  0.316705  0.839022  0.500000  1
  P  P19  1  0.522317  0.683295  0.500000  1
  P  P20  1  0.160978  0.477683  0.500000  1
  P  P21  1  0.818943  0.825086  0.000000  1
  P  P22  1  0.174914  0.993856  0.000000  1
  P  P23  1  0.006144  0.181057  0.000000  1
  Ru  Ru24  1  0.549923  0.561597  0.000000  1
  Ru  Ru25  1  0.438403  0.988326  0.000000  1
  Ru  Ru26  1  0.011674  0.450077  0.000000  1
  Ru  Ru27  1  0.826620  0.197221  0.000000  1
  Ru  Ru28  1  0.802779  0.629399  0.000000  1
  Ru  Ru29  1  0.370601  0.173380  0.000000  1
  Ru  Ru30  1  0.638510  0.123840  0.500000  1
  Ru  Ru31  1  0.876160  0.514671  0.500000  1
  Ru  Ru32  1  0.485329  0.361490  0.500000  1
  Ru  Ru33  1  0.131495  0.649104  0.500000  1
  Ru  Ru34  1  0.517609  0.868505  0.500000  1
  Ru  Ru35  1  0.350896  0.482391  0.500000  1
