# generated using pymatgen
data_Ti6Al2C3N
_symmetry_space_group_name_H-M   'P 1'
_cell_length_a   3.07148900
_cell_length_b   3.07148882
_cell_length_c   18.52299000
_cell_angle_alpha   90.00000000
_cell_angle_beta   90.00000000
_cell_angle_gamma   120.00001275
_symmetry_Int_Tables_number   1
_chemical_formula_structural   Ti6Al2C3N
_chemical_formula_sum   'Ti6 Al2 C3 N1'
_cell_volume   151.33506607
_cell_formula_units_Z   1
loop_
 _symmetry_equiv_pos_site_id
 _symmetry_equiv_pos_as_xyz
  1  'x, y, z'
loop_
 _atom_site_type_symbol
 _atom_site_label
 _atom_site_symmetry_multiplicity
 _atom_site_fract_x
 _atom_site_fract_y
 _atom_site_fract_z
 _atom_site_occupancy
  Ti  Ti0  1  0.666667  0.333333  0.373658  1
  Ti  Ti1  1  0.333333  0.666667  0.872031  1
  Ti  Ti2  1  0.333333  0.666667  0.626366  1
  Ti  Ti3  1  0.666667  0.333333  0.128540  1
  Ti  Ti4  1  0.000000  0.000000  0.499311  1
  Ti  Ti5  1  0.000000  0.000000  0.000157  1
  Al  Al6  1  0.000000  0.000000  0.749148  1
  Al  Al7  1  0.000000  0.000000  0.252110  1
  C  C8  1  0.666667  0.333333  0.930235  1
  C  C9  1  0.333333  0.666667  0.069984  1
  C  C10  1  0.666667  0.333333  0.567719  1
  N  N11  1  0.333333  0.666667  0.430740  1
