# generated using pymatgen
data_Dy3Er5Re3B24Os
_symmetry_space_group_name_H-M   'P 1'
_cell_length_a   3.65968000
_cell_length_b   9.13732476
_cell_length_c   11.52068501
_cell_angle_alpha   90.07273995
_cell_angle_beta   90.00000000
_cell_angle_gamma   90.00000000
_symmetry_Int_Tables_number   1
_chemical_formula_structural   Dy3Er5Re3B24Os
_chemical_formula_sum   'Dy3 Er5 Re3 B24 Os1'
_cell_volume   385.24776363
_cell_formula_units_Z   1
loop_
 _symmetry_equiv_pos_site_id
 _symmetry_equiv_pos_as_xyz
  1  'x, y, z'
loop_
 _atom_site_type_symbol
 _atom_site_label
 _atom_site_symmetry_multiplicity
 _atom_site_fract_x
 _atom_site_fract_y
 _atom_site_fract_z
 _atom_site_occupancy
  Dy  Dy0  1  0.000000  0.321947  0.414129  1
  Dy  Dy1  1  0.000000  0.677465  0.587525  1
  Dy  Dy2  1  0.000000  0.824272  0.084588  1
  Er  Er3  1  0.000000  0.176593  0.913570  1
  Er  Er4  1  0.000000  0.942916  0.370058  1
  Er  Er5  1  0.000000  0.056391  0.629418  1
  Er  Er6  1  0.000000  0.442829  0.129638  1
  Er  Er7  1  0.000000  0.556631  0.870889  1
  Re  Re8  1  0.000000  0.361712  0.678537  1
  Re  Re9  1  0.000000  0.138722  0.179602  1
  Re  Re10  1  0.000000  0.861647  0.820782  1
  B  B11  1  0.500000  0.554002  0.432734  1
  B  B12  1  0.500000  0.446812  0.566858  1
  B  B13  1  0.500000  0.053377  0.066697  1
  B  B14  1  0.500000  0.946997  0.933000  1
  B  B15  1  0.500000  0.749143  0.418500  1
  B  B16  1  0.500000  0.250097  0.581180  1
  B  B17  1  0.500000  0.249639  0.080882  1
  B  B18  1  0.500000  0.750695  0.918845  1
  B  B19  1  0.500000  0.791366  0.265646  1
  B  B20  1  0.500000  0.207542  0.734501  1
  B  B21  1  0.500000  0.292208  0.234679  1
  B  B22  1  0.500000  0.707586  0.765866  1
  B  B23  1  0.500000  0.631195  0.185747  1
  B  B24  1  0.500000  0.369212  0.814395  1
  B  B25  1  0.500000  0.131045  0.314929  1
  B  B26  1  0.500000  0.868982  0.685535  1
  B  B27  1  0.500000  0.982460  0.212136  1
  B  B28  1  0.500000  0.017973  0.787755  1
  B  B29  1  0.500000  0.483327  0.287884  1
  B  B30  1  0.500000  0.518023  0.712242  1
  B  B31  1  0.500000  0.601194  0.028624  1
  B  B32  1  0.500000  0.398682  0.971999  1
  B  B33  1  0.500000  0.100342  0.471720  1
  B  B34  1  0.500000  0.898417  0.527986  1
  Os  Os35  1  0.000000  0.638558  0.320923  1
