# generated using pymatgen
data_Sr2ZnIn3
_symmetry_space_group_name_H-M   'P 1'
_cell_length_a   6.37408136
_cell_length_b   6.38675490
_cell_length_c   6.38675470
_cell_angle_alpha   133.78797569
_cell_angle_beta   101.79102911
_cell_angle_gamma   95.98556676
_symmetry_Int_Tables_number   1
_chemical_formula_structural   Sr2ZnIn3
_chemical_formula_sum   'Sr2 Zn1 In3'
_cell_volume   172.27559547
_cell_formula_units_Z   1
loop_
 _symmetry_equiv_pos_site_id
 _symmetry_equiv_pos_as_xyz
  1  'x, y, z'
loop_
 _atom_site_type_symbol
 _atom_site_label
 _atom_site_symmetry_multiplicity
 _atom_site_fract_x
 _atom_site_fract_y
 _atom_site_fract_z
 _atom_site_occupancy
  Sr  Sr0  1  0.294378  0.046368  0.248010  1
  Sr  Sr1  1  0.703951  0.955266  0.748685  1
  Zn  Zn2  1  0.898581  0.334705  0.563876  1
  In  In3  1  0.733201  0.673791  0.059410  1
  In  In4  1  0.270155  0.339012  0.931143  1
  In  In5  1  0.099734  0.650858  0.448876  1
