# generated using pymatgen
data_YTh3Al13Ga5Ir6
_symmetry_space_group_name_H-M   'P 1'
_cell_length_a   7.62250839
_cell_length_b   7.62802699
_cell_length_c   9.57675300
_cell_angle_alpha   90.00000000
_cell_angle_beta   90.00000000
_cell_angle_gamma   119.52629078
_symmetry_Int_Tables_number   1
_chemical_formula_structural   YTh3Al13Ga5Ir6
_chemical_formula_sum   'Y1 Th3 Al13 Ga5 Ir6'
_cell_volume   484.52075633
_cell_formula_units_Z   1
loop_
 _symmetry_equiv_pos_site_id
 _symmetry_equiv_pos_as_xyz
  1  'x, y, z'
loop_
 _atom_site_type_symbol
 _atom_site_label
 _atom_site_symmetry_multiplicity
 _atom_site_fract_x
 _atom_site_fract_y
 _atom_site_fract_z
 _atom_site_occupancy
  Y  Y0  1  0.329446  0.007236  0.750000  1
  Th  Th1  1  0.994642  0.670905  0.250000  1
  Th  Th2  1  0.000659  0.326805  0.750000  1
  Th  Th3  1  0.670185  0.995164  0.250000  1
  Al  Al4  1  0.006080  0.335923  0.073412  1
  Al  Al5  1  0.000775  0.669477  0.923904  1
  Al  Al6  1  0.000775  0.669477  0.576096  1
  Al  Al7  1  0.335158  0.004062  0.432281  1
  Al  Al8  1  0.006080  0.335923  0.426588  1
  Al  Al9  1  0.659130  0.994849  0.575822  1
  Al  Al10  1  0.659130  0.994849  0.924178  1
  Al  Al11  1  0.335158  0.004062  0.067719  1
  Al  Al12  1  0.336011  0.333259  0.556076  1
  Al  Al13  1  0.663491  0.663380  0.453595  1
  Al  Al14  1  0.663491  0.663380  0.046405  1
  Al  Al15  1  0.336011  0.333259  0.943924  1
  Al  Al16  1  0.451800  0.661948  0.750000  1
  Ga  Ga17  1  0.137130  0.134296  0.250000  1
  Ga  Ga18  1  0.868723  0.866003  0.750000  1
  Ga  Ga19  1  0.343139  0.544376  0.250000  1
  Ga  Ga20  1  0.655905  0.451535  0.750000  1
  Ga  Ga21  1  0.543905  0.340052  0.250000  1
  Ir  Ir22  1  0.674144  0.328610  0.000466  1
  Ir  Ir23  1  0.328422  0.670499  0.997920  1
  Ir  Ir24  1  0.328422  0.670499  0.502080  1
  Ir  Ir25  1  0.674144  0.328610  0.499534  1
  Ir  Ir26  1  0.999021  0.000780  0.000695  1
  Ir  Ir27  1  0.999021  0.000780  0.499305  1
