# generated using pymatgen
data_Tb20IrRu9Au2
_symmetry_space_group_name_H-M   'P 1'
_cell_length_a   10.94607316
_cell_length_b   10.95746138
_cell_length_c   6.44176991
_cell_angle_alpha   89.94224883
_cell_angle_beta   90.11766756
_cell_angle_gamma   89.99485218
_symmetry_Int_Tables_number   1
_chemical_formula_structural   Tb20IrRu9Au2
_chemical_formula_sum   'Tb20 Ir1 Ru9 Au2'
_cell_volume   772.63142019
_cell_formula_units_Z   1
loop_
 _symmetry_equiv_pos_site_id
 _symmetry_equiv_pos_as_xyz
  1  'x, y, z'
loop_
 _atom_site_type_symbol
 _atom_site_label
 _atom_site_symmetry_multiplicity
 _atom_site_fract_x
 _atom_site_fract_y
 _atom_site_fract_z
 _atom_site_occupancy
  Tb  Tb0  1  0.293730  0.088924  0.380747  1
  Tb  Tb1  1  0.288693  0.913190  0.877910  1
  Tb  Tb2  1  0.703482  0.084278  0.880482  1
  Tb  Tb3  1  0.702524  0.915075  0.364800  1
  Tb  Tb4  1  0.576829  0.789568  0.877062  1
  Tb  Tb5  1  0.583309  0.203031  0.365218  1
  Tb  Tb6  1  0.410472  0.795868  0.380699  1
  Tb  Tb7  1  0.402897  0.204646  0.884218  1
  Tb  Tb8  1  0.210655  0.411823  0.621315  1
  Tb  Tb9  1  0.205684  0.588343  0.119898  1
  Tb  Tb10  1  0.798399  0.415067  0.135075  1
  Tb  Tb11  1  0.796136  0.584419  0.619483  1
  Tb  Tb12  1  0.917260  0.703683  0.134334  1
  Tb  Tb13  1  0.923544  0.288397  0.624089  1
  Tb  Tb14  1  0.095347  0.704243  0.615667  1
  Tb  Tb15  1  0.090057  0.294925  0.119557  1
  Tb  Tb16  1  0.005556  0.001513  0.494878  1
  Tb  Tb17  1  0.003202  0.006431  0.004908  1
  Tb  Tb18  1  0.496039  0.501317  0.005376  1
  Tb  Tb19  1  0.496891  0.505186  0.494815  1
  Ir  Ir20  1  0.347482  0.652820  0.750456  1
  Ru  Ru21  1  0.846505  0.152706  0.250359  1
  Ru  Ru22  1  0.151594  0.151838  0.749344  1
  Ru  Ru23  1  0.152323  0.848591  0.248785  1
  Ru  Ru24  1  0.652369  0.652358  0.249958  1
  Ru  Ru25  1  0.349139  0.350616  0.250666  1
  Ru  Ru26  1  0.498635  0.000027  0.120602  1
  Ru  Ru27  1  0.499940  0.000698  0.626287  1
  Ru  Ru28  1  0.999786  0.500305  0.873579  1
  Ru  Ru29  1  0.001480  0.499764  0.379409  1
  Au  Au30  1  0.844923  0.845220  0.750577  1
  Au  Au31  1  0.655114  0.345130  0.749443  1
