# generated using pymatgen
data_K4Sr2HfBi4
_symmetry_space_group_name_H-M   'P 1'
_cell_length_a   11.24701311
_cell_length_b   11.24701227
_cell_length_c   8.44238208
_cell_angle_alpha   88.40237914
_cell_angle_beta   88.40237765
_cell_angle_gamma   60.33925337
_symmetry_Int_Tables_number   1
_chemical_formula_structural   K4Sr2HfBi4
_chemical_formula_sum   'K8 Sr4 Hf2 Bi8'
_cell_volume   927.50997445
_cell_formula_units_Z   2
loop_
 _symmetry_equiv_pos_site_id
 _symmetry_equiv_pos_as_xyz
  1  'x, y, z'
loop_
 _atom_site_type_symbol
 _atom_site_label
 _atom_site_symmetry_multiplicity
 _atom_site_fract_x
 _atom_site_fract_y
 _atom_site_fract_z
 _atom_site_occupancy
  K  K0  1  0.945543  0.525989  0.372549  1
  K  K1  1  0.525989  0.945543  0.372549  1
  K  K2  1  0.719532  0.134213  0.186802  1
  K  K3  1  0.134213  0.719532  0.186802  1
  K  K4  1  0.142833  0.142833  0.207467  1
  K  K5  1  0.277152  0.864817  0.690889  1
  K  K6  1  0.864817  0.277152  0.690889  1
  K  K7  1  0.854325  0.854325  0.652601  1
  Sr  Sr8  1  0.527012  0.527012  0.371311  1
  Sr  Sr9  1  0.051426  0.478030  0.876990  1
  Sr  Sr10  1  0.478030  0.051426  0.876990  1
  Sr  Sr11  1  0.478752  0.478752  0.869132  1
  Hf  Hf12  1  0.335344  0.335344  0.489766  1
  Hf  Hf13  1  0.664732  0.664732  0.983614  1
  Bi  Bi14  1  0.385493  0.802873  0.096360  1
  Bi  Bi15  1  0.802873  0.385493  0.096360  1
  Bi  Bi16  1  0.807301  0.807301  0.062136  1
  Bi  Bi17  1  0.610794  0.203944  0.602578  1
  Bi  Bi18  1  0.203944  0.610794  0.602578  1
  Bi  Bi19  1  0.198805  0.198805  0.625055  1
  Bi  Bi20  1  0.336865  0.336865  0.143130  1
  Bi  Bi21  1  0.654837  0.654837  0.646267  1
