# generated using pymatgen
data_Ba5Pd
_symmetry_space_group_name_H-M   'P 1'
_cell_length_a   7.95346168
_cell_length_b   7.95346235
_cell_length_c   7.95346226
_cell_angle_alpha   99.44667977
_cell_angle_beta   99.44668037
_cell_angle_gamma   132.20155077
_symmetry_Int_Tables_number   1
_chemical_formula_structural   Ba5Pd
_chemical_formula_sum   'Ba5 Pd1'
_cell_volume   340.74626524
_cell_formula_units_Z   1
loop_
 _symmetry_equiv_pos_site_id
 _symmetry_equiv_pos_as_xyz
  1  'x, y, z'
loop_
 _atom_site_type_symbol
 _atom_site_label
 _atom_site_symmetry_multiplicity
 _atom_site_fract_x
 _atom_site_fract_y
 _atom_site_fract_z
 _atom_site_occupancy
  Ba  Ba0  1  0.500000  0.500000  0.000000  1
  Ba  Ba1  1  0.293506  0.909335  0.202841  1
  Ba  Ba2  1  0.090665  0.293506  0.384172  1
  Ba  Ba3  1  0.909335  0.706494  0.615829  1
  Ba  Ba4  1  0.706494  0.090665  0.797159  1
  Pd  Pd5  1  0.000000  0.000000  0.000000  1
