# generated using pymatgen
data_Y4Ga5Rh9
_symmetry_space_group_name_H-M   'P 1'
_cell_length_a   12.13621145
_cell_length_b   12.13621117
_cell_length_c   12.13621173
_cell_angle_alpha   26.63492789
_cell_angle_beta   26.63493002
_cell_angle_gamma   26.63492868
_symmetry_Int_Tables_number   1
_chemical_formula_structural   Y4Ga5Rh9
_chemical_formula_sum   'Y4 Ga5 Rh9'
_cell_volume   316.71598359
_cell_formula_units_Z   1
loop_
 _symmetry_equiv_pos_site_id
 _symmetry_equiv_pos_as_xyz
  1  'x, y, z'
loop_
 _atom_site_type_symbol
 _atom_site_label
 _atom_site_symmetry_multiplicity
 _atom_site_fract_x
 _atom_site_fract_y
 _atom_site_fract_z
 _atom_site_occupancy
  Y  Y0  1  0.950749  0.950749  0.950749  1
  Y  Y1  1  0.853090  0.853090  0.853090  1
  Y  Y2  1  0.146712  0.146712  0.146712  1
  Y  Y3  1  0.048164  0.048164  0.048164  1
  Ga  Ga4  1  0.278164  0.278164  0.278164  1
  Ga  Ga5  1  0.500168  0.500168  0.500168  1
  Ga  Ga6  1  0.389421  0.389421  0.389421  1
  Ga  Ga7  1  0.722114  0.722114  0.722114  1
  Ga  Ga8  1  0.610670  0.610670  0.610670  1
  Rh  Rh9  1  0.613660  0.613660  0.105622  1
  Rh  Rh10  1  0.894923  0.386358  0.386358  1
  Rh  Rh11  1  0.500162  0.999842  0.500162  1
  Rh  Rh12  1  0.386358  0.894923  0.386358  1
  Rh  Rh13  1  0.500162  0.500162  0.999842  1
  Rh  Rh14  1  0.105622  0.613660  0.613660  1
  Rh  Rh15  1  0.999842  0.500162  0.500162  1
  Rh  Rh16  1  0.386358  0.386358  0.894923  1
  Rh  Rh17  1  0.613660  0.105622  0.613660  1
