# generated using pymatgen
data_Tb8Nb12Si15As
_symmetry_space_group_name_H-M   'P 1'
_cell_length_a   6.89676606
_cell_length_b   7.09557642
_cell_length_c   13.44207189
_cell_angle_alpha   90.04495223
_cell_angle_beta   89.80464333
_cell_angle_gamma   90.08850113
_symmetry_Int_Tables_number   1
_chemical_formula_structural   Tb8Nb12Si15As
_chemical_formula_sum   'Tb8 Nb12 Si15 As1'
_cell_volume   657.80355498
_cell_formula_units_Z   1
loop_
 _symmetry_equiv_pos_site_id
 _symmetry_equiv_pos_as_xyz
  1  'x, y, z'
loop_
 _atom_site_type_symbol
 _atom_site_label
 _atom_site_symmetry_multiplicity
 _atom_site_fract_x
 _atom_site_fract_y
 _atom_site_fract_z
 _atom_site_occupancy
  Tb  Tb0  1  0.503474  0.328840  0.096380  1
  Tb  Tb1  1  0.001960  0.172514  0.403887  1
  Tb  Tb2  1  0.500581  0.673456  0.597294  1
  Tb  Tb3  1  0.996337  0.828691  0.904120  1
  Tb  Tb4  1  0.496537  0.671098  0.904023  1
  Tb  Tb5  1  0.997272  0.827788  0.596283  1
  Tb  Tb6  1  0.502809  0.327230  0.402598  1
  Tb  Tb7  1  0.003564  0.171397  0.096003  1
  Nb  Nb8  1  0.663194  0.007793  0.749785  1
  Nb  Nb9  1  0.163754  0.491187  0.751329  1
  Nb  Nb10  1  0.336648  0.992136  0.250242  1
  Nb  Nb11  1  0.836628  0.507747  0.250128  1
  Nb  Nb12  1  0.838117  0.325659  0.625138  1
  Nb  Nb13  1  0.337594  0.174944  0.874190  1
  Nb  Nb14  1  0.161727  0.675261  0.125927  1
  Nb  Nb15  1  0.660467  0.826109  0.373741  1
  Nb  Nb16  1  0.160258  0.675844  0.373396  1
  Nb  Nb17  1  0.661509  0.824937  0.125730  1
  Nb  Nb18  1  0.838104  0.325022  0.874078  1
  Nb  Nb19  1  0.340884  0.171241  0.626857  1
  Si  Si20  1  0.797354  0.625120  0.750499  1
  Si  Si21  1  0.296974  0.874375  0.750891  1
  Si  Si22  1  0.203024  0.374987  0.249518  1
  Si  Si23  1  0.703367  0.124889  0.249348  1
  Si  Si24  1  0.543024  0.375115  0.750422  1
  Si  Si25  1  0.041835  0.124124  0.750112  1
  Si  Si26  1  0.457311  0.624183  0.249781  1
  Si  Si27  1  0.956901  0.875777  0.249400  1
  Si  Si28  1  0.663641  0.038116  0.540752  1
  Si  Si29  1  0.161716  0.462508  0.958970  1
  Si  Si30  1  0.337841  0.962804  0.041250  1
  Si  Si31  1  0.827738  0.540589  0.456751  1
  Si  Si32  1  0.337180  0.962115  0.458823  1
  Si  Si33  1  0.838075  0.537458  0.041373  1
  Si  Si34  1  0.661854  0.037549  0.959047  1
  As  As35  1  0.170749  0.461398  0.541933  1
