# generated using pymatgen
data_Yb8Si16MoW11
_symmetry_space_group_name_H-M   'P 1'
_cell_length_a   6.89090940
_cell_length_b   6.89273354
_cell_length_c   12.82456800
_cell_angle_alpha   90.05296719
_cell_angle_beta   89.92188346
_cell_angle_gamma   90.02391242
_symmetry_Int_Tables_number   1
_chemical_formula_structural   Yb8Si16MoW11
_chemical_formula_sum   'Yb8 Si16 Mo1 W11'
_cell_volume   609.13022267
_cell_formula_units_Z   1
loop_
 _symmetry_equiv_pos_site_id
 _symmetry_equiv_pos_as_xyz
  1  'x, y, z'
loop_
 _atom_site_type_symbol
 _atom_site_label
 _atom_site_symmetry_multiplicity
 _atom_site_fract_x
 _atom_site_fract_y
 _atom_site_fract_z
 _atom_site_occupancy
  Yb  Yb0  1  0.331243  0.005511  0.470781  1
  Yb  Yb1  1  0.493727  0.831810  0.720772  1
  Yb  Yb2  1  0.505842  0.168263  0.220670  1
  Yb  Yb3  1  0.831503  0.494793  0.279199  1
  Yb  Yb4  1  0.168197  0.505226  0.779387  1
  Yb  Yb5  1  0.668253  0.994381  0.970675  1
  Yb  Yb6  1  0.005397  0.331911  0.529354  1
  Yb  Yb7  1  0.994932  0.667985  0.029022  1
  Si  Si8  1  0.200828  0.127380  0.685067  1
  Si  Si9  1  0.373450  0.700823  0.934743  1
  Si  Si10  1  0.626774  0.298735  0.434611  1
  Si  Si11  1  0.702281  0.372952  0.064989  1
  Si  Si12  1  0.298400  0.627225  0.565293  1
  Si  Si13  1  0.799268  0.873124  0.184665  1
  Si  Si14  1  0.126991  0.201585  0.315386  1
  Si  Si15  1  0.872881  0.798867  0.814905  1
  Si  Si16  1  0.295912  0.961362  0.064941  1
  Si  Si17  1  0.538561  0.795575  0.315225  1
  Si  Si18  1  0.460768  0.204324  0.815894  1
  Si  Si19  1  0.795192  0.539477  0.684866  1
  Si  Si20  1  0.204204  0.461939  0.185245  1
  Si  Si21  1  0.703761  0.038153  0.564812  1
  Si  Si22  1  0.962537  0.293446  0.934266  1
  Si  Si23  1  0.037943  0.704594  0.434930  1
  Mo  Mo24  1  0.160633  0.006652  0.874617  1
  W  W25  1  0.330593  0.331518  0.001366  1
  W  W26  1  0.170099  0.830194  0.250104  1
  W  W27  1  0.828570  0.169823  0.749029  1
  W  W28  1  0.669175  0.669832  0.499937  1
  W  W29  1  0.491469  0.658892  0.124631  1
  W  W30  1  0.509110  0.340628  0.625105  1
  W  W31  1  0.659962  0.491103  0.875029  1
  W  W32  1  0.340160  0.508920  0.375204  1
  W  W33  1  0.840579  0.991542  0.374719  1
  W  W34  1  0.009750  0.159903  0.124980  1
  W  W35  1  0.991058  0.841553  0.625583  1
