# generated using pymatgen
data_MgCo4MoP3
_symmetry_space_group_name_H-M   'P 1'
_cell_length_a   3.62311900
_cell_length_b   10.31832300
_cell_length_c   11.80718800
_cell_angle_alpha   90.00000000
_cell_angle_beta   90.00000000
_cell_angle_gamma   90.00000000
_symmetry_Int_Tables_number   1
_chemical_formula_structural   MgCo4MoP3
_chemical_formula_sum   'Mg4 Co16 Mo4 P12'
_cell_volume   441.40596276
_cell_formula_units_Z   4
loop_
 _symmetry_equiv_pos_site_id
 _symmetry_equiv_pos_as_xyz
  1  'x, y, z'
loop_
 _atom_site_type_symbol
 _atom_site_label
 _atom_site_symmetry_multiplicity
 _atom_site_fract_x
 _atom_site_fract_y
 _atom_site_fract_z
 _atom_site_occupancy
  Mg  Mg0  1  0.250000  0.580614  0.704330  1
  Mg  Mg1  1  0.250000  0.919386  0.204330  1
  Mg  Mg2  1  0.750000  0.419386  0.295670  1
  Mg  Mg3  1  0.750000  0.080614  0.795670  1
  Co  Co4  1  0.250000  0.407618  0.484657  1
  Co  Co5  1  0.250000  0.092382  0.984657  1
  Co  Co6  1  0.750000  0.592382  0.515343  1
  Co  Co7  1  0.750000  0.907618  0.015343  1
  Co  Co8  1  0.250000  0.221671  0.178222  1
  Co  Co9  1  0.250000  0.278330  0.678222  1
  Co  Co10  1  0.750000  0.778330  0.821778  1
  Co  Co11  1  0.750000  0.721670  0.321778  1
  Co  Co12  1  0.250000  0.889080  0.702423  1
  Co  Co13  1  0.250000  0.610920  0.202423  1
  Co  Co14  1  0.750000  0.110920  0.297577  1
  Co  Co15  1  0.750000  0.389080  0.797577  1
  Co  Co16  1  0.250000  0.465267  0.933151  1
  Co  Co17  1  0.250000  0.034733  0.433151  1
  Co  Co18  1  0.750000  0.534733  0.066849  1
  Co  Co19  1  0.750000  0.965267  0.566849  1
  Mo  Mo20  1  0.250000  0.709866  0.988993  1
  Mo  Mo21  1  0.250000  0.790134  0.488993  1
  Mo  Mo22  1  0.750000  0.290134  0.011007  1
  Mo  Mo23  1  0.750000  0.209866  0.511007  1
  P  P24  1  0.250000  0.419731  0.118287  1
  P  P25  1  0.250000  0.080269  0.618287  1
  P  P26  1  0.750000  0.580269  0.881713  1
  P  P27  1  0.750000  0.919731  0.381713  1
  P  P28  1  0.250000  0.264296  0.863095  1
  P  P29  1  0.250000  0.235704  0.363095  1
  P  P30  1  0.750000  0.735704  0.136905  1
  P  P31  1  0.750000  0.764296  0.636905  1
  P  P32  1  0.250000  0.592240  0.389019  1
  P  P33  1  0.250000  0.907760  0.889019  1
  P  P34  1  0.750000  0.407760  0.610981  1
  P  P35  1  0.750000  0.092240  0.110981  1
