# generated using pymatgen
data_Dy4TmIrOs
_symmetry_space_group_name_H-M   'P 1'
_cell_length_a   6.41421295
_cell_length_b   7.30333780
_cell_length_c   8.42304909
_cell_angle_alpha   96.69970209
_cell_angle_beta   112.38036957
_cell_angle_gamma   90.00000324
_symmetry_Int_Tables_number   1
_chemical_formula_structural   Dy4TmIrOs
_chemical_formula_sum   'Dy8 Tm2 Ir2 Os2'
_cell_volume   361.94237956
_cell_formula_units_Z   2
loop_
 _symmetry_equiv_pos_site_id
 _symmetry_equiv_pos_as_xyz
  1  'x, y, z'
loop_
 _atom_site_type_symbol
 _atom_site_label
 _atom_site_symmetry_multiplicity
 _atom_site_fract_x
 _atom_site_fract_y
 _atom_site_fract_z
 _atom_site_occupancy
  Dy  Dy0  1  0.968849  0.917046  0.179159  1
  Dy  Dy1  1  0.789688  0.582954  0.820841  1
  Dy  Dy2  1  0.026205  0.081664  0.816699  1
  Dy  Dy3  1  0.209508  0.418336  0.183301  1
  Dy  Dy4  1  0.651497  0.816635  0.438518  1
  Dy  Dy5  1  0.212980  0.683365  0.561482  1
  Dy  Dy6  1  0.352019  0.180118  0.563483  1
  Dy  Dy7  1  0.788536  0.319882  0.436517  1
  Tm  Tm8  1  0.425536  0.750000  0.000000  1
  Tm  Tm9  1  0.575067  0.250000  0.000000  1
  Ir  Ir10  1  0.177539  0.424554  0.782240  1
  Ir  Ir11  1  0.395298  0.075446  0.217760  1
  Os  Os12  1  0.821207  0.573834  0.215135  1
  Os  Os13  1  0.606072  0.926166  0.784865  1
