# generated using pymatgen
data_Ta5Mn(AlRu2)6
_symmetry_space_group_name_H-M   'P 1'
_cell_length_a   4.35848500
_cell_length_b   6.16230200
_cell_length_c   13.05897700
_cell_angle_alpha   90.00000000
_cell_angle_beta   89.99947384
_cell_angle_gamma   90.00000000
_symmetry_Int_Tables_number   1
_chemical_formula_structural   Ta5Mn(AlRu2)6
_chemical_formula_sum   'Ta5 Mn1 Al6 Ru12'
_cell_volume   350.74193282
_cell_formula_units_Z   1
loop_
 _symmetry_equiv_pos_site_id
 _symmetry_equiv_pos_as_xyz
  1  'x, y, z'
loop_
 _atom_site_type_symbol
 _atom_site_label
 _atom_site_symmetry_multiplicity
 _atom_site_fract_x
 _atom_site_fract_y
 _atom_site_fract_z
 _atom_site_occupancy
  Ta  Ta0  1  0.999995  0.500001  0.996600  1
  Ta  Ta1  1  0.499794  0.000000  0.164577  1
  Ta  Ta2  1  0.999792  0.500001  0.333339  1
  Ta  Ta3  1  0.499985  0.000000  0.502083  1
  Ta  Ta4  1  0.000170  0.500001  0.670074  1
  Mn  Mn5  1  0.500323  0.000000  0.833334  1
  Al  Al6  1  0.999963  0.000000  0.998012  1
  Al  Al7  1  0.499797  0.500001  0.164605  1
  Al  Al8  1  0.999753  0.000000  0.333332  1
  Al  Al9  1  0.499992  0.500001  0.502071  1
  Al  Al10  1  0.000171  0.000000  0.668638  1
  Al  Al11  1  0.500223  0.500001  0.833324  1
  Ru  Ru12  1  0.499989  0.246739  0.997165  1
  Ru  Ru13  1  0.499989  0.753261  0.997165  1
  Ru  Ru14  1  0.999824  0.250223  0.165807  1
  Ru  Ru15  1  0.999824  0.749777  0.165807  1
  Ru  Ru16  1  0.499833  0.250162  0.333306  1
  Ru  Ru17  1  0.499833  0.749838  0.333306  1
  Ru  Ru18  1  0.999984  0.250292  0.500915  1
  Ru  Ru19  1  0.999984  0.749707  0.500915  1
  Ru  Ru20  1  0.500162  0.246767  0.669461  1
  Ru  Ru21  1  0.500162  0.753233  0.669461  1
  Ru  Ru22  1  0.000227  0.241079  0.833351  1
  Ru  Ru23  1  0.000227  0.758921  0.833351  1
