# generated using pymatgen
data_Ti5(CoAu2)2
_symmetry_space_group_name_H-M   'P 1'
_cell_length_a   2.98763400
_cell_length_b   7.04001600
_cell_length_c   16.48919900
_cell_angle_alpha   90.00000000
_cell_angle_beta   90.00000000
_cell_angle_gamma   90.00000000
_symmetry_Int_Tables_number   1
_chemical_formula_structural   Ti5(CoAu2)2
_chemical_formula_sum   'Ti10 Co4 Au8'
_cell_volume   346.81717684
_cell_formula_units_Z   2
loop_
 _symmetry_equiv_pos_site_id
 _symmetry_equiv_pos_as_xyz
  1  'x, y, z'
loop_
 _atom_site_type_symbol
 _atom_site_label
 _atom_site_symmetry_multiplicity
 _atom_site_fract_x
 _atom_site_fract_y
 _atom_site_fract_z
 _atom_site_occupancy
  Ti  Ti0  1  0.500000  0.500000  0.500000  1
  Ti  Ti1  1  0.500000  0.000000  0.000000  1
  Ti  Ti2  1  0.500000  0.862789  0.417141  1
  Ti  Ti3  1  0.500000  0.137211  0.582859  1
  Ti  Ti4  1  0.500000  0.637211  0.917141  1
  Ti  Ti5  1  0.500000  0.362789  0.082859  1
  Ti  Ti6  1  0.500000  0.234214  0.279956  1
  Ti  Ti7  1  0.500000  0.765786  0.720044  1
  Ti  Ti8  1  0.500000  0.265786  0.779956  1
  Ti  Ti9  1  0.500000  0.734214  0.220044  1
  Co  Co10  1  0.000000  0.940659  0.307954  1
  Co  Co11  1  0.000000  0.059341  0.692046  1
  Co  Co12  1  0.000000  0.559341  0.807954  1
  Co  Co13  1  0.000000  0.440659  0.192046  1
  Au  Au14  1  0.000000  0.199613  0.431008  1
  Au  Au15  1  0.000000  0.800387  0.568992  1
  Au  Au16  1  0.000000  0.300387  0.931008  1
  Au  Au17  1  0.000000  0.699613  0.068992  1
  Au  Au18  1  0.000000  0.561086  0.348332  1
  Au  Au19  1  0.000000  0.438914  0.651668  1
  Au  Au20  1  0.000000  0.938914  0.848332  1
  Au  Au21  1  0.000000  0.061086  0.151668  1
