# generated using pymatgen
data_Y3Ho(LuGa5)2
_symmetry_space_group_name_H-M   'P 1'
_cell_length_a   6.05664500
_cell_length_b   9.56812800
_cell_length_c   11.54621300
_cell_angle_alpha   90.00000000
_cell_angle_beta   90.00000000
_cell_angle_gamma   90.00329878
_symmetry_Int_Tables_number   1
_chemical_formula_structural   Y3Ho(LuGa5)2
_chemical_formula_sum   'Y6 Ho2 Lu4 Ga20'
_cell_volume   669.11175569
_cell_formula_units_Z   2
loop_
 _symmetry_equiv_pos_site_id
 _symmetry_equiv_pos_as_xyz
  1  'x, y, z'
loop_
 _atom_site_type_symbol
 _atom_site_label
 _atom_site_symmetry_multiplicity
 _atom_site_fract_x
 _atom_site_fract_y
 _atom_site_fract_z
 _atom_site_occupancy
  Y  Y0  1  0.110077  0.006836  0.649389  1
  Y  Y1  1  0.389923  0.493164  0.149389  1
  Y  Y2  1  0.110029  0.493203  0.649113  1
  Y  Y3  1  0.389971  0.006797  0.149113  1
  Y  Y4  1  0.889852  0.993206  0.350711  1
  Y  Y5  1  0.610148  0.506794  0.850711  1
  Ho  Ho6  1  0.890012  0.506783  0.350703  1
  Ho  Ho7  1  0.609988  0.993217  0.850703  1
  Lu  Lu8  1  0.850599  0.750034  0.075242  1
  Lu  Lu9  1  0.649401  0.749966  0.575242  1
  Lu  Lu10  1  0.149530  0.249931  0.924711  1
  Lu  Lu11  1  0.350470  0.250069  0.424711  1
  Ga  Ga12  1  0.875648  0.053482  0.088918  1
  Ga  Ga13  1  0.624352  0.446518  0.588918  1
  Ga  Ga14  1  0.124328  0.553533  0.910918  1
  Ga  Ga15  1  0.375672  0.946467  0.410918  1
  Ga  Ga16  1  0.124540  0.946571  0.910845  1
  Ga  Ga17  1  0.375460  0.553429  0.410845  1
  Ga  Ga18  1  0.875670  0.446543  0.089367  1
  Ga  Ga19  1  0.624330  0.053457  0.589367  1
  Ga  Ga20  1  0.166547  0.749724  0.254864  1
  Ga  Ga21  1  0.333453  0.750276  0.754864  1
  Ga  Ga22  1  0.832861  0.249691  0.745412  1
  Ga  Ga23  1  0.667139  0.250309  0.245412  1
  Ga  Ga24  1  0.380569  0.750132  0.001718  1
  Ga  Ga25  1  0.119431  0.749868  0.501718  1
  Ga  Ga26  1  0.619708  0.249666  0.997893  1
  Ga  Ga27  1  0.880292  0.250334  0.497893  1
  Ga  Ga28  1  0.603640  0.749618  0.299036  1
  Ga  Ga29  1  0.896360  0.750382  0.799036  1
  Ga  Ga30  1  0.396996  0.249904  0.701159  1
  Ga  Ga31  1  0.103004  0.250096  0.201159  1
