# generated using pymatgen
data_CeSmEr2(B6Os)2
_symmetry_space_group_name_H-M   'P 1'
_cell_length_a   3.68058300
_cell_length_b   9.17447691
_cell_length_c   11.57022567
_cell_angle_alpha   90.09129708
_cell_angle_beta   90.00000000
_cell_angle_gamma   90.00000000
_symmetry_Int_Tables_number   1
_chemical_formula_structural   CeSmEr2(B6Os)2
_chemical_formula_sum   'Ce2 Sm2 Er4 B24 Os4'
_cell_volume   390.69621722
_cell_formula_units_Z   2
loop_
 _symmetry_equiv_pos_site_id
 _symmetry_equiv_pos_as_xyz
  1  'x, y, z'
loop_
 _atom_site_type_symbol
 _atom_site_label
 _atom_site_symmetry_multiplicity
 _atom_site_fract_x
 _atom_site_fract_y
 _atom_site_fract_z
 _atom_site_occupancy
  Ce  Ce0  1  0.000000  0.322142  0.413734  1
  Ce  Ce1  1  0.000000  0.677858  0.586266  1
  Sm  Sm2  1  0.000000  0.821707  0.085768  1
  Sm  Sm3  1  0.000000  0.178293  0.914232  1
  Er  Er4  1  0.000000  0.944623  0.373324  1
  Er  Er5  1  0.000000  0.055377  0.626676  1
  Er  Er6  1  0.000000  0.444122  0.126235  1
  Er  Er7  1  0.000000  0.555878  0.873765  1
  B  B8  1  0.500000  0.554924  0.431726  1
  B  B9  1  0.500000  0.445076  0.568274  1
  B  B10  1  0.500000  0.055386  0.068554  1
  B  B11  1  0.500000  0.944614  0.931446  1
  B  B12  1  0.500000  0.749709  0.418544  1
  B  B13  1  0.500000  0.250291  0.581456  1
  B  B14  1  0.500000  0.249495  0.081403  1
  B  B15  1  0.500000  0.750505  0.918597  1
  B  B16  1  0.500000  0.791253  0.266225  1
  B  B17  1  0.500000  0.208747  0.733775  1
  B  B18  1  0.500000  0.291453  0.233598  1
  B  B19  1  0.500000  0.708547  0.766402  1
  B  B20  1  0.500000  0.630962  0.184689  1
  B  B21  1  0.500000  0.369038  0.815311  1
  B  B22  1  0.500000  0.131533  0.314985  1
  B  B23  1  0.500000  0.868467  0.685015  1
  B  B24  1  0.500000  0.984219  0.213674  1
  B  B25  1  0.500000  0.015781  0.786326  1
  B  B26  1  0.500000  0.484474  0.285915  1
  B  B27  1  0.500000  0.515526  0.714085  1
  B  B28  1  0.500000  0.604784  0.028829  1
  B  B29  1  0.500000  0.395216  0.971171  1
  B  B30  1  0.500000  0.105387  0.471229  1
  B  B31  1  0.500000  0.894613  0.528771  1
  Os  Os32  1  0.000000  0.638639  0.321635  1
  Os  Os33  1  0.000000  0.361361  0.678365  1
  Os  Os34  1  0.000000  0.139398  0.181382  1
  Os  Os35  1  0.000000  0.860602  0.818618  1
