# generated using pymatgen
data_Y8Ta9Nb3Si15Ge
_symmetry_space_group_name_H-M   'P 1'
_cell_length_a   6.88005902
_cell_length_b   7.06973157
_cell_length_c   13.43101711
_cell_angle_alpha   90.03970359
_cell_angle_beta   89.91231804
_cell_angle_gamma   90.04954080
_symmetry_Int_Tables_number   1
_chemical_formula_structural   Y8Ta9Nb3Si15Ge
_chemical_formula_sum   'Y8 Ta9 Nb3 Si15 Ge1'
_cell_volume   653.28579641
_cell_formula_units_Z   1
loop_
 _symmetry_equiv_pos_site_id
 _symmetry_equiv_pos_as_xyz
  1  'x, y, z'
loop_
 _atom_site_type_symbol
 _atom_site_label
 _atom_site_symmetry_multiplicity
 _atom_site_fract_x
 _atom_site_fract_y
 _atom_site_fract_z
 _atom_site_occupancy
  Y  Y0  1  0.503450  0.329189  0.096032  1
  Y  Y1  1  0.002385  0.170141  0.403588  1
  Y  Y2  1  0.499829  0.673067  0.596623  1
  Y  Y3  1  0.996542  0.828814  0.904557  1
  Y  Y4  1  0.496413  0.670673  0.904428  1
  Y  Y5  1  0.996585  0.829999  0.596079  1
  Y  Y6  1  0.503737  0.327744  0.403285  1
  Y  Y7  1  0.003307  0.171304  0.095661  1
  Ta  Ta8  1  0.663972  0.009573  0.750216  1
  Ta  Ta9  1  0.163908  0.489474  0.751971  1
  Ta  Ta10  1  0.335445  0.990277  0.249831  1
  Ta  Ta11  1  0.836409  0.509970  0.250042  1
  Ta  Ta12  1  0.836116  0.324059  0.625762  1
  Ta  Ta13  1  0.337695  0.175586  0.874883  1
  Ta  Ta14  1  0.162222  0.675699  0.125167  1
  Ta  Ta15  1  0.662072  0.824711  0.374272  1
  Ta  Ta16  1  0.160694  0.678310  0.372946  1
  Nb  Nb17  1  0.661750  0.824171  0.125054  1
  Nb  Nb18  1  0.837222  0.324242  0.875078  1
  Nb  Nb19  1  0.340110  0.171752  0.626389  1
  Si  Si20  1  0.797122  0.625199  0.750212  1
  Si  Si21  1  0.295958  0.873643  0.750659  1
  Si  Si22  1  0.203362  0.374938  0.249804  1
  Si  Si23  1  0.703496  0.125362  0.249567  1
  Si  Si24  1  0.542292  0.375863  0.750165  1
  Si  Si25  1  0.042244  0.124426  0.750309  1
  Si  Si26  1  0.457244  0.624186  0.249779  1
  Si  Si27  1  0.956710  0.876409  0.249068  1
  Si  Si28  1  0.664066  0.037462  0.540271  1
  Si  Si29  1  0.162945  0.463139  0.959414  1
  Si  Si30  1  0.336424  0.963362  0.040687  1
  Si  Si31  1  0.833068  0.537667  0.458520  1
  Si  Si32  1  0.336377  0.962534  0.459168  1
  Si  Si33  1  0.837589  0.536782  0.041105  1
  Si  Si34  1  0.662443  0.036799  0.959162  1
  Ge  Ge35  1  0.168797  0.463471  0.540245  1
