# generated using pymatgen
data_Nd5(Sn5Pd2)2
_symmetry_space_group_name_H-M   'P 1'
_cell_length_a   14.31802100
_cell_length_b   14.31802100
_cell_length_c   4.67063500
_cell_angle_alpha   90.00000000
_cell_angle_beta   90.00000000
_cell_angle_gamma   90.00000000
_symmetry_Int_Tables_number   1
_chemical_formula_structural   Nd5(Sn5Pd2)2
_chemical_formula_sum   'Nd10 Sn20 Pd8'
_cell_volume   957.50691605
_cell_formula_units_Z   2
loop_
 _symmetry_equiv_pos_site_id
 _symmetry_equiv_pos_as_xyz
  1  'x, y, z'
loop_
 _atom_site_type_symbol
 _atom_site_label
 _atom_site_symmetry_multiplicity
 _atom_site_fract_x
 _atom_site_fract_y
 _atom_site_fract_z
 _atom_site_occupancy
  Nd  Nd0  1  0.500000  0.500000  0.000000  1
  Nd  Nd1  1  0.000000  0.000000  0.000000  1
  Nd  Nd2  1  0.678892  0.178892  0.500000  1
  Nd  Nd3  1  0.321108  0.821108  0.500000  1
  Nd  Nd4  1  0.178892  0.321108  0.500000  1
  Nd  Nd5  1  0.821108  0.678892  0.500000  1
  Nd  Nd6  1  0.891092  0.391092  0.500000  1
  Nd  Nd7  1  0.108908  0.608908  0.500000  1
  Nd  Nd8  1  0.391092  0.108908  0.500000  1
  Nd  Nd9  1  0.608908  0.891092  0.500000  1
  Sn  Sn10  1  0.568976  0.068976  0.000000  1
  Sn  Sn11  1  0.431024  0.931024  0.000000  1
  Sn  Sn12  1  0.068976  0.431024  0.000000  1
  Sn  Sn13  1  0.931024  0.568976  0.000000  1
  Sn  Sn14  1  0.654309  0.699746  0.000000  1
  Sn  Sn15  1  0.345691  0.300254  0.000000  1
  Sn  Sn16  1  0.154309  0.800254  0.000000  1
  Sn  Sn17  1  0.845691  0.199746  0.000000  1
  Sn  Sn18  1  0.300254  0.654309  0.000000  1
  Sn  Sn19  1  0.699746  0.345691  0.000000  1
  Sn  Sn20  1  0.199746  0.154309  0.000000  1
  Sn  Sn21  1  0.800254  0.845691  0.000000  1
  Sn  Sn22  1  0.661625  0.502984  0.500000  1
  Sn  Sn23  1  0.338375  0.497016  0.500000  1
  Sn  Sn24  1  0.161625  0.997016  0.500000  1
  Sn  Sn25  1  0.838375  0.002984  0.500000  1
  Sn  Sn26  1  0.497016  0.661625  0.500000  1
  Sn  Sn27  1  0.502984  0.338375  0.500000  1
  Sn  Sn28  1  0.002984  0.161625  0.500000  1
  Sn  Sn29  1  0.997016  0.838375  0.500000  1
  Pd  Pd30  1  0.745792  0.529079  0.000000  1
  Pd  Pd31  1  0.254208  0.470921  0.000000  1
  Pd  Pd32  1  0.245792  0.970921  0.000000  1
  Pd  Pd33  1  0.754208  0.029079  0.000000  1
  Pd  Pd34  1  0.470921  0.745792  0.000000  1
  Pd  Pd35  1  0.529079  0.254208  0.000000  1
  Pd  Pd36  1  0.029079  0.245792  0.000000  1
  Pd  Pd37  1  0.970921  0.754208  0.000000  1
