# generated using pymatgen
data_Sr4Sb3WO14
_symmetry_space_group_name_H-M   'P 1'
_cell_length_a   7.56516132
_cell_length_b   7.56294675
_cell_length_c   7.56294663
_cell_angle_alpha   119.87121008
_cell_angle_beta   118.12840563
_cell_angle_gamma   91.73929861
_symmetry_Int_Tables_number   1
_chemical_formula_structural   Sr4Sb3WO14
_chemical_formula_sum   'Sr4 Sb3 W1 O14'
_cell_volume   310.38095660
_cell_formula_units_Z   1
loop_
 _symmetry_equiv_pos_site_id
 _symmetry_equiv_pos_as_xyz
  1  'x, y, z'
loop_
 _atom_site_type_symbol
 _atom_site_label
 _atom_site_symmetry_multiplicity
 _atom_site_fract_x
 _atom_site_fract_y
 _atom_site_fract_z
 _atom_site_occupancy
  Sr  Sr0  1  0.500000  0.500000  0.500000  1
  Sr  Sr1  1  0.500000  0.000000  0.000000  1
  Sr  Sr2  1  0.500000  0.500000  0.000000  1
  Sr  Sr3  1  0.000000  0.000000  0.000000  1
  Sb  Sb4  1  0.000000  0.500000  0.000000  1
  Sb  Sb5  1  0.000000  0.000000  0.500000  1
  Sb  Sb6  1  0.500000  0.000000  0.500000  1
  W  W7  1  0.000000  0.500000  0.500000  1
  O  O8  1  0.950733  0.586397  0.774394  1
  O  O9  1  0.049267  0.823660  0.635663  1
  O  O10  1  0.685742  0.913562  0.362771  1
  O  O11  1  0.314258  0.677030  0.227821  1
  O  O12  1  0.049267  0.413603  0.225606  1
  O  O13  1  0.950733  0.176340  0.364337  1
  O  O14  1  0.314258  0.086438  0.637229  1
  O  O15  1  0.685742  0.322970  0.772179  1
  O  O16  1  0.098225  0.250486  0.847739  1
  O  O17  1  0.901775  0.749514  0.152261  1
  O  O18  1  0.692555  0.408721  0.283835  1
  O  O19  1  0.307445  0.591279  0.716165  1
  O  O20  1  0.373375  0.092510  0.280866  1
  O  O21  1  0.626625  0.907490  0.719134  1
