# generated using pymatgen
data_Y10Hg8PtRh3
_symmetry_space_group_name_H-M   'P 1'
_cell_length_a   3.70200200
_cell_length_b   7.99987782
_cell_length_c   17.92359800
_cell_angle_alpha   90.06911411
_cell_angle_beta   90.00000000
_cell_angle_gamma   90.00000000
_symmetry_Int_Tables_number   1
_chemical_formula_structural   Y10Hg8PtRh3
_chemical_formula_sum   'Y10 Hg8 Pt1 Rh3'
_cell_volume   530.81707194
_cell_formula_units_Z   1
loop_
 _symmetry_equiv_pos_site_id
 _symmetry_equiv_pos_as_xyz
  1  'x, y, z'
loop_
 _atom_site_type_symbol
 _atom_site_label
 _atom_site_symmetry_multiplicity
 _atom_site_fract_x
 _atom_site_fract_y
 _atom_site_fract_z
 _atom_site_occupancy
  Y  Y0  1  0.000000  0.110818  0.412947  1
  Y  Y1  1  0.000000  0.889449  0.588625  1
  Y  Y2  1  0.000000  0.389614  0.911019  1
  Y  Y3  1  0.000000  0.611808  0.086864  1
  Y  Y4  1  0.000000  0.231394  0.216627  1
  Y  Y5  1  0.000000  0.762754  0.783670  1
  Y  Y6  1  0.000000  0.261640  0.716836  1
  Y  Y7  1  0.000000  0.743121  0.283385  1
  Y  Y8  1  0.000000  0.999064  0.999359  1
  Y  Y9  1  0.000000  0.500850  0.500595  1
  Hg  Hg10  1  0.500000  0.413109  0.356239  1
  Hg  Hg11  1  0.500000  0.585849  0.647345  1
  Hg  Hg12  1  0.500000  0.085477  0.852540  1
  Hg  Hg13  1  0.500000  0.920336  0.146181  1
  Hg  Hg14  1  0.500000  0.288956  0.058931  1
  Hg  Hg15  1  0.500000  0.709063  0.936521  1
  Hg  Hg16  1  0.500000  0.209588  0.563313  1
  Hg  Hg17  1  0.500000  0.790682  0.437051  1
  Pt  Pt18  1  0.500000  0.522086  0.199073  1
  Rh  Rh19  1  0.500000  0.025114  0.303457  1
  Rh  Rh20  1  0.500000  0.974195  0.697423  1
  Rh  Rh21  1  0.500000  0.475034  0.801998  1
