# generated using pymatgen
data_Tm6Fe6Co16Mo
_symmetry_space_group_name_H-M   'P 1'
_cell_length_a   8.33511533
_cell_length_b   8.33511581
_cell_length_c   8.33511400
_cell_angle_alpha   60.00000718
_cell_angle_beta   60.00000527
_cell_angle_gamma   60.00000313
_symmetry_Int_Tables_number   1
_chemical_formula_structural   Tm6Fe6Co16Mo
_chemical_formula_sum   'Tm6 Fe6 Co16 Mo1'
_cell_volume   409.46788851
_cell_formula_units_Z   1
loop_
 _symmetry_equiv_pos_site_id
 _symmetry_equiv_pos_as_xyz
  1  'x, y, z'
loop_
 _atom_site_type_symbol
 _atom_site_label
 _atom_site_symmetry_multiplicity
 _atom_site_fract_x
 _atom_site_fract_y
 _atom_site_fract_z
 _atom_site_occupancy
  Tm  Tm0  1  0.711684  0.288316  0.288316  1
  Tm  Tm1  1  0.288316  0.711684  0.711684  1
  Tm  Tm2  1  0.288316  0.711684  0.288316  1
  Tm  Tm3  1  0.288316  0.288316  0.711684  1
  Tm  Tm4  1  0.711684  0.288316  0.711684  1
  Tm  Tm5  1  0.711684  0.711684  0.288316  1
  Fe  Fe6  1  0.500000  0.000000  0.000000  1
  Fe  Fe7  1  0.000000  0.500000  0.500000  1
  Fe  Fe8  1  0.000000  0.500000  0.000000  1
  Fe  Fe9  1  0.000000  0.000000  0.500000  1
  Fe  Fe10  1  0.500000  0.000000  0.500000  1
  Fe  Fe11  1  0.500000  0.500000  0.000000  1
  Co  Co12  1  0.323659  0.323659  0.323659  1
  Co  Co13  1  0.323659  0.323659  0.029026  1
  Co  Co14  1  0.029026  0.323659  0.323659  1
  Co  Co15  1  0.323659  0.029026  0.323659  1
  Co  Co16  1  0.676341  0.676341  0.676341  1
  Co  Co17  1  0.676341  0.676341  0.970974  1
  Co  Co18  1  0.676341  0.970974  0.676341  1
  Co  Co19  1  0.970974  0.676341  0.676341  1
  Co  Co20  1  0.123010  0.123010  0.123010  1
  Co  Co21  1  0.123010  0.123010  0.630969  1
  Co  Co22  1  0.630969  0.123010  0.123010  1
  Co  Co23  1  0.123010  0.630969  0.123010  1
  Co  Co24  1  0.876990  0.876990  0.876990  1
  Co  Co25  1  0.876990  0.876990  0.369031  1
  Co  Co26  1  0.876990  0.369031  0.876990  1
  Co  Co27  1  0.369031  0.876990  0.876990  1
  Mo  Mo28  1  0.000000  0.000000  0.000000  1
