# generated using pymatgen
data_Na2Zr2CuAgTe6
_symmetry_space_group_name_H-M   'P 1'
_cell_length_a   4.14248500
_cell_length_b   11.22522100
_cell_length_c   14.75521302
_cell_angle_alpha   89.99554941
_cell_angle_beta   90.00000000
_cell_angle_gamma   90.00000000
_symmetry_Int_Tables_number   1
_chemical_formula_structural   Na2Zr2CuAgTe6
_chemical_formula_sum   'Na4 Zr4 Cu2 Ag2 Te12'
_cell_volume   686.12197195
_cell_formula_units_Z   2
loop_
 _symmetry_equiv_pos_site_id
 _symmetry_equiv_pos_as_xyz
  1  'x, y, z'
loop_
 _atom_site_type_symbol
 _atom_site_label
 _atom_site_symmetry_multiplicity
 _atom_site_fract_x
 _atom_site_fract_y
 _atom_site_fract_z
 _atom_site_occupancy
  Na  Na0  1  0.250000  0.050924  0.227450  1
  Na  Na1  1  0.750000  0.949076  0.772550  1
  Na  Na2  1  0.750000  0.551840  0.271855  1
  Na  Na3  1  0.250000  0.448160  0.728145  1
  Zr  Zr4  1  0.250000  0.315915  0.008547  1
  Zr  Zr5  1  0.750000  0.684085  0.991453  1
  Zr  Zr6  1  0.750000  0.817408  0.490715  1
  Zr  Zr7  1  0.250000  0.182592  0.509285  1
  Cu  Cu8  1  0.750000  0.094562  0.007832  1
  Cu  Cu9  1  0.250000  0.905438  0.992168  1
  Ag  Ag10  1  0.250000  0.592024  0.489770  1
  Ag  Ag11  1  0.750000  0.407976  0.510230  1
  Te  Te12  1  0.250000  0.561934  0.101291  1
  Te  Te13  1  0.750000  0.438066  0.898709  1
  Te  Te14  1  0.750000  0.060311  0.400238  1
  Te  Te15  1  0.250000  0.939689  0.599762  1
  Te  Te16  1  0.250000  0.370601  0.380397  1
  Te  Te17  1  0.750000  0.629399  0.619603  1
  Te  Te18  1  0.750000  0.887079  0.104472  1
  Te  Te19  1  0.250000  0.112921  0.895528  1
  Te  Te20  1  0.250000  0.765092  0.354955  1
  Te  Te21  1  0.750000  0.234908  0.645045  1
  Te  Te22  1  0.750000  0.252442  0.139130  1
  Te  Te23  1  0.250000  0.747558  0.860870  1
