# generated using pymatgen
data_KSrMnO4
_symmetry_space_group_name_H-M   'P 1'
_cell_length_a   5.86521600
_cell_length_b   7.56354100
_cell_length_c   10.02137300
_cell_angle_alpha   90.00000000
_cell_angle_beta   90.00000000
_cell_angle_gamma   90.00000000
_symmetry_Int_Tables_number   1
_chemical_formula_structural   KSrMnO4
_chemical_formula_sum   'K4 Sr4 Mn4 O16'
_cell_volume   444.56616169
_cell_formula_units_Z   4
loop_
 _symmetry_equiv_pos_site_id
 _symmetry_equiv_pos_as_xyz
  1  'x, y, z'
loop_
 _atom_site_type_symbol
 _atom_site_label
 _atom_site_symmetry_multiplicity
 _atom_site_fract_x
 _atom_site_fract_y
 _atom_site_fract_z
 _atom_site_occupancy
  K  K0  1  0.486155  0.090901  0.577741  1
  K  K1  1  0.513845  0.590901  0.922259  1
  K  K2  1  0.013845  0.909099  0.077741  1
  K  K3  1  0.986155  0.409099  0.422259  1
  Sr  Sr4  1  0.979228  0.250974  0.804164  1
  Sr  Sr5  1  0.479228  0.249026  0.195836  1
  Sr  Sr6  1  0.520772  0.749026  0.304164  1
  Sr  Sr7  1  0.020772  0.750974  0.695836  1
  Mn  Mn8  1  0.485148  0.524574  0.584234  1
  Mn  Mn9  1  0.014852  0.475426  0.084234  1
  Mn  Mn10  1  0.985148  0.975426  0.415766  1
  Mn  Mn11  1  0.514852  0.024574  0.915766  1
  O  O12  1  0.506631  0.932248  0.072932  1
  O  O13  1  0.245991  0.553158  0.172045  1
  O  O14  1  0.254009  0.446842  0.672045  1
  O  O15  1  0.069375  0.255170  0.062815  1
  O  O16  1  0.745991  0.946842  0.827955  1
  O  O17  1  0.569375  0.244830  0.937185  1
  O  O18  1  0.764237  0.514527  0.168472  1
  O  O19  1  0.264237  0.985473  0.831528  1
  O  O20  1  0.993369  0.067752  0.572932  1
  O  O21  1  0.754009  0.053158  0.327955  1
  O  O22  1  0.006631  0.567752  0.927068  1
  O  O23  1  0.493369  0.432248  0.427068  1
  O  O24  1  0.235763  0.014527  0.331528  1
  O  O25  1  0.430625  0.744830  0.562815  1
  O  O26  1  0.735763  0.485473  0.668472  1
  O  O27  1  0.930625  0.755170  0.437185  1
