# generated using pymatgen
data_MgPa2(SnIr)3
_symmetry_space_group_name_H-M   'P 1'
_cell_length_a   7.40511669
_cell_length_b   7.40511591
_cell_length_c   4.00464600
_cell_angle_alpha   90.00000000
_cell_angle_beta   90.00000000
_cell_angle_gamma   120.46357445
_symmetry_Int_Tables_number   1
_chemical_formula_structural   MgPa2(SnIr)3
_chemical_formula_sum   'Mg1 Pa2 Sn3 Ir3'
_cell_volume   189.28264890
_cell_formula_units_Z   1
loop_
 _symmetry_equiv_pos_site_id
 _symmetry_equiv_pos_as_xyz
  1  'x, y, z'
loop_
 _atom_site_type_symbol
 _atom_site_label
 _atom_site_symmetry_multiplicity
 _atom_site_fract_x
 _atom_site_fract_y
 _atom_site_fract_z
 _atom_site_occupancy
  Mg  Mg0  1  0.398782  0.398782  0.500000  1
  Pa  Pa1  1  0.589795  0.002524  0.500000  1
  Pa  Pa2  1  0.002524  0.589795  0.500000  1
  Sn  Sn3  1  0.727025  0.727025  0.000000  1
  Sn  Sn4  1  0.259332  0.017723  0.000000  1
  Sn  Sn5  1  0.017723  0.259332  0.000000  1
  Ir  Ir6  1  0.685377  0.330094  0.000000  1
  Ir  Ir7  1  0.330094  0.685377  0.000000  1
  Ir  Ir8  1  0.989349  0.989349  0.500000  1
