# generated using pymatgen
data_Dy7Y3(Bi2Sb)2
_symmetry_space_group_name_H-M   'P 1'
_cell_length_a   8.19746700
_cell_length_b   9.47593600
_cell_length_c   12.03463200
_cell_angle_alpha   90.00000000
_cell_angle_beta   90.00000000
_cell_angle_gamma   90.00000000
_symmetry_Int_Tables_number   1
_chemical_formula_structural   Dy7Y3(Bi2Sb)2
_chemical_formula_sum   'Dy14 Y6 Bi8 Sb4'
_cell_volume   934.83423964
_cell_formula_units_Z   2
loop_
 _symmetry_equiv_pos_site_id
 _symmetry_equiv_pos_as_xyz
  1  'x, y, z'
loop_
 _atom_site_type_symbol
 _atom_site_label
 _atom_site_symmetry_multiplicity
 _atom_site_fract_x
 _atom_site_fract_y
 _atom_site_fract_z
 _atom_site_occupancy
  Dy  Dy0  1  0.029173  0.750000  0.988192  1
  Dy  Dy1  1  0.529173  0.750000  0.511808  1
  Dy  Dy2  1  0.970814  0.250000  0.011552  1
  Dy  Dy3  1  0.470814  0.250000  0.488448  1
  Dy  Dy4  1  0.183468  0.750000  0.718284  1
  Dy  Dy5  1  0.683468  0.750000  0.781716  1
  Dy  Dy6  1  0.309714  0.438594  0.941308  1
  Dy  Dy7  1  0.809714  0.061406  0.558692  1
  Dy  Dy8  1  0.690293  0.938497  0.058615  1
  Dy  Dy9  1  0.190293  0.561503  0.441385  1
  Dy  Dy10  1  0.690293  0.561503  0.058615  1
  Dy  Dy11  1  0.190293  0.938497  0.441385  1
  Dy  Dy12  1  0.309714  0.061406  0.941308  1
  Dy  Dy13  1  0.809714  0.438594  0.558692  1
  Y  Y14  1  0.816583  0.250000  0.281646  1
  Y  Y15  1  0.316583  0.250000  0.218354  1
  Y  Y16  1  0.353963  0.750000  0.212789  1
  Y  Y17  1  0.853963  0.750000  0.287211  1
  Y  Y18  1  0.646028  0.250000  0.787164  1
  Y  Y19  1  0.146028  0.250000  0.712836  1
  Bi  Bi20  1  0.433511  0.003662  0.673886  1
  Bi  Bi21  1  0.933511  0.496338  0.826114  1
  Bi  Bi22  1  0.566453  0.503784  0.326216  1
  Bi  Bi23  1  0.066453  0.996216  0.173784  1
  Bi  Bi24  1  0.566453  0.996216  0.326216  1
  Bi  Bi25  1  0.066453  0.503784  0.173784  1
  Bi  Bi26  1  0.433511  0.496338  0.673886  1
  Bi  Bi27  1  0.933511  0.003662  0.826114  1
  Sb  Sb28  1  0.410196  0.750000  0.959013  1
  Sb  Sb29  1  0.910196  0.750000  0.540987  1
  Sb  Sb30  1  0.589834  0.250000  0.040850  1
  Sb  Sb31  1  0.089834  0.250000  0.459150  1
