# generated using pymatgen
data_Tb3Ce3(Al3Ru)8
_symmetry_space_group_name_H-M   'P 1'
_cell_length_a   8.85771900
_cell_length_b   8.85771953
_cell_length_c   9.56444400
_cell_angle_alpha   90.00000000
_cell_angle_beta   90.00000000
_cell_angle_gamma   120.00000175
_symmetry_Int_Tables_number   1
_chemical_formula_structural   Tb3Ce3(Al3Ru)8
_chemical_formula_sum   'Tb3 Ce3 Al24 Ru8'
_cell_volume   649.88150317
_cell_formula_units_Z   1
loop_
 _symmetry_equiv_pos_site_id
 _symmetry_equiv_pos_as_xyz
  1  'x, y, z'
loop_
 _atom_site_type_symbol
 _atom_site_label
 _atom_site_symmetry_multiplicity
 _atom_site_fract_x
 _atom_site_fract_y
 _atom_site_fract_z
 _atom_site_occupancy
  Tb  Tb0  1  0.614739  0.807369  0.750000  1
  Tb  Tb1  1  0.192631  0.807369  0.750000  1
  Tb  Tb2  1  0.192631  0.385261  0.750000  1
  Ce  Ce3  1  0.388867  0.194433  0.250000  1
  Ce  Ce4  1  0.805567  0.194433  0.250000  1
  Ce  Ce5  1  0.805567  0.611133  0.250000  1
  Al  Al6  1  0.436738  0.873476  0.250000  1
  Al  Al7  1  0.126524  0.563262  0.250000  1
  Al  Al8  1  0.436738  0.563262  0.250000  1
  Al  Al9  1  0.560071  0.120141  0.750000  1
  Al  Al10  1  0.879859  0.439929  0.750000  1
  Al  Al11  1  0.560071  0.439929  0.750000  1
  Al  Al12  1  0.162432  0.837568  0.423096  1
  Al  Al13  1  0.162432  0.324865  0.423096  1
  Al  Al14  1  0.675135  0.837568  0.423096  1
  Al  Al15  1  0.838217  0.161783  0.580159  1
  Al  Al16  1  0.838217  0.676433  0.580159  1
  Al  Al17  1  0.323567  0.161783  0.580159  1
  Al  Al18  1  0.838217  0.161783  0.919841  1
  Al  Al19  1  0.838217  0.676433  0.919841  1
  Al  Al20  1  0.323567  0.161783  0.919841  1
  Al  Al21  1  0.162432  0.837568  0.076904  1
  Al  Al22  1  0.162432  0.324865  0.076904  1
  Al  Al23  1  0.675135  0.837568  0.076904  1
  Al  Al24  1  0.333333  0.666667  0.515284  1
  Al  Al25  1  0.666667  0.333333  0.493892  1
  Al  Al26  1  0.666667  0.333333  0.006108  1
  Al  Al27  1  0.333333  0.666667  0.984716  1
  Al  Al28  1  0.000000  0.000000  0.250000  1
  Al  Al29  1  0.000000  0.000000  0.750000  1
  Ru  Ru30  1  0.000000  0.000000  0.500728  1
  Ru  Ru31  1  0.000000  0.000000  0.999272  1
  Ru  Ru32  1  0.500302  0.000604  0.498136  1
  Ru  Ru33  1  0.999396  0.499698  0.498136  1
  Ru  Ru34  1  0.500302  0.499698  0.498136  1
  Ru  Ru35  1  0.500302  0.000604  0.001864  1
  Ru  Ru36  1  0.999396  0.499698  0.001864  1
  Ru  Ru37  1  0.500302  0.499698  0.001864  1
