# generated using pymatgen
data_TmThSc2(Al3Rh)6
_symmetry_space_group_name_H-M   'P 1'
_cell_length_a   7.52494631
_cell_length_b   7.53654494
_cell_length_c   9.39763100
_cell_angle_alpha   90.00000000
_cell_angle_beta   90.00000000
_cell_angle_gamma   119.41304953
_symmetry_Int_Tables_number   1
_chemical_formula_structural   TmThSc2(Al3Rh)6
_chemical_formula_sum   'Tm1 Th1 Sc2 Al18 Rh6'
_cell_volume   464.26194699
_cell_formula_units_Z   1
loop_
 _symmetry_equiv_pos_site_id
 _symmetry_equiv_pos_as_xyz
  1  'x, y, z'
loop_
 _atom_site_type_symbol
 _atom_site_label
 _atom_site_symmetry_multiplicity
 _atom_site_fract_x
 _atom_site_fract_y
 _atom_site_fract_z
 _atom_site_occupancy
  Tm  Tm0  1  0.672898  0.993834  0.250000  1
  Th  Th1  1  0.993444  0.672037  0.250000  1
  Sc  Sc2  1  0.002477  0.327140  0.750000  1
  Sc  Sc3  1  0.327013  0.003757  0.750000  1
  Al  Al4  1  0.131937  0.134880  0.250000  1
  Al  Al5  1  0.878936  0.880996  0.750000  1
  Al  Al6  1  0.001645  0.331070  0.068224  1
  Al  Al7  1  0.003732  0.663954  0.911906  1
  Al  Al8  1  0.003732  0.663954  0.588094  1
  Al  Al9  1  0.340577  0.005579  0.431588  1
  Al  Al10  1  0.001645  0.331070  0.431776  1
  Al  Al11  1  0.664313  0.004661  0.582736  1
  Al  Al12  1  0.664313  0.004661  0.917264  1
  Al  Al13  1  0.340577  0.005579  0.068412  1
  Al  Al14  1  0.328060  0.328385  0.564213  1
  Al  Al15  1  0.662376  0.666229  0.461008  1
  Al  Al16  1  0.662376  0.666229  0.038992  1
  Al  Al17  1  0.328060  0.328385  0.935787  1
  Al  Al18  1  0.345416  0.549478  0.250000  1
  Al  Al19  1  0.658085  0.442164  0.750000  1
  Al  Al20  1  0.544307  0.335065  0.250000  1
  Al  Al21  1  0.442848  0.660450  0.750000  1
  Rh  Rh22  1  0.673561  0.328924  0.998787  1
  Rh  Rh23  1  0.326548  0.672320  0.998764  1
  Rh  Rh24  1  0.326548  0.672320  0.501236  1
  Rh  Rh25  1  0.673561  0.328924  0.501213  1
  Rh  Rh26  1  0.000510  0.998978  0.999287  1
  Rh  Rh27  1  0.000510  0.998978  0.500713  1
