# generated using pymatgen
data_TmZn2CdPt2
_symmetry_space_group_name_H-M   'P 1'
_cell_length_a   5.19012512
_cell_length_b   5.27933460
_cell_length_c   5.27933432
_cell_angle_alpha   63.57508846
_cell_angle_beta   60.55742495
_cell_angle_gamma   60.55741154
_symmetry_Int_Tables_number   1
_chemical_formula_structural   TmZn2CdPt2
_chemical_formula_sum   'Tm1 Zn2 Cd1 Pt2'
_cell_volume   105.68438851
_cell_formula_units_Z   1
loop_
 _symmetry_equiv_pos_site_id
 _symmetry_equiv_pos_as_xyz
  1  'x, y, z'
loop_
 _atom_site_type_symbol
 _atom_site_label
 _atom_site_symmetry_multiplicity
 _atom_site_fract_x
 _atom_site_fract_y
 _atom_site_fract_z
 _atom_site_occupancy
  Tm  Tm0  1  0.257714  0.242286  0.242286  1
  Zn  Zn1  1  0.121339  0.628918  0.628918  1
  Zn  Zn2  1  0.620824  0.628918  0.628918  1
  Cd  Cd3  1  0.003675  0.996325  0.996325  1
  Pt  Pt4  1  0.623224  0.626945  0.126608  1
  Pt  Pt5  1  0.623224  0.126608  0.626945  1
