# generated using pymatgen
data_DyHf7(Nb3Si4)4
_symmetry_space_group_name_H-M   'P 1'
_cell_length_a   6.89167241
_cell_length_b   6.88523498
_cell_length_c   12.76331961
_cell_angle_alpha   89.99966713
_cell_angle_beta   89.92784838
_cell_angle_gamma   90.02001393
_symmetry_Int_Tables_number   1
_chemical_formula_structural   DyHf7(Nb3Si4)4
_chemical_formula_sum   'Dy1 Hf7 Nb12 Si16'
_cell_volume   605.62900417
_cell_formula_units_Z   1
loop_
 _symmetry_equiv_pos_site_id
 _symmetry_equiv_pos_as_xyz
  1  'x, y, z'
loop_
 _atom_site_type_symbol
 _atom_site_label
 _atom_site_symmetry_multiplicity
 _atom_site_fract_x
 _atom_site_fract_y
 _atom_site_fract_z
 _atom_site_occupancy
  Dy  Dy0  1  0.661091  0.003027  0.281264  1
  Hf  Hf1  1  0.004645  0.344284  0.217635  1
  Hf  Hf2  1  0.999721  0.659994  0.718970  1
  Hf  Hf3  1  0.160547  0.501821  0.470598  1
  Hf  Hf4  1  0.498589  0.839303  0.030603  1
  Hf  Hf5  1  0.840832  0.498814  0.967648  1
  Hf  Hf6  1  0.502085  0.159116  0.532565  1
  Hf  Hf7  1  0.340279  0.000923  0.781091  1
  Nb  Nb8  1  0.169085  0.169591  0.999053  1
  Nb  Nb9  1  0.831591  0.830133  0.501524  1
  Nb  Nb10  1  0.327882  0.666694  0.249982  1
  Nb  Nb11  1  0.669704  0.330460  0.750171  1
  Nb  Nb12  1  0.152446  0.994714  0.377404  1
  Nb  Nb13  1  0.847589  0.003562  0.874910  1
  Nb  Nb14  1  0.503800  0.652237  0.627181  1
  Nb  Nb15  1  0.347906  0.497377  0.873066  1
  Nb  Nb16  1  0.493046  0.346963  0.123972  1
  Nb  Nb17  1  0.651848  0.502624  0.374865  1
  Nb  Nb18  1  0.997747  0.153113  0.625403  1
  Nb  Nb19  1  0.002831  0.844366  0.121544  1
  Si  Si20  1  0.293604  0.042815  0.185889  1
  Si  Si21  1  0.700825  0.955853  0.686777  1
  Si  Si22  1  0.454328  0.797071  0.438499  1
  Si  Si23  1  0.200660  0.544684  0.062031  1
  Si  Si24  1  0.543271  0.200049  0.935952  1
  Si  Si25  1  0.800054  0.457288  0.564293  1
  Si  Si26  1  0.044273  0.300292  0.813360  1
  Si  Si27  1  0.956703  0.698173  0.313694  1
  Si  Si28  1  0.360496  0.294751  0.322734  1
  Si  Si29  1  0.635815  0.708601  0.823261  1
  Si  Si30  1  0.208084  0.864630  0.573914  1
  Si  Si31  1  0.135471  0.792438  0.926458  1
  Si  Si32  1  0.794157  0.137094  0.069977  1
  Si  Si33  1  0.869193  0.211587  0.430552  1
  Si  Si34  1  0.292485  0.364729  0.676941  1
  Si  Si35  1  0.707315  0.630826  0.176221  1
