# generated using pymatgen
data_TbDy7Re(B8Os)3
_symmetry_space_group_name_H-M   'P 1'
_cell_length_a   3.66864000
_cell_length_b   9.16664141
_cell_length_c   11.54995901
_cell_angle_alpha   90.08898673
_cell_angle_beta   90.00000000
_cell_angle_gamma   90.00000000
_symmetry_Int_Tables_number   1
_chemical_formula_structural   TbDy7Re(B8Os)3
_chemical_formula_sum   'Tb1 Dy7 Re1 B24 Os3'
_cell_volume   388.41434285
_cell_formula_units_Z   1
loop_
 _symmetry_equiv_pos_site_id
 _symmetry_equiv_pos_as_xyz
  1  'x, y, z'
loop_
 _atom_site_type_symbol
 _atom_site_label
 _atom_site_symmetry_multiplicity
 _atom_site_fract_x
 _atom_site_fract_y
 _atom_site_fract_z
 _atom_site_occupancy
  Tb  Tb0  1  0.000000  0.322860  0.414770  1
  Dy  Dy1  1  0.000000  0.679666  0.588264  1
  Dy  Dy2  1  0.000000  0.823031  0.083779  1
  Dy  Dy3  1  0.000000  0.176002  0.913119  1
  Dy  Dy4  1  0.000000  0.943273  0.371918  1
  Dy  Dy5  1  0.000000  0.055839  0.627641  1
  Dy  Dy6  1  0.000000  0.443021  0.127734  1
  Dy  Dy7  1  0.000000  0.556470  0.872920  1
  Re  Re8  1  0.000000  0.862393  0.821396  1
  B  B9  1  0.500000  0.554022  0.432977  1
  B  B10  1  0.500000  0.446415  0.567500  1
  B  B11  1  0.500000  0.053570  0.067464  1
  B  B12  1  0.500000  0.947121  0.932900  1
  B  B13  1  0.500000  0.747915  0.419424  1
  B  B14  1  0.500000  0.252266  0.580664  1
  B  B15  1  0.500000  0.247563  0.080684  1
  B  B16  1  0.500000  0.752127  0.919282  1
  B  B17  1  0.500000  0.790154  0.266453  1
  B  B18  1  0.500000  0.209338  0.732833  1
  B  B19  1  0.500000  0.290469  0.233408  1
  B  B20  1  0.500000  0.708800  0.766441  1
  B  B21  1  0.500000  0.631431  0.185766  1
  B  B22  1  0.500000  0.368145  0.813870  1
  B  B23  1  0.500000  0.131860  0.314236  1
  B  B24  1  0.500000  0.868304  0.685923  1
  B  B25  1  0.500000  0.983695  0.212625  1
  B  B26  1  0.500000  0.017284  0.787222  1
  B  B27  1  0.500000  0.483694  0.287681  1
  B  B28  1  0.500000  0.516591  0.712819  1
  B  B29  1  0.500000  0.606964  0.030332  1
  B  B30  1  0.500000  0.391519  0.970322  1
  B  B31  1  0.500000  0.107963  0.469701  1
  B  B32  1  0.500000  0.892311  0.529311  1
  Os  Os33  1  0.000000  0.637568  0.321519  1
  Os  Os34  1  0.000000  0.362635  0.678118  1
  Os  Os35  1  0.000000  0.137723  0.178979  1
