# generated using pymatgen
data_Th4In2AgPt3
_symmetry_space_group_name_H-M   'P 1'
_cell_length_a   8.05313682
_cell_length_b   8.05313682
_cell_length_c   3.85171200
_cell_angle_alpha   90.00000000
_cell_angle_beta   90.00000000
_cell_angle_gamma   89.55464613
_symmetry_Int_Tables_number   1
_chemical_formula_structural   Th4In2AgPt3
_chemical_formula_sum   'Th4 In2 Ag1 Pt3'
_cell_volume   249.78758097
_cell_formula_units_Z   1
loop_
 _symmetry_equiv_pos_site_id
 _symmetry_equiv_pos_as_xyz
  1  'x, y, z'
loop_
 _atom_site_type_symbol
 _atom_site_label
 _atom_site_symmetry_multiplicity
 _atom_site_fract_x
 _atom_site_fract_y
 _atom_site_fract_z
 _atom_site_occupancy
  Th  Th0  1  0.658355  0.158355  0.500000  1
  Th  Th1  1  0.187244  0.331853  0.500000  1
  Th  Th2  1  0.322249  0.822249  0.500000  1
  Th  Th3  1  0.831853  0.687244  0.500000  1
  In  In4  1  0.002468  0.010261  0.000000  1
  In  In5  1  0.510261  0.502468  0.000000  1
  Ag  Ag6  1  0.870048  0.370048  0.000000  1
  Pt  Pt7  1  0.625932  0.867271  0.000000  1
  Pt  Pt8  1  0.124318  0.624318  0.000000  1
  Pt  Pt9  1  0.367271  0.125932  0.000000  1
