# generated using pymatgen
data_HoTm7Cd2NiOs
_symmetry_space_group_name_H-M   'P 1'
_cell_length_a   9.47373538
_cell_length_b   9.47373617
_cell_length_c   9.57171200
_cell_angle_alpha   59.65730807
_cell_angle_beta   59.65730526
_cell_angle_gamma   59.31971080
_symmetry_Int_Tables_number   1
_chemical_formula_structural   HoTm7Cd2NiOs
_chemical_formula_sum   'Ho2 Tm14 Cd4 Ni2 Os2'
_cell_volume   601.15784875
_cell_formula_units_Z   2
loop_
 _symmetry_equiv_pos_site_id
 _symmetry_equiv_pos_as_xyz
  1  'x, y, z'
loop_
 _atom_site_type_symbol
 _atom_site_label
 _atom_site_symmetry_multiplicity
 _atom_site_fract_x
 _atom_site_fract_y
 _atom_site_fract_z
 _atom_site_occupancy
  Ho  Ho0  1  0.350699  0.350699  0.342218  1
  Ho  Ho1  1  0.350699  0.350699  0.956385  1
  Tm  Tm2  1  0.354039  0.954924  0.345519  1
  Tm  Tm3  1  0.954924  0.354039  0.345519  1
  Tm  Tm4  1  0.811033  0.185804  0.190070  1
  Tm  Tm5  1  0.185804  0.811033  0.813094  1
  Tm  Tm6  1  0.185804  0.811033  0.190070  1
  Tm  Tm7  1  0.811033  0.185804  0.813094  1
  Tm  Tm8  1  0.187528  0.187528  0.812472  1
  Tm  Tm9  1  0.810466  0.810466  0.189534  1
  Tm  Tm10  1  0.938396  0.556872  0.567185  1
  Tm  Tm11  1  0.556872  0.938396  0.937547  1
  Tm  Tm12  1  0.556872  0.938396  0.567185  1
  Tm  Tm13  1  0.938396  0.556872  0.937547  1
  Tm  Tm14  1  0.565906  0.565906  0.934094  1
  Tm  Tm15  1  0.942988  0.942988  0.557012  1
  Cd  Cd16  1  0.579079  0.579079  0.583219  1
  Cd  Cd17  1  0.579079  0.579079  0.258624  1
  Cd  Cd18  1  0.579409  0.255565  0.582513  1
  Cd  Cd19  1  0.255565  0.579409  0.582513  1
  Ni  Ni20  1  0.141049  0.578470  0.140241  1
  Ni  Ni21  1  0.578470  0.141049  0.140241  1
  Os  Os22  1  0.142946  0.142946  0.140524  1
  Os  Os23  1  0.142946  0.142946  0.573586  1
