# generated using pymatgen
data_Ba3Se2(IO3)2
_symmetry_space_group_name_H-M   'P 1'
_cell_length_a   7.67405378
_cell_length_b   7.67405378
_cell_length_c   7.93060314
_cell_angle_alpha   86.14564356
_cell_angle_beta   86.14564586
_cell_angle_gamma   45.98487518
_symmetry_Int_Tables_number   1
_chemical_formula_structural   Ba3Se2(IO3)2
_chemical_formula_sum   'Ba3 Se2 I2 O6'
_cell_volume   334.97954272
_cell_formula_units_Z   1
loop_
 _symmetry_equiv_pos_site_id
 _symmetry_equiv_pos_as_xyz
  1  'x, y, z'
loop_
 _atom_site_type_symbol
 _atom_site_label
 _atom_site_symmetry_multiplicity
 _atom_site_fract_x
 _atom_site_fract_y
 _atom_site_fract_z
 _atom_site_occupancy
  Ba  Ba0  1  0.286895  0.292515  0.196184  1
  Ba  Ba1  1  0.707485  0.713105  0.803816  1
  Ba  Ba2  1  0.978393  0.021607  0.000000  1
  Se  Se3  1  0.399160  0.404706  0.770162  1
  Se  Se4  1  0.595294  0.600840  0.229838  1
  I  I5  1  0.145140  0.144001  0.601757  1
  I  I6  1  0.855999  0.854860  0.398243  1
  O  O7  1  0.866105  0.428639  0.106361  1
  O  O8  1  0.410200  0.869633  0.105771  1
  O  O9  1  0.130367  0.589800  0.894229  1
  O  O10  1  0.571361  0.133895  0.893639  1
  O  O11  1  0.496752  0.466151  0.191857  1
  O  O12  1  0.533849  0.503248  0.808143  1
