# generated using pymatgen
data_Tm3Lu(CrB4)4
_symmetry_space_group_name_H-M   'P 1'
_cell_length_a   3.40637800
_cell_length_b   5.89499411
_cell_length_c   11.38737020
_cell_angle_alpha   89.97832967
_cell_angle_beta   90.00000000
_cell_angle_gamma   90.00000000
_symmetry_Int_Tables_number   1
_chemical_formula_structural   Tm3Lu(CrB4)4
_chemical_formula_sum   'Tm3 Lu1 Cr4 B16'
_cell_volume   228.66496186
_cell_formula_units_Z   1
loop_
 _symmetry_equiv_pos_site_id
 _symmetry_equiv_pos_as_xyz
  1  'x, y, z'
loop_
 _atom_site_type_symbol
 _atom_site_label
 _atom_site_symmetry_multiplicity
 _atom_site_fract_x
 _atom_site_fract_y
 _atom_site_fract_z
 _atom_site_occupancy
  Tm  Tm0  1  0.000000  0.625284  0.349322  1
  Tm  Tm1  1  0.000000  0.374716  0.650785  1
  Tm  Tm2  1  0.000000  0.125276  0.150624  1
  Lu  Lu3  1  0.000000  0.874689  0.849406  1
  Cr  Cr4  1  0.000000  0.624947  0.080844  1
  Cr  Cr5  1  0.000000  0.375177  0.918792  1
  Cr  Cr6  1  0.000000  0.124846  0.418990  1
  Cr  Cr7  1  0.000000  0.875100  0.581358  1
  B  B8  1  0.500000  0.782867  0.184475  1
  B  B9  1  0.500000  0.216494  0.815484  1
  B  B10  1  0.500000  0.282883  0.315408  1
  B  B11  1  0.500000  0.717228  0.684962  1
  B  B12  1  0.500000  0.864097  0.031938  1
  B  B13  1  0.500000  0.135762  0.967462  1
  B  B14  1  0.500000  0.363935  0.467788  1
  B  B15  1  0.500000  0.636109  0.532397  1
  B  B16  1  0.500000  0.886146  0.452791  1
  B  B17  1  0.500000  0.113747  0.547418  1
  B  B18  1  0.500000  0.386245  0.047054  1
  B  B19  1  0.500000  0.614464  0.952380  1
  B  B20  1  0.500000  0.975714  0.307660  1
  B  B21  1  0.500000  0.023925  0.692793  1
  B  B22  1  0.500000  0.475707  0.192254  1
  B  B23  1  0.500000  0.524641  0.807617  1
