# generated using pymatgen
data_Tm5Fe12Co3(P3Ir)4
_symmetry_space_group_name_H-M   'P 1'
_cell_length_a   12.03482300
_cell_length_b   12.03482323
_cell_length_c   3.72726900
_cell_angle_alpha   90.00000000
_cell_angle_beta   90.00000000
_cell_angle_gamma   119.99999662
_symmetry_Int_Tables_number   1
_chemical_formula_structural   Tm5Fe12Co3(P3Ir)4
_chemical_formula_sum   'Tm5 Fe12 Co3 P12 Ir4'
_cell_volume   467.52065926
_cell_formula_units_Z   1
loop_
 _symmetry_equiv_pos_site_id
 _symmetry_equiv_pos_as_xyz
  1  'x, y, z'
loop_
 _atom_site_type_symbol
 _atom_site_label
 _atom_site_symmetry_multiplicity
 _atom_site_fract_x
 _atom_site_fract_y
 _atom_site_fract_z
 _atom_site_occupancy
  Tm  Tm0  1  0.333333  0.666667  0.500000  1
  Tm  Tm1  1  0.666667  0.333333  0.500000  1
  Tm  Tm2  1  0.188050  0.188480  0.000000  1
  Tm  Tm3  1  0.811520  0.999571  0.000000  1
  Tm  Tm4  1  0.000429  0.811950  0.000000  1
  Fe  Fe5  1  0.198682  0.819456  0.500000  1
  Fe  Fe6  1  0.180544  0.379226  0.500000  1
  Fe  Fe7  1  0.620774  0.801318  0.500000  1
  Fe  Fe8  1  0.122511  0.637123  0.000000  1
  Fe  Fe9  1  0.362877  0.485387  0.000000  1
  Fe  Fe10  1  0.514613  0.877489  0.000000  1
  Fe  Fe11  1  0.640399  0.124528  0.000000  1
  Fe  Fe12  1  0.484128  0.359601  0.000000  1
  Fe  Fe13  1  0.875472  0.515872  0.000000  1
  Fe  Fe14  1  0.714212  0.711999  0.000000  1
  Fe  Fe15  1  0.288001  0.002212  0.000000  1
  Fe  Fe16  1  0.997788  0.285788  0.000000  1
  Co  Co17  1  0.817379  0.194947  0.500000  1
  Co  Co18  1  0.377566  0.182621  0.500000  1
  Co  Co19  1  0.805053  0.622434  0.500000  1
  P  P20  1  0.307161  0.827629  0.000000  1
  P  P21  1  0.172371  0.479532  0.000000  1
  P  P22  1  0.520468  0.692839  0.000000  1
  P  P23  1  0.828396  0.310127  0.000000  1
  P  P24  1  0.481731  0.171604  0.000000  1
  P  P25  1  0.689873  0.518269  0.000000  1
  P  P26  1  0.362110  0.364963  0.500000  1
  P  P27  1  0.635037  0.997146  0.500000  1
  P  P28  1  0.002854  0.637890  0.500000  1
  P  P29  1  0.808682  0.810235  0.500000  1
  P  P30  1  0.189765  0.998447  0.500000  1
  P  P31  1  0.001553  0.191318  0.500000  1
  Ir  Ir32  1  0.554980  0.551326  0.500000  1
  Ir  Ir33  1  0.448674  0.003654  0.500000  1
  Ir  Ir34  1  0.996346  0.445020  0.500000  1
  Ir  Ir35  1  0.000000  0.000000  0.500000  1
