# generated using pymatgen
data_K2BaAs6(IrRu)3
_symmetry_space_group_name_H-M   'P 1'
_cell_length_a   9.20865292
_cell_length_b   9.20865341
_cell_length_c   7.13725624
_cell_angle_alpha   67.27085496
_cell_angle_beta   67.27085101
_cell_angle_gamma   36.81108166
_symmetry_Int_Tables_number   1
_chemical_formula_structural   K2BaAs6(IrRu)3
_chemical_formula_sum   'K2 Ba1 As6 Ir3 Ru3'
_cell_volume   331.21539315
_cell_formula_units_Z   1
loop_
 _symmetry_equiv_pos_site_id
 _symmetry_equiv_pos_as_xyz
  1  'x, y, z'
loop_
 _atom_site_type_symbol
 _atom_site_label
 _atom_site_symmetry_multiplicity
 _atom_site_fract_x
 _atom_site_fract_y
 _atom_site_fract_z
 _atom_site_occupancy
  K  K0  1  0.670770  0.670807  0.000414  1
  K  K1  1  0.329193  0.329230  0.999586  1
  Ba  Ba2  1  0.000063  0.999937  0.000000  1
  As  As3  1  0.882546  0.882596  0.704228  1
  As  As4  1  0.216232  0.216133  0.704336  1
  As  As5  1  0.549124  0.549187  0.705030  1
  As  As6  1  0.450813  0.450876  0.294970  1
  As  As7  1  0.783867  0.783768  0.295664  1
  As  As8  1  0.117404  0.117454  0.295772  1
  Ir  Ir9  1  0.750018  0.249982  0.500000  1
  Ir  Ir10  1  0.083575  0.583635  0.498656  1
  Ir  Ir11  1  0.416365  0.916425  0.501344  1
  Ru  Ru12  1  0.583789  0.083535  0.498581  1
  Ru  Ru13  1  0.916465  0.416211  0.501419  1
  Ru  Ru14  1  0.249776  0.750224  0.500000  1
