# generated using pymatgen
data_Ho12Tc2Ni3Bi
_symmetry_space_group_name_H-M   'P 1'
_cell_length_a   8.35581729
_cell_length_b   8.35604669
_cell_length_c   8.35581698
_cell_angle_alpha   111.01895317
_cell_angle_beta   111.81171122
_cell_angle_gamma   105.64930377
_symmetry_Int_Tables_number   1
_chemical_formula_structural   Ho12Tc2Ni3Bi
_chemical_formula_sum   'Ho12 Tc2 Ni3 Bi1'
_cell_volume   447.61141651
_cell_formula_units_Z   1
loop_
 _symmetry_equiv_pos_site_id
 _symmetry_equiv_pos_as_xyz
  1  'x, y, z'
loop_
 _atom_site_type_symbol
 _atom_site_label
 _atom_site_symmetry_multiplicity
 _atom_site_fract_x
 _atom_site_fract_y
 _atom_site_fract_z
 _atom_site_occupancy
  Ho  Ho0  1  0.271293  0.182566  0.453725  1
  Ho  Ho1  1  0.723786  0.821523  0.545117  1
  Ho  Ho2  1  0.276406  0.821523  0.097736  1
  Ho  Ho3  1  0.728841  0.182566  0.911274  1
  Ho  Ho4  1  0.622971  0.308932  0.302564  1
  Ho  Ho5  1  0.377162  0.679677  0.686079  1
  Ho  Ho6  1  0.006369  0.308932  0.685962  1
  Ho  Ho7  1  0.993597  0.679677  0.302515  1
  Ho  Ho8  1  0.223032  0.413232  0.190201  1
  Ho  Ho9  1  0.780238  0.583603  0.803364  1
  Ho  Ho10  1  0.219891  0.023256  0.803365  1
  Ho  Ho11  1  0.777200  0.967310  0.190110  1
  Tc  Tc12  1  0.000100  0.373795  0.373695  1
  Tc  Tc13  1  0.000159  0.000114  0.999955  1
  Ni  Ni14  1  0.999690  0.651098  0.651408  1
  Ni  Ni15  1  0.385116  0.886778  0.501662  1
  Ni  Ni16  1  0.614106  0.116894  0.502787  1
  Bi  Bi17  1  0.500042  0.498524  0.998482  1
