# generated using pymatgen
data_ScPa5I24
_symmetry_space_group_name_H-M   'P 1'
_cell_length_a   9.12876400
_cell_length_b   9.18272746
_cell_length_c   19.25771802
_cell_angle_alpha   77.48836438
_cell_angle_beta   90.00000000
_cell_angle_gamma   90.00000000
_symmetry_Int_Tables_number   1
_chemical_formula_structural   ScPa5I24
_chemical_formula_sum   'Sc1 Pa5 I24'
_cell_volume   1575.97908150
_cell_formula_units_Z   1
loop_
 _symmetry_equiv_pos_site_id
 _symmetry_equiv_pos_as_xyz
  1  'x, y, z'
loop_
 _atom_site_type_symbol
 _atom_site_label
 _atom_site_symmetry_multiplicity
 _atom_site_fract_x
 _atom_site_fract_y
 _atom_site_fract_z
 _atom_site_occupancy
  Sc  Sc0  1  0.388205  0.000000  0.250000  1
  Pa  Pa1  1  0.880126  0.825613  0.581973  1
  Pa  Pa2  1  0.121710  0.174319  0.414103  1
  Pa  Pa3  1  0.626844  0.000000  0.750000  1
  Pa  Pa4  1  0.880126  0.174387  0.918027  1
  Pa  Pa5  1  0.121710  0.825681  0.085897  1
  I  I6  1  0.109766  0.397344  0.907985  1
  I  I7  1  0.577457  0.770848  0.257818  1
  I  I8  1  0.120444  0.070263  0.578367  1
  I  I9  1  0.356482  0.377765  0.427702  1
  I  I10  1  0.127237  0.779281  0.244573  1
  I  I11  1  0.127237  0.220719  0.255427  1
  I  I12  1  0.120444  0.929737  0.921633  1
  I  I13  1  0.410995  0.236350  0.740966  1
  I  I14  1  0.892999  0.603733  0.092720  1
  I  I15  1  0.878092  0.230307  0.754027  1
  I  I16  1  0.410995  0.763650  0.759034  1
  I  I17  1  0.892999  0.396267  0.407280  1
  I  I18  1  0.577457  0.229152  0.242182  1
  I  I19  1  0.651721  0.077751  0.586621  1
  I  I20  1  0.343400  0.927282  0.407521  1
  I  I21  1  0.878092  0.769693  0.745973  1
  I  I22  1  0.109766  0.602656  0.592015  1
  I  I23  1  0.642832  0.379187  0.929052  1
  I  I24  1  0.343400  0.072718  0.092479  1
  I  I25  1  0.879214  0.069672  0.080812  1
  I  I26  1  0.642832  0.620813  0.570948  1
  I  I27  1  0.651721  0.922249  0.913379  1
  I  I28  1  0.356482  0.622235  0.072298  1
  I  I29  1  0.879214  0.930328  0.419188  1
