# generated using pymatgen
data_Yb3In4(PO4)6
_symmetry_space_group_name_H-M   'P 1'
_cell_length_a   6.66151112
_cell_length_b   9.13952901
_cell_length_c   9.22097700
_cell_angle_alpha   91.60848763
_cell_angle_beta   108.22695092
_cell_angle_gamma   106.89022179
_symmetry_Int_Tables_number   1
_chemical_formula_structural   Yb3In4(PO4)6
_chemical_formula_sum   'Yb3 In4 P6 O24'
_cell_volume   505.84266757
_cell_formula_units_Z   1
loop_
 _symmetry_equiv_pos_site_id
 _symmetry_equiv_pos_as_xyz
  1  'x, y, z'
loop_
 _atom_site_type_symbol
 _atom_site_label
 _atom_site_symmetry_multiplicity
 _atom_site_fract_x
 _atom_site_fract_y
 _atom_site_fract_z
 _atom_site_occupancy
  Yb  Yb0  1  0.265178  0.762416  0.242882  1
  Yb  Yb1  1  0.749853  0.237249  0.764890  1
  Yb  Yb2  1  0.032924  0.982149  0.981024  1
  In  In3  1  0.135279  0.871930  0.572458  1
  In  In4  1  0.367078  0.428538  0.126539  1
  In  In5  1  0.862068  0.128488  0.422647  1
  In  In6  1  0.631968  0.569624  0.875484  1
  P  P7  1  0.241817  0.213787  0.781246  1
  P  P8  1  0.757008  0.787402  0.215959  1
  P  P9  1  0.355021  0.145360  0.363872  1
  P  P10  1  0.128950  0.636265  0.853715  1
  P  P11  1  0.646152  0.853333  0.636344  1
  P  P12  1  0.871809  0.364226  0.144664  1
  O  O13  1  0.252262  0.046177  0.770639  1
  O  O14  1  0.213483  0.235391  0.942375  1
  O  O15  1  0.723594  0.945956  0.235674  1
  O  O16  1  0.786538  0.770964  0.054564  1
  O  O17  1  0.971483  0.768341  0.333117  1
  O  O18  1  0.547675  0.665685  0.230387  1
  O  O19  1  0.031298  0.235002  0.662383  1
  O  O20  1  0.455639  0.327820  0.766685  1
  O  O21  1  0.139269  0.686931  0.698794  1
  O  O22  1  0.350243  0.301612  0.309884  1
  O  O23  1  0.858847  0.315805  0.300421  1
  O  O24  1  0.653482  0.698003  0.693033  1
  O  O25  1  0.412234  0.837156  0.517508  1
  O  O26  1  0.098184  0.495928  0.169498  1
  O  O27  1  0.587373  0.159744  0.483891  1
  O  O28  1  0.903985  0.506545  0.832371  1
  O  O29  1  0.286425  0.019691  0.226510  1
  O  O30  1  0.159760  0.770141  0.972716  1
  O  O31  1  0.718062  0.979629  0.773186  1
  O  O32  1  0.842685  0.232762  0.026398  1
  O  O33  1  0.187259  0.095934  0.455947  1
  O  O34  1  0.317386  0.557700  0.914815  1
  O  O35  1  0.811400  0.901115  0.543114  1
  O  O36  1  0.682625  0.444101  0.083864  1
