# generated using pymatgen
data_TmPaAl16Pt9
_symmetry_space_group_name_H-M   'P 1'
_cell_length_a   11.12845567
_cell_length_b   11.12845535
_cell_length_c   11.12845550
_cell_angle_alpha   158.66763269
_cell_angle_beta   114.70716963
_cell_angle_gamma   69.54530426
_symmetry_Int_Tables_number   1
_chemical_formula_structural   TmPaAl16Pt9
_chemical_formula_sum   'Tm1 Pa1 Al16 Pt9'
_cell_volume   452.12601169
_cell_formula_units_Z   1
loop_
 _symmetry_equiv_pos_site_id
 _symmetry_equiv_pos_as_xyz
  1  'x, y, z'
loop_
 _atom_site_type_symbol
 _atom_site_label
 _atom_site_symmetry_multiplicity
 _atom_site_fract_x
 _atom_site_fract_y
 _atom_site_fract_z
 _atom_site_occupancy
  Tm  Tm0  1  0.772743  0.772743  0.000000  1
  Pa  Pa1  1  0.227181  0.227181  0.000000  1
  Al  Al2  1  0.270801  0.390619  0.880182  1
  Al  Al3  1  0.090622  0.920111  0.170511  1
  Al  Al4  1  0.512987  0.203659  0.309329  1
  Al  Al5  1  0.251522  0.079466  0.172057  1
  Al  Al6  1  0.911382  0.411382  0.500000  1
  Al  Al7  1  0.730757  0.610033  0.120724  1
  Al  Al8  1  0.894330  0.203659  0.690671  1
  Al  Al9  1  0.489790  0.796883  0.692906  1
  Al  Al10  1  0.387546  0.000042  0.387504  1
  Al  Al11  1  0.612538  0.000042  0.612496  1
  Al  Al12  1  0.489309  0.610033  0.879276  1
  Al  Al13  1  0.103977  0.796883  0.307094  1
  Al  Al14  1  0.907410  0.079466  0.827943  1
  Al  Al15  1  0.749601  0.920111  0.829489  1
  Al  Al16  1  0.510437  0.390619  0.119818  1
  Al  Al17  1  0.086299  0.586299  0.500000  1
  Pt  Pt18  1  0.747414  0.500378  0.247036  1
  Pt  Pt19  1  0.021640  0.338805  0.682835  1
  Pt  Pt20  1  0.627210  0.127210  0.500000  1
  Pt  Pt21  1  0.253341  0.500378  0.752964  1
  Pt  Pt22  1  0.371488  0.871488  0.500000  1
  Pt  Pt23  1  0.000320  0.000320  0.000000  1
  Pt  Pt24  1  0.655970  0.338805  0.317165  1
  Pt  Pt25  1  0.341370  0.661693  0.679677  1
  Pt  Pt26  1  0.982016  0.661693  0.320323  1
