# generated using pymatgen
data_Na3YH12(PtRh)2
_symmetry_space_group_name_H-M   'P 1'
_cell_length_a   5.09383210
_cell_length_b   5.09468999
_cell_length_c   7.33663684
_cell_angle_alpha   90.00931796
_cell_angle_beta   90.00345986
_cell_angle_gamma   89.99529161
_symmetry_Int_Tables_number   1
_chemical_formula_structural   Na3YH12(PtRh)2
_chemical_formula_sum   'Na3 Y1 H12 Pt2 Rh2'
_cell_volume   190.39669410
_cell_formula_units_Z   1
loop_
 _symmetry_equiv_pos_site_id
 _symmetry_equiv_pos_as_xyz
  1  'x, y, z'
loop_
 _atom_site_type_symbol
 _atom_site_label
 _atom_site_symmetry_multiplicity
 _atom_site_fract_x
 _atom_site_fract_y
 _atom_site_fract_z
 _atom_site_occupancy
  Na  Na0  1  0.949970  0.550142  0.249982  1
  Na  Na1  1  0.449974  0.049948  0.250008  1
  Na  Na2  1  0.450021  0.049931  0.749958  1
  Y  Y3  1  0.950026  0.550019  0.750044  1
  H  H4  1  0.198305  0.796313  0.998865  1
  H  H5  1  0.201420  0.300998  0.999102  1
  H  H6  1  0.450541  0.550119  0.245433  1
  H  H7  1  0.949325  0.050073  0.254572  1
  H  H8  1  0.194157  0.303331  0.500825  1
  H  H9  1  0.200598  0.802468  0.501233  1
  H  H10  1  0.699093  0.296892  0.501540  1
  H  H11  1  0.705774  0.796133  0.501929  1
  H  H12  1  0.950758  0.050254  0.748377  1
  H  H13  1  0.449352  0.549479  0.751619  1
  H  H14  1  0.698660  0.799555  0.998101  1
  H  H15  1  0.702012  0.304351  0.998349  1
  Pt  Pt16  1  0.950078  0.050223  0.002592  1
  Pt  Pt17  1  0.449929  0.549757  0.497397  1
  Rh  Rh18  1  0.450067  0.550209  0.995002  1
  Rh  Rh19  1  0.949928  0.049812  0.505066  1
