# generated using pymatgen
data_Tm24CuRu13
_symmetry_space_group_name_H-M   'P 1'
_cell_length_a   11.14331417
_cell_length_b   8.26277851
_cell_length_c   11.09947321
_cell_angle_alpha   56.64953181
_cell_angle_beta   89.95682720
_cell_angle_gamma   89.85508238
_symmetry_Int_Tables_number   1
_chemical_formula_structural   Tm24CuRu13
_chemical_formula_sum   'Tm24 Cu1 Ru13'
_cell_volume   853.68176670
_cell_formula_units_Z   1
loop_
 _symmetry_equiv_pos_site_id
 _symmetry_equiv_pos_as_xyz
  1  'x, y, z'
loop_
 _atom_site_type_symbol
 _atom_site_label
 _atom_site_symmetry_multiplicity
 _atom_site_fract_x
 _atom_site_fract_y
 _atom_site_fract_z
 _atom_site_occupancy
  Tm  Tm0  1  0.846483  0.508621  0.654524  1
  Tm  Tm1  1  0.496417  0.848483  0.862076  1
  Tm  Tm2  1  0.654721  0.507833  0.156510  1
  Tm  Tm3  1  0.801926  0.760299  0.823933  1
  Tm  Tm4  1  0.569141  0.777979  0.589896  1
  Tm  Tm5  1  0.925888  0.279887  0.292397  1
  Tm  Tm6  1  0.576937  0.280500  0.793855  1
  Tm  Tm7  1  0.293823  0.758620  0.468009  1
  Tm  Tm8  1  0.301336  0.246679  0.664801  1
  Tm  Tm9  1  0.422566  0.717197  0.210011  1
  Tm  Tm10  1  0.432808  0.220947  0.408614  1
  Tm  Tm11  1  0.508906  0.149092  0.141269  1
  Tm  Tm12  1  0.346282  0.505870  0.839181  1
  Tm  Tm13  1  0.006193  0.850752  0.360743  1
  Tm  Tm14  1  0.073997  0.719678  0.707953  1
  Tm  Tm15  1  0.928363  0.776401  0.090548  1
  Tm  Tm16  1  0.201282  0.750470  0.971871  1
  Tm  Tm17  1  0.795235  0.244676  0.030963  1
  Tm  Tm18  1  0.706034  0.243567  0.531144  1
  Tm  Tm19  1  0.994088  0.148149  0.638836  1
  Tm  Tm20  1  0.696687  0.758016  0.325458  1
  Tm  Tm21  1  0.199922  0.237859  0.176183  1
  Tm  Tm22  1  0.152764  0.492213  0.343177  1
  Tm  Tm23  1  0.068659  0.219725  0.910882  1
  Cu  Cu24  1  0.345869  0.086861  0.961738  1
  Ru  Ru25  1  0.498864  0.496567  0.502748  1
  Ru  Ru26  1  0.185094  0.897567  0.151297  1
  Ru  Ru27  1  0.855987  0.923513  0.535926  1
  Ru  Ru28  1  0.397423  0.487268  0.100841  1
  Ru  Ru29  1  0.106254  0.479796  0.607322  1
  Ru  Ru30  1  0.648277  0.918511  0.037248  1
  Ru  Ru31  1  0.600795  0.513857  0.896441  1
  Ru  Ru32  1  0.000198  0.498156  0.000876  1
  Ru  Ru33  1  0.681470  0.098354  0.348643  1
  Ru  Ru34  1  0.144714  0.073756  0.464390  1
  Ru  Ru35  1  0.318618  0.904051  0.654642  1
  Ru  Ru36  1  0.897173  0.515480  0.397149  1
  Ru  Ru37  1  0.818805  0.102746  0.847906  1
