# generated using pymatgen
data_Ho4Al22Ga2Pd9
_symmetry_space_group_name_H-M   'P 1'
_cell_length_a   7.50888461
_cell_length_b   7.51563735
_cell_length_c   13.18503100
_cell_angle_alpha   84.59107857
_cell_angle_beta   100.82609638
_cell_angle_gamma   119.82970519
_symmetry_Int_Tables_number   1
_chemical_formula_structural   Ho4Al22Ga2Pd9
_chemical_formula_sum   'Ho4 Al22 Ga2 Pd9'
_cell_volume   634.01020601
_cell_formula_units_Z   1
loop_
 _symmetry_equiv_pos_site_id
 _symmetry_equiv_pos_as_xyz
  1  'x, y, z'
loop_
 _atom_site_type_symbol
 _atom_site_label
 _atom_site_symmetry_multiplicity
 _atom_site_fract_x
 _atom_site_fract_y
 _atom_site_fract_z
 _atom_site_occupancy
  Ho  Ho0  1  0.734590  0.998532  0.191794  1
  Ho  Ho1  1  0.265410  0.001468  0.808206  1
  Ho  Ho2  1  0.061806  0.670747  0.191907  1
  Ho  Ho3  1  0.938194  0.329253  0.808093  1
  Al  Al4  1  0.981596  0.665995  0.944815  1
  Al  Al5  1  0.018404  0.334005  0.055185  1
  Al  Al6  1  0.397512  0.665687  0.816173  1
  Al  Al7  1  0.602488  0.334313  0.183827  1
  Al  Al8  1  0.881795  0.664810  0.669869  1
  Al  Al9  1  0.118205  0.335190  0.330131  1
  Al  Al10  1  0.604537  0.457476  0.815920  1
  Al  Al11  1  0.395463  0.542524  0.184080  1
  Al  Al12  1  0.231450  0.340867  0.669414  1
  Al  Al13  1  0.768550  0.659133  0.330586  1
  Al  Al14  1  0.853610  0.333410  0.558747  1
  Al  Al15  1  0.185929  0.999379  0.559057  1
  Al  Al16  1  0.814071  0.000621  0.440943  1
  Al  Al17  1  0.352496  0.999627  0.055296  1
  Al  Al18  1  0.647504  0.000373  0.944704  1
  Al  Al19  1  0.555650  0.993453  0.670109  1
  Al  Al20  1  0.444350  0.006547  0.329891  1
  Al  Al21  1  0.520806  0.667700  0.560993  1
  Al  Al22  1  0.479194  0.332300  0.439007  1
  Al  Al23  1  0.683073  0.667146  0.047970  1
  Al  Al24  1  0.316927  0.332854  0.952030  1
  Al  Al25  1  0.146390  0.666590  0.441253  1
  Ga  Ga26  1  0.803867  0.865236  0.815111  1
  Ga  Ga27  1  0.196133  0.134764  0.184889  1
  Pd  Pd28  1  0.328862  0.671090  0.000027  1
  Pd  Pd29  1  0.547060  0.325728  0.637753  1
  Pd  Pd30  1  0.452940  0.674272  0.362247  1
  Pd  Pd31  1  0.887244  0.007908  0.636910  1
  Pd  Pd32  1  0.112756  0.992092  0.363090  1
  Pd  Pd33  1  0.671138  0.328910  0.999973  1
  Pd  Pd34  1  0.205191  0.667189  0.638480  1
  Pd  Pd35  1  0.794809  0.332811  0.361520  1
  Pd  Pd36  1  0.000000  0.000000  0.000000  1
