# generated using pymatgen
data_Ho20CdIn5Ru2
_symmetry_space_group_name_H-M   'P 1'
_cell_length_a   9.66835503
_cell_length_b   9.73758347
_cell_length_c   9.63877000
_cell_angle_alpha   90.00000000
_cell_angle_beta   90.00000000
_cell_angle_gamma   120.23714600
_symmetry_Int_Tables_number   1
_chemical_formula_structural   Ho20CdIn5Ru2
_chemical_formula_sum   'Ho20 Cd1 In5 Ru2'
_cell_volume   783.99493497
_cell_formula_units_Z   1
loop_
 _symmetry_equiv_pos_site_id
 _symmetry_equiv_pos_as_xyz
  1  'x, y, z'
loop_
 _atom_site_type_symbol
 _atom_site_label
 _atom_site_symmetry_multiplicity
 _atom_site_fract_x
 _atom_site_fract_y
 _atom_site_fract_z
 _atom_site_occupancy
  Ho  Ho0  1  0.996315  0.998158  0.502115  1
  Ho  Ho1  1  0.996315  0.998158  0.997885  1
  Ho  Ho2  1  0.210737  0.790181  0.440443  1
  Ho  Ho3  1  0.210737  0.420557  0.440443  1
  Ho  Ho4  1  0.578851  0.789426  0.437758  1
  Ho  Ho5  1  0.789856  0.211488  0.559608  1
  Ho  Ho6  1  0.789856  0.578367  0.559608  1
  Ho  Ho7  1  0.420183  0.210091  0.561649  1
  Ho  Ho8  1  0.789856  0.211488  0.940392  1
  Ho  Ho9  1  0.789856  0.578367  0.940392  1
  Ho  Ho10  1  0.420183  0.210091  0.938351  1
  Ho  Ho11  1  0.210737  0.790181  0.059557  1
  Ho  Ho12  1  0.210737  0.420557  0.059557  1
  Ho  Ho13  1  0.578851  0.789426  0.062242  1
  Ho  Ho14  1  0.541372  0.459997  0.250000  1
  Ho  Ho15  1  0.541372  0.081376  0.250000  1
  Ho  Ho16  1  0.922692  0.461346  0.250000  1
  Ho  Ho17  1  0.461637  0.542373  0.750000  1
  Ho  Ho18  1  0.461637  0.919263  0.750000  1
  Ho  Ho19  1  0.081782  0.540890  0.750000  1
  Cd  Cd20  1  0.766459  0.883229  0.750000  1
  In  In21  1  0.884791  0.118385  0.250000  1
  In  In22  1  0.884791  0.766406  0.250000  1
  In  In23  1  0.231072  0.115537  0.250000  1
  In  In24  1  0.115504  0.881549  0.750000  1
  In  In25  1  0.115504  0.233954  0.750000  1
  Ru  Ru26  1  0.330493  0.665247  0.250000  1
  Ru  Ru27  1  0.667825  0.333913  0.750000  1
