# generated using pymatgen
data_Zr6Nb4Si6C
_symmetry_space_group_name_H-M   'P 1'
_cell_length_a   7.85563200
_cell_length_b   7.85563211
_cell_length_c   5.42354300
_cell_angle_alpha   90.00000000
_cell_angle_beta   90.00000000
_cell_angle_gamma   119.99999954
_symmetry_Int_Tables_number   1
_chemical_formula_structural   Zr6Nb4Si6C
_chemical_formula_sum   'Zr6 Nb4 Si6 C1'
_cell_volume   289.85179124
_cell_formula_units_Z   1
loop_
 _symmetry_equiv_pos_site_id
 _symmetry_equiv_pos_as_xyz
  1  'x, y, z'
loop_
 _atom_site_type_symbol
 _atom_site_label
 _atom_site_symmetry_multiplicity
 _atom_site_fract_x
 _atom_site_fract_y
 _atom_site_fract_z
 _atom_site_occupancy
  Zr  Zr0  1  0.000000  0.755829  0.254824  1
  Zr  Zr1  1  0.244171  0.244171  0.254824  1
  Zr  Zr2  1  0.755829  0.000000  0.254824  1
  Zr  Zr3  1  0.000000  0.244171  0.745176  1
  Zr  Zr4  1  0.755829  0.755829  0.745176  1
  Zr  Zr5  1  0.244171  0.000000  0.745176  1
  Nb  Nb6  1  0.333333  0.666667  0.000000  1
  Nb  Nb7  1  0.666667  0.333333  0.000000  1
  Nb  Nb8  1  0.666667  0.333333  0.500000  1
  Nb  Nb9  1  0.333333  0.666667  0.500000  1
  Si  Si10  1  0.000000  0.401202  0.244388  1
  Si  Si11  1  0.598798  0.598798  0.244388  1
  Si  Si12  1  0.401202  0.000000  0.244388  1
  Si  Si13  1  0.000000  0.598798  0.755612  1
  Si  Si14  1  0.401202  0.401202  0.755612  1
  Si  Si15  1  0.598798  0.000000  0.755612  1
  C  C16  1  0.000000  0.000000  0.500000  1
