# generated using pymatgen
data_Dy2Pa(Ga2Ni3)3
_symmetry_space_group_name_H-M   'P 1'
_cell_length_a   4.13912000
_cell_length_b   8.70270513
_cell_length_c   8.70270501
_cell_angle_alpha   59.99336745
_cell_angle_beta   90.00000000
_cell_angle_gamma   90.00000000
_symmetry_Int_Tables_number   1
_chemical_formula_structural   Dy2Pa(Ga2Ni3)3
_chemical_formula_sum   'Dy2 Pa1 Ga6 Ni9'
_cell_volume   271.46769254
_cell_formula_units_Z   1
loop_
 _symmetry_equiv_pos_site_id
 _symmetry_equiv_pos_as_xyz
  1  'x, y, z'
loop_
 _atom_site_type_symbol
 _atom_site_label
 _atom_site_symmetry_multiplicity
 _atom_site_fract_x
 _atom_site_fract_y
 _atom_site_fract_z
 _atom_site_occupancy
  Dy  Dy0  1  0.500000  0.333286  0.333359  1
  Dy  Dy1  1  0.500000  0.666641  0.666714  1
  Pa  Pa2  1  0.000000  0.999832  0.000168  1
  Ga  Ga3  1  0.000000  0.517239  0.482761  1
  Ga  Ga4  1  0.000000  0.482730  0.999983  1
  Ga  Ga5  1  0.000000  0.000017  0.517270  1
  Ga  Ga6  1  0.500000  0.275540  0.724460  1
  Ga  Ga7  1  0.500000  0.724386  0.999954  1
  Ga  Ga8  1  0.500000  0.000046  0.275614  1
  Ni  Ni9  1  0.000000  0.172179  0.193946  1
  Ni  Ni10  1  0.000000  0.193863  0.633920  1
  Ni  Ni11  1  0.000000  0.633806  0.172080  1
  Ni  Ni12  1  0.000000  0.806054  0.827821  1
  Ni  Ni13  1  0.000000  0.366080  0.806137  1
  Ni  Ni14  1  0.000000  0.827920  0.366194  1
  Ni  Ni15  1  0.500000  0.707061  0.292939  1
  Ni  Ni16  1  0.500000  0.293189  0.999969  1
  Ni  Ni17  1  0.500000  0.000031  0.706811  1
