# generated using pymatgen
data_TbYEr2Ni13C4
_symmetry_space_group_name_H-M   'P 1'
_cell_length_a   8.38039800
_cell_length_b   8.38039801
_cell_length_c   3.85155200
_cell_angle_alpha   90.00000000
_cell_angle_beta   90.00000000
_cell_angle_gamma   91.04446664
_symmetry_Int_Tables_number   1
_chemical_formula_structural   TbYEr2Ni13C4
_chemical_formula_sum   'Tb1 Y1 Er2 Ni13 C4'
_cell_volume   270.45367750
_cell_formula_units_Z   1
loop_
 _symmetry_equiv_pos_site_id
 _symmetry_equiv_pos_as_xyz
  1  'x, y, z'
loop_
 _atom_site_type_symbol
 _atom_site_label
 _atom_site_symmetry_multiplicity
 _atom_site_fract_x
 _atom_site_fract_y
 _atom_site_fract_z
 _atom_site_occupancy
  Tb  Tb0  1  0.348287  0.348287  0.500000  1
  Y  Y1  1  0.651031  0.651031  0.500000  1
  Er  Er2  1  0.186695  0.813180  0.500000  1
  Er  Er3  1  0.813180  0.186695  0.500000  1
  Ni  Ni4  1  0.499787  0.999909  0.500000  1
  Ni  Ni5  1  0.999909  0.499787  0.500000  1
  Ni  Ni6  1  0.000034  0.000034  0.000000  1
  Ni  Ni7  1  0.429135  0.785066  0.000000  1
  Ni  Ni8  1  0.570609  0.215234  0.000000  1
  Ni  Ni9  1  0.785066  0.429135  0.000000  1
  Ni  Ni10  1  0.215234  0.570609  0.000000  1
  Ni  Ni11  1  0.709501  0.927411  0.000000  1
  Ni  Ni12  1  0.290564  0.072611  0.000000  1
  Ni  Ni13  1  0.927411  0.709501  0.000000  1
  Ni  Ni14  1  0.072611  0.290564  0.000000  1
  Ni  Ni15  1  0.877352  0.877352  0.500000  1
  Ni  Ni16  1  0.122768  0.122768  0.500000  1
  C  C17  1  0.000086  0.500104  0.000000  1
  C  C18  1  0.500104  0.000086  0.000000  1
  C  C19  1  0.557428  0.443208  0.000000  1
  C  C20  1  0.443208  0.557428  0.000000  1
