# generated using pymatgen
data_Tm16Sc4Bi11Sb
_symmetry_space_group_name_H-M   'P 1'
_cell_length_a   8.03743847
_cell_length_b   9.34177400
_cell_length_c   11.79960538
_cell_angle_alpha   90.00000000
_cell_angle_beta   89.99494679
_cell_angle_gamma   90.00000000
_symmetry_Int_Tables_number   1
_chemical_formula_structural   Tm16Sc4Bi11Sb
_chemical_formula_sum   'Tm16 Sc4 Bi11 Sb1'
_cell_volume   885.96078406
_cell_formula_units_Z   1
loop_
 _symmetry_equiv_pos_site_id
 _symmetry_equiv_pos_as_xyz
  1  'x, y, z'
loop_
 _atom_site_type_symbol
 _atom_site_label
 _atom_site_symmetry_multiplicity
 _atom_site_fract_x
 _atom_site_fract_y
 _atom_site_fract_z
 _atom_site_occupancy
  Tm  Tm0  1  0.355260  0.250000  0.286564  1
  Tm  Tm1  1  0.645669  0.750000  0.716670  1
  Tm  Tm2  1  0.145655  0.750000  0.782566  1
  Tm  Tm3  1  0.854619  0.250000  0.216953  1
  Tm  Tm4  1  0.188613  0.250000  0.778930  1
  Tm  Tm5  1  0.813293  0.750000  0.218958  1
  Tm  Tm6  1  0.313312  0.750000  0.281404  1
  Tm  Tm7  1  0.681701  0.250000  0.715929  1
  Tm  Tm8  1  0.196529  0.066417  0.059485  1
  Tm  Tm9  1  0.803401  0.933991  0.940839  1
  Tm  Tm10  1  0.305065  0.937615  0.558694  1
  Tm  Tm11  1  0.803401  0.566009  0.940839  1
  Tm  Tm12  1  0.693453  0.068022  0.442559  1
  Tm  Tm13  1  0.196529  0.433583  0.059485  1
  Tm  Tm14  1  0.693453  0.431978  0.442559  1
  Tm  Tm15  1  0.305065  0.562385  0.558694  1
  Sc  Sc16  1  0.028150  0.250000  0.512053  1
  Sc  Sc17  1  0.977047  0.750000  0.488416  1
  Sc  Sc18  1  0.475427  0.750000  0.012054  1
  Sc  Sc19  1  0.524882  0.250000  0.987826  1
  Bi  Bi20  1  0.598939  0.750000  0.457529  1
  Bi  Bi21  1  0.098259  0.750000  0.042482  1
  Bi  Bi22  1  0.902655  0.250000  0.956509  1
  Bi  Bi23  1  0.064907  0.003440  0.329388  1
  Bi  Bi24  1  0.934131  0.996977  0.670797  1
  Bi  Bi25  1  0.434390  0.996010  0.829325  1
  Bi  Bi26  1  0.934131  0.503023  0.670797  1
  Bi  Bi27  1  0.565596  0.004050  0.170835  1
  Bi  Bi28  1  0.064907  0.496560  0.329388  1
  Bi  Bi29  1  0.565596  0.495950  0.170835  1
  Bi  Bi30  1  0.434390  0.503990  0.829325  1
  Sb  Sb31  1  0.401577  0.250000  0.541311  1
