# generated using pymatgen
data_EuMnFeC2
_symmetry_space_group_name_H-M   'P 1'
_cell_length_a   5.70449119
_cell_length_b   5.70449105
_cell_length_c   5.70449272
_cell_angle_alpha   144.19300334
_cell_angle_beta   144.19301811
_cell_angle_gamma   51.53877252
_symmetry_Int_Tables_number   1
_chemical_formula_structural   EuMnFeC2
_chemical_formula_sum   'Eu1 Mn1 Fe1 C2'
_cell_volume   63.19291450
_cell_formula_units_Z   1
loop_
 _symmetry_equiv_pos_site_id
 _symmetry_equiv_pos_as_xyz
  1  'x, y, z'
loop_
 _atom_site_type_symbol
 _atom_site_label
 _atom_site_symmetry_multiplicity
 _atom_site_fract_x
 _atom_site_fract_y
 _atom_site_fract_z
 _atom_site_occupancy
  Eu  Eu0  1  0.000000  0.000000  0.000000  1
  Mn  Mn1  1  0.750000  0.250000  0.500000  1
  Fe  Fe2  1  0.250000  0.750000  0.500000  1
  C  C3  1  0.670460  0.670460  0.000000  1
  C  C4  1  0.329540  0.329540  0.000000  1
