# generated using pymatgen
data_KCePrSe6
_symmetry_space_group_name_H-M   'P 1'
_cell_length_a   11.61566916
_cell_length_b   11.61566885
_cell_length_c   11.61566914
_cell_angle_alpha   158.73316260
_cell_angle_beta   151.55561678
_cell_angle_gamma   35.78850034
_symmetry_Int_Tables_number   1
_chemical_formula_structural   KCePrSe6
_chemical_formula_sum   'K1 Ce1 Pr1 Se6'
_cell_volume   270.45052238
_cell_formula_units_Z   1
loop_
 _symmetry_equiv_pos_site_id
 _symmetry_equiv_pos_as_xyz
  1  'x, y, z'
loop_
 _atom_site_type_symbol
 _atom_site_label
 _atom_site_symmetry_multiplicity
 _atom_site_fract_x
 _atom_site_fract_y
 _atom_site_fract_z
 _atom_site_occupancy
  K  K0  1  0.997380  0.997380  0.000000  1
  Ce  Ce1  1  0.685561  0.185561  0.500000  1
  Pr  Pr2  1  0.317032  0.817032  0.500000  1
  Se  Se3  1  0.186355  0.398917  0.787438  1
  Se  Se4  1  0.219315  0.219315  0.000000  1
  Se  Se5  1  0.396843  0.605438  0.791405  1
  Se  Se6  1  0.611480  0.398917  0.212562  1
  Se  Se7  1  0.814034  0.605438  0.208595  1
  Se  Se8  1  0.771999  0.771999  0.000000  1
