# generated using pymatgen
data_Ho11Th3Au20
_symmetry_space_group_name_H-M   'P 1'
_cell_length_a   8.78084495
_cell_length_b   8.78084418
_cell_length_c   10.39340058
_cell_angle_alpha   89.85217611
_cell_angle_beta   89.85217685
_cell_angle_gamma   107.21724451
_symmetry_Int_Tables_number   1
_chemical_formula_structural   Ho11Th3Au20
_chemical_formula_sum   'Ho11 Th3 Au20'
_cell_volume   765.44782905
_cell_formula_units_Z   1
loop_
 _symmetry_equiv_pos_site_id
 _symmetry_equiv_pos_as_xyz
  1  'x, y, z'
loop_
 _atom_site_type_symbol
 _atom_site_label
 _atom_site_symmetry_multiplicity
 _atom_site_fract_x
 _atom_site_fract_y
 _atom_site_fract_z
 _atom_site_occupancy
  Ho  Ho0  1  0.692053  0.306330  0.000467  1
  Ho  Ho1  1  0.306330  0.692053  0.000467  1
  Ho  Ho2  1  0.805226  0.194510  0.499767  1
  Ho  Ho3  1  0.194510  0.805226  0.499767  1
  Ho  Ho4  1  0.003032  0.003032  0.001397  1
  Ho  Ho5  1  0.498306  0.498306  0.497068  1
  Ho  Ho6  1  0.003139  0.498375  0.250057  1
  Ho  Ho7  1  0.998211  0.499318  0.750675  1
  Ho  Ho8  1  0.499318  0.998211  0.750675  1
  Ho  Ho9  1  0.498375  0.003139  0.250057  1
  Ho  Ho10  1  0.310960  0.310960  0.188887  1
  Th  Th11  1  0.690667  0.690667  0.809830  1
  Th  Th12  1  0.190971  0.190971  0.690166  1
  Th  Th13  1  0.809348  0.809348  0.309239  1
  Au  Au14  1  0.857147  0.150193  0.208027  1
  Au  Au15  1  0.141392  0.849352  0.792652  1
  Au  Au16  1  0.640483  0.348953  0.707494  1
  Au  Au17  1  0.649254  0.359099  0.290911  1
  Au  Au18  1  0.359099  0.649254  0.290911  1
  Au  Au19  1  0.348953  0.640483  0.707494  1
  Au  Au20  1  0.849352  0.141392  0.792652  1
  Au  Au21  1  0.150193  0.857147  0.208027  1
  Au  Au22  1  0.939143  0.645849  0.005243  1
  Au  Au23  1  0.062819  0.354442  0.996757  1
  Au  Au24  1  0.560559  0.854209  0.503664  1
  Au  Au25  1  0.145077  0.439429  0.496498  1
  Au  Au26  1  0.439429  0.145077  0.496498  1
  Au  Au27  1  0.854209  0.560559  0.503664  1
  Au  Au28  1  0.354442  0.062819  0.996757  1
  Au  Au29  1  0.645849  0.939143  0.005243  1
  Au  Au30  1  0.103663  0.103663  0.396796  1
  Au  Au31  1  0.900223  0.900223  0.599476  1
  Au  Au32  1  0.398884  0.398884  0.901674  1
  Au  Au33  1  0.599386  0.599386  0.101039  1
