# generated using pymatgen
data_Y3Er5Lu2(Si5Ir2)4
_symmetry_space_group_name_H-M   'P 1'
_cell_length_a   12.60960139
_cell_length_b   12.60960120
_cell_length_c   4.23870700
_cell_angle_alpha   90.00000000
_cell_angle_beta   90.00000000
_cell_angle_gamma   89.99522899
_symmetry_Int_Tables_number   1
_chemical_formula_structural   Y3Er5Lu2(Si5Ir2)4
_chemical_formula_sum   'Y3 Er5 Lu2 Si20 Ir8'
_cell_volume   673.96307831
_cell_formula_units_Z   1
loop_
 _symmetry_equiv_pos_site_id
 _symmetry_equiv_pos_as_xyz
  1  'x, y, z'
loop_
 _atom_site_type_symbol
 _atom_site_label
 _atom_site_symmetry_multiplicity
 _atom_site_fract_x
 _atom_site_fract_y
 _atom_site_fract_z
 _atom_site_occupancy
  Y  Y0  1  0.116039  0.616039  0.500000  1
  Y  Y1  1  0.383447  0.116481  0.500000  1
  Y  Y2  1  0.616481  0.883447  0.500000  1
  Er  Er3  1  0.500307  0.499888  0.000000  1
  Er  Er4  1  0.999888  0.000307  0.000000  1
  Er  Er5  1  0.676512  0.176512  0.500000  1
  Er  Er6  1  0.323452  0.823452  0.500000  1
  Er  Er7  1  0.883410  0.383410  0.500000  1
  Lu  Lu8  1  0.175683  0.324144  0.500000  1
  Lu  Lu9  1  0.824144  0.675683  0.500000  1
  Si  Si10  1  0.566149  0.066149  0.000000  1
  Si  Si11  1  0.433798  0.933798  0.000000  1
  Si  Si12  1  0.066216  0.433944  0.000000  1
  Si  Si13  1  0.933944  0.566216  0.000000  1
  Si  Si14  1  0.663612  0.700670  0.000000  1
  Si  Si15  1  0.336504  0.298908  0.000000  1
  Si  Si16  1  0.162300  0.798660  0.000000  1
  Si  Si17  1  0.837416  0.201568  0.000000  1
  Si  Si18  1  0.298660  0.662300  0.000000  1
  Si  Si19  1  0.701568  0.337416  0.000000  1
  Si  Si20  1  0.200670  0.163612  0.000000  1
  Si  Si21  1  0.798908  0.836504  0.000000  1
  Si  Si22  1  0.656389  0.503218  0.500000  1
  Si  Si23  1  0.344302  0.496239  0.500000  1
  Si  Si24  1  0.155722  0.997246  0.500000  1
  Si  Si25  1  0.844260  0.003405  0.500000  1
  Si  Si26  1  0.497246  0.655722  0.500000  1
  Si  Si27  1  0.503405  0.344260  0.500000  1
  Si  Si28  1  0.003218  0.156389  0.500000  1
  Si  Si29  1  0.996239  0.844302  0.500000  1
  Ir  Ir30  1  0.746460  0.522206  0.000000  1
  Ir  Ir31  1  0.254472  0.476995  0.000000  1
  Ir  Ir32  1  0.244713  0.978219  0.000000  1
  Ir  Ir33  1  0.755191  0.021854  0.000000  1
  Ir  Ir34  1  0.478219  0.744713  0.000000  1
  Ir  Ir35  1  0.521854  0.255191  0.000000  1
  Ir  Ir36  1  0.022206  0.246460  0.000000  1
  Ir  Ir37  1  0.976995  0.754472  0.000000  1
