# generated using pymatgen
data_Nd3Dy2ErCoBr10
_symmetry_space_group_name_H-M   'P 1'
_cell_length_a   7.45092913
_cell_length_b   9.39184463
_cell_length_c   9.36009033
_cell_angle_alpha   106.81498993
_cell_angle_beta   94.87774389
_cell_angle_gamma   105.06401477
_symmetry_Int_Tables_number   1
_chemical_formula_structural   Nd3Dy2ErCoBr10
_chemical_formula_sum   'Nd3 Dy2 Er1 Co1 Br10'
_cell_volume   596.28503461
_cell_formula_units_Z   1
loop_
 _symmetry_equiv_pos_site_id
 _symmetry_equiv_pos_as_xyz
  1  'x, y, z'
loop_
 _atom_site_type_symbol
 _atom_site_label
 _atom_site_symmetry_multiplicity
 _atom_site_fract_x
 _atom_site_fract_y
 _atom_site_fract_z
 _atom_site_occupancy
  Nd  Nd0  1  0.536144  0.202019  0.406225  1
  Nd  Nd1  1  0.373416  0.448577  0.736578  1
  Nd  Nd2  1  0.630264  0.550604  0.264421  1
  Dy  Dy3  1  0.846663  0.628084  0.669195  1
  Dy  Dy4  1  0.153824  0.377770  0.331895  1
  Er  Er5  1  0.463205  0.784773  0.588980  1
  Co  Co6  1  0.501152  0.499256  0.500237  1
  Br  Br7  1  0.410136  0.118716  0.672581  1
  Br  Br8  1  0.584129  0.868719  0.334658  1
  Br  Br9  1  0.053729  0.680533  0.418964  1
  Br  Br10  1  0.954129  0.328425  0.586027  1
  Br  Br11  1  0.263775  0.748157  0.830557  1
  Br  Br12  1  0.748340  0.258353  0.161250  1
  Br  Br13  1  0.257244  0.426925  0.057591  1
  Br  Br14  1  0.747459  0.578549  0.943591  1
  Br  Br15  1  0.824589  0.935338  0.761514  1
  Br  Br16  1  0.151804  0.065204  0.235735  1
