# generated using pymatgen
data_Tb4Tm4LuScSi8
_symmetry_space_group_name_H-M   'P 1'
_cell_length_a   7.28120485
_cell_length_b   7.60821757
_cell_length_c   14.41391600
_cell_angle_alpha   90.00000000
_cell_angle_beta   90.00000000
_cell_angle_gamma   90.01463778
_symmetry_Int_Tables_number   1
_chemical_formula_structural   Tb4Tm4LuScSi8
_chemical_formula_sum   'Tb8 Tm8 Lu2 Sc2 Si16'
_cell_volume   798.48754446
_cell_formula_units_Z   2
loop_
 _symmetry_equiv_pos_site_id
 _symmetry_equiv_pos_as_xyz
  1  'x, y, z'
loop_
 _atom_site_type_symbol
 _atom_site_label
 _atom_site_symmetry_multiplicity
 _atom_site_fract_x
 _atom_site_fract_y
 _atom_site_fract_z
 _atom_site_occupancy
  Tb  Tb0  1  0.019028  0.178908  0.097706  1
  Tb  Tb1  1  0.980972  0.821092  0.902294  1
  Tb  Tb2  1  0.483065  0.681281  0.902371  1
  Tb  Tb3  1  0.980972  0.821092  0.597706  1
  Tb  Tb4  1  0.516935  0.318719  0.097629  1
  Tb  Tb5  1  0.019028  0.178908  0.402294  1
  Tb  Tb6  1  0.516935  0.318719  0.402371  1
  Tb  Tb7  1  0.483065  0.681281  0.597629  1
  Tm  Tm8  1  0.325488  0.176968  0.624485  1
  Tm  Tm9  1  0.674512  0.823032  0.375515  1
  Tm  Tm10  1  0.175946  0.679129  0.375557  1
  Tm  Tm11  1  0.674512  0.823032  0.124485  1
  Tm  Tm12  1  0.824054  0.320871  0.624443  1
  Tm  Tm13  1  0.325488  0.176968  0.875515  1
  Tm  Tm14  1  0.824054  0.320871  0.875557  1
  Tm  Tm15  1  0.175946  0.679129  0.124443  1
  Lu  Lu16  1  0.156211  0.511023  0.750000  1
  Lu  Lu17  1  0.843789  0.488977  0.250000  1
  Sc  Sc18  1  0.342452  0.010672  0.250000  1
  Sc  Sc19  1  0.657548  0.989328  0.750000  1
  Si  Si20  1  0.024292  0.103036  0.750000  1
  Si  Si21  1  0.975708  0.896964  0.250000  1
  Si  Si22  1  0.472675  0.605121  0.250000  1
  Si  Si23  1  0.527325  0.394879  0.750000  1
  Si  Si24  1  0.281531  0.871855  0.750000  1
  Si  Si25  1  0.718469  0.128145  0.250000  1
  Si  Si26  1  0.223895  0.366836  0.250000  1
  Si  Si27  1  0.776105  0.633164  0.750000  1
  Si  Si28  1  0.152706  0.468894  0.539078  1
  Si  Si29  1  0.847294  0.531106  0.460922  1
  Si  Si30  1  0.347580  0.969604  0.459738  1
  Si  Si31  1  0.847294  0.531106  0.039078  1
  Si  Si32  1  0.652420  0.030396  0.540262  1
  Si  Si33  1  0.152706  0.468894  0.960922  1
  Si  Si34  1  0.652420  0.030396  0.959738  1
  Si  Si35  1  0.347580  0.969604  0.040262  1
