# generated using pymatgen
data_Nd5Sc2PaBi10
_symmetry_space_group_name_H-M   'P 1'
_cell_length_a   9.71712066
_cell_length_b   9.74117145
_cell_length_c   6.52039600
_cell_angle_alpha   90.00000000
_cell_angle_beta   90.00000000
_cell_angle_gamma   120.08190372
_symmetry_Int_Tables_number   1
_chemical_formula_structural   Nd5Sc2PaBi10
_chemical_formula_sum   'Nd5 Sc2 Pa1 Bi10'
_cell_volume   534.06530359
_cell_formula_units_Z   1
loop_
 _symmetry_equiv_pos_site_id
 _symmetry_equiv_pos_as_xyz
  1  'x, y, z'
loop_
 _atom_site_type_symbol
 _atom_site_label
 _atom_site_symmetry_multiplicity
 _atom_site_fract_x
 _atom_site_fract_y
 _atom_site_fract_z
 _atom_site_occupancy
  Nd  Nd0  1  0.378927  0.378521  0.250000  1
  Nd  Nd1  1  0.384968  0.002771  0.750000  1
  Nd  Nd2  1  0.615032  0.617802  0.750000  1
  Nd  Nd3  1  0.621073  0.999594  0.250000  1
  Nd  Nd4  1  0.000000  0.379166  0.750000  1
  Sc  Sc5  1  0.000000  0.001979  0.998525  1
  Sc  Sc6  1  0.000000  0.001979  0.501475  1
  Pa  Pa7  1  0.000000  0.617827  0.250000  1
  Bi  Bi8  1  0.000000  0.268663  0.250000  1
  Bi  Bi9  1  0.328295  0.666682  0.498180  1
  Bi  Bi10  1  0.671705  0.338386  0.001820  1
  Bi  Bi11  1  0.328295  0.666682  0.001820  1
  Bi  Bi12  1  0.264722  0.263816  0.750000  1
  Bi  Bi13  1  0.735278  0.999095  0.750000  1
  Bi  Bi14  1  0.000000  0.730000  0.750000  1
  Bi  Bi15  1  0.740322  0.734487  0.250000  1
  Bi  Bi16  1  0.259678  0.994166  0.250000  1
  Bi  Bi17  1  0.671705  0.338386  0.498180  1
