# generated using pymatgen
data_CePr(ZnIr)2
_symmetry_space_group_name_H-M   'P 1'
_cell_length_a   4.09207000
_cell_length_b   7.14578701
_cell_length_c   8.34588140
_cell_angle_alpha   88.69445099
_cell_angle_beta   90.00000000
_cell_angle_gamma   90.00000000
_symmetry_Int_Tables_number   1
_chemical_formula_structural   CePr(ZnIr)2
_chemical_formula_sum   'Ce2 Pr2 Zn4 Ir4'
_cell_volume   243.97907267
_cell_formula_units_Z   2
loop_
 _symmetry_equiv_pos_site_id
 _symmetry_equiv_pos_as_xyz
  1  'x, y, z'
loop_
 _atom_site_type_symbol
 _atom_site_label
 _atom_site_symmetry_multiplicity
 _atom_site_fract_x
 _atom_site_fract_y
 _atom_site_fract_z
 _atom_site_occupancy
  Ce  Ce0  1  0.750000  0.965229  0.689402  1
  Ce  Ce1  1  0.250000  0.034771  0.310598  1
  Pr  Pr2  1  0.250000  0.540610  0.188437  1
  Pr  Pr3  1  0.750000  0.459390  0.811563  1
  Zn  Zn4  1  0.250000  0.641857  0.564008  1
  Zn  Zn5  1  0.750000  0.358143  0.435992  1
  Zn  Zn6  1  0.750000  0.862123  0.061526  1
  Zn  Zn7  1  0.250000  0.137877  0.938474  1
  Ir  Ir8  1  0.250000  0.766213  0.868533  1
  Ir  Ir9  1  0.750000  0.233787  0.131467  1
  Ir  Ir10  1  0.750000  0.758507  0.383971  1
  Ir  Ir11  1  0.250000  0.241493  0.616029  1
