# generated using pymatgen
data_La2Tb4TaSbO14
_symmetry_space_group_name_H-M   'P 1'
_cell_length_a   6.56252794
_cell_length_b   6.56252875
_cell_length_c   7.66608109
_cell_angle_alpha   90.20805538
_cell_angle_beta   89.79194108
_cell_angle_gamma   108.94868447
_symmetry_Int_Tables_number   1
_chemical_formula_structural   La2Tb4TaSbO14
_chemical_formula_sum   'La2 Tb4 Ta1 Sb1 O14'
_cell_volume   312.25922121
_cell_formula_units_Z   1
loop_
 _symmetry_equiv_pos_site_id
 _symmetry_equiv_pos_as_xyz
  1  'x, y, z'
loop_
 _atom_site_type_symbol
 _atom_site_label
 _atom_site_symmetry_multiplicity
 _atom_site_fract_x
 _atom_site_fract_y
 _atom_site_fract_z
 _atom_site_occupancy
  La  La0  1  0.500000  0.500000  0.500000  1
  La  La1  1  0.500000  0.500000  0.000000  1
  Tb  Tb2  1  0.532368  0.000941  0.748654  1
  Tb  Tb3  1  0.000941  0.532368  0.251346  1
  Tb  Tb4  1  0.467632  0.999059  0.251346  1
  Tb  Tb5  1  0.999059  0.467632  0.748654  1
  Ta  Ta6  1  0.000000  0.000000  0.500000  1
  Sb  Sb7  1  0.000000  0.000000  0.000000  1
  O  O8  1  0.683314  0.934589  0.467982  1
  O  O9  1  0.934589  0.683314  0.532018  1
  O  O10  1  0.681489  0.934371  0.030311  1
  O  O11  1  0.934371  0.681489  0.969689  1
  O  O12  1  0.316686  0.065411  0.532018  1
  O  O13  1  0.065411  0.316686  0.467982  1
  O  O14  1  0.318511  0.065629  0.969689  1
  O  O15  1  0.065629  0.318511  0.030311  1
  O  O16  1  0.935538  0.064462  0.749749  1
  O  O17  1  0.064462  0.935538  0.250251  1
  O  O18  1  0.363000  0.637000  0.749473  1
  O  O19  1  0.637000  0.363000  0.250527  1
  O  O20  1  0.642508  0.357492  0.749581  1
  O  O21  1  0.357492  0.642508  0.250419  1
