# generated using pymatgen
data_HoHf3Pd5Pt7
_symmetry_space_group_name_H-M   'P 1'
_cell_length_a   5.72220085
_cell_length_b   5.72239462
_cell_length_c   9.35203675
_cell_angle_alpha   90.00033185
_cell_angle_beta   89.97616736
_cell_angle_gamma   120.09592266
_symmetry_Int_Tables_number   1
_chemical_formula_structural   HoHf3Pd5Pt7
_chemical_formula_sum   'Ho1 Hf3 Pd5 Pt7'
_cell_volume   264.94583450
_cell_formula_units_Z   1
loop_
 _symmetry_equiv_pos_site_id
 _symmetry_equiv_pos_as_xyz
  1  'x, y, z'
loop_
 _atom_site_type_symbol
 _atom_site_label
 _atom_site_symmetry_multiplicity
 _atom_site_fract_x
 _atom_site_fract_y
 _atom_site_fract_z
 _atom_site_occupancy
  Ho  Ho0  1  0.665287  0.331467  0.750550  1
  Hf  Hf1  1  0.336250  0.666431  0.250093  1
  Hf  Hf2  1  0.000142  0.002067  0.501864  1
  Hf  Hf3  1  0.000103  0.002709  0.998248  1
  Pd  Pd4  1  0.337868  0.168659  0.249192  1
  Pd  Pd5  1  0.659859  0.829636  0.750939  1
  Pd  Pd6  1  0.002265  0.502180  0.003739  1
  Pd  Pd7  1  0.832309  0.661673  0.249317  1
  Pd  Pd8  1  0.169387  0.829018  0.750505  1
  Pt  Pt9  1  0.168167  0.337104  0.750530  1
  Pt  Pt10  1  0.833948  0.168848  0.249334  1
  Pt  Pt11  1  0.496811  0.995786  0.005638  1
  Pt  Pt12  1  0.498673  0.502495  0.495774  1
  Pt  Pt13  1  0.003665  0.502647  0.495309  1
  Pt  Pt14  1  0.497506  0.502447  0.004254  1
  Pt  Pt15  1  0.497760  0.996832  0.494714  1
