# generated using pymatgen
data_LaNd7Ge4(BO4)8
_symmetry_space_group_name_H-M   'P 1'
_cell_length_a   13.85667017
_cell_length_b   4.52457147
_cell_length_c   9.62232516
_cell_angle_alpha   89.99973102
_cell_angle_beta   89.94341061
_cell_angle_gamma   89.94748526
_symmetry_Int_Tables_number   1
_chemical_formula_structural   LaNd7Ge4(BO4)8
_chemical_formula_sum   'La1 Nd7 Ge4 B8 O32'
_cell_volume   603.27588712
_cell_formula_units_Z   1
loop_
 _symmetry_equiv_pos_site_id
 _symmetry_equiv_pos_as_xyz
  1  'x, y, z'
loop_
 _atom_site_type_symbol
 _atom_site_label
 _atom_site_symmetry_multiplicity
 _atom_site_fract_x
 _atom_site_fract_y
 _atom_site_fract_z
 _atom_site_occupancy
  La  La0  1  0.860526  0.039455  0.024888  1
  Nd  Nd1  1  0.639555  0.543715  0.026654  1
  Nd  Nd2  1  0.140841  0.044062  0.473887  1
  Nd  Nd3  1  0.359551  0.544094  0.473462  1
  Nd  Nd4  1  0.640040  0.456290  0.525963  1
  Nd  Nd5  1  0.859001  0.956301  0.526701  1
  Nd  Nd6  1  0.359644  0.455464  0.973592  1
  Nd  Nd7  1  0.141734  0.955581  0.973085  1
  Ge  Ge8  1  0.499766  0.077960  0.250206  1
  Ge  Ge9  1  0.000842  0.577986  0.251720  1
  Ge  Ge10  1  0.000652  0.423991  0.748729  1
  Ge  Ge11  1  0.499685  0.921668  0.749623  1
  B  B12  1  0.200881  0.466257  0.204531  1
  B  B13  1  0.299696  0.966239  0.204475  1
  B  B14  1  0.799417  0.466602  0.297302  1
  B  B15  1  0.700223  0.966455  0.296614  1
  B  B16  1  0.299599  0.033890  0.704237  1
  B  B17  1  0.200757  0.534179  0.704015  1
  B  B18  1  0.699454  0.033380  0.794576  1
  B  B19  1  0.798520  0.532824  0.794407  1
  O  O20  1  0.193246  0.460249  0.054505  1
  O  O21  1  0.307726  0.960479  0.054389  1
  O  O22  1  0.494958  0.295594  0.100225  1
  O  O23  1  0.007184  0.793200  0.100888  1
  O  O24  1  0.893924  0.353035  0.235463  1
  O  O25  1  0.606396  0.850392  0.233274  1
  O  O26  1  0.719558  0.272353  0.240769  1
  O  O27  1  0.779998  0.771548  0.241700  1
  O  O28  1  0.280873  0.272344  0.260439  1
  O  O29  1  0.219699  0.772477  0.260438  1
  O  O30  1  0.107200  0.349442  0.267768  1
  O  O31  1  0.393454  0.849636  0.267141  1
  O  O32  1  0.504379  0.295929  0.399874  1
  O  O33  1  0.995697  0.797204  0.400963  1
  O  O34  1  0.806873  0.460557  0.447361  1
  O  O35  1  0.692050  0.961133  0.446478  1
  O  O36  1  0.307500  0.039046  0.554317  1
  O  O37  1  0.193140  0.538985  0.554034  1
  O  O38  1  0.004529  0.205705  0.599131  1
  O  O39  1  0.494906  0.703843  0.599890  1
  O  O40  1  0.605948  0.149785  0.731512  1
  O  O41  1  0.893303  0.650048  0.733515  1
  O  O42  1  0.779824  0.227173  0.738701  1
  O  O43  1  0.719181  0.727835  0.737971  1
  O  O44  1  0.219538  0.228133  0.760211  1
  O  O45  1  0.280578  0.727838  0.760437  1
  O  O46  1  0.393283  0.150141  0.767003  1
  O  O47  1  0.106863  0.652676  0.765802  1
  O  O48  1  0.997700  0.206815  0.898832  1
  O  O49  1  0.504366  0.703920  0.899594  1
  O  O50  1  0.690561  0.038454  0.944381  1
  O  O51  1  0.805178  0.537650  0.944325  1
