# generated using pymatgen
data_Ho4Mo2(OsRu)3
_symmetry_space_group_name_H-M   'P 1'
_cell_length_a   5.51610787
_cell_length_b   5.18206483
_cell_length_c   9.09277500
_cell_angle_alpha   90.00000000
_cell_angle_beta   90.00000000
_cell_angle_gamma   122.00867111
_symmetry_Int_Tables_number   1
_chemical_formula_structural   Ho4Mo2(OsRu)3
_chemical_formula_sum   'Ho4 Mo2 Os3 Ru3'
_cell_volume   220.39992569
_cell_formula_units_Z   1
loop_
 _symmetry_equiv_pos_site_id
 _symmetry_equiv_pos_as_xyz
  1  'x, y, z'
loop_
 _atom_site_type_symbol
 _atom_site_label
 _atom_site_symmetry_multiplicity
 _atom_site_fract_x
 _atom_site_fract_y
 _atom_site_fract_z
 _atom_site_occupancy
  Ho  Ho0  1  0.669788  0.339598  0.565870  1
  Ho  Ho1  1  0.329755  0.660191  0.434008  1
  Ho  Ho2  1  0.329755  0.660191  0.065992  1
  Ho  Ho3  1  0.669788  0.339598  0.934130  1
  Mo  Mo4  1  0.165837  0.325729  0.750000  1
  Mo  Mo5  1  0.843165  0.676018  0.250000  1
  Os  Os6  1  0.173044  0.824198  0.750000  1
  Os  Os7  1  0.654399  0.825599  0.750000  1
  Os  Os8  1  0.832264  0.176720  0.250000  1
  Ru  Ru9  1  0.990370  0.997531  0.499669  1
  Ru  Ru10  1  0.990370  0.997531  0.000331  1
  Ru  Ru11  1  0.351465  0.177098  0.250000  1
