# generated using pymatgen
data_DyTh4(In2Rh)2
_symmetry_space_group_name_H-M   'P 1'
_cell_length_a   3.81068300
_cell_length_b   8.20527000
_cell_length_c   18.41238500
_cell_angle_alpha   90.00000000
_cell_angle_beta   90.00000000
_cell_angle_gamma   90.00000000
_symmetry_Int_Tables_number   1
_chemical_formula_structural   DyTh4(In2Rh)2
_chemical_formula_sum   'Dy2 Th8 In8 Rh4'
_cell_volume   575.71261560
_cell_formula_units_Z   2
loop_
 _symmetry_equiv_pos_site_id
 _symmetry_equiv_pos_as_xyz
  1  'x, y, z'
loop_
 _atom_site_type_symbol
 _atom_site_label
 _atom_site_symmetry_multiplicity
 _atom_site_fract_x
 _atom_site_fract_y
 _atom_site_fract_z
 _atom_site_occupancy
  Dy  Dy0  1  0.500000  0.500000  0.000000  1
  Dy  Dy1  1  0.500000  0.000000  0.500000  1
  Th  Th2  1  0.500000  0.384523  0.584524  1
  Th  Th3  1  0.500000  0.884523  0.915476  1
  Th  Th4  1  0.500000  0.115477  0.084524  1
  Th  Th5  1  0.500000  0.753851  0.721863  1
  Th  Th6  1  0.500000  0.253851  0.778137  1
  Th  Th7  1  0.500000  0.746149  0.221863  1
  Th  Th8  1  0.500000  0.246149  0.278137  1
  Th  Th9  1  0.500000  0.615477  0.415476  1
  In  In10  1  0.000000  0.782446  0.067353  1
  In  In11  1  0.000000  0.933430  0.352762  1
  In  In12  1  0.000000  0.066570  0.647238  1
  In  In13  1  0.000000  0.566570  0.852762  1
  In  In14  1  0.000000  0.717554  0.567353  1
  In  In15  1  0.000000  0.217554  0.932647  1
  In  In16  1  0.000000  0.282446  0.432647  1
  In  In17  1  0.000000  0.433430  0.147238  1
  Rh  Rh18  1  0.000000  0.976035  0.804859  1
  Rh  Rh19  1  0.000000  0.523965  0.304859  1
  Rh  Rh20  1  0.000000  0.476035  0.695141  1
  Rh  Rh21  1  0.000000  0.023965  0.195141  1
