# generated using pymatgen
data_Pu3Ga3Ge2Ir
_symmetry_space_group_name_H-M   'P 1'
_cell_length_a   6.96551370
_cell_length_b   6.96268543
_cell_length_c   4.31163900
_cell_angle_alpha   90.00000000
_cell_angle_beta   90.00000000
_cell_angle_gamma   120.05446274
_symmetry_Int_Tables_number   1
_chemical_formula_structural   Pu3Ga3Ge2Ir
_chemical_formula_sum   'Pu3 Ga3 Ge2 Ir1'
_cell_volume   180.99406925
_cell_formula_units_Z   1
loop_
 _symmetry_equiv_pos_site_id
 _symmetry_equiv_pos_as_xyz
  1  'x, y, z'
loop_
 _atom_site_type_symbol
 _atom_site_label
 _atom_site_symmetry_multiplicity
 _atom_site_fract_x
 _atom_site_fract_y
 _atom_site_fract_z
 _atom_site_occupancy
  Pu  Pu0  1  0.000182  0.417270  0.500000  1
  Pu  Pu1  1  0.582840  0.582712  0.500000  1
  Pu  Pu2  1  0.417049  0.999975  0.500000  1
  Ga  Ga3  1  0.999994  0.767692  0.000000  1
  Ga  Ga4  1  0.232417  0.232342  0.000000  1
  Ga  Ga5  1  0.767590  0.999980  0.000000  1
  Ge  Ge6  1  0.333464  0.666637  0.000000  1
  Ge  Ge7  1  0.666730  0.333430  0.000000  1
  Ir  Ir8  1  0.999735  0.999961  0.500000  1
