# generated using pymatgen
data_CsNa3ZrO4
_symmetry_space_group_name_H-M   'P 1'
_cell_length_a   6.81508744
_cell_length_b   8.78303414
_cell_length_c   11.66779645
_cell_angle_alpha   82.72704426
_cell_angle_beta   76.32868405
_cell_angle_gamma   79.65599821
_symmetry_Int_Tables_number   1
_chemical_formula_structural   CsNa3ZrO4
_chemical_formula_sum   'Cs4 Na12 Zr4 O16'
_cell_volume   664.99196344
_cell_formula_units_Z   4
loop_
 _symmetry_equiv_pos_site_id
 _symmetry_equiv_pos_as_xyz
  1  'x, y, z'
loop_
 _atom_site_type_symbol
 _atom_site_label
 _atom_site_symmetry_multiplicity
 _atom_site_fract_x
 _atom_site_fract_y
 _atom_site_fract_z
 _atom_site_occupancy
  Cs  Cs0  1  0.052291  0.139937  0.625603  1
  Cs  Cs1  1  0.947709  0.860063  0.374397  1
  Cs  Cs2  1  0.022101  0.378189  0.879654  1
  Cs  Cs3  1  0.977899  0.621811  0.120346  1
  Na  Na4  1  0.196791  0.174812  0.145042  1
  Na  Na5  1  0.803209  0.825188  0.854958  1
  Na  Na6  1  0.513802  0.672240  0.390904  1
  Na  Na7  1  0.486198  0.327760  0.609096  1
  Na  Na8  1  0.185861  0.447486  0.397382  1
  Na  Na9  1  0.537023  0.426139  0.125239  1
  Na  Na10  1  0.186577  0.946088  0.895508  1
  Na  Na11  1  0.813423  0.053912  0.104492  1
  Na  Na12  1  0.571479  0.956926  0.623151  1
  Na  Na13  1  0.428521  0.043074  0.376849  1
  Na  Na14  1  0.462977  0.573861  0.874761  1
  Na  Na15  1  0.814139  0.552514  0.602618  1
  Zr  Zr16  1  0.168533  0.710191  0.646812  1
  Zr  Zr17  1  0.831467  0.289809  0.353188  1
  Zr  Zr18  1  0.571737  0.208233  0.863822  1
  Zr  Zr19  1  0.428263  0.791767  0.136178  1
  O  O20  1  0.358240  0.841228  0.536984  1
  O  O21  1  0.641760  0.158772  0.463016  1
  O  O22  1  0.408731  0.110138  0.779909  1
  O  O23  1  0.591269  0.889862  0.220091  1
  O  O24  1  0.176805  0.709280  0.817405  1
  O  O25  1  0.823195  0.290720  0.182595  1
  O  O26  1  0.823089  0.070727  0.900314  1
  O  O27  1  0.176911  0.929273  0.099686  1
  O  O28  1  0.664371  0.382663  0.747847  1
  O  O29  1  0.335629  0.617337  0.252153  1
  O  O30  1  0.604051  0.680960  0.999252  1
  O  O31  1  0.395949  0.319040  0.000748  1
  O  O32  1  0.877427  0.798208  0.645809  1
  O  O33  1  0.801586  0.499690  0.412338  1
  O  O34  1  0.122573  0.201792  0.354191  1
  O  O35  1  0.198414  0.500310  0.587662  1
