# generated using pymatgen
data_Th7Os2Rh
_symmetry_space_group_name_H-M   'P 1'
_cell_length_a   10.02342296
_cell_length_b   10.06516648
_cell_length_c   6.32813586
_cell_angle_alpha   89.99999973
_cell_angle_beta   90.21571279
_cell_angle_gamma   120.13785955
_symmetry_Int_Tables_number   1
_chemical_formula_structural   Th7Os2Rh
_chemical_formula_sum   'Th14 Os4 Rh2'
_cell_volume   552.12110148
_cell_formula_units_Z   2
loop_
 _symmetry_equiv_pos_site_id
 _symmetry_equiv_pos_as_xyz
  1  'x, y, z'
loop_
 _atom_site_type_symbol
 _atom_site_label
 _atom_site_symmetry_multiplicity
 _atom_site_fract_x
 _atom_site_fract_y
 _atom_site_fract_z
 _atom_site_occupancy
  Th  Th0  1  0.457960  0.538178  0.298486  1
  Th  Th1  1  0.079510  0.539755  0.297163  1
  Th  Th2  1  0.920568  0.460284  0.790153  1
  Th  Th3  1  0.252646  0.126323  0.501373  1
  Th  Th4  1  0.537796  0.078865  0.795807  1
  Th  Th5  1  0.743202  0.871601  0.001318  1
  Th  Th6  1  0.667053  0.333526  0.305323  1
  Th  Th7  1  0.127929  0.876440  0.002956  1
  Th  Th8  1  0.457960  0.919783  0.298486  1
  Th  Th9  1  0.537796  0.458931  0.795807  1
  Th  Th10  1  0.874774  0.125325  0.505325  1
  Th  Th11  1  0.127929  0.251489  0.002956  1
  Th  Th12  1  0.874774  0.749450  0.505325  1
  Th  Th13  1  0.333085  0.666543  0.786624  1
  Os  Os14  1  0.629084  0.814542  0.548932  1
  Os  Os15  1  0.376567  0.188283  0.051837  1
  Os  Os16  1  0.184846  0.371780  0.549715  1
  Os  Os17  1  0.184846  0.813066  0.549715  1
  Rh  Rh18  1  0.815837  0.627298  0.048348  1
  Rh  Rh19  1  0.815837  0.188539  0.048348  1
