# generated using pymatgen
data_Dy10Tl6InCuPd4
_symmetry_space_group_name_H-M   'P 1'
_cell_length_a   3.59877400
_cell_length_b   8.17356119
_cell_length_c   18.27564900
_cell_angle_alpha   90.05804191
_cell_angle_beta   90.00000000
_cell_angle_gamma   90.00000000
_symmetry_Int_Tables_number   1
_chemical_formula_structural   Dy10Tl6InCuPd4
_chemical_formula_sum   'Dy10 Tl6 In1 Cu1 Pd4'
_cell_volume   537.57427545
_cell_formula_units_Z   1
loop_
 _symmetry_equiv_pos_site_id
 _symmetry_equiv_pos_as_xyz
  1  'x, y, z'
loop_
 _atom_site_type_symbol
 _atom_site_label
 _atom_site_symmetry_multiplicity
 _atom_site_fract_x
 _atom_site_fract_y
 _atom_site_fract_z
 _atom_site_occupancy
  Dy  Dy0  1  0.000000  0.499212  0.501209  1
  Dy  Dy1  1  0.000000  0.975680  0.990489  1
  Dy  Dy2  1  0.000000  0.741551  0.278964  1
  Dy  Dy3  1  0.000000  0.261021  0.720317  1
  Dy  Dy4  1  0.000000  0.764599  0.795262  1
  Dy  Dy5  1  0.000000  0.240600  0.216248  1
  Dy  Dy6  1  0.000000  0.613300  0.079572  1
  Dy  Dy7  1  0.000000  0.403735  0.917424  1
  Dy  Dy8  1  0.000000  0.881528  0.589010  1
  Dy  Dy9  1  0.000000  0.115376  0.414200  1
  Tl  Tl10  1  0.500000  0.285812  0.062701  1
  Tl  Tl11  1  0.500000  0.792187  0.434810  1
  Tl  Tl12  1  0.500000  0.205646  0.566124  1
  Tl  Tl13  1  0.500000  0.584698  0.652865  1
  Tl  Tl14  1  0.500000  0.419329  0.350486  1
  Tl  Tl15  1  0.500000  0.915786  0.143752  1
  In  In16  1  0.500000  0.088488  0.851841  1
  Cu  Cu17  1  0.500000  0.707109  0.931960  1
  Pd  Pd18  1  0.500000  0.524204  0.194372  1
  Pd  Pd19  1  0.500000  0.479827  0.805743  1
  Pd  Pd20  1  0.500000  0.975892  0.701311  1
  Pd  Pd21  1  0.500000  0.024423  0.301343  1
