# generated using pymatgen
data_TmTh8Se17
_symmetry_space_group_name_H-M   'P 1'
_cell_length_a   8.51126899
_cell_length_b   8.51126840
_cell_length_c   11.37642357
_cell_angle_alpha   80.13114889
_cell_angle_beta   80.13114853
_cell_angle_gamma   64.89916313
_symmetry_Int_Tables_number   1
_chemical_formula_structural   TmTh8Se17
_chemical_formula_sum   'Tm1 Th8 Se17'
_cell_volume   730.74372141
_cell_formula_units_Z   1
loop_
 _symmetry_equiv_pos_site_id
 _symmetry_equiv_pos_as_xyz
  1  'x, y, z'
loop_
 _atom_site_type_symbol
 _atom_site_label
 _atom_site_symmetry_multiplicity
 _atom_site_fract_x
 _atom_site_fract_y
 _atom_site_fract_z
 _atom_site_occupancy
  Tm  Tm0  1  0.000000  0.000000  0.000000  1
  Th  Th1  1  0.185329  0.694835  0.700951  1
  Th  Th2  1  0.694835  0.185329  0.700951  1
  Th  Th3  1  0.814671  0.305165  0.299049  1
  Th  Th4  1  0.305165  0.814671  0.299049  1
  Th  Th5  1  0.794129  0.794129  0.459586  1
  Th  Th6  1  0.205871  0.205871  0.540414  1
  Th  Th7  1  0.318446  0.318446  0.018322  1
  Th  Th8  1  0.681554  0.681554  0.981678  1
  Se  Se9  1  0.177543  0.569160  0.468247  1
  Se  Se10  1  0.569160  0.177543  0.468247  1
  Se  Se11  1  0.822457  0.430840  0.531753  1
  Se  Se12  1  0.430840  0.822457  0.531753  1
  Se  Se13  1  0.056036  0.667643  0.963382  1
  Se  Se14  1  0.667643  0.056036  0.963382  1
  Se  Se15  1  0.943964  0.332357  0.036618  1
  Se  Se16  1  0.332357  0.943964  0.036618  1
  Se  Se17  1  0.790013  0.790013  0.721446  1
  Se  Se18  1  0.209987  0.209987  0.278554  1
  Se  Se19  1  0.938758  0.938758  0.237853  1
  Se  Se20  1  0.061242  0.061242  0.762147  1
  Se  Se21  1  0.696870  0.696870  0.246041  1
  Se  Se22  1  0.303130  0.303130  0.753959  1
  Se  Se23  1  0.481224  0.481224  0.167303  1
  Se  Se24  1  0.518776  0.518776  0.832697  1
  Se  Se25  1  0.000000  0.000000  0.500000  1
