# generated using pymatgen
data_HoTm2Pa(Al3Ir)6
_symmetry_space_group_name_H-M   'P 1'
_cell_length_a   7.56415042
_cell_length_b   7.55865457
_cell_length_c   9.39872500
_cell_angle_alpha   90.00000000
_cell_angle_beta   90.00000000
_cell_angle_gamma   119.55925580
_symmetry_Int_Tables_number   1
_chemical_formula_structural   HoTm2Pa(Al3Ir)6
_chemical_formula_sum   'Ho1 Tm2 Pa1 Al18 Ir6'
_cell_volume   467.42931862
_cell_formula_units_Z   1
loop_
 _symmetry_equiv_pos_site_id
 _symmetry_equiv_pos_as_xyz
  1  'x, y, z'
loop_
 _atom_site_type_symbol
 _atom_site_label
 _atom_site_symmetry_multiplicity
 _atom_site_fract_x
 _atom_site_fract_y
 _atom_site_fract_z
 _atom_site_occupancy
  Ho  Ho0  1  0.673561  0.994730  0.250000  1
  Tm  Tm1  1  0.004563  0.328242  0.750000  1
  Tm  Tm2  1  0.328224  0.003996  0.750000  1
  Pa  Pa3  1  0.995719  0.672410  0.250000  1
  Al  Al4  1  0.133256  0.132249  0.250000  1
  Al  Al5  1  0.872652  0.874263  0.750000  1
  Al  Al6  1  0.001013  0.332567  0.074377  1
  Al  Al7  1  0.999457  0.664236  0.919600  1
  Al  Al8  1  0.999457  0.664236  0.580400  1
  Al  Al9  1  0.339329  0.004130  0.425333  1
  Al  Al10  1  0.001013  0.332567  0.425623  1
  Al  Al11  1  0.664784  0.000466  0.577132  1
  Al  Al12  1  0.664784  0.000466  0.922868  1
  Al  Al13  1  0.339329  0.004130  0.074667  1
  Al  Al14  1  0.331651  0.331726  0.556954  1
  Al  Al15  1  0.662833  0.665617  0.450306  1
  Al  Al16  1  0.662833  0.665617  0.049694  1
  Al  Al17  1  0.331651  0.331726  0.943046  1
  Al  Al18  1  0.340268  0.548066  0.250000  1
  Al  Al19  1  0.658636  0.448482  0.750000  1
  Al  Al20  1  0.547504  0.342459  0.250000  1
  Al  Al21  1  0.449473  0.660421  0.750000  1
  Ir  Ir22  1  0.673899  0.329561  0.001533  1
  Ir  Ir23  1  0.325571  0.672035  0.001530  1
  Ir  Ir24  1  0.325571  0.672035  0.498470  1
  Ir  Ir25  1  0.673899  0.329561  0.498467  1
  Ir  Ir26  1  0.999536  0.997002  0.002710  1
  Ir  Ir27  1  0.999536  0.997002  0.497290  1
