# generated using pymatgen
data_Hf3Fe4Co4P6Ru
_symmetry_space_group_name_H-M   'P 1'
_cell_length_a   11.86760625
_cell_length_b   11.91122709
_cell_length_c   3.64584100
_cell_angle_alpha   90.00000000
_cell_angle_beta   90.00000000
_cell_angle_gamma   119.93859629
_symmetry_Int_Tables_number   1
_chemical_formula_structural   Hf3Fe4Co4P6Ru
_chemical_formula_sum   'Hf6 Fe8 Co8 P12 Ru2'
_cell_volume   446.59758943
_cell_formula_units_Z   2
loop_
 _symmetry_equiv_pos_site_id
 _symmetry_equiv_pos_as_xyz
  1  'x, y, z'
loop_
 _atom_site_type_symbol
 _atom_site_label
 _atom_site_symmetry_multiplicity
 _atom_site_fract_x
 _atom_site_fract_y
 _atom_site_fract_z
 _atom_site_occupancy
  Hf  Hf0  1  0.815806  0.813990  0.500000  1
  Hf  Hf1  1  0.999478  0.175814  0.500000  1
  Hf  Hf2  1  0.332857  0.668638  0.000000  1
  Hf  Hf3  1  0.668332  0.335467  0.000000  1
  Hf  Hf4  1  0.000453  0.559042  0.000000  1
  Hf  Hf5  1  0.183324  0.998506  0.500000  1
  Fe  Fe6  1  0.620504  0.819834  0.000000  1
  Fe  Fe7  1  0.378607  0.199563  0.000000  1
  Fe  Fe8  1  0.000266  0.723966  0.500000  1
  Fe  Fe9  1  0.281408  0.281547  0.500000  1
  Fe  Fe10  1  0.873174  0.350092  0.500000  1
  Fe  Fe11  1  0.717704  0.998716  0.500000  1
  Fe  Fe12  1  0.812551  0.623707  0.000000  1
  Fe  Fe13  1  0.188015  0.812229  0.000000  1
  Co  Co14  1  0.363555  0.877240  0.500000  1
  Co  Co15  1  0.133101  0.485826  0.500000  1
  Co  Co16  1  0.636971  0.512929  0.500000  1
  Co  Co17  1  0.000048  0.000111  0.000000  1
  Co  Co18  1  0.511938  0.642396  0.500000  1
  Co  Co19  1  0.487960  0.130705  0.500000  1
  Co  Co20  1  0.192456  0.368858  0.000000  1
  Co  Co21  1  0.804980  0.172886  0.000000  1
  P  P22  1  0.997179  0.347268  0.000000  1
  P  P23  1  0.826321  0.518123  0.500000  1
  P  P24  1  0.687761  0.166854  0.500000  1
  P  P25  1  0.180095  0.175273  0.000000  1
  P  P26  1  0.639745  0.644778  0.000000  1
  P  P27  1  0.819129  0.993596  0.000000  1
  P  P28  1  0.519424  0.832110  0.500000  1
  P  P29  1  0.174916  0.695771  0.500000  1
  P  P30  1  0.359991  0.005747  0.000000  1
  P  P31  1  0.480500  0.312756  0.500000  1
  P  P32  1  0.999621  0.821236  0.000000  1
  P  P33  1  0.312690  0.479152  0.500000  1
  Ru  Ru34  1  0.445392  0.450659  0.000000  1
  Ru  Ru35  1  0.553746  0.004612  0.000000  1
