# generated using pymatgen
data_SmHo5NiI10
_symmetry_space_group_name_H-M   'P 1'
_cell_length_a   7.68072736
_cell_length_b   9.65127308
_cell_length_c   9.70360553
_cell_angle_alpha   107.03110098
_cell_angle_beta   96.80279412
_cell_angle_gamma   104.59276174
_symmetry_Int_Tables_number   1
_chemical_formula_structural   SmHo5NiI10
_chemical_formula_sum   'Sm1 Ho5 Ni1 I10'
_cell_volume   651.06092007
_cell_formula_units_Z   1
loop_
 _symmetry_equiv_pos_site_id
 _symmetry_equiv_pos_as_xyz
  1  'x, y, z'
loop_
 _atom_site_type_symbol
 _atom_site_label
 _atom_site_symmetry_multiplicity
 _atom_site_fract_x
 _atom_site_fract_y
 _atom_site_fract_z
 _atom_site_occupancy
  Sm  Sm0  1  0.115221  0.042012  0.760843  1
  Ho  Ho1  1  0.337309  0.119193  0.160735  1
  Ho  Ho2  1  0.661785  0.880004  0.840700  1
  Ho  Ho3  1  0.968204  0.277967  0.084325  1
  Ho  Ho4  1  0.031158  0.721801  0.918248  1
  Ho  Ho5  1  0.886925  0.958770  0.233988  1
  Ni  Ni6  1  0.000040  0.000084  0.000272  1
  I  I7  1  0.349037  0.448829  0.271488  1
  I  I8  1  0.650644  0.550841  0.728785  1
  I  I9  1  0.772580  0.254737  0.342997  1
  I  I10  1  0.229055  0.740096  0.657396  1
  I  I11  1  0.550214  0.186553  0.910009  1
  I  I12  1  0.454299  0.815444  0.092948  1
  I  I13  1  0.736389  0.910908  0.535692  1
  I  I14  1  0.258313  0.087486  0.458415  1
  I  I15  1  0.914765  0.627431  0.180131  1
  I  I16  1  0.084064  0.377842  0.823027  1
