# generated using pymatgen
data_Ho5Er3Re(B8Os)3
_symmetry_space_group_name_H-M   'P 1'
_cell_length_a   3.64828800
_cell_length_b   9.12272451
_cell_length_c   11.50452602
_cell_angle_alpha   90.09028246
_cell_angle_beta   90.00000000
_cell_angle_gamma   90.00000000
_symmetry_Int_Tables_number   1
_chemical_formula_structural   Ho5Er3Re(B8Os)3
_chemical_formula_sum   'Ho5 Er3 Re1 B24 Os3'
_cell_volume   382.89691410
_cell_formula_units_Z   1
loop_
 _symmetry_equiv_pos_site_id
 _symmetry_equiv_pos_as_xyz
  1  'x, y, z'
loop_
 _atom_site_type_symbol
 _atom_site_label
 _atom_site_symmetry_multiplicity
 _atom_site_fract_x
 _atom_site_fract_y
 _atom_site_fract_z
 _atom_site_occupancy
  Ho  Ho0  1  0.000000  0.322156  0.414954  1
  Ho  Ho1  1  0.000000  0.680175  0.588122  1
  Ho  Ho2  1  0.000000  0.822393  0.083605  1
  Ho  Ho3  1  0.000000  0.176596  0.913220  1
  Ho  Ho4  1  0.000000  0.943431  0.371964  1
  Er  Er5  1  0.000000  0.055774  0.627790  1
  Er  Er6  1  0.000000  0.443108  0.127736  1
  Er  Er7  1  0.000000  0.556423  0.872777  1
  Re  Re8  1  0.000000  0.862369  0.821292  1
  B  B9  1  0.500000  0.553784  0.433324  1
  B  B10  1  0.500000  0.446225  0.566933  1
  B  B11  1  0.500000  0.053731  0.067166  1
  B  B12  1  0.500000  0.947079  0.933296  1
  B  B13  1  0.500000  0.748518  0.419554  1
  B  B14  1  0.500000  0.251326  0.580336  1
  B  B15  1  0.500000  0.248503  0.080606  1
  B  B16  1  0.500000  0.751172  0.919401  1
  B  B17  1  0.500000  0.790561  0.265875  1
  B  B18  1  0.500000  0.208855  0.733353  1
  B  B19  1  0.500000  0.291279  0.234041  1
  B  B20  1  0.500000  0.708161  0.765935  1
  B  B21  1  0.500000  0.630893  0.185194  1
  B  B22  1  0.500000  0.368667  0.814371  1
  B  B23  1  0.500000  0.131712  0.314812  1
  B  B24  1  0.500000  0.868830  0.685427  1
  B  B25  1  0.500000  0.983187  0.212566  1
  B  B26  1  0.500000  0.017985  0.787210  1
  B  B27  1  0.500000  0.482780  0.287656  1
  B  B28  1  0.500000  0.517161  0.712748  1
  B  B29  1  0.500000  0.605014  0.029750  1
  B  B30  1  0.500000  0.393556  0.970852  1
  B  B31  1  0.500000  0.106626  0.470393  1
  B  B32  1  0.500000  0.894065  0.529030  1
  Os  Os33  1  0.000000  0.637191  0.321332  1
  Os  Os34  1  0.000000  0.362547  0.678217  1
  Os  Os35  1  0.000000  0.138163  0.179162  1
