# generated using pymatgen
data_Er5TlSn2Se
_symmetry_space_group_name_H-M   'P 1'
_cell_length_a   9.01325000
_cell_length_b   9.02339548
_cell_length_c   6.71831500
_cell_angle_alpha   90.00000000
_cell_angle_beta   90.00000000
_cell_angle_gamma   120.03724809
_symmetry_Int_Tables_number   1
_chemical_formula_structural   Er5TlSn2Se
_chemical_formula_sum   'Er10 Tl2 Sn4 Se2'
_cell_volume   473.01975062
_cell_formula_units_Z   2
loop_
 _symmetry_equiv_pos_site_id
 _symmetry_equiv_pos_as_xyz
  1  'x, y, z'
loop_
 _atom_site_type_symbol
 _atom_site_label
 _atom_site_symmetry_multiplicity
 _atom_site_fract_x
 _atom_site_fract_y
 _atom_site_fract_z
 _atom_site_occupancy
  Er  Er0  1  0.666975  0.333328  0.998782  1
  Er  Er1  1  0.333025  0.666354  0.998782  1
  Er  Er2  1  0.333025  0.666354  0.501218  1
  Er  Er3  1  0.666975  0.333328  0.501218  1
  Er  Er4  1  0.747528  0.747351  0.750000  1
  Er  Er5  1  0.252472  0.999823  0.750000  1
  Er  Er6  1  0.000000  0.253049  0.750000  1
  Er  Er7  1  0.252124  0.252820  0.250000  1
  Er  Er8  1  0.747876  0.000696  0.250000  1
  Er  Er9  1  0.000000  0.748074  0.250000  1
  Tl  Tl10  1  0.396975  0.396916  0.750000  1
  Tl  Tl11  1  0.603025  0.999941  0.750000  1
  Sn  Sn12  1  0.000000  0.604655  0.750000  1
  Sn  Sn13  1  0.603074  0.602496  0.250000  1
  Sn  Sn14  1  0.396926  0.999422  0.250000  1
  Sn  Sn15  1  0.000000  0.395364  0.250000  1
  Se  Se16  1  0.000000  0.000015  0.000438  1
  Se  Se17  1  0.000000  0.000015  0.499562  1
