# generated using pymatgen
data_Nd3Ga24Pd8Rh
_symmetry_space_group_name_H-M   'P 1'
_cell_length_a   8.52224003
_cell_length_b   8.52223101
_cell_length_c   8.52371618
_cell_angle_alpha   90.13803376
_cell_angle_beta   90.14059094
_cell_angle_gamma   90.13533202
_symmetry_Int_Tables_number   1
_chemical_formula_structural   Nd3Ga24Pd8Rh
_chemical_formula_sum   'Nd3 Ga24 Pd8 Rh1'
_cell_volume   619.05931021
_cell_formula_units_Z   1
loop_
 _symmetry_equiv_pos_site_id
 _symmetry_equiv_pos_as_xyz
  1  'x, y, z'
loop_
 _atom_site_type_symbol
 _atom_site_label
 _atom_site_symmetry_multiplicity
 _atom_site_fract_x
 _atom_site_fract_y
 _atom_site_fract_z
 _atom_site_occupancy
  Nd  Nd0  1  0.000000  0.500000  0.000000  1
  Nd  Nd1  1  0.500000  0.000000  0.000000  1
  Nd  Nd2  1  0.000000  0.000000  0.500000  1
  Ga  Ga3  1  0.989437  0.643582  0.643584  1
  Ga  Ga4  1  0.643611  0.643619  0.989428  1
  Ga  Ga5  1  0.643574  0.989414  0.643575  1
  Ga  Ga6  1  0.010563  0.356418  0.356416  1
  Ga  Ga7  1  0.356389  0.356381  0.010572  1
  Ga  Ga8  1  0.356426  0.010586  0.356425  1
  Ga  Ga9  1  0.736231  0.499998  0.263748  1
  Ga  Ga10  1  0.263769  0.500002  0.736252  1
  Ga  Ga11  1  0.500006  0.263732  0.736260  1
  Ga  Ga12  1  0.499994  0.736268  0.263740  1
  Ga  Ga13  1  0.263780  0.736251  0.499992  1
  Ga  Ga14  1  0.736220  0.263749  0.500008  1
  Ga  Ga15  1  0.838641  0.142504  0.838679  1
  Ga  Ga16  1  0.142549  0.838635  0.838710  1
  Ga  Ga17  1  0.838705  0.838680  0.142523  1
  Ga  Ga18  1  0.161359  0.857496  0.161321  1
  Ga  Ga19  1  0.857451  0.161365  0.161290  1
  Ga  Ga20  1  0.161295  0.161320  0.857477  1
  Ga  Ga21  1  0.729857  0.487459  0.729888  1
  Ga  Ga22  1  0.487463  0.729883  0.729903  1
  Ga  Ga23  1  0.729873  0.729892  0.487465  1
  Ga  Ga24  1  0.270143  0.512541  0.270112  1
  Ga  Ga25  1  0.512537  0.270117  0.270097  1
  Ga  Ga26  1  0.270127  0.270108  0.512535  1
  Pd  Pd27  1  0.835848  0.835816  0.835801  1
  Pd  Pd28  1  0.164152  0.164184  0.164199  1
  Pd  Pd29  1  0.663676  0.336344  0.999989  1
  Pd  Pd30  1  0.999992  0.336299  0.663735  1
  Pd  Pd31  1  0.336282  0.999988  0.663752  1
  Pd  Pd32  1  0.336324  0.663656  0.000011  1
  Pd  Pd33  1  0.000008  0.663701  0.336265  1
  Pd  Pd34  1  0.663718  0.000012  0.336248  1
  Rh  Rh35  1  0.500000  0.500000  0.500000  1
