# generated using pymatgen
data_Gd5Si3H
_symmetry_space_group_name_H-M   'P 1'
_cell_length_a   8.52095200
_cell_length_b   8.52199632
_cell_length_c   6.20401700
_cell_angle_alpha   90.00000000
_cell_angle_beta   90.00000000
_cell_angle_gamma   120.00405131
_symmetry_Int_Tables_number   1
_chemical_formula_structural   Gd5Si3H
_chemical_formula_sum   'Gd10 Si6 H2'
_cell_volume   390.13538414
_cell_formula_units_Z   2
loop_
 _symmetry_equiv_pos_site_id
 _symmetry_equiv_pos_as_xyz
  1  'x, y, z'
loop_
 _atom_site_type_symbol
 _atom_site_label
 _atom_site_symmetry_multiplicity
 _atom_site_fract_x
 _atom_site_fract_y
 _atom_site_fract_z
 _atom_site_occupancy
  Gd  Gd0  1  0.668872  0.334430  0.000040  1
  Gd  Gd1  1  0.331128  0.665558  0.000040  1
  Gd  Gd2  1  0.331128  0.665558  0.499960  1
  Gd  Gd3  1  0.668872  0.334430  0.499960  1
  Gd  Gd4  1  0.749745  0.750261  0.750000  1
  Gd  Gd5  1  0.250255  0.000516  0.750000  1
  Gd  Gd6  1  0.000000  0.250774  0.750000  1
  Gd  Gd7  1  0.249818  0.249647  0.250000  1
  Gd  Gd8  1  0.750182  0.999829  0.250000  1
  Gd  Gd9  1  0.000000  0.749072  0.250000  1
  Si  Si10  1  0.000000  0.611909  0.750000  1
  Si  Si11  1  0.609751  0.610827  0.250000  1
  Si  Si12  1  0.390249  0.001076  0.250000  1
  Si  Si13  1  0.000000  0.388379  0.250000  1
  Si  Si14  1  0.390200  0.388426  0.750000  1
  Si  Si15  1  0.609800  0.998226  0.750000  1
  H  H16  1  0.000000  0.000540  0.500207  1
  H  H17  1  0.000000  0.000540  0.999793  1
