# generated using pymatgen
data_V2W5
_symmetry_space_group_name_H-M   'P 1'
_cell_length_a   4.42050928
_cell_length_b   4.42246645
_cell_length_c   6.87751344
_cell_angle_alpha   71.19415430
_cell_angle_beta   90.00081328
_cell_angle_gamma   60.00465759
_symmetry_Int_Tables_number   1
_chemical_formula_structural   V2W5
_chemical_formula_sum   'V2 W5'
_cell_volume   108.07728662
_cell_formula_units_Z   1
loop_
 _symmetry_equiv_pos_site_id
 _symmetry_equiv_pos_as_xyz
  1  'x, y, z'
loop_
 _atom_site_type_symbol
 _atom_site_label
 _atom_site_symmetry_multiplicity
 _atom_site_fract_x
 _atom_site_fract_y
 _atom_site_fract_z
 _atom_site_occupancy
  V  V0  1  0.252802  0.009359  0.459784  1
  V  V1  1  0.110384  0.294176  0.033079  1
  W  W2  1  0.967015  0.580845  0.602905  1
  W  W3  1  0.824951  0.865016  0.176185  1
  W  W4  1  0.538102  0.438694  0.316506  1
  W  W5  1  0.396122  0.722818  0.889845  1
  W  W6  1  0.681546  0.151851  0.746339  1
