# generated using pymatgen
data_Nd5Sm(BO3)6
_symmetry_space_group_name_H-M   'P 1'
_cell_length_a   6.79906032
_cell_length_b   6.80930487
_cell_length_c   9.87783934
_cell_angle_alpha   70.18734045
_cell_angle_beta   70.17867202
_cell_angle_gamma   60.02610013
_symmetry_Int_Tables_number   1
_chemical_formula_structural   Nd5Sm(BO3)6
_chemical_formula_sum   'Nd5 Sm1 B6 O18'
_cell_volume   364.52505960
_cell_formula_units_Z   1
loop_
 _symmetry_equiv_pos_site_id
 _symmetry_equiv_pos_as_xyz
  1  'x, y, z'
loop_
 _atom_site_type_symbol
 _atom_site_label
 _atom_site_symmetry_multiplicity
 _atom_site_fract_x
 _atom_site_fract_y
 _atom_site_fract_z
 _atom_site_occupancy
  Nd  Nd0  1  0.999463  0.500297  0.499977  1
  Nd  Nd1  1  0.499987  0.999960  0.999980  1
  Nd  Nd2  1  0.829034  0.342885  0.000807  1
  Nd  Nd3  1  0.656147  0.171586  0.499169  1
  Nd  Nd4  1  0.171059  0.657162  0.999203  1
  Sm  Sm5  1  0.342685  0.828934  0.500788  1
  B  B6  1  0.083374  0.150053  0.253851  1
  B  B7  1  0.847440  0.917214  0.247805  1
  B  B8  1  0.918690  0.848919  0.746161  1
  B  B9  1  0.151820  0.081769  0.751798  1
  B  B10  1  0.317452  0.683155  0.250943  1
  B  B11  1  0.681565  0.318723  0.749451  1
  O  O12  1  0.037690  0.212358  0.392285  1
  O  O13  1  0.785104  0.964284  0.109030  1
  O  O14  1  0.966578  0.785548  0.607724  1
  O  O15  1  0.214853  0.035672  0.890310  1
  O  O16  1  0.129694  0.305507  0.115137  1
  O  O17  1  0.690680  0.870245  0.385706  1
  O  O18  1  0.870834  0.694155  0.884848  1
  O  O19  1  0.307028  0.127529  0.613118  1
  O  O20  1  0.474203  0.619808  0.112750  1
  O  O21  1  0.380358  0.527493  0.389118  1
  O  O22  1  0.525492  0.380501  0.887937  1
  O  O23  1  0.616367  0.477438  0.612114  1
  O  O24  1  0.083492  0.707882  0.248273  1
  O  O25  1  0.293204  0.915519  0.253941  1
  O  O26  1  0.916127  0.292336  0.751685  1
  O  O27  1  0.707917  0.084559  0.746875  1
  O  O28  1  0.873007  0.126063  0.250802  1
  O  O29  1  0.128656  0.872448  0.748415  1
