# generated using pymatgen
data_Pr8MgSc11Si15Au
_symmetry_space_group_name_H-M   'P 1'
_cell_length_a   7.23190515
_cell_length_b   7.60362136
_cell_length_c   14.26243300
_cell_angle_alpha   90.00000000
_cell_angle_beta   90.00000000
_cell_angle_gamma   90.50428565
_symmetry_Int_Tables_number   1
_chemical_formula_structural   Pr8MgSc11Si15Au
_chemical_formula_sum   'Pr8 Mg1 Sc11 Si15 Au1'
_cell_volume   784.24182338
_cell_formula_units_Z   1
loop_
 _symmetry_equiv_pos_site_id
 _symmetry_equiv_pos_as_xyz
  1  'x, y, z'
loop_
 _atom_site_type_symbol
 _atom_site_label
 _atom_site_symmetry_multiplicity
 _atom_site_fract_x
 _atom_site_fract_y
 _atom_site_fract_z
 _atom_site_occupancy
  Pr  Pr0  1  0.013133  0.174969  0.401125  1
  Pr  Pr1  1  0.512223  0.327868  0.401169  1
  Pr  Pr2  1  0.491436  0.672146  0.903831  1
  Pr  Pr3  1  0.491436  0.672146  0.596169  1
  Pr  Pr4  1  0.982965  0.826292  0.597702  1
  Pr  Pr5  1  0.982965  0.826292  0.902298  1
  Pr  Pr6  1  0.512223  0.327868  0.098831  1
  Pr  Pr7  1  0.013133  0.174969  0.098875  1
  Mg  Mg8  1  0.654327  0.002738  0.750000  1
  Sc  Sc9  1  0.330996  0.180880  0.624227  1
  Sc  Sc10  1  0.672191  0.823418  0.374427  1
  Sc  Sc11  1  0.172331  0.675953  0.375131  1
  Sc  Sc12  1  0.827700  0.320242  0.876952  1
  Sc  Sc13  1  0.827700  0.320242  0.623048  1
  Sc  Sc14  1  0.839526  0.503349  0.250000  1
  Sc  Sc15  1  0.339161  0.997910  0.250000  1
  Sc  Sc16  1  0.330996  0.180880  0.875773  1
  Sc  Sc17  1  0.172331  0.675953  0.124869  1
  Sc  Sc18  1  0.672191  0.823418  0.125573  1
  Sc  Sc19  1  0.159127  0.489754  0.750000  1
  Si  Si20  1  0.466520  0.624466  0.250000  1
  Si  Si21  1  0.033461  0.130857  0.750000  1
  Si  Si22  1  0.535767  0.383220  0.750000  1
  Si  Si23  1  0.151407  0.464936  0.540039  1
  Si  Si24  1  0.968592  0.875534  0.250000  1
  Si  Si25  1  0.711616  0.116248  0.250000  1
  Si  Si26  1  0.847802  0.536779  0.040620  1
  Si  Si27  1  0.348013  0.962698  0.037903  1
  Si  Si28  1  0.151407  0.464936  0.959961  1
  Si  Si29  1  0.652255  0.040164  0.534318  1
  Si  Si30  1  0.348013  0.962698  0.462097  1
  Si  Si31  1  0.847802  0.536779  0.459380  1
  Si  Si32  1  0.791060  0.600246  0.750000  1
  Si  Si33  1  0.211483  0.386101  0.250000  1
  Si  Si34  1  0.652255  0.040164  0.965682  1
  Au  Au35  1  0.284457  0.876890  0.750000  1
