# generated using pymatgen
data_Dy3TmFe3Os5
_symmetry_space_group_name_H-M   'P 1'
_cell_length_a   5.27291461
_cell_length_b   5.30940383
_cell_length_c   9.16652074
_cell_angle_alpha   73.16548189
_cell_angle_beta   91.07832418
_cell_angle_gamma   120.22917501
_symmetry_Int_Tables_number   1
_chemical_formula_structural   Dy3TmFe3Os5
_chemical_formula_sum   'Dy3 Tm1 Fe3 Os5'
_cell_volume   209.71068897
_cell_formula_units_Z   1
loop_
 _symmetry_equiv_pos_site_id
 _symmetry_equiv_pos_as_xyz
  1  'x, y, z'
loop_
 _atom_site_type_symbol
 _atom_site_label
 _atom_site_symmetry_multiplicity
 _atom_site_fract_x
 _atom_site_fract_y
 _atom_site_fract_z
 _atom_site_occupancy
  Dy  Dy0  1  0.378497  0.752446  0.873605  1
  Dy  Dy1  1  0.996014  0.996802  0.002411  1
  Dy  Dy2  1  0.500233  0.000579  0.499075  1
  Tm  Tm3  1  0.875289  0.750151  0.374987  1
  Fe  Fe4  1  0.687887  0.375046  0.937796  1
  Fe  Fe5  1  0.939908  0.375174  0.189560  1
  Fe  Fe6  1  0.435091  0.374847  0.685396  1
  Os  Os7  1  0.440711  0.373044  0.185379  1
  Os  Os8  1  0.934197  0.377031  0.689629  1
  Os  Os9  1  0.440711  0.882288  0.185379  1
  Os  Os10  1  0.934197  0.867536  0.689629  1
  Os  Os11  1  0.187265  0.375056  0.437152  1
