# generated using pymatgen
data_TbY2Zn2In3Ir
_symmetry_space_group_name_H-M   'P 1'
_cell_length_a   7.76745383
_cell_length_b   7.77690905
_cell_length_c   3.84833900
_cell_angle_alpha   90.00000000
_cell_angle_beta   90.00000000
_cell_angle_gamma   120.01271313
_symmetry_Int_Tables_number   1
_chemical_formula_structural   TbY2Zn2In3Ir
_chemical_formula_sum   'Tb1 Y2 Zn2 In3 Ir1'
_cell_volume   201.29547131
_cell_formula_units_Z   1
loop_
 _symmetry_equiv_pos_site_id
 _symmetry_equiv_pos_as_xyz
  1  'x, y, z'
loop_
 _atom_site_type_symbol
 _atom_site_label
 _atom_site_symmetry_multiplicity
 _atom_site_fract_x
 _atom_site_fract_y
 _atom_site_fract_z
 _atom_site_occupancy
  Tb  Tb0  1  0.974580  0.584867  0.000000  1
  Y  Y1  1  0.414036  0.389345  0.000000  1
  Y  Y2  1  0.610426  0.024629  0.000000  1
  Zn  Zn3  1  0.999918  0.999800  0.000000  1
  Zn  Zn4  1  0.333402  0.666944  0.500000  1
  In  In5  1  0.007272  0.267074  0.500000  1
  In  In6  1  0.732443  0.739890  0.500000  1
  In  In7  1  0.260578  0.993168  0.500000  1
  Ir  Ir8  1  0.667345  0.334283  0.500000  1
