# generated using pymatgen
data_Cs6TiFeSe6
_symmetry_space_group_name_H-M   'P 1'
_cell_length_a   10.88687139
_cell_length_b   10.88687145
_cell_length_c   14.13649300
_cell_angle_alpha   90.00000000
_cell_angle_beta   90.00000000
_cell_angle_gamma   138.37456846
_symmetry_Int_Tables_number   1
_chemical_formula_structural   Cs6TiFeSe6
_chemical_formula_sum   'Cs12 Ti2 Fe2 Se12'
_cell_volume   1112.97320315
_cell_formula_units_Z   2
loop_
 _symmetry_equiv_pos_site_id
 _symmetry_equiv_pos_as_xyz
  1  'x, y, z'
loop_
 _atom_site_type_symbol
 _atom_site_label
 _atom_site_symmetry_multiplicity
 _atom_site_fract_x
 _atom_site_fract_y
 _atom_site_fract_z
 _atom_site_occupancy
  Cs  Cs0  1  0.876576  0.870968  0.688736  1
  Cs  Cs1  1  0.129032  0.123424  0.311264  1
  Cs  Cs2  1  0.629032  0.623424  0.188736  1
  Cs  Cs3  1  0.376576  0.370968  0.811264  1
  Cs  Cs4  1  0.176002  0.534176  0.125632  1
  Cs  Cs5  1  0.465824  0.823998  0.874368  1
  Cs  Cs6  1  0.965824  0.323998  0.625632  1
  Cs  Cs7  1  0.676002  0.034176  0.374368  1
  Cs  Cs8  1  0.829844  0.480380  0.876925  1
  Cs  Cs9  1  0.519620  0.170156  0.123075  1
  Cs  Cs10  1  0.019620  0.670156  0.376925  1
  Cs  Cs11  1  0.329844  0.980380  0.623075  1
  Ti  Ti12  1  0.926664  0.073336  0.000000  1
  Ti  Ti13  1  0.426664  0.573336  0.500000  1
  Fe  Fe14  1  0.076564  0.923436  0.000000  1
  Fe  Fe15  1  0.576564  0.423436  0.500000  1
  Se  Se16  1  0.276672  0.278741  0.561653  1
  Se  Se17  1  0.721259  0.723328  0.438347  1
  Se  Se18  1  0.221259  0.223328  0.061653  1
  Se  Se19  1  0.776672  0.778741  0.938347  1
  Se  Se20  1  0.732209  0.017360  0.121938  1
  Se  Se21  1  0.982640  0.267791  0.878062  1
  Se  Se22  1  0.482640  0.767791  0.621938  1
  Se  Se23  1  0.232209  0.517360  0.378062  1
  Se  Se24  1  0.273434  0.986340  0.877767  1
  Se  Se25  1  0.013660  0.726566  0.122233  1
  Se  Se26  1  0.513660  0.226566  0.377767  1
  Se  Se27  1  0.773434  0.486340  0.622233  1
