# generated using pymatgen
data_Hf3Zr7Sn3Ge2Sb3
_symmetry_space_group_name_H-M   'P 1'
_cell_length_a   8.69403500
_cell_length_b   8.69403547
_cell_length_c   5.86962600
_cell_angle_alpha   90.00000000
_cell_angle_beta   90.00000000
_cell_angle_gamma   119.99999442
_symmetry_Int_Tables_number   1
_chemical_formula_structural   Hf3Zr7Sn3Ge2Sb3
_chemical_formula_sum   'Hf3 Zr7 Sn3 Ge2 Sb3'
_cell_volume   384.22345926
_cell_formula_units_Z   1
loop_
 _symmetry_equiv_pos_site_id
 _symmetry_equiv_pos_as_xyz
  1  'x, y, z'
loop_
 _atom_site_type_symbol
 _atom_site_label
 _atom_site_symmetry_multiplicity
 _atom_site_fract_x
 _atom_site_fract_y
 _atom_site_fract_z
 _atom_site_occupancy
  Hf  Hf0  1  0.666667  0.333333  0.997613  1
  Hf  Hf1  1  0.333333  0.666667  0.997751  1
  Hf  Hf2  1  0.333333  0.666667  0.502313  1
  Zr  Zr3  1  0.666667  0.333333  0.501876  1
  Zr  Zr4  1  0.732634  0.732764  0.750219  1
  Zr  Zr5  1  0.267236  0.999870  0.750219  1
  Zr  Zr6  1  0.000130  0.267366  0.750219  1
  Zr  Zr7  1  0.261733  0.261972  0.249926  1
  Zr  Zr8  1  0.738028  0.999762  0.249926  1
  Zr  Zr9  1  0.000238  0.738267  0.249926  1
  Sn  Sn10  1  0.390211  0.390554  0.750396  1
  Sn  Sn11  1  0.609446  0.999657  0.750396  1
  Sn  Sn12  1  0.000343  0.609789  0.750396  1
  Ge  Ge13  1  0.000000  0.000000  0.996012  1
  Ge  Ge14  1  0.000000  0.000000  0.504021  1
  Sb  Sb15  1  0.603309  0.603721  0.249597  1
  Sb  Sb16  1  0.396279  0.999588  0.249597  1
  Sb  Sb17  1  0.000412  0.396691  0.249597  1
