# generated using pymatgen
data_DyY15MgHg3Rh4
_symmetry_space_group_name_H-M   'P 1'
_cell_length_a   9.68340262
_cell_length_b   9.66904166
_cell_length_c   9.66904108
_cell_angle_alpha   59.77019445
_cell_angle_beta   59.81220442
_cell_angle_gamma   59.81219675
_symmetry_Int_Tables_number   1
_chemical_formula_structural   DyY15MgHg3Rh4
_chemical_formula_sum   'Dy1 Y15 Mg1 Hg3 Rh4'
_cell_volume   637.21434904
_cell_formula_units_Z   1
loop_
 _symmetry_equiv_pos_site_id
 _symmetry_equiv_pos_as_xyz
  1  'x, y, z'
loop_
 _atom_site_type_symbol
 _atom_site_label
 _atom_site_symmetry_multiplicity
 _atom_site_fract_x
 _atom_site_fract_y
 _atom_site_fract_z
 _atom_site_occupancy
  Dy  Dy0  1  0.599708  0.597442  0.597442  1
  Y  Y1  1  0.602156  0.599343  0.201321  1
  Y  Y2  1  0.602156  0.201321  0.599343  1
  Y  Y3  1  0.189853  0.603983  0.603983  1
  Y  Y4  1  0.058002  0.440762  0.440762  1
  Y  Y5  1  0.435998  0.062228  0.062228  1
  Y  Y6  1  0.437225  0.061057  0.438674  1
  Y  Y7  1  0.058869  0.439755  0.059636  1
  Y  Y8  1  0.437225  0.438674  0.061057  1
  Y  Y9  1  0.058869  0.059636  0.439755  1
  Y  Y10  1  0.186492  0.813203  0.813203  1
  Y  Y11  1  0.812435  0.186479  0.186479  1
  Y  Y12  1  0.812362  0.187971  0.814087  1
  Y  Y13  1  0.185126  0.813108  0.188178  1
  Y  Y14  1  0.812362  0.814087  0.187971  1
  Y  Y15  1  0.185126  0.188178  0.813108  1
  Mg  Mg16  1  0.534204  0.821527  0.821527  1
  Hg  Hg17  1  0.832030  0.836295  0.836295  1
  Hg  Hg18  1  0.832177  0.836714  0.494059  1
  Hg  Hg19  1  0.832177  0.494059  0.836714  1
  Rh  Rh20  1  0.389838  0.394005  0.394005  1
  Rh  Rh21  1  0.391558  0.395363  0.821129  1
  Rh  Rh22  1  0.391558  0.821129  0.395363  1
  Rh  Rh23  1  0.822494  0.393680  0.393680  1
