# generated using pymatgen
data_TbSm2CoSn6
_symmetry_space_group_name_H-M   'P 1'
_cell_length_a   8.53064288
_cell_length_b   8.53064415
_cell_length_c   13.26760200
_cell_angle_alpha   90.00000000
_cell_angle_beta   90.00000000
_cell_angle_gamma   148.77737748
_symmetry_Int_Tables_number   1
_chemical_formula_structural   TbSm2CoSn6
_chemical_formula_sum   'Tb2 Sm4 Co2 Sn12'
_cell_volume   500.48543224
_cell_formula_units_Z   2
loop_
 _symmetry_equiv_pos_site_id
 _symmetry_equiv_pos_as_xyz
  1  'x, y, z'
loop_
 _atom_site_type_symbol
 _atom_site_label
 _atom_site_symmetry_multiplicity
 _atom_site_fract_x
 _atom_site_fract_y
 _atom_site_fract_z
 _atom_site_occupancy
  Tb  Tb0  1  0.899605  0.100395  0.750000  1
  Tb  Tb1  1  0.100395  0.899605  0.250000  1
  Sm  Sm2  1  0.899744  0.100256  0.092314  1
  Sm  Sm3  1  0.100256  0.899744  0.592314  1
  Sm  Sm4  1  0.100256  0.899744  0.907686  1
  Sm  Sm5  1  0.899744  0.100256  0.407686  1
  Co  Co6  1  0.298370  0.701630  0.250000  1
  Co  Co7  1  0.701630  0.298370  0.750000  1
  Sn  Sn8  1  0.755231  0.244769  0.571940  1
  Sn  Sn9  1  0.428118  0.571882  0.577952  1
  Sn  Sn10  1  0.571882  0.428118  0.422048  1
  Sn  Sn11  1  0.733879  0.266121  0.250000  1
  Sn  Sn12  1  0.266121  0.733879  0.750000  1
  Sn  Sn13  1  0.244769  0.755231  0.071940  1
  Sn  Sn14  1  0.244769  0.755231  0.428060  1
  Sn  Sn15  1  0.571882  0.428118  0.077952  1
  Sn  Sn16  1  0.453105  0.546895  0.250000  1
  Sn  Sn17  1  0.546895  0.453105  0.750000  1
  Sn  Sn18  1  0.755231  0.244769  0.928060  1
  Sn  Sn19  1  0.428118  0.571882  0.922048  1
