# generated using pymatgen
data_Hf18Ta5P2W3
_symmetry_space_group_name_H-M   'P 1'
_cell_length_a   8.77730300
_cell_length_b   8.69510522
_cell_length_c   8.73042152
_cell_angle_alpha   120.14111735
_cell_angle_beta   90.00000000
_cell_angle_gamma   90.00000000
_symmetry_Int_Tables_number   1
_chemical_formula_structural   Hf18Ta5P2W3
_chemical_formula_sum   'Hf18 Ta5 P2 W3'
_cell_volume   576.21220868
_cell_formula_units_Z   1
loop_
 _symmetry_equiv_pos_site_id
 _symmetry_equiv_pos_as_xyz
  1  'x, y, z'
loop_
 _atom_site_type_symbol
 _atom_site_label
 _atom_site_symmetry_multiplicity
 _atom_site_fract_x
 _atom_site_fract_y
 _atom_site_fract_z
 _atom_site_occupancy
  Hf  Hf0  1  0.549356  0.801199  0.602673  1
  Hf  Hf1  1  0.549324  0.801141  0.198610  1
  Hf  Hf2  1  0.547867  0.396091  0.198056  1
  Hf  Hf3  1  0.449101  0.198496  0.396716  1
  Hf  Hf4  1  0.449136  0.198548  0.801695  1
  Hf  Hf5  1  0.450019  0.602598  0.801284  1
  Hf  Hf6  1  0.050899  0.198496  0.396716  1
  Hf  Hf7  1  0.050864  0.198548  0.801695  1
  Hf  Hf8  1  0.049981  0.602598  0.801284  1
  Hf  Hf9  1  0.950644  0.801199  0.602673  1
  Hf  Hf10  1  0.950676  0.801141  0.198610  1
  Hf  Hf11  1  0.952133  0.396091  0.198056  1
  Hf  Hf12  1  0.750000  0.461084  0.922409  1
  Hf  Hf13  1  0.750000  0.461135  0.538662  1
  Hf  Hf14  1  0.750000  0.077919  0.538976  1
  Hf  Hf15  1  0.250000  0.537297  0.078100  1
  Hf  Hf16  1  0.250000  0.537243  0.459201  1
  Hf  Hf17  1  0.250000  0.922504  0.461236  1
  Ta  Ta18  1  0.750000  0.111969  0.223412  1
  Ta  Ta19  1  0.750000  0.112009  0.888610  1
  Ta  Ta20  1  0.750000  0.776819  0.888460  1
  Ta  Ta21  1  0.250000  0.890530  0.777306  1
  Ta  Ta22  1  0.250000  0.890454  0.113154  1
  P  P23  1  0.750000  0.666435  0.333249  1
  P  P24  1  0.250000  0.332963  0.666447  1
  W  W25  1  0.250000  0.223035  0.111477  1
  W  W26  1  0.499124  0.001229  0.000615  1
  W  W27  1  0.000876  0.001229  0.000615  1
