# generated using pymatgen
data_PrTh2CoSn3Ir2
_symmetry_space_group_name_H-M   'P 1'
_cell_length_a   7.60483444
_cell_length_b   7.60483463
_cell_length_c   4.05599300
_cell_angle_alpha   90.00000000
_cell_angle_beta   90.00000000
_cell_angle_gamma   120.42197376
_symmetry_Int_Tables_number   1
_chemical_formula_structural   PrTh2CoSn3Ir2
_chemical_formula_sum   'Pr1 Th2 Co1 Sn3 Ir2'
_cell_volume   202.27628065
_cell_formula_units_Z   1
loop_
 _symmetry_equiv_pos_site_id
 _symmetry_equiv_pos_as_xyz
  1  'x, y, z'
loop_
 _atom_site_type_symbol
 _atom_site_label
 _atom_site_symmetry_multiplicity
 _atom_site_fract_x
 _atom_site_fract_y
 _atom_site_fract_z
 _atom_site_occupancy
  Pr  Pr0  1  0.408458  0.408458  0.000000  1
  Th  Th1  1  0.589937  0.000865  0.000000  1
  Th  Th2  1  0.000865  0.589937  0.000000  1
  Co  Co3  1  0.988273  0.988273  0.000000  1
  Sn  Sn4  1  0.243417  0.005945  0.500000  1
  Sn  Sn5  1  0.005945  0.243417  0.500000  1
  Sn  Sn6  1  0.749456  0.749456  0.500000  1
  Ir  Ir7  1  0.331063  0.682585  0.500000  1
  Ir  Ir8  1  0.682585  0.331063  0.500000  1
