# generated using pymatgen
data_La4TbDySi4
_symmetry_space_group_name_H-M   'P 1'
_cell_length_a   7.70579400
_cell_length_b   7.70579400
_cell_length_c   4.51912100
_cell_angle_alpha   90.00000000
_cell_angle_beta   90.00000000
_cell_angle_gamma   90.00000000
_symmetry_Int_Tables_number   1
_chemical_formula_structural   La4TbDySi4
_chemical_formula_sum   'La4 Tb1 Dy1 Si4'
_cell_volume   268.34206612
_cell_formula_units_Z   1
loop_
 _symmetry_equiv_pos_site_id
 _symmetry_equiv_pos_as_xyz
  1  'x, y, z'
loop_
 _atom_site_type_symbol
 _atom_site_label
 _atom_site_symmetry_multiplicity
 _atom_site_fract_x
 _atom_site_fract_y
 _atom_site_fract_z
 _atom_site_occupancy
  La  La0  1  0.822938  0.677188  0.500000  1
  La  La1  1  0.322812  0.822938  0.500000  1
  La  La2  1  0.177062  0.322812  0.500000  1
  La  La3  1  0.677188  0.177062  0.500000  1
  Tb  Tb4  1  0.500000  0.500000  0.000000  1
  Dy  Dy5  1  0.000000  0.000000  0.000000  1
  Si  Si6  1  0.112792  0.612947  0.000000  1
  Si  Si7  1  0.612947  0.887208  0.000000  1
  Si  Si8  1  0.387053  0.112792  0.000000  1
  Si  Si9  1  0.887208  0.387053  0.000000  1
