# generated using pymatgen
data_Tb7Dy(TeO6)4
_symmetry_space_group_name_H-M   'P 1'
_cell_length_a   5.32818713
_cell_length_b   9.24536180
_cell_length_c   10.01158100
_cell_angle_alpha   90.07855012
_cell_angle_beta   90.26531798
_cell_angle_gamma   90.12207403
_symmetry_Int_Tables_number   1
_chemical_formula_structural   Tb7Dy(TeO6)4
_chemical_formula_sum   'Tb7 Dy1 Te4 O24'
_cell_volume   493.17379178
_cell_formula_units_Z   1
loop_
 _symmetry_equiv_pos_site_id
 _symmetry_equiv_pos_as_xyz
  1  'x, y, z'
loop_
 _atom_site_type_symbol
 _atom_site_label
 _atom_site_symmetry_multiplicity
 _atom_site_fract_x
 _atom_site_fract_y
 _atom_site_fract_z
 _atom_site_occupancy
  Tb  Tb0  1  0.039430  0.216730  0.136138  1
  Tb  Tb1  1  0.461081  0.783518  0.635761  1
  Tb  Tb2  1  0.961270  0.717092  0.363763  1
  Tb  Tb3  1  0.538727  0.282763  0.863635  1
  Tb  Tb4  1  0.021248  0.104970  0.539856  1
  Tb  Tb5  1  0.481319  0.896183  0.039657  1
  Tb  Tb6  1  0.980426  0.603784  0.960481  1
  Dy  Dy7  1  0.517360  0.397333  0.460478  1
  Te  Te8  1  0.538601  0.004992  0.354569  1
  Te  Te9  1  0.962367  0.995375  0.854195  1
  Te  Te10  1  0.463140  0.504343  0.145842  1
  Te  Te11  1  0.036072  0.495226  0.645489  1
  O  O12  1  0.415105  0.156701  0.471584  1
  O  O13  1  0.086353  0.845394  0.973048  1
  O  O14  1  0.587041  0.654952  0.027857  1
  O  O15  1  0.907698  0.344994  0.527599  1
  O  O16  1  0.732692  0.385885  0.065714  1
  O  O17  1  0.766423  0.614224  0.565534  1
  O  O18  1  0.268359  0.886650  0.434600  1
  O  O19  1  0.232224  0.114528  0.934708  1
  O  O20  1  0.256365  0.415242  0.002852  1
  O  O21  1  0.241937  0.583913  0.502911  1
  O  O22  1  0.744454  0.916149  0.497316  1
  O  O23  1  0.756544  0.084555  0.996423  1
  O  O24  1  0.183192  0.638001  0.178146  1
  O  O25  1  0.315517  0.360356  0.676337  1
  O  O26  1  0.819923  0.137496  0.321875  1
  O  O27  1  0.683307  0.860513  0.821845  1
  O  O28  1  0.330340  0.050022  0.203323  1
  O  O29  1  0.171510  0.950396  0.703950  1
  O  O30  1  0.671020  0.549445  0.297509  1
  O  O31  1  0.828623  0.449673  0.796349  1
  O  O32  1  0.318211  0.358217  0.259510  1
  O  O33  1  0.183838  0.641216  0.759174  1
  O  O34  1  0.682396  0.858080  0.241227  1
  O  O35  1  0.815891  0.141089  0.740742  1
