# generated using pymatgen
data_Ca2Nd15Er3Sn16
_symmetry_space_group_name_H-M   'P 1'
_cell_length_a   8.14670226
_cell_length_b   8.46479772
_cell_length_c   16.07934400
_cell_angle_alpha   90.17741500
_cell_angle_beta   89.43702720
_cell_angle_gamma   90.19496744
_symmetry_Int_Tables_number   1
_chemical_formula_structural   Ca2Nd15Er3Sn16
_chemical_formula_sum   'Ca2 Nd15 Er3 Sn16'
_cell_volume   1108.76941733
_cell_formula_units_Z   1
loop_
 _symmetry_equiv_pos_site_id
 _symmetry_equiv_pos_as_xyz
  1  'x, y, z'
loop_
 _atom_site_type_symbol
 _atom_site_label
 _atom_site_symmetry_multiplicity
 _atom_site_fract_x
 _atom_site_fract_y
 _atom_site_fract_z
 _atom_site_occupancy
  Ca  Ca0  1  0.829332  0.503427  0.250674  1
  Ca  Ca1  1  0.329451  0.994744  0.250214  1
  Nd  Nd2  1  0.842417  0.669572  0.626252  1
  Nd  Nd3  1  0.654398  0.168112  0.377407  1
  Nd  Nd4  1  0.160225  0.327708  0.121078  1
  Nd  Nd5  1  0.661782  0.170319  0.122397  1
  Nd  Nd6  1  0.155624  0.330286  0.377256  1
  Nd  Nd7  1  0.344093  0.832173  0.626037  1
  Nd  Nd8  1  0.839909  0.670784  0.874891  1
  Nd  Nd9  1  0.496691  0.320910  0.902669  1
  Nd  Nd10  1  0.001265  0.180840  0.598018  1
  Nd  Nd11  1  0.502373  0.681949  0.404689  1
  Nd  Nd12  1  0.003598  0.815937  0.095713  1
  Nd  Nd13  1  0.502742  0.680839  0.094427  1
  Nd  Nd14  1  0.001850  0.817893  0.404234  1
  Nd  Nd15  1  0.499992  0.319323  0.598558  1
  Nd  Nd16  1  0.997078  0.180696  0.902198  1
  Er  Er17  1  0.335864  0.832047  0.872717  1
  Er  Er18  1  0.172586  0.498460  0.750167  1
  Er  Er19  1  0.671836  0.003182  0.749929  1
  Sn  Sn20  1  0.322876  0.032773  0.034825  1
  Sn  Sn21  1  0.814352  0.461345  0.463152  1
  Sn  Sn22  1  0.687424  0.964215  0.542100  1
  Sn  Sn23  1  0.182266  0.539496  0.956188  1
  Sn  Sn24  1  0.667998  0.963301  0.955982  1
  Sn  Sn25  1  0.185906  0.537022  0.541783  1
  Sn  Sn26  1  0.312505  0.038150  0.463022  1
  Sn  Sn27  1  0.822302  0.463543  0.037646  1
  Sn  Sn28  1  0.532232  0.614091  0.752816  1
  Sn  Sn29  1  0.036762  0.891358  0.752361  1
  Sn  Sn30  1  0.459905  0.393263  0.249658  1
  Sn  Sn31  1  0.960542  0.105129  0.249630  1
  Sn  Sn32  1  0.305063  0.147146  0.752149  1
  Sn  Sn33  1  0.804002  0.352498  0.751232  1
  Sn  Sn34  1  0.701586  0.857955  0.249066  1
  Sn  Sn35  1  0.201171  0.639512  0.248871  1
