# generated using pymatgen
data_Ac3Pr(ZnIn)4
_symmetry_space_group_name_H-M   'P 1'
_cell_length_a   4.87323200
_cell_length_b   4.87323138
_cell_length_c   16.20701300
_cell_angle_alpha   90.00000000
_cell_angle_beta   90.00000000
_cell_angle_gamma   120.00000418
_symmetry_Int_Tables_number   1
_chemical_formula_structural   Ac3Pr(ZnIn)4
_chemical_formula_sum   'Ac3 Pr1 Zn4 In4'
_cell_volume   333.32486641
_cell_formula_units_Z   1
loop_
 _symmetry_equiv_pos_site_id
 _symmetry_equiv_pos_as_xyz
  1  'x, y, z'
loop_
 _atom_site_type_symbol
 _atom_site_label
 _atom_site_symmetry_multiplicity
 _atom_site_fract_x
 _atom_site_fract_y
 _atom_site_fract_z
 _atom_site_occupancy
  Ac  Ac0  1  0.000000  0.000000  0.505280  1
  Ac  Ac1  1  0.000000  0.000000  0.994720  1
  Ac  Ac2  1  0.000000  0.000000  0.250000  1
  Pr  Pr3  1  0.000000  0.000000  0.750000  1
  Zn  Zn4  1  0.333333  0.666667  0.354300  1
  Zn  Zn5  1  0.666667  0.333333  0.612398  1
  Zn  Zn6  1  0.666667  0.333333  0.887602  1
  Zn  Zn7  1  0.333333  0.666667  0.145700  1
  In  In8  1  0.333333  0.666667  0.852786  1
  In  In9  1  0.666667  0.333333  0.109210  1
  In  In10  1  0.666667  0.333333  0.390790  1
  In  In11  1  0.333333  0.666667  0.647214  1
