# generated using pymatgen
data_Cs3Nb2Br9
_symmetry_space_group_name_H-M   'P 1'
_cell_length_a   8.01398600
_cell_length_b   8.01398560
_cell_length_c   18.70956200
_cell_angle_alpha   90.00000000
_cell_angle_beta   90.00000000
_cell_angle_gamma   120.00000165
_symmetry_Int_Tables_number   1
_chemical_formula_structural   Cs3Nb2Br9
_chemical_formula_sum   'Cs6 Nb4 Br18'
_cell_volume   1040.61811599
_cell_formula_units_Z   2
loop_
 _symmetry_equiv_pos_site_id
 _symmetry_equiv_pos_as_xyz
  1  'x, y, z'
loop_
 _atom_site_type_symbol
 _atom_site_label
 _atom_site_symmetry_multiplicity
 _atom_site_fract_x
 _atom_site_fract_y
 _atom_site_fract_z
 _atom_site_occupancy
  Cs  Cs0  1  0.000000  0.000000  0.250000  1
  Cs  Cs1  1  0.000000  0.000000  0.750000  1
  Cs  Cs2  1  0.333333  0.666667  0.069182  1
  Cs  Cs3  1  0.666667  0.333333  0.569182  1
  Cs  Cs4  1  0.333333  0.666667  0.430818  1
  Cs  Cs5  1  0.666667  0.333333  0.930818  1
  Nb  Nb6  1  0.333333  0.666667  0.823104  1
  Nb  Nb7  1  0.666667  0.333333  0.323104  1
  Nb  Nb8  1  0.666667  0.333333  0.176896  1
  Nb  Nb9  1  0.333333  0.666667  0.676896  1
  Br  Br10  1  0.822202  0.177798  0.403533  1
  Br  Br11  1  0.822202  0.644404  0.403533  1
  Br  Br12  1  0.355596  0.177798  0.403533  1
  Br  Br13  1  0.644404  0.822202  0.903533  1
  Br  Br14  1  0.177798  0.355596  0.596467  1
  Br  Br15  1  0.177798  0.822202  0.903533  1
  Br  Br16  1  0.177798  0.355596  0.903533  1
  Br  Br17  1  0.822202  0.177798  0.096467  1
  Br  Br18  1  0.355596  0.177798  0.096467  1
  Br  Br19  1  0.644404  0.822202  0.596467  1
  Br  Br20  1  0.499048  0.998095  0.250000  1
  Br  Br21  1  0.500952  0.499048  0.750000  1
  Br  Br22  1  0.998095  0.499048  0.750000  1
  Br  Br23  1  0.001905  0.500952  0.250000  1
  Br  Br24  1  0.499048  0.500952  0.250000  1
  Br  Br25  1  0.500952  0.001905  0.750000  1
  Br  Br26  1  0.822202  0.644404  0.096467  1
  Br  Br27  1  0.177798  0.822202  0.596467  1
