# generated using pymatgen
data_TbSm4(OsO6)2
_symmetry_space_group_name_H-M   'P 1'
_cell_length_a   7.00364015
_cell_length_b   7.00364043
_cell_length_c   7.64367568
_cell_angle_alpha   73.89294336
_cell_angle_beta   73.89294361
_cell_angle_gamma   48.29386265
_symmetry_Int_Tables_number   1
_chemical_formula_structural   TbSm4(OsO6)2
_chemical_formula_sum   'Tb1 Sm4 Os2 O12'
_cell_volume   266.65933283
_cell_formula_units_Z   1
loop_
 _symmetry_equiv_pos_site_id
 _symmetry_equiv_pos_as_xyz
  1  'x, y, z'
loop_
 _atom_site_type_symbol
 _atom_site_label
 _atom_site_symmetry_multiplicity
 _atom_site_fract_x
 _atom_site_fract_y
 _atom_site_fract_z
 _atom_site_occupancy
  Tb  Tb0  1  0.000000  0.000000  0.500000  1
  Sm  Sm1  1  0.697241  0.697241  0.643336  1
  Sm  Sm2  1  0.302759  0.302759  0.356664  1
  Sm  Sm3  1  0.687194  0.687194  0.169952  1
  Sm  Sm4  1  0.312806  0.312806  0.830048  1
  Os  Os5  1  0.781816  0.218184  0.000000  1
  Os  Os6  1  0.218184  0.781816  0.000000  1
  O  O7  1  0.000557  0.000557  0.201164  1
  O  O8  1  0.999443  0.999443  0.798836  1
  O  O9  1  0.586151  0.086433  0.083487  1
  O  O10  1  0.413849  0.913567  0.916513  1
  O  O11  1  0.913567  0.413849  0.916513  1
  O  O12  1  0.086433  0.586151  0.083487  1
  O  O13  1  0.498718  0.498718  0.167819  1
  O  O14  1  0.501282  0.501282  0.832181  1
  O  O15  1  0.400251  0.901756  0.427599  1
  O  O16  1  0.599749  0.098244  0.572401  1
  O  O17  1  0.098244  0.599749  0.572401  1
  O  O18  1  0.901756  0.400251  0.427599  1
