# generated using pymatgen
data_Tb3Ho4Tm(CdPt)2
_symmetry_space_group_name_H-M   'P 1'
_cell_length_a   9.66269414
_cell_length_b   9.66269448
_cell_length_c   9.65808800
_cell_angle_alpha   60.01576879
_cell_angle_beta   60.01576762
_cell_angle_gamma   59.96845616
_symmetry_Int_Tables_number   1
_chemical_formula_structural   Tb3Ho4Tm(CdPt)2
_chemical_formula_sum   'Tb6 Ho8 Tm2 Cd4 Pt4'
_cell_volume   637.63539866
_cell_formula_units_Z   2
loop_
 _symmetry_equiv_pos_site_id
 _symmetry_equiv_pos_as_xyz
  1  'x, y, z'
loop_
 _atom_site_type_symbol
 _atom_site_label
 _atom_site_symmetry_multiplicity
 _atom_site_fract_x
 _atom_site_fract_y
 _atom_site_fract_z
 _atom_site_occupancy
  Tb  Tb0  1  0.935903  0.564097  0.564097  1
  Tb  Tb1  1  0.564097  0.935903  0.935903  1
  Tb  Tb2  1  0.564097  0.935903  0.564097  1
  Tb  Tb3  1  0.935903  0.564097  0.935903  1
  Tb  Tb4  1  0.564144  0.564144  0.935856  1
  Tb  Tb5  1  0.935856  0.935856  0.564144  1
  Ho  Ho6  1  0.351579  0.351579  0.351936  1
  Ho  Ho7  1  0.351579  0.351579  0.944907  1
  Ho  Ho8  1  0.351936  0.944907  0.351579  1
  Ho  Ho9  1  0.944907  0.351936  0.351579  1
  Ho  Ho10  1  0.810809  0.189191  0.189191  1
  Ho  Ho11  1  0.189191  0.810809  0.810809  1
  Ho  Ho12  1  0.189191  0.810809  0.189191  1
  Ho  Ho13  1  0.810809  0.189191  0.810809  1
  Tm  Tm14  1  0.189414  0.189414  0.810586  1
  Tm  Tm15  1  0.810586  0.810586  0.189414  1
  Cd  Cd16  1  0.581477  0.581477  0.581314  1
  Cd  Cd17  1  0.581477  0.581477  0.255733  1
  Cd  Cd18  1  0.581314  0.255733  0.581477  1
  Cd  Cd19  1  0.255733  0.581314  0.581477  1
  Pt  Pt20  1  0.143101  0.143101  0.142458  1
  Pt  Pt21  1  0.143101  0.143101  0.571342  1
  Pt  Pt22  1  0.142458  0.571342  0.143101  1
  Pt  Pt23  1  0.571342  0.142458  0.143101  1
