# generated using pymatgen
data_BaNa3TcN4
_symmetry_space_group_name_H-M   'P 1'
_cell_length_a   6.15841352
_cell_length_b   6.03392709
_cell_length_c   9.09879800
_cell_angle_alpha   71.70381635
_cell_angle_beta   78.43974470
_cell_angle_gamma   67.50450216
_symmetry_Int_Tables_number   1
_chemical_formula_structural   BaNa3TcN4
_chemical_formula_sum   'Ba2 Na6 Tc2 N8'
_cell_volume   295.34267520
_cell_formula_units_Z   2
loop_
 _symmetry_equiv_pos_site_id
 _symmetry_equiv_pos_as_xyz
  1  'x, y, z'
loop_
 _atom_site_type_symbol
 _atom_site_label
 _atom_site_symmetry_multiplicity
 _atom_site_fract_x
 _atom_site_fract_y
 _atom_site_fract_z
 _atom_site_occupancy
  Ba  Ba0  1  0.188419  0.020526  0.640875  1
  Ba  Ba1  1  0.811581  0.979474  0.359125  1
  Na  Na2  1  0.726111  0.602907  0.152844  1
  Na  Na3  1  0.273889  0.397093  0.847156  1
  Na  Na4  1  0.761056  0.243088  0.966453  1
  Na  Na5  1  0.238944  0.756912  0.033547  1
  Na  Na6  1  0.696860  0.488236  0.568718  1
  Na  Na7  1  0.303140  0.511764  0.431282  1
  Tc  Tc8  1  0.741529  0.811998  0.759579  1
  Tc  Tc9  1  0.258471  0.188002  0.240421  1
  N  N10  1  0.986405  0.642885  0.638147  1
  N  N11  1  0.013595  0.357115  0.361853  1
  N  N12  1  0.864840  0.844428  0.914973  1
  N  N13  1  0.135160  0.155572  0.085027  1
  N  N14  1  0.526362  0.652332  0.817553  1
  N  N15  1  0.473638  0.347668  0.182447  1
  N  N16  1  0.410984  0.878835  0.368979  1
  N  N17  1  0.589016  0.121165  0.631021  1
