# generated using pymatgen
data_Hf18ZnMo8Ir
_symmetry_space_group_name_H-M   'P 1'
_cell_length_a   8.74870100
_cell_length_b   8.74870134
_cell_length_c   8.54199900
_cell_angle_alpha   90.00000000
_cell_angle_beta   90.00000000
_cell_angle_gamma   119.99999492
_symmetry_Int_Tables_number   1
_chemical_formula_structural   Hf18ZnMo8Ir
_chemical_formula_sum   'Hf18 Zn1 Mo8 Ir1'
_cell_volume   566.20973936
_cell_formula_units_Z   1
loop_
 _symmetry_equiv_pos_site_id
 _symmetry_equiv_pos_as_xyz
  1  'x, y, z'
loop_
 _atom_site_type_symbol
 _atom_site_label
 _atom_site_symmetry_multiplicity
 _atom_site_fract_x
 _atom_site_fract_y
 _atom_site_fract_z
 _atom_site_occupancy
  Hf  Hf0  1  0.195142  0.804858  0.448646  1
  Hf  Hf1  1  0.195142  0.390282  0.448646  1
  Hf  Hf2  1  0.609718  0.804858  0.448646  1
  Hf  Hf3  1  0.801944  0.198056  0.552799  1
  Hf  Hf4  1  0.801944  0.603887  0.552799  1
  Hf  Hf5  1  0.396113  0.198056  0.552799  1
  Hf  Hf6  1  0.801944  0.198056  0.947201  1
  Hf  Hf7  1  0.801944  0.603887  0.947201  1
  Hf  Hf8  1  0.396113  0.198056  0.947201  1
  Hf  Hf9  1  0.195142  0.804858  0.051354  1
  Hf  Hf10  1  0.195142  0.390282  0.051354  1
  Hf  Hf11  1  0.609718  0.804858  0.051354  1
  Hf  Hf12  1  0.540786  0.459214  0.250000  1
  Hf  Hf13  1  0.540786  0.081573  0.250000  1
  Hf  Hf14  1  0.918427  0.459214  0.250000  1
  Hf  Hf15  1  0.458174  0.541826  0.750000  1
  Hf  Hf16  1  0.458174  0.916348  0.750000  1
  Hf  Hf17  1  0.083652  0.541826  0.750000  1
  Zn  Zn18  1  0.333333  0.666667  0.250000  1
  Mo  Mo19  1  0.888829  0.111171  0.250000  1
  Mo  Mo20  1  0.888829  0.777658  0.250000  1
  Mo  Mo21  1  0.222342  0.111171  0.250000  1
  Mo  Mo22  1  0.111872  0.888128  0.750000  1
  Mo  Mo23  1  0.111872  0.223744  0.750000  1
  Mo  Mo24  1  0.776256  0.888128  0.750000  1
  Mo  Mo25  1  0.000000  0.000000  0.502515  1
  Mo  Mo26  1  0.000000  0.000000  0.997485  1
  Ir  Ir27  1  0.666667  0.333333  0.750000  1
