# generated using pymatgen
data_SmSi(AsRu2)3
_symmetry_space_group_name_H-M   'P 1'
_cell_length_a   7.16042500
_cell_length_b   7.16042443
_cell_length_c   3.84732800
_cell_angle_alpha   90.00000000
_cell_angle_beta   90.00000000
_cell_angle_gamma   120.00000727
_symmetry_Int_Tables_number   1
_chemical_formula_structural   SmSi(AsRu2)3
_chemical_formula_sum   'Sm1 Si1 As3 Ru6'
_cell_volume   170.83127358
_cell_formula_units_Z   1
loop_
 _symmetry_equiv_pos_site_id
 _symmetry_equiv_pos_as_xyz
  1  'x, y, z'
loop_
 _atom_site_type_symbol
 _atom_site_label
 _atom_site_symmetry_multiplicity
 _atom_site_fract_x
 _atom_site_fract_y
 _atom_site_fract_z
 _atom_site_occupancy
  Sm  Sm0  1  0.000000  0.000000  0.000000  1
  Si  Si1  1  0.333333  0.666667  0.000000  1
  As  As2  1  0.808749  0.617500  0.500000  1
  As  As3  1  0.382500  0.191251  0.500000  1
  As  As4  1  0.808749  0.191251  0.500000  1
  Ru  Ru5  1  0.534828  0.069654  0.000000  1
  Ru  Ru6  1  0.930346  0.465172  0.000000  1
  Ru  Ru7  1  0.534828  0.465172  0.000000  1
  Ru  Ru8  1  0.203728  0.407456  0.500000  1
  Ru  Ru9  1  0.592544  0.796272  0.500000  1
  Ru  Ru10  1  0.203728  0.796272  0.500000  1
