# generated using pymatgen
data_Ba4SmYU2O12
_symmetry_space_group_name_H-M   'P 1'
_cell_length_a   6.23555182
_cell_length_b   6.25529306
_cell_length_c   8.78886724
_cell_angle_alpha   90.15561467
_cell_angle_beta   89.99713825
_cell_angle_gamma   89.99777512
_symmetry_Int_Tables_number   1
_chemical_formula_structural   Ba4SmYU2O12
_chemical_formula_sum   'Ba4 Sm1 Y1 U2 O12'
_cell_volume   342.81029484
_cell_formula_units_Z   1
loop_
 _symmetry_equiv_pos_site_id
 _symmetry_equiv_pos_as_xyz
  1  'x, y, z'
loop_
 _atom_site_type_symbol
 _atom_site_label
 _atom_site_symmetry_multiplicity
 _atom_site_fract_x
 _atom_site_fract_y
 _atom_site_fract_z
 _atom_site_occupancy
  Ba  Ba0  1  0.015992  0.992246  0.746948  1
  Ba  Ba1  1  0.485333  0.493003  0.253632  1
  Ba  Ba2  1  0.514667  0.506997  0.746368  1
  Ba  Ba3  1  0.984009  0.007754  0.253052  1
  Sm  Sm4  1  0.000000  0.500000  0.000000  1
  Y  Y5  1  0.500000  0.000000  0.500000  1
  U  U6  1  0.000000  0.500000  0.500000  1
  U  U7  1  0.500000  0.000000  0.000000  1
  O  O8  1  0.239598  0.221034  0.042360  1
  O  O9  1  0.510930  0.928042  0.243397  1
  O  O10  1  0.739309  0.273438  0.461039  1
  O  O11  1  0.722461  0.258261  0.040800  1
  O  O12  1  0.772190  0.758594  0.536914  1
  O  O13  1  0.011010  0.573706  0.261213  1
  O  O14  1  0.227810  0.241406  0.463086  1
  O  O15  1  0.277539  0.741739  0.959200  1
  O  O16  1  0.260691  0.726562  0.538961  1
  O  O17  1  0.489070  0.071958  0.756603  1
  O  O18  1  0.760402  0.778966  0.957640  1
  O  O19  1  0.988990  0.426294  0.738787  1
