# generated using pymatgen
data_DyEr3TcOsC4
_symmetry_space_group_name_H-M   'P 1'
_cell_length_a   5.06862400
_cell_length_b   6.50650440
_cell_length_c   9.75048150
_cell_angle_alpha   89.49389077
_cell_angle_beta   90.00000000
_cell_angle_gamma   90.00000000
_symmetry_Int_Tables_number   1
_chemical_formula_structural   DyEr3TcOsC4
_chemical_formula_sum   'Dy2 Er6 Tc2 Os2 C8'
_cell_volume   321.54882157
_cell_formula_units_Z   2
loop_
 _symmetry_equiv_pos_site_id
 _symmetry_equiv_pos_as_xyz
  1  'x, y, z'
loop_
 _atom_site_type_symbol
 _atom_site_label
 _atom_site_symmetry_multiplicity
 _atom_site_fract_x
 _atom_site_fract_y
 _atom_site_fract_z
 _atom_site_occupancy
  Dy  Dy0  1  0.750000  0.969510  0.713288  1
  Dy  Dy1  1  0.250000  0.030490  0.286712  1
  Er  Er2  1  0.250000  0.676923  0.556116  1
  Er  Er3  1  0.750000  0.323077  0.443884  1
  Er  Er4  1  0.750000  0.824175  0.056335  1
  Er  Er5  1  0.250000  0.175825  0.943665  1
  Er  Er6  1  0.250000  0.532473  0.216439  1
  Er  Er7  1  0.750000  0.467527  0.783561  1
  Tc  Tc8  1  0.250000  0.719399  0.866559  1
  Tc  Tc9  1  0.750000  0.280601  0.133441  1
  Os  Os10  1  0.750000  0.777948  0.366189  1
  Os  Os11  1  0.250000  0.222052  0.633811  1
  C  C12  1  0.250000  0.453485  0.758902  1
  C  C13  1  0.750000  0.546515  0.241098  1
  C  C14  1  0.750000  0.045553  0.259260  1
  C  C15  1  0.250000  0.954447  0.740740  1
  C  C16  1  0.250000  0.823853  0.052172  1
  C  C17  1  0.750000  0.176147  0.947828  1
  C  C18  1  0.750000  0.671560  0.552467  1
  C  C19  1  0.250000  0.328440  0.447533  1
