# generated using pymatgen
data_Li3Dy4Co12Ni5P12
_symmetry_space_group_name_H-M   'P 1'
_cell_length_a   3.69213400
_cell_length_b   10.26998709
_cell_length_c   11.95728148
_cell_angle_alpha   90.30859170
_cell_angle_beta   90.00000000
_cell_angle_gamma   90.00000000
_symmetry_Int_Tables_number   1
_chemical_formula_structural   Li3Dy4Co12Ni5P12
_chemical_formula_sum   'Li3 Dy4 Co12 Ni5 P12'
_cell_volume   453.39163776
_cell_formula_units_Z   1
loop_
 _symmetry_equiv_pos_site_id
 _symmetry_equiv_pos_as_xyz
  1  'x, y, z'
loop_
 _atom_site_type_symbol
 _atom_site_label
 _atom_site_symmetry_multiplicity
 _atom_site_fract_x
 _atom_site_fract_y
 _atom_site_fract_z
 _atom_site_occupancy
  Li  Li0  1  0.250000  0.701729  0.991802  1
  Li  Li1  1  0.250000  0.797795  0.491994  1
  Li  Li2  1  0.750000  0.297490  0.007386  1
  Dy  Dy3  1  0.250000  0.579750  0.704545  1
  Dy  Dy4  1  0.250000  0.919601  0.204228  1
  Dy  Dy5  1  0.750000  0.419180  0.294629  1
  Dy  Dy6  1  0.750000  0.079671  0.795781  1
  Co  Co7  1  0.250000  0.219780  0.176523  1
  Co  Co8  1  0.250000  0.276508  0.671794  1
  Co  Co9  1  0.750000  0.780784  0.826640  1
  Co  Co10  1  0.750000  0.719371  0.327125  1
  Co  Co11  1  0.250000  0.881047  0.698119  1
  Co  Co12  1  0.250000  0.620073  0.198372  1
  Co  Co13  1  0.750000  0.118982  0.304277  1
  Co  Co14  1  0.750000  0.378500  0.798382  1
  Co  Co15  1  0.250000  0.465714  0.931953  1
  Co  Co16  1  0.250000  0.034519  0.433290  1
  Co  Co17  1  0.750000  0.532746  0.066324  1
  Co  Co18  1  0.750000  0.967190  0.566349  1
  Ni  Ni19  1  0.750000  0.210941  0.510022  1
  Ni  Ni20  1  0.250000  0.406855  0.484466  1
  Ni  Ni21  1  0.250000  0.093193  0.986203  1
  Ni  Ni22  1  0.750000  0.592080  0.513760  1
  Ni  Ni23  1  0.750000  0.908365  0.015297  1
  P  P24  1  0.250000  0.421794  0.113881  1
  P  P25  1  0.250000  0.076601  0.612596  1
  P  P26  1  0.750000  0.577112  0.885154  1
  P  P27  1  0.750000  0.921841  0.385658  1
  P  P28  1  0.250000  0.272023  0.857877  1
  P  P29  1  0.250000  0.228794  0.363315  1
  P  P30  1  0.750000  0.726457  0.141649  1
  P  P31  1  0.750000  0.773518  0.641458  1
  P  P32  1  0.250000  0.603607  0.387118  1
  P  P33  1  0.250000  0.895334  0.888231  1
  P  P34  1  0.750000  0.394757  0.609481  1
  P  P35  1  0.750000  0.106298  0.114321  1
