# generated using pymatgen
data_Ba6Ni3Pd2O15
_symmetry_space_group_name_H-M   'P 1'
_cell_length_a   7.33061959
_cell_length_b   7.33063631
_cell_length_c   7.33058703
_cell_angle_alpha   87.23702223
_cell_angle_beta   87.23692022
_cell_angle_gamma   87.23651244
_symmetry_Int_Tables_number   1
_chemical_formula_structural   Ba6Ni3Pd2O15
_chemical_formula_sum   'Ba6 Ni3 Pd2 O15'
_cell_volume   392.60049953
_cell_formula_units_Z   1
loop_
 _symmetry_equiv_pos_site_id
 _symmetry_equiv_pos_as_xyz
  1  'x, y, z'
loop_
 _atom_site_type_symbol
 _atom_site_label
 _atom_site_symmetry_multiplicity
 _atom_site_fract_x
 _atom_site_fract_y
 _atom_site_fract_z
 _atom_site_occupancy
  Ba  Ba0  1  0.335510  0.664492  0.000001  1
  Ba  Ba1  1  0.999999  0.335509  0.664492  1
  Ba  Ba2  1  0.664494  0.000002  0.335507  1
  Ba  Ba3  1  0.147229  0.852775  0.500000  1
  Ba  Ba4  1  0.500003  0.147232  0.852778  1
  Ba  Ba5  1  0.852771  0.499999  0.147228  1
  Ni  Ni6  1  0.499980  0.500012  0.500001  1
  Ni  Ni7  1  0.091629  0.091628  0.091629  1
  Ni  Ni8  1  0.908369  0.908367  0.908365  1
  Pd  Pd9  1  0.287907  0.287905  0.287910  1
  Pd  Pd10  1  0.712091  0.712089  0.712088  1
  O  O11  1  0.142033  0.999995  0.857957  1
  O  O12  1  0.857959  0.142034  0.999996  1
  O  O13  1  0.999998  0.857959  0.142034  1
  O  O14  1  0.025107  0.186929  0.325721  1
  O  O15  1  0.325720  0.025105  0.186930  1
  O  O16  1  0.186929  0.325718  0.025108  1
  O  O17  1  0.813070  0.974894  0.674276  1
  O  O18  1  0.674279  0.813070  0.974892  1
  O  O19  1  0.974895  0.674279  0.813068  1
  O  O20  1  0.369074  0.236635  0.541933  1
  O  O21  1  0.541926  0.369067  0.236630  1
  O  O22  1  0.236636  0.541926  0.369077  1
  O  O23  1  0.763375  0.630932  0.458070  1
  O  O24  1  0.458077  0.763372  0.630930  1
  O  O25  1  0.630939  0.458078  0.763378  1
