# generated using pymatgen
data_Zr4In2IrPd3
_symmetry_space_group_name_H-M   'P 1'
_cell_length_a   7.59915569
_cell_length_b   7.59915569
_cell_length_c   6.80684427
_cell_angle_alpha   90.39721120
_cell_angle_beta   89.60278880
_cell_angle_gamma   89.93484843
_symmetry_Int_Tables_number   1
_chemical_formula_structural   Zr4In2IrPd3
_chemical_formula_sum   'Zr8 In4 Ir2 Pd6'
_cell_volume   393.05680675
_cell_formula_units_Z   2
loop_
 _symmetry_equiv_pos_site_id
 _symmetry_equiv_pos_as_xyz
  1  'x, y, z'
loop_
 _atom_site_type_symbol
 _atom_site_label
 _atom_site_symmetry_multiplicity
 _atom_site_fract_x
 _atom_site_fract_y
 _atom_site_fract_z
 _atom_site_occupancy
  Zr  Zr0  1  0.653629  0.653629  0.500000  1
  Zr  Zr1  1  0.812564  0.187436  0.494682  1
  Zr  Zr2  1  0.678613  0.678613  0.000000  1
  Zr  Zr3  1  0.839849  0.160151  0.005480  1
  Zr  Zr4  1  0.187436  0.812564  0.505318  1
  Zr  Zr5  1  0.321387  0.321387  0.000000  1
  Zr  Zr6  1  0.160151  0.839849  0.994520  1
  Zr  Zr7  1  0.346371  0.346371  0.500000  1
  In  In8  1  0.998855  0.500293  0.249173  1
  In  In9  1  0.500293  0.998855  0.750827  1
  In  In10  1  0.499707  0.001145  0.249173  1
  In  In11  1  0.001145  0.499707  0.750827  1
  Ir  Ir12  1  0.626401  0.373599  0.231362  1
  Ir  Ir13  1  0.373599  0.626401  0.768638  1
  Pd  Pd14  1  0.871261  0.872338  0.721377  1
  Pd  Pd15  1  0.632756  0.367244  0.781058  1
  Pd  Pd16  1  0.367244  0.632756  0.218942  1
  Pd  Pd17  1  0.128739  0.127662  0.278623  1
  Pd  Pd18  1  0.872338  0.871261  0.278623  1
  Pd  Pd19  1  0.127662  0.128739  0.721377  1
