# generated using pymatgen
data_DyYHo3CoSb2
_symmetry_space_group_name_H-M   'P 1'
_cell_length_a   7.88405500
_cell_length_b   8.73622500
_cell_length_c   12.18360400
_cell_angle_alpha   90.00000000
_cell_angle_beta   90.00000000
_cell_angle_gamma   90.00000000
_symmetry_Int_Tables_number   1
_chemical_formula_structural   DyYHo3CoSb2
_chemical_formula_sum   'Dy4 Y4 Ho12 Co4 Sb8'
_cell_volume   839.16861109
_cell_formula_units_Z   4
loop_
 _symmetry_equiv_pos_site_id
 _symmetry_equiv_pos_as_xyz
  1  'x, y, z'
loop_
 _atom_site_type_symbol
 _atom_site_label
 _atom_site_symmetry_multiplicity
 _atom_site_fract_x
 _atom_site_fract_y
 _atom_site_fract_z
 _atom_site_occupancy
  Dy  Dy0  1  0.621188  0.750000  0.306825  1
  Dy  Dy1  1  0.878812  0.750000  0.806825  1
  Dy  Dy2  1  0.378812  0.250000  0.693175  1
  Dy  Dy3  1  0.121188  0.250000  0.193175  1
  Y  Y4  1  0.155742  0.750000  0.203963  1
  Y  Y5  1  0.344258  0.750000  0.703963  1
  Y  Y6  1  0.844258  0.250000  0.796037  1
  Y  Y7  1  0.655742  0.250000  0.296037  1
  Ho  Ho8  1  0.453623  0.750000  0.998355  1
  Ho  Ho9  1  0.046377  0.750000  0.498355  1
  Ho  Ho10  1  0.546377  0.250000  0.001645  1
  Ho  Ho11  1  0.953623  0.250000  0.501645  1
  Ho  Ho12  1  0.821596  0.535893  0.064930  1
  Ho  Ho13  1  0.678404  0.964107  0.564930  1
  Ho  Ho14  1  0.178404  0.035893  0.935070  1
  Ho  Ho15  1  0.321596  0.464107  0.435070  1
  Ho  Ho16  1  0.178404  0.464107  0.935070  1
  Ho  Ho17  1  0.321596  0.035893  0.435070  1
  Ho  Ho18  1  0.821596  0.964107  0.064930  1
  Ho  Ho19  1  0.678404  0.535893  0.564930  1
  Co  Co20  1  0.433598  0.750000  0.489813  1
  Co  Co21  1  0.066402  0.750000  0.989813  1
  Co  Co22  1  0.566402  0.250000  0.510187  1
  Co  Co23  1  0.933598  0.250000  0.010187  1
  Sb  Sb24  1  0.928697  0.508853  0.327380  1
  Sb  Sb25  1  0.571303  0.991147  0.827380  1
  Sb  Sb26  1  0.071303  0.008853  0.672620  1
  Sb  Sb27  1  0.428697  0.491147  0.172620  1
  Sb  Sb28  1  0.071303  0.491147  0.672620  1
  Sb  Sb29  1  0.428697  0.008853  0.172620  1
  Sb  Sb30  1  0.928697  0.991147  0.327380  1
  Sb  Sb31  1  0.571303  0.508853  0.827380  1
