# generated using pymatgen
data_Hf9(CuP2)2
_symmetry_space_group_name_H-M   'P 1'
_cell_length_a   12.03975500
_cell_length_b   12.03975500
_cell_length_c   3.59802700
_cell_angle_alpha   90.00000000
_cell_angle_beta   90.00000000
_cell_angle_gamma   90.00000000
_symmetry_Int_Tables_number   1
_chemical_formula_structural   Hf9(CuP2)2
_chemical_formula_sum   'Hf18 Cu4 P8'
_cell_volume   521.55452406
_cell_formula_units_Z   2
loop_
 _symmetry_equiv_pos_site_id
 _symmetry_equiv_pos_as_xyz
  1  'x, y, z'
loop_
 _atom_site_type_symbol
 _atom_site_label
 _atom_site_symmetry_multiplicity
 _atom_site_fract_x
 _atom_site_fract_y
 _atom_site_fract_z
 _atom_site_occupancy
  Hf  Hf0  1  0.000000  0.000000  0.000000  1
  Hf  Hf1  1  0.500000  0.500000  0.000000  1
  Hf  Hf2  1  0.100342  0.182062  0.500000  1
  Hf  Hf3  1  0.182062  0.899658  0.500000  1
  Hf  Hf4  1  0.817938  0.100342  0.500000  1
  Hf  Hf5  1  0.899658  0.817938  0.500000  1
  Hf  Hf6  1  0.399658  0.682062  0.500000  1
  Hf  Hf7  1  0.600342  0.317938  0.500000  1
  Hf  Hf8  1  0.682062  0.600342  0.500000  1
  Hf  Hf9  1  0.317938  0.399658  0.500000  1
  Hf  Hf10  1  0.093570  0.406430  0.000000  1
  Hf  Hf11  1  0.406430  0.906430  0.000000  1
  Hf  Hf12  1  0.593570  0.093570  0.000000  1
  Hf  Hf13  1  0.906430  0.593570  0.000000  1
  Hf  Hf14  1  0.381925  0.118075  0.500000  1
  Hf  Hf15  1  0.118075  0.618075  0.500000  1
  Hf  Hf16  1  0.881925  0.381925  0.500000  1
  Hf  Hf17  1  0.618075  0.881925  0.500000  1
  Cu  Cu18  1  0.253492  0.246508  0.000000  1
  Cu  Cu19  1  0.246508  0.746508  0.000000  1
  Cu  Cu20  1  0.753492  0.253492  0.000000  1
  Cu  Cu21  1  0.746508  0.753492  0.000000  1
  P  P22  1  0.222900  0.054620  0.000000  1
  P  P23  1  0.054620  0.777100  0.000000  1
  P  P24  1  0.945380  0.222900  0.000000  1
  P  P25  1  0.777100  0.945380  0.000000  1
  P  P26  1  0.277100  0.554620  0.000000  1
  P  P27  1  0.722900  0.445380  0.000000  1
  P  P28  1  0.554620  0.722900  0.000000  1
  P  P29  1  0.445380  0.277100  0.000000  1
