# generated using pymatgen
data_PmNdCo4
_symmetry_space_group_name_H-M   'P 1'
_cell_length_a   3.90319000
_cell_length_b   3.90319163
_cell_length_c   8.40314200
_cell_angle_alpha   90.00000000
_cell_angle_beta   90.00000000
_cell_angle_gamma   120.00000314
_symmetry_Int_Tables_number   1
_chemical_formula_structural   PmNdCo4
_chemical_formula_sum   'Pm1 Nd1 Co4'
_cell_volume   110.86944835
_cell_formula_units_Z   1
loop_
 _symmetry_equiv_pos_site_id
 _symmetry_equiv_pos_as_xyz
  1  'x, y, z'
loop_
 _atom_site_type_symbol
 _atom_site_label
 _atom_site_symmetry_multiplicity
 _atom_site_fract_x
 _atom_site_fract_y
 _atom_site_fract_z
 _atom_site_occupancy
  Pm  Pm0  1  0.000000  0.000000  0.500000  1
  Nd  Nd1  1  0.000000  0.000000  0.000000  1
  Co  Co2  1  0.666667  0.333333  0.252379  1
  Co  Co3  1  0.333333  0.666666  0.252379  1
  Co  Co4  1  0.666667  0.333333  0.747621  1
  Co  Co5  1  0.333333  0.666666  0.747621  1
