# generated using pymatgen
data_TbHo2Co9(GeB2)2
_symmetry_space_group_name_H-M   'P 1'
_cell_length_a   5.15415103
_cell_length_b   5.15441132
_cell_length_c   9.43912602
_cell_angle_alpha   89.99996350
_cell_angle_beta   90.00028946
_cell_angle_gamma   120.00361599
_symmetry_Int_Tables_number   1
_chemical_formula_structural   TbHo2Co9(GeB2)2
_chemical_formula_sum   'Tb1 Ho2 Co9 Ge2 B4'
_cell_volume   217.16148485
_cell_formula_units_Z   1
loop_
 _symmetry_equiv_pos_site_id
 _symmetry_equiv_pos_as_xyz
  1  'x, y, z'
loop_
 _atom_site_type_symbol
 _atom_site_label
 _atom_site_symmetry_multiplicity
 _atom_site_fract_x
 _atom_site_fract_y
 _atom_site_fract_z
 _atom_site_occupancy
  Tb  Tb0  1  0.999968  0.000001  0.000013  1
  Ho  Ho1  1  0.000014  0.000004  0.340086  1
  Ho  Ho2  1  0.999989  0.999980  0.659911  1
  Co  Co3  1  0.499995  0.000006  0.499987  1
  Co  Co4  1  0.500004  0.500009  0.500004  1
  Co  Co5  1  0.999989  0.499996  0.499994  1
  Co  Co6  1  0.500020  0.999993  0.203620  1
  Co  Co7  1  0.500005  0.499994  0.203642  1
  Co  Co8  1  0.000009  0.500003  0.203656  1
  Co  Co9  1  0.499999  0.000015  0.796379  1
  Co  Co10  1  0.499994  0.500011  0.796348  1
  Co  Co11  1  0.999990  0.500009  0.796356  1
  Ge  Ge12  1  0.333275  0.666629  0.000007  1
  Ge  Ge13  1  0.666675  0.333370  0.000004  1
  B  B14  1  0.333372  0.666687  0.348372  1
  B  B15  1  0.666622  0.333300  0.348373  1
  B  B16  1  0.666689  0.333322  0.651625  1
  B  B17  1  0.333292  0.666668  0.651623  1
