# generated using pymatgen
data_Sc12V(Si4Os)3
_symmetry_space_group_name_H-M   'P 1'
_cell_length_a   3.95605000
_cell_length_b   10.40535593
_cell_length_c   11.76691430
_cell_angle_alpha   89.96641079
_cell_angle_beta   90.00000000
_cell_angle_gamma   90.00000000
_symmetry_Int_Tables_number   1
_chemical_formula_structural   Sc12V(Si4Os)3
_chemical_formula_sum   'Sc12 V1 Si12 Os3'
_cell_volume   484.37445159
_cell_formula_units_Z   1
loop_
 _symmetry_equiv_pos_site_id
 _symmetry_equiv_pos_as_xyz
  1  'x, y, z'
loop_
 _atom_site_type_symbol
 _atom_site_label
 _atom_site_symmetry_multiplicity
 _atom_site_fract_x
 _atom_site_fract_y
 _atom_site_fract_z
 _atom_site_occupancy
  Sc  Sc0  1  0.250000  0.876780  0.020388  1
  Sc  Sc1  1  0.250000  0.622538  0.516348  1
  Sc  Sc2  1  0.750000  0.123536  0.980552  1
  Sc  Sc3  1  0.750000  0.376870  0.481427  1
  Sc  Sc4  1  0.250000  0.922306  0.604535  1
  Sc  Sc5  1  0.250000  0.576556  0.106583  1
  Sc  Sc6  1  0.750000  0.077940  0.393890  1
  Sc  Sc7  1  0.750000  0.422517  0.896541  1
  Sc  Sc8  1  0.250000  0.660417  0.798915  1
  Sc  Sc9  1  0.250000  0.841802  0.297963  1
  Sc  Sc10  1  0.750000  0.340281  0.202066  1
  Sc  Sc11  1  0.750000  0.162183  0.701819  1
  V  V12  1  0.750000  0.884244  0.823603  1
  Si  Si13  1  0.250000  0.021850  0.822995  1
  Si  Si14  1  0.250000  0.482835  0.321430  1
  Si  Si15  1  0.750000  0.984213  0.176160  1
  Si  Si16  1  0.750000  0.515278  0.677577  1
  Si  Si17  1  0.250000  0.254823  0.843584  1
  Si  Si18  1  0.250000  0.249272  0.343616  1
  Si  Si19  1  0.750000  0.748089  0.157643  1
  Si  Si20  1  0.750000  0.750664  0.653464  1
  Si  Si21  1  0.250000  0.194382  0.544264  1
  Si  Si22  1  0.250000  0.305747  0.045669  1
  Si  Si23  1  0.750000  0.805015  0.453957  1
  Si  Si24  1  0.750000  0.689357  0.958362  1
  Os  Os25  1  0.250000  0.388052  0.674974  1
  Os  Os26  1  0.250000  0.112066  0.178227  1
  Os  Os27  1  0.750000  0.610386  0.323451  1
