# generated using pymatgen
data_Tb6YbCuI12
_symmetry_space_group_name_H-M   'P 1'
_cell_length_a   9.77488059
_cell_length_b   9.77488004
_cell_length_c   9.77488000
_cell_angle_alpha   107.13418092
_cell_angle_beta   107.13418605
_cell_angle_gamma   107.13416839
_symmetry_Int_Tables_number   1
_chemical_formula_structural   Tb6YbCuI12
_chemical_formula_sum   'Tb6 Yb1 Cu1 I12'
_cell_volume   774.95703386
_cell_formula_units_Z   1
loop_
 _symmetry_equiv_pos_site_id
 _symmetry_equiv_pos_as_xyz
  1  'x, y, z'
loop_
 _atom_site_type_symbol
 _atom_site_label
 _atom_site_symmetry_multiplicity
 _atom_site_fract_x
 _atom_site_fract_y
 _atom_site_fract_z
 _atom_site_occupancy
  Tb  Tb0  1  0.098407  0.302217  0.026353  1
  Tb  Tb1  1  0.026353  0.098407  0.302217  1
  Tb  Tb2  1  0.302217  0.026353  0.098407  1
  Tb  Tb3  1  0.901593  0.697783  0.973647  1
  Tb  Tb4  1  0.973647  0.901593  0.697783  1
  Tb  Tb5  1  0.697783  0.973647  0.901593  1
  Yb  Yb6  1  0.500000  0.500000  0.500000  1
  Cu  Cu7  1  0.000000  0.000000  0.000000  1
  I  I8  1  0.459508  0.380758  0.151710  1
  I  I9  1  0.151710  0.459508  0.380758  1
  I  I10  1  0.380758  0.151710  0.459508  1
  I  I11  1  0.540492  0.619242  0.848290  1
  I  I12  1  0.848290  0.540492  0.619242  1
  I  I13  1  0.619242  0.848290  0.540492  1
  I  I14  1  0.773600  0.320129  0.926849  1
  I  I15  1  0.926849  0.773600  0.320129  1
  I  I16  1  0.320129  0.926849  0.773600  1
  I  I17  1  0.226400  0.679871  0.073151  1
  I  I18  1  0.073151  0.226400  0.679871  1
  I  I19  1  0.679871  0.073151  0.226400  1
