# generated using pymatgen
data_Hf3TaCrSi3N
_symmetry_space_group_name_H-M   'P 1'
_cell_length_a   7.62455200
_cell_length_b   7.62455274
_cell_length_c   5.27871800
_cell_angle_alpha   90.00000000
_cell_angle_beta   90.00000000
_cell_angle_gamma   120.00000547
_symmetry_Int_Tables_number   1
_chemical_formula_structural   Hf3TaCrSi3N
_chemical_formula_sum   'Hf6 Ta2 Cr2 Si6 N2'
_cell_volume   265.75887270
_cell_formula_units_Z   2
loop_
 _symmetry_equiv_pos_site_id
 _symmetry_equiv_pos_as_xyz
  1  'x, y, z'
loop_
 _atom_site_type_symbol
 _atom_site_label
 _atom_site_symmetry_multiplicity
 _atom_site_fract_x
 _atom_site_fract_y
 _atom_site_fract_z
 _atom_site_occupancy
  Hf  Hf0  1  0.237056  0.000000  0.252261  1
  Hf  Hf1  1  0.762944  0.000000  0.747739  1
  Hf  Hf2  1  0.000000  0.237056  0.252261  1
  Hf  Hf3  1  0.000000  0.762944  0.747739  1
  Hf  Hf4  1  0.762944  0.762944  0.252261  1
  Hf  Hf5  1  0.237056  0.237056  0.747739  1
  Ta  Ta6  1  0.666667  0.333333  0.500000  1
  Ta  Ta7  1  0.333333  0.666667  0.500000  1
  Cr  Cr8  1  0.333333  0.666667  0.000000  1
  Cr  Cr9  1  0.666667  0.333333  0.000000  1
  Si  Si10  1  0.588536  0.000000  0.229204  1
  Si  Si11  1  0.411464  0.000000  0.770796  1
  Si  Si12  1  0.000000  0.588536  0.229204  1
  Si  Si13  1  0.000000  0.411464  0.770796  1
  Si  Si14  1  0.411464  0.411464  0.229204  1
  Si  Si15  1  0.588536  0.588536  0.770796  1
  N  N16  1  0.000000  0.000000  0.000000  1
  N  N17  1  0.000000  0.000000  0.500000  1
