# generated using pymatgen
data_PrY15Cd4IrPt3
_symmetry_space_group_name_H-M   'P 1'
_cell_length_a   9.74979875
_cell_length_b   9.71434967
_cell_length_c   9.71512200
_cell_angle_alpha   59.99737001
_cell_angle_beta   60.11758390
_cell_angle_gamma   59.99361020
_symmetry_Int_Tables_number   1
_chemical_formula_structural   PrY15Cd4IrPt3
_chemical_formula_sum   'Pr1 Y15 Cd4 Ir1 Pt3'
_cell_volume   651.17456512
_cell_formula_units_Z   1
loop_
 _symmetry_equiv_pos_site_id
 _symmetry_equiv_pos_as_xyz
  1  'x, y, z'
loop_
 _atom_site_type_symbol
 _atom_site_label
 _atom_site_symmetry_multiplicity
 _atom_site_fract_x
 _atom_site_fract_y
 _atom_site_fract_z
 _atom_site_occupancy
  Pr  Pr0  1  0.935266  0.935492  0.564621  1
  Y  Y1  1  0.354075  0.350082  0.347066  1
  Y  Y2  1  0.354075  0.350082  0.948777  1
  Y  Y3  1  0.357099  0.944852  0.349024  1
  Y  Y4  1  0.937936  0.356767  0.352648  1
  Y  Y5  1  0.807659  0.190525  0.188261  1
  Y  Y6  1  0.192485  0.809378  0.809533  1
  Y  Y7  1  0.192485  0.809378  0.188605  1
  Y  Y8  1  0.807659  0.190525  0.813556  1
  Y  Y9  1  0.192043  0.189845  0.809057  1
  Y  Y10  1  0.808921  0.814411  0.188334  1
  Y  Y11  1  0.937027  0.560470  0.564232  1
  Y  Y12  1  0.562132  0.936818  0.939174  1
  Y  Y13  1  0.562132  0.936818  0.561875  1
  Y  Y14  1  0.937027  0.560470  0.938272  1
  Y  Y15  1  0.565951  0.562640  0.935704  1
  Cd  Cd16  1  0.581322  0.581749  0.581959  1
  Cd  Cd17  1  0.581322  0.581749  0.254968  1
  Cd  Cd18  1  0.577053  0.256878  0.583033  1
  Cd  Cd19  1  0.257983  0.577149  0.582434  1
  Ir  Ir20  1  0.573373  0.141709  0.142459  1
  Pt  Pt21  1  0.142240  0.145225  0.142736  1
  Pt  Pt22  1  0.142240  0.145225  0.569799  1
  Pt  Pt23  1  0.140497  0.571762  0.143870  1
