# generated using pymatgen
data_LaZnRu2C
_symmetry_space_group_name_H-M   'P 1'
_cell_length_a   5.79819475
_cell_length_b   5.79819278
_cell_length_c   7.50845200
_cell_angle_alpha   90.00000000
_cell_angle_beta   90.00000000
_cell_angle_gamma   138.18091292
_symmetry_Int_Tables_number   1
_chemical_formula_structural   LaZnRu2C
_chemical_formula_sum   'La2 Zn2 Ru4 C2'
_cell_volume   168.31349079
_cell_formula_units_Z   2
loop_
 _symmetry_equiv_pos_site_id
 _symmetry_equiv_pos_as_xyz
  1  'x, y, z'
loop_
 _atom_site_type_symbol
 _atom_site_label
 _atom_site_symmetry_multiplicity
 _atom_site_fract_x
 _atom_site_fract_y
 _atom_site_fract_z
 _atom_site_occupancy
  La  La0  1  0.545584  0.454416  0.250000  1
  La  La1  1  0.454416  0.545584  0.750000  1
  Zn  Zn2  1  0.269464  0.730536  0.250000  1
  Zn  Zn3  1  0.730536  0.269464  0.750000  1
  Ru  Ru4  1  0.831264  0.168736  0.058254  1
  Ru  Ru5  1  0.168736  0.831264  0.941746  1
  Ru  Ru6  1  0.168736  0.831264  0.558254  1
  Ru  Ru7  1  0.831264  0.168736  0.441746  1
  C  C8  1  0.000000  0.000000  0.000000  1
  C  C9  1  0.000000  0.000000  0.500000  1
