# generated using pymatgen
data_Dy4Hg3RhPb2
_symmetry_space_group_name_H-M   'P 1'
_cell_length_a   8.15830853
_cell_length_b   8.15830866
_cell_length_c   3.86527400
_cell_angle_alpha   90.00000000
_cell_angle_beta   90.00000000
_cell_angle_gamma   90.99057170
_symmetry_Int_Tables_number   1
_chemical_formula_structural   Dy4Hg3RhPb2
_chemical_formula_sum   'Dy4 Hg3 Rh1 Pb2'
_cell_volume   257.22645597
_cell_formula_units_Z   1
loop_
 _symmetry_equiv_pos_site_id
 _symmetry_equiv_pos_as_xyz
  1  'x, y, z'
loop_
 _atom_site_type_symbol
 _atom_site_label
 _atom_site_symmetry_multiplicity
 _atom_site_fract_x
 _atom_site_fract_y
 _atom_site_fract_z
 _atom_site_occupancy
  Dy  Dy0  1  0.637707  0.178335  0.500000  1
  Dy  Dy1  1  0.194875  0.305125  0.500000  1
  Dy  Dy2  1  0.829909  0.670091  0.500000  1
  Dy  Dy3  1  0.321665  0.862293  0.500000  1
  Hg  Hg4  1  0.133118  0.623111  0.000000  1
  Hg  Hg5  1  0.624700  0.875300  0.000000  1
  Hg  Hg6  1  0.876889  0.366882  0.000000  1
  Rh  Rh7  1  0.376258  0.123742  0.000000  1
  Pb  Pb8  1  0.007511  0.002633  0.000000  1
  Pb  Pb9  1  0.497367  0.492489  0.000000  1
