# generated using pymatgen
data_Zr5Tc9(P6Ir5)2
_symmetry_space_group_name_H-M   'P 1'
_cell_length_a   12.55552100
_cell_length_b   12.55551976
_cell_length_c   3.95833800
_cell_angle_alpha   90.00000000
_cell_angle_beta   90.00000000
_cell_angle_gamma   120.00000063
_symmetry_Int_Tables_number   1
_chemical_formula_structural   Zr5Tc9(P6Ir5)2
_chemical_formula_sum   'Zr5 Tc9 P12 Ir10'
_cell_volume   540.39701215
_cell_formula_units_Z   1
loop_
 _symmetry_equiv_pos_site_id
 _symmetry_equiv_pos_as_xyz
  1  'x, y, z'
loop_
 _atom_site_type_symbol
 _atom_site_label
 _atom_site_symmetry_multiplicity
 _atom_site_fract_x
 _atom_site_fract_y
 _atom_site_fract_z
 _atom_site_occupancy
  Zr  Zr0  1  0.666667  0.333333  0.000000  1
  Zr  Zr1  1  0.333333  0.666667  0.000000  1
  Zr  Zr2  1  0.805068  0.805068  0.500000  1
  Zr  Zr3  1  0.194932  0.000000  0.500000  1
  Zr  Zr4  1  0.000000  0.194932  0.500000  1
  Tc  Tc5  1  0.806546  0.183825  0.000000  1
  Tc  Tc6  1  0.816175  0.622721  0.000000  1
  Tc  Tc7  1  0.377279  0.193454  0.000000  1
  Tc  Tc8  1  0.183825  0.806546  0.000000  1
  Tc  Tc9  1  0.622721  0.816175  0.000000  1
  Tc  Tc10  1  0.193454  0.377279  0.000000  1
  Tc  Tc11  1  0.448312  0.448312  0.000000  1
  Tc  Tc12  1  0.551688  0.000000  0.000000  1
  Tc  Tc13  1  0.000000  0.551688  0.000000  1
  P  P14  1  0.694945  0.172150  0.500000  1
  P  P15  1  0.827850  0.522795  0.500000  1
  P  P16  1  0.477205  0.305055  0.500000  1
  P  P17  1  0.172150  0.694945  0.500000  1
  P  P18  1  0.522795  0.827850  0.500000  1
  P  P19  1  0.305055  0.477205  0.500000  1
  P  P20  1  0.634705  0.634705  0.000000  1
  P  P21  1  0.365295  0.000000  0.000000  1
  P  P22  1  0.000000  0.365295  0.000000  1
  P  P23  1  0.179155  0.179155  0.000000  1
  P  P24  1  0.820845  0.000000  0.000000  1
  P  P25  1  0.000000  0.820845  0.000000  1
  Ir  Ir26  1  0.277601  0.277601  0.500000  1
  Ir  Ir27  1  0.722399  0.000000  0.500000  1
  Ir  Ir28  1  0.000000  0.722399  0.500000  1
  Ir  Ir29  1  0.867483  0.366799  0.500000  1
  Ir  Ir30  1  0.633201  0.500685  0.500000  1
  Ir  Ir31  1  0.499315  0.132517  0.500000  1
  Ir  Ir32  1  0.366799  0.867483  0.500000  1
  Ir  Ir33  1  0.500685  0.633201  0.500000  1
  Ir  Ir34  1  0.132517  0.499315  0.500000  1
  Ir  Ir35  1  0.000000  0.000000  0.000000  1
