# generated using pymatgen
data_Yb2DyTl(Ru2O7)2
_symmetry_space_group_name_H-M   'P 1'
_cell_length_a   7.17826952
_cell_length_b   7.31385764
_cell_length_c   7.31385695
_cell_angle_alpha   59.83350228
_cell_angle_beta   59.25573032
_cell_angle_gamma   59.25573895
_symmetry_Int_Tables_number   1
_chemical_formula_structural   Yb2DyTl(Ru2O7)2
_chemical_formula_sum   'Yb2 Dy1 Tl1 Ru4 O14'
_cell_volume   268.09119671
_cell_formula_units_Z   1
loop_
 _symmetry_equiv_pos_site_id
 _symmetry_equiv_pos_as_xyz
  1  'x, y, z'
loop_
 _atom_site_type_symbol
 _atom_site_label
 _atom_site_symmetry_multiplicity
 _atom_site_fract_x
 _atom_site_fract_y
 _atom_site_fract_z
 _atom_site_occupancy
  Yb  Yb0  1  0.125000  0.125000  0.625000  1
  Yb  Yb1  1  0.125000  0.625000  0.125000  1
  Dy  Dy2  1  0.125000  0.125000  0.125000  1
  Tl  Tl3  1  0.625000  0.125000  0.125000  1
  Ru  Ru4  1  0.625000  0.625000  0.125000  1
  Ru  Ru5  1  0.625000  0.125000  0.625000  1
  Ru  Ru6  1  0.125000  0.625000  0.625000  1
  Ru  Ru7  1  0.625000  0.625000  0.625000  1
  O  O8  1  0.264140  0.242423  0.242423  1
  O  O9  1  0.985860  0.007577  0.007577  1
  O  O10  1  0.292023  0.709629  0.294657  1
  O  O11  1  0.552777  0.946402  0.554787  1
  O  O12  1  0.292023  0.294657  0.709629  1
  O  O13  1  0.707808  0.297524  0.297524  1
  O  O14  1  0.291455  0.706627  0.706627  1
  O  O15  1  0.697223  0.695213  0.303598  1
  O  O16  1  0.697223  0.303598  0.695213  1
  O  O17  1  0.958545  0.543373  0.543373  1
  O  O18  1  0.542192  0.952476  0.952476  1
  O  O19  1  0.957977  0.540371  0.955343  1
  O  O20  1  0.552777  0.554787  0.946402  1
  O  O21  1  0.957977  0.955343  0.540371  1
