# generated using pymatgen
data_GaFe(PO3)6
_symmetry_space_group_name_H-M   'P 1'
_cell_length_a   5.13775085
_cell_length_b   7.02154865
_cell_length_c   10.37952500
_cell_angle_alpha   98.75725917
_cell_angle_beta   92.76902861
_cell_angle_gamma   92.70182362
_symmetry_Int_Tables_number   1
_chemical_formula_structural   GaFe(PO3)6
_chemical_formula_sum   'Ga1 Fe1 P6 O18'
_cell_volume   369.08017742
_cell_formula_units_Z   1
loop_
 _symmetry_equiv_pos_site_id
 _symmetry_equiv_pos_as_xyz
  1  'x, y, z'
loop_
 _atom_site_type_symbol
 _atom_site_label
 _atom_site_symmetry_multiplicity
 _atom_site_fract_x
 _atom_site_fract_y
 _atom_site_fract_z
 _atom_site_occupancy
  Ga  Ga0  1  0.499959  0.000035  0.000010  1
  Fe  Fe1  1  0.500356  0.499896  0.500085  1
  P  P2  1  0.020633  0.972728  0.182247  1
  P  P3  1  0.736534  0.323818  0.222925  1
  P  P4  1  0.991045  0.678304  0.359478  1
  P  P5  1  0.009139  0.321682  0.640532  1
  P  P6  1  0.263423  0.676219  0.777060  1
  P  P7  1  0.979264  0.027277  0.817735  1
  O  O8  1  0.601959  0.266812  0.089873  1
  O  O9  1  0.811546  0.896375  0.077884  1
  O  O10  1  0.300386  0.945568  0.151259  1
  O  O11  1  0.987096  0.195566  0.235756  1
  O  O12  1  0.879679  0.533219  0.228925  1
  O  O13  1  0.578507  0.318513  0.340608  1
  O  O14  1  0.966371  0.882921  0.312470  1
  O  O15  1  0.273414  0.645991  0.386555  1
  O  O16  1  0.809085  0.671327  0.468109  1
  O  O17  1  0.190961  0.328744  0.531885  1
  O  O18  1  0.726715  0.353934  0.613506  1
  O  O19  1  0.033565  0.117053  0.687498  1
  O  O20  1  0.421481  0.681466  0.659385  1
  O  O21  1  0.120293  0.466807  0.771078  1
  O  O22  1  0.012831  0.804421  0.764208  1
  O  O23  1  0.699516  0.054445  0.848712  1
  O  O24  1  0.188348  0.103653  0.922086  1
  O  O25  1  0.397904  0.733224  0.910129  1
