# generated using pymatgen
data_Cs6PrYI12
_symmetry_space_group_name_H-M   'P 1'
_cell_length_a   10.72637901
_cell_length_b   10.73246029
_cell_length_c   8.91416700
_cell_angle_alpha   90.00000000
_cell_angle_beta   90.00000000
_cell_angle_gamma   90.01059018
_symmetry_Int_Tables_number   1
_chemical_formula_structural   Cs6PrYI12
_chemical_formula_sum   'Cs6 Pr1 Y1 I12'
_cell_volume   1026.20278091
_cell_formula_units_Z   1
loop_
 _symmetry_equiv_pos_site_id
 _symmetry_equiv_pos_as_xyz
  1  'x, y, z'
loop_
 _atom_site_type_symbol
 _atom_site_label
 _atom_site_symmetry_multiplicity
 _atom_site_fract_x
 _atom_site_fract_y
 _atom_site_fract_z
 _atom_site_occupancy
  Cs  Cs0  1  0.000000  0.000000  0.500000  1
  Cs  Cs1  1  0.000000  0.000000  0.000000  1
  Cs  Cs2  1  0.234551  0.587450  0.500000  1
  Cs  Cs3  1  0.765449  0.412550  0.500000  1
  Cs  Cs4  1  0.412542  0.231809  0.000000  1
  Cs  Cs5  1  0.587458  0.768191  0.000000  1
  Pr  Pr6  1  0.000000  0.500000  0.000000  1
  Y  Y7  1  0.500000  0.000000  0.500000  1
  I  I8  1  0.693542  0.058848  0.742332  1
  I  I9  1  0.306458  0.941152  0.742332  1
  I  I10  1  0.939048  0.700386  0.250167  1
  I  I11  1  0.060952  0.299614  0.250167  1
  I  I12  1  0.306458  0.941152  0.257668  1
  I  I13  1  0.693542  0.058848  0.257668  1
  I  I14  1  0.060952  0.299614  0.749833  1
  I  I15  1  0.939048  0.700386  0.749833  1
  I  I16  1  0.569122  0.725916  0.500000  1
  I  I17  1  0.430878  0.274084  0.500000  1
  I  I18  1  0.283813  0.570931  0.000000  1
  I  I19  1  0.716187  0.429069  0.000000  1
