# generated using pymatgen
data_LiHoEr15In3Rh4
_symmetry_space_group_name_H-M   'P 1'
_cell_length_a   9.54701940
_cell_length_b   9.57861257
_cell_length_c   9.56671900
_cell_angle_alpha   60.04106939
_cell_angle_beta   59.93172226
_cell_angle_gamma   60.06091475
_symmetry_Int_Tables_number   1
_chemical_formula_structural   LiHoEr15In3Rh4
_chemical_formula_sum   'Li1 Ho1 Er15 In3 Rh4'
_cell_volume   618.76788002
_cell_formula_units_Z   1
loop_
 _symmetry_equiv_pos_site_id
 _symmetry_equiv_pos_as_xyz
  1  'x, y, z'
loop_
 _atom_site_type_symbol
 _atom_site_label
 _atom_site_symmetry_multiplicity
 _atom_site_fract_x
 _atom_site_fract_y
 _atom_site_fract_z
 _atom_site_occupancy
  Li  Li0  1  0.427550  0.717491  0.427479  1
  Ho  Ho1  1  0.189560  0.191856  0.809291  1
  Er  Er2  1  0.437046  0.062149  0.063784  1
  Er  Er3  1  0.437046  0.062149  0.437021  1
  Er  Er4  1  0.063548  0.436598  0.063910  1
  Er  Er5  1  0.648976  0.052452  0.649286  1
  Er  Er6  1  0.187049  0.813898  0.812696  1
  Er  Er7  1  0.062867  0.061862  0.437636  1
  Er  Er8  1  0.809509  0.191602  0.189386  1
  Er  Er9  1  0.813188  0.812955  0.186928  1
  Er  Er10  1  0.652092  0.649553  0.044805  1
  Er  Er11  1  0.652092  0.649553  0.653551  1
  Er  Er12  1  0.063548  0.436598  0.435946  1
  Er  Er13  1  0.047132  0.648444  0.652212  1
  Er  Er14  1  0.809509  0.191602  0.809502  1
  Er  Er15  1  0.436442  0.435277  0.064141  1
  Er  Er16  1  0.187049  0.813898  0.186356  1
  In  In17  1  0.416041  0.420998  0.747085  1
  In  In18  1  0.746631  0.421507  0.415931  1
  In  In19  1  0.416041  0.420998  0.415876  1
  Rh  Rh20  1  0.856664  0.429295  0.857020  1
  Rh  Rh21  1  0.856441  0.859884  0.427490  1
  Rh  Rh22  1  0.427536  0.859502  0.856481  1
  Rh  Rh23  1  0.856441  0.859884  0.856184  1
