# generated using pymatgen
data_LiZr2AlRh4
_symmetry_space_group_name_H-M   'P 1'
_cell_length_a   6.07789607
_cell_length_b   6.07772801
_cell_length_c   6.78354500
_cell_angle_alpha   90.00147013
_cell_angle_beta   90.00053435
_cell_angle_gamma   89.99461733
_symmetry_Int_Tables_number   1
_chemical_formula_structural   LiZr2AlRh4
_chemical_formula_sum   'Li2 Zr4 Al2 Rh8'
_cell_volume   250.58278913
_cell_formula_units_Z   2
loop_
 _symmetry_equiv_pos_site_id
 _symmetry_equiv_pos_as_xyz
  1  'x, y, z'
loop_
 _atom_site_type_symbol
 _atom_site_label
 _atom_site_symmetry_multiplicity
 _atom_site_fract_x
 _atom_site_fract_y
 _atom_site_fract_z
 _atom_site_occupancy
  Li  Li0  1  0.750034  0.249995  0.500188  1
  Li  Li1  1  0.250022  0.750002  0.999839  1
  Zr  Zr2  1  0.249914  0.249998  0.999997  1
  Zr  Zr3  1  0.750114  0.749997  0.999978  1
  Zr  Zr4  1  0.250117  0.250004  0.500004  1
  Zr  Zr5  1  0.749911  0.749997  0.500021  1
  Al  Al6  1  0.749946  0.249999  0.000111  1
  Al  Al7  1  0.249948  0.750003  0.499862  1
  Rh  Rh8  1  0.500004  0.500015  0.249938  1
  Rh  Rh9  1  0.499995  0.999979  0.249945  1
  Rh  Rh10  1  0.000031  0.499997  0.250057  1
  Rh  Rh11  1  0.000021  0.000014  0.250054  1
  Rh  Rh12  1  0.999968  0.499988  0.749945  1
  Rh  Rh13  1  0.999962  0.000015  0.749947  1
  Rh  Rh14  1  0.500007  0.500019  0.750054  1
  Rh  Rh15  1  0.500006  0.999978  0.750060  1
