# generated using pymatgen
data_Ho12AlTlFe4
_symmetry_space_group_name_H-M   'P 1'
_cell_length_a   8.33505353
_cell_length_b   8.33522312
_cell_length_c   8.33505300
_cell_angle_alpha   111.64962154
_cell_angle_beta   110.23048811
_cell_angle_gamma   106.57434960
_symmetry_Int_Tables_number   1
_chemical_formula_structural   Ho12AlTlFe4
_chemical_formula_sum   'Ho12 Al1 Tl1 Fe4'
_cell_volume   444.85472936
_cell_formula_units_Z   1
loop_
 _symmetry_equiv_pos_site_id
 _symmetry_equiv_pos_as_xyz
  1  'x, y, z'
loop_
 _atom_site_type_symbol
 _atom_site_label
 _atom_site_symmetry_multiplicity
 _atom_site_fract_x
 _atom_site_fract_y
 _atom_site_fract_z
 _atom_site_occupancy
  Ho  Ho0  1  0.436488  0.226961  0.209661  1
  Ho  Ho1  1  0.563512  0.773039  0.790339  1
  Ho  Ho2  1  0.017298  0.226961  0.790472  1
  Ho  Ho3  1  0.982702  0.773039  0.209528  1
  Ho  Ho4  1  0.186851  0.286318  0.473142  1
  Ho  Ho5  1  0.813149  0.713682  0.526858  1
  Ho  Ho6  1  0.186824  0.713682  0.900532  1
  Ho  Ho7  1  0.813176  0.286318  0.099468  1
  Ho  Ho8  1  0.310826  0.608992  0.298167  1
  Ho  Ho9  1  0.689174  0.391008  0.701833  1
  Ho  Ho10  1  0.310788  0.012482  0.701696  1
  Ho  Ho11  1  0.689212  0.987518  0.298304  1
  Al  Al12  1  0.000000  0.000000  0.000000  1
  Tl  Tl13  1  0.500000  0.500000  0.000000  1
  Fe  Fe14  1  0.384601  0.000000  0.384601  1
  Fe  Fe15  1  0.615399  0.000000  0.615399  1
  Fe  Fe16  1  0.108463  0.608796  0.500333  1
  Fe  Fe17  1  0.891537  0.391204  0.499667  1
