# generated using pymatgen
data_V3Sb8MoSe3S
_symmetry_space_group_name_H-M   'P 1'
_cell_length_a   6.53298400
_cell_length_b   6.56880716
_cell_length_c   18.67287658
_cell_angle_alpha   85.41166693
_cell_angle_beta   90.00000000
_cell_angle_gamma   90.00000000
_symmetry_Int_Tables_number   1
_chemical_formula_structural   V3Sb8MoSe3S
_chemical_formula_sum   'V6 Sb16 Mo2 Se6 S2'
_cell_volume   798.75808495
_cell_formula_units_Z   2
loop_
 _symmetry_equiv_pos_site_id
 _symmetry_equiv_pos_as_xyz
  1  'x, y, z'
loop_
 _atom_site_type_symbol
 _atom_site_label
 _atom_site_symmetry_multiplicity
 _atom_site_fract_x
 _atom_site_fract_y
 _atom_site_fract_z
 _atom_site_occupancy
  V  V0  1  0.875068  0.676533  0.491373  1
  V  V1  1  0.375068  0.323467  0.008627  1
  V  V2  1  0.128079  0.330440  0.508117  1
  V  V3  1  0.628079  0.669560  0.991883  1
  V  V4  1  0.621822  0.330155  0.508252  1
  V  V5  1  0.121822  0.669845  0.991748  1
  Sb  Sb6  1  0.399292  0.207179  0.273170  1
  Sb  Sb7  1  0.899292  0.792821  0.226830  1
  Sb  Sb8  1  0.601119  0.791694  0.728039  1
  Sb  Sb9  1  0.101119  0.208306  0.771961  1
  Sb  Sb10  1  0.851682  0.208734  0.272577  1
  Sb  Sb11  1  0.351682  0.791266  0.227423  1
  Sb  Sb12  1  0.148995  0.790467  0.728415  1
  Sb  Sb13  1  0.648995  0.209533  0.771585  1
  Sb  Sb14  1  0.374727  0.077484  0.427042  1
  Sb  Sb15  1  0.874727  0.922516  0.072958  1
  Sb  Sb16  1  0.629452  0.922843  0.574895  1
  Sb  Sb17  1  0.129452  0.077157  0.925105  1
  Sb  Sb18  1  0.875656  0.082816  0.426746  1
  Sb  Sb19  1  0.375656  0.917184  0.073254  1
  Sb  Sb20  1  0.120339  0.922719  0.575281  1
  Sb  Sb21  1  0.620339  0.077281  0.924719  1
  Mo  Mo22  1  0.374498  0.669200  0.495139  1
  Mo  Mo23  1  0.874498  0.330800  0.004861  1
  Se  Se24  1  0.121206  0.582068  0.402431  1
  Se  Se25  1  0.621206  0.417932  0.097569  1
  Se  Se26  1  0.628460  0.581615  0.402595  1
  Se  Se27  1  0.128460  0.418385  0.097405  1
  Se  Se28  1  0.374653  0.402097  0.600358  1
  Se  Se29  1  0.874653  0.597903  0.899642  1
  S  S30  1  0.874953  0.421510  0.584733  1
  S  S31  1  0.374953  0.578490  0.915267  1
