# generated using pymatgen
data_Dy7Hf(Si4W3)4
_symmetry_space_group_name_H-M   'P 1'
_cell_length_a   6.74635829
_cell_length_b   6.90496360
_cell_length_c   12.90206045
_cell_angle_alpha   90.14037387
_cell_angle_beta   89.98912664
_cell_angle_gamma   90.11179758
_symmetry_Int_Tables_number   1
_chemical_formula_structural   Dy7Hf(Si4W3)4
_chemical_formula_sum   'Dy7 Hf1 Si16 W12'
_cell_volume   601.01834805
_cell_formula_units_Z   1
loop_
 _symmetry_equiv_pos_site_id
 _symmetry_equiv_pos_as_xyz
  1  'x, y, z'
loop_
 _atom_site_type_symbol
 _atom_site_label
 _atom_site_symmetry_multiplicity
 _atom_site_fract_x
 _atom_site_fract_y
 _atom_site_fract_z
 _atom_site_occupancy
  Dy  Dy0  1  0.494816  0.667793  0.592875  1
  Dy  Dy1  1  0.995703  0.832796  0.906980  1
  Dy  Dy2  1  0.503970  0.332816  0.093511  1
  Dy  Dy3  1  0.003492  0.166703  0.408124  1
  Dy  Dy4  1  0.503617  0.332206  0.407945  1
  Dy  Dy5  1  0.004146  0.167503  0.093481  1
  Dy  Dy6  1  0.495478  0.667784  0.905192  1
  Hf  Hf7  1  0.992484  0.830141  0.596124  1
  Si  Si8  1  0.664728  0.957270  0.455853  1
  Si  Si9  1  0.161398  0.541842  0.046504  1
  Si  Si10  1  0.339183  0.043081  0.952755  1
  Si  Si11  1  0.840316  0.461096  0.546580  1
  Si  Si12  1  0.330484  0.038972  0.546213  1
  Si  Si13  1  0.838622  0.457252  0.952572  1
  Si  Si14  1  0.661422  0.957209  0.046238  1
  Si  Si15  1  0.161264  0.545291  0.455853  1
  Si  Si16  1  0.464283  0.370216  0.749626  1
  Si  Si17  1  0.964933  0.126279  0.747985  1
  Si  Si18  1  0.537307  0.629463  0.250501  1
  Si  Si19  1  0.036679  0.871447  0.249988  1
  Si  Si20  1  0.700104  0.865350  0.748711  1
  Si  Si21  1  0.193779  0.636320  0.747955  1
  Si  Si22  1  0.303002  0.134097  0.250559  1
  Si  Si23  1  0.803938  0.366862  0.250921  1
  W  W24  1  0.668563  0.160427  0.625100  1
  W  W25  1  0.166274  0.335410  0.872931  1
  W  W26  1  0.333323  0.837224  0.124944  1
  W  W27  1  0.834976  0.666167  0.376957  1
  W  W28  1  0.332766  0.836609  0.374806  1
  W  W29  1  0.833522  0.664681  0.125891  1
  W  W30  1  0.668315  0.161589  0.873891  1
  W  W31  1  0.167932  0.336592  0.624910  1
  W  W32  1  0.833548  0.502585  0.748070  1
  W  W33  1  0.333293  0.998068  0.747123  1
  W  W34  1  0.166647  0.501698  0.250594  1
  W  W35  1  0.665692  0.999156  0.251744  1
