# generated using pymatgen
data_LuPa9(Re3C8)2
_symmetry_space_group_name_H-M   'P 1'
_cell_length_a   11.43130402
_cell_length_b   11.43130402
_cell_length_c   3.38523000
_cell_angle_alpha   90.00000000
_cell_angle_beta   90.00000000
_cell_angle_gamma   89.99281253
_symmetry_Int_Tables_number   1
_chemical_formula_structural   LuPa9(Re3C8)2
_chemical_formula_sum   'Lu1 Pa9 Re6 C16'
_cell_volume   442.36395065
_cell_formula_units_Z   1
loop_
 _symmetry_equiv_pos_site_id
 _symmetry_equiv_pos_as_xyz
  1  'x, y, z'
loop_
 _atom_site_type_symbol
 _atom_site_label
 _atom_site_symmetry_multiplicity
 _atom_site_fract_x
 _atom_site_fract_y
 _atom_site_fract_z
 _atom_site_occupancy
  Lu  Lu0  1  0.000000  0.500000  0.000000  1
  Pa  Pa1  1  0.270636  0.543438  0.500000  1
  Pa  Pa2  1  0.729364  0.456562  0.500000  1
  Pa  Pa3  1  0.543279  0.726219  0.500000  1
  Pa  Pa4  1  0.773781  0.956721  0.500000  1
  Pa  Pa5  1  0.226219  0.043279  0.500000  1
  Pa  Pa6  1  0.956562  0.229364  0.500000  1
  Pa  Pa7  1  0.456721  0.273781  0.500000  1
  Pa  Pa8  1  0.500000  0.000000  0.000000  1
  Pa  Pa9  1  0.043438  0.770636  0.500000  1
  Re  Re10  1  0.203136  0.296864  0.000000  1
  Re  Re11  1  0.701923  0.201923  0.000000  1
  Re  Re12  1  0.298077  0.798077  0.000000  1
  Re  Re13  1  0.500000  0.500000  0.000000  1
  Re  Re14  1  0.796864  0.703136  0.000000  1
  Re  Re15  1  0.000000  0.000000  0.000000  1
  C  C16  1  0.346301  0.402654  0.000000  1
  C  C17  1  0.617988  0.117988  0.500000  1
  C  C18  1  0.902654  0.846301  0.000000  1
  C  C19  1  0.652780  0.847220  0.000000  1
  C  C20  1  0.347220  0.152780  0.000000  1
  C  C21  1  0.117618  0.382382  0.500000  1
  C  C22  1  0.152106  0.901259  0.000000  1
  C  C23  1  0.847603  0.347603  0.000000  1
  C  C24  1  0.653699  0.597346  0.000000  1
  C  C25  1  0.598741  0.347894  0.000000  1
  C  C26  1  0.882382  0.617618  0.500000  1
  C  C27  1  0.847894  0.098741  0.000000  1
  C  C28  1  0.382012  0.882012  0.500000  1
  C  C29  1  0.152397  0.652397  0.000000  1
  C  C30  1  0.097346  0.153699  0.000000  1
  C  C31  1  0.401259  0.652106  0.000000  1
