# generated using pymatgen
data_TbEr15(CdPt)4
_symmetry_space_group_name_H-M   'P 1'
_cell_length_a   9.62001570
_cell_length_b   9.62001573
_cell_length_c   9.61475800
_cell_angle_alpha   60.01807778
_cell_angle_beta   60.01807768
_cell_angle_gamma   59.99168810
_symmetry_Int_Tables_number   1
_chemical_formula_structural   TbEr15(CdPt)4
_chemical_formula_sum   'Tb1 Er15 Cd4 Pt4'
_cell_volume   629.31232020
_cell_formula_units_Z   1
loop_
 _symmetry_equiv_pos_site_id
 _symmetry_equiv_pos_as_xyz
  1  'x, y, z'
loop_
 _atom_site_type_symbol
 _atom_site_label
 _atom_site_symmetry_multiplicity
 _atom_site_fract_x
 _atom_site_fract_y
 _atom_site_fract_z
 _atom_site_occupancy
  Tb  Tb0  1  0.935793  0.935793  0.564207  1
  Er  Er1  1  0.352218  0.352218  0.350519  1
  Er  Er2  1  0.352218  0.352218  0.945045  1
  Er  Er3  1  0.354771  0.940940  0.352144  1
  Er  Er4  1  0.940940  0.354771  0.352144  1
  Er  Er5  1  0.810145  0.190213  0.189705  1
  Er  Er6  1  0.190213  0.810145  0.809938  1
  Er  Er7  1  0.190213  0.810145  0.189705  1
  Er  Er8  1  0.810145  0.190213  0.809938  1
  Er  Er9  1  0.190453  0.190453  0.809547  1
  Er  Er10  1  0.810616  0.810616  0.189384  1
  Er  Er11  1  0.935225  0.564083  0.565049  1
  Er  Er12  1  0.564083  0.935225  0.935643  1
  Er  Er13  1  0.564083  0.935225  0.565049  1
  Er  Er14  1  0.935225  0.564083  0.935643  1
  Er  Er15  1  0.565599  0.565599  0.934401  1
  Cd  Cd16  1  0.581563  0.581563  0.582310  1
  Cd  Cd17  1  0.581563  0.581563  0.254563  1
  Cd  Cd18  1  0.580979  0.254438  0.582291  1
  Cd  Cd19  1  0.254438  0.580979  0.582291  1
  Pt  Pt20  1  0.143125  0.143125  0.143776  1
  Pt  Pt21  1  0.143125  0.143125  0.569975  1
  Pt  Pt22  1  0.142299  0.570970  0.143366  1
  Pt  Pt23  1  0.570970  0.142299  0.143366  1
