# generated using pymatgen
data_Dy2Er2Al4Ir3Au
_symmetry_space_group_name_H-M   'P 1'
_cell_length_a   4.34348000
_cell_length_b   6.84232141
_cell_length_c   7.90004204
_cell_angle_alpha   90.02565343
_cell_angle_beta   90.00000000
_cell_angle_gamma   90.00000000
_symmetry_Int_Tables_number   1
_chemical_formula_structural   Dy2Er2Al4Ir3Au
_chemical_formula_sum   'Dy2 Er2 Al4 Ir3 Au1'
_cell_volume   234.78516691
_cell_formula_units_Z   1
loop_
 _symmetry_equiv_pos_site_id
 _symmetry_equiv_pos_as_xyz
  1  'x, y, z'
loop_
 _atom_site_type_symbol
 _atom_site_label
 _atom_site_symmetry_multiplicity
 _atom_site_fract_x
 _atom_site_fract_y
 _atom_site_fract_z
 _atom_site_occupancy
  Dy  Dy0  1  0.250000  0.024096  0.326408  1
  Dy  Dy1  1  0.250000  0.540212  0.182385  1
  Er  Er2  1  0.750000  0.970302  0.679059  1
  Er  Er3  1  0.750000  0.477758  0.812239  1
  Al  Al4  1  0.250000  0.137017  0.930799  1
  Al  Al5  1  0.250000  0.642123  0.563305  1
  Al  Al6  1  0.750000  0.846452  0.060017  1
  Al  Al7  1  0.750000  0.363118  0.445179  1
  Ir  Ir8  1  0.250000  0.268160  0.620100  1
  Ir  Ir9  1  0.250000  0.766089  0.880563  1
  Ir  Ir10  1  0.750000  0.734036  0.380216  1
  Au  Au11  1  0.750000  0.230635  0.119729  1
