# generated using pymatgen
data_CeNd2In3CuRh2
_symmetry_space_group_name_H-M   'P 1'
_cell_length_a   7.57408814
_cell_length_b   7.57408799
_cell_length_c   3.99352800
_cell_angle_alpha   90.00000000
_cell_angle_beta   90.00000000
_cell_angle_gamma   118.37864018
_symmetry_Int_Tables_number   1
_chemical_formula_structural   CeNd2In3CuRh2
_chemical_formula_sum   'Ce1 Nd2 In3 Cu1 Rh2'
_cell_volume   201.56454360
_cell_formula_units_Z   1
loop_
 _symmetry_equiv_pos_site_id
 _symmetry_equiv_pos_as_xyz
  1  'x, y, z'
loop_
 _atom_site_type_symbol
 _atom_site_label
 _atom_site_symmetry_multiplicity
 _atom_site_fract_x
 _atom_site_fract_y
 _atom_site_fract_z
 _atom_site_occupancy
  Ce  Ce0  1  0.578104  0.578104  0.500000  1
  Nd  Nd1  1  0.414260  0.999615  0.500000  1
  Nd  Nd2  1  0.999615  0.414260  0.500000  1
  In  In3  1  0.752129  0.005207  0.000000  1
  In  In4  1  0.005207  0.752129  0.000000  1
  In  In5  1  0.239999  0.239999  0.000000  1
  Cu  Cu6  1  0.993641  0.993641  0.500000  1
  Rh  Rh7  1  0.356077  0.660967  0.000000  1
  Rh  Rh8  1  0.660967  0.356077  0.000000  1
