# generated using pymatgen
data_EuEr3(SeO4)6
_symmetry_space_group_name_H-M   'P 1'
_cell_length_a   9.98539803
_cell_length_b   9.98539790
_cell_length_c   9.98539801
_cell_angle_alpha   58.08478964
_cell_angle_beta   58.08479006
_cell_angle_gamma   58.08479875
_symmetry_Int_Tables_number   1
_chemical_formula_structural   EuEr3(SeO4)6
_chemical_formula_sum   'Eu1 Er3 Se6 O24'
_cell_volume   673.09872518
_cell_formula_units_Z   1
loop_
 _symmetry_equiv_pos_site_id
 _symmetry_equiv_pos_as_xyz
  1  'x, y, z'
loop_
 _atom_site_type_symbol
 _atom_site_label
 _atom_site_symmetry_multiplicity
 _atom_site_fract_x
 _atom_site_fract_y
 _atom_site_fract_z
 _atom_site_occupancy
  Eu  Eu0  1  0.642808  0.642808  0.642808  1
  Er  Er1  1  0.356292  0.356292  0.356292  1
  Er  Er2  1  0.143537  0.143537  0.143537  1
  Er  Er3  1  0.855401  0.855401  0.855401  1
  Se  Se4  1  0.749345  0.041166  0.461869  1
  Se  Se5  1  0.968650  0.536715  0.243173  1
  Se  Se6  1  0.536715  0.243173  0.968651  1
  Se  Se7  1  0.461868  0.749345  0.041167  1
  Se  Se8  1  0.041167  0.461868  0.749345  1
  Se  Se9  1  0.243173  0.968650  0.536715  1
  O  O10  1  0.915731  0.072442  0.291101  1
  O  O11  1  0.773749  0.008949  0.630571  1
  O  O12  1  0.998670  0.370532  0.217014  1
  O  O13  1  0.707491  0.074996  0.942839  1
  O  O14  1  0.579727  0.210610  0.437065  1
  O  O15  1  0.873759  0.485232  0.730360  1
  O  O16  1  0.507818  0.272199  0.133059  1
  O  O17  1  0.796193  0.560821  0.410114  1
  O  O18  1  0.942839  0.707491  0.074996  1
  O  O19  1  0.560821  0.410114  0.796193  1
  O  O20  1  0.370532  0.217014  0.998670  1
  O  O21  1  0.272199  0.133059  0.507818  1
  O  O22  1  0.730360  0.873759  0.485232  1
  O  O23  1  0.630571  0.773749  0.008949  1
  O  O24  1  0.437065  0.579727  0.210610  1
  O  O25  1  0.072442  0.291101  0.915731  1
  O  O26  1  0.210610  0.437065  0.579727  1
  O  O27  1  0.485232  0.730360  0.873759  1
  O  O28  1  0.133059  0.507818  0.272199  1
  O  O29  1  0.410114  0.796193  0.560821  1
  O  O30  1  0.291101  0.915731  0.072442  1
  O  O31  1  0.008949  0.630571  0.773749  1
  O  O32  1  0.217014  0.998670  0.370532  1
  O  O33  1  0.074996  0.942839  0.707491  1
