# generated using pymatgen
data_Pa2Co9Ni3As7
_symmetry_space_group_name_H-M   'P 1'
_cell_length_a   9.32903620
_cell_length_b   9.32533917
_cell_length_c   3.75672200
_cell_angle_alpha   90.00000000
_cell_angle_beta   90.00000000
_cell_angle_gamma   120.00789545
_symmetry_Int_Tables_number   1
_chemical_formula_structural   Pa2Co9Ni3As7
_chemical_formula_sum   'Pa2 Co9 Ni3 As7'
_cell_volume   283.01310559
_cell_formula_units_Z   1
loop_
 _symmetry_equiv_pos_site_id
 _symmetry_equiv_pos_as_xyz
  1  'x, y, z'
loop_
 _atom_site_type_symbol
 _atom_site_label
 _atom_site_symmetry_multiplicity
 _atom_site_fract_x
 _atom_site_fract_y
 _atom_site_fract_z
 _atom_site_occupancy
  Pa  Pa0  1  0.333289  0.666884  0.000000  1
  Pa  Pa1  1  0.666895  0.333009  0.500000  1
  Co  Co2  1  0.434273  0.374924  0.000000  1
  Co  Co3  1  0.625284  0.059886  0.000000  1
  Co  Co4  1  0.940297  0.565421  0.000000  1
  Co  Co5  1  0.381329  0.932438  0.500000  1
  Co  Co6  1  0.067548  0.448830  0.500000  1
  Co  Co7  1  0.551237  0.618937  0.500000  1
  Co  Co8  1  0.278753  0.149585  0.500000  1
  Co  Co9  1  0.850567  0.129178  0.500000  1
  Co  Co10  1  0.870828  0.721320  0.500000  1
  Ni  Ni11  1  0.116212  0.902663  0.000000  1
  Ni  Ni12  1  0.097423  0.212910  0.000000  1
  Ni  Ni13  1  0.785631  0.883609  0.000000  1
  As  As14  1  0.000028  0.000022  0.500000  1
  As  As15  1  0.286060  0.397274  0.500000  1
  As  As16  1  0.602948  0.889191  0.500000  1
  As  As17  1  0.110969  0.714013  0.500000  1
  As  As18  1  0.400461  0.102587  0.000000  1
  As  As19  1  0.897938  0.297863  0.000000  1
  As  As20  1  0.702032  0.599456  0.000000  1
