# generated using pymatgen
data_Nd6Al24Pd3Ru5
_symmetry_space_group_name_H-M   'P 1'
_cell_length_a   8.97304991
_cell_length_b   8.94453186
_cell_length_c   9.65153042
_cell_angle_alpha   90.06089048
_cell_angle_beta   89.92424779
_cell_angle_gamma   120.10817028
_symmetry_Int_Tables_number   1
_chemical_formula_structural   Nd6Al24Pd3Ru5
_chemical_formula_sum   'Nd6 Al24 Pd3 Ru5'
_cell_volume   670.11552051
_cell_formula_units_Z   1
loop_
 _symmetry_equiv_pos_site_id
 _symmetry_equiv_pos_as_xyz
  1  'x, y, z'
loop_
 _atom_site_type_symbol
 _atom_site_label
 _atom_site_symmetry_multiplicity
 _atom_site_fract_x
 _atom_site_fract_y
 _atom_site_fract_z
 _atom_site_occupancy
  Nd  Nd0  1  0.193420  0.383840  0.249721  1
  Nd  Nd1  1  0.806580  0.616160  0.750279  1
  Nd  Nd2  1  0.617690  0.806389  0.251692  1
  Nd  Nd3  1  0.382310  0.193611  0.748308  1
  Nd  Nd4  1  0.189096  0.808470  0.249433  1
  Nd  Nd5  1  0.810904  0.191530  0.750567  1
  Al  Al6  1  0.336054  0.663868  0.018790  1
  Al  Al7  1  0.663946  0.336132  0.981210  1
  Al  Al8  1  0.669796  0.339104  0.518145  1
  Al  Al9  1  0.330204  0.660896  0.481855  1
  Al  Al10  1  0.163655  0.327534  0.575223  1
  Al  Al11  1  0.836345  0.672466  0.424777  1
  Al  Al12  1  0.674723  0.831113  0.576612  1
  Al  Al13  1  0.830724  0.674564  0.078517  1
  Al  Al14  1  0.325277  0.168887  0.423388  1
  Al  Al15  1  0.169276  0.325436  0.921483  1
  Al  Al16  1  0.155567  0.831750  0.577117  1
  Al  Al17  1  0.324474  0.168664  0.077077  1
  Al  Al18  1  0.844433  0.168250  0.422883  1
  Al  Al19  1  0.675526  0.831336  0.922923  1
  Al  Al20  1  0.838266  0.160779  0.080364  1
  Al  Al21  1  0.161734  0.839221  0.919636  1
  Al  Al22  1  0.563777  0.127172  0.249970  1
  Al  Al23  1  0.436223  0.872828  0.750030  1
  Al  Al24  1  0.874006  0.436827  0.253553  1
  Al  Al25  1  0.125994  0.563173  0.746447  1
  Al  Al26  1  0.561476  0.438547  0.249632  1
  Al  Al27  1  0.438524  0.561453  0.750368  1
  Al  Al28  1  0.999346  0.998464  0.250323  1
  Al  Al29  1  0.000654  0.001536  0.749677  1
  Pd  Pd30  1  0.500000  0.000000  0.000000  1
  Pd  Pd31  1  0.000000  0.500000  0.000000  1
  Pd  Pd32  1  0.500000  0.000000  0.500000  1
  Ru  Ru33  1  0.500000  0.500000  0.000000  1
  Ru  Ru34  1  0.000000  0.500000  0.500000  1
  Ru  Ru35  1  0.500000  0.500000  0.500000  1
  Ru  Ru36  1  0.000000  0.000000  0.000000  1
  Ru  Ru37  1  0.000000  0.000000  0.500000  1
