# generated using pymatgen
data_TmThMn12P7
_symmetry_space_group_name_H-M   'P 1'
_cell_length_a   9.31863500
_cell_length_b   9.31863420
_cell_length_c   3.62478400
_cell_angle_alpha   90.00000000
_cell_angle_beta   90.00000000
_cell_angle_gamma   119.99999930
_symmetry_Int_Tables_number   1
_chemical_formula_structural   TmThMn12P7
_chemical_formula_sum   'Tm1 Th1 Mn12 P7'
_cell_volume   272.59465251
_cell_formula_units_Z   1
loop_
 _symmetry_equiv_pos_site_id
 _symmetry_equiv_pos_as_xyz
  1  'x, y, z'
loop_
 _atom_site_type_symbol
 _atom_site_label
 _atom_site_symmetry_multiplicity
 _atom_site_fract_x
 _atom_site_fract_y
 _atom_site_fract_z
 _atom_site_occupancy
  Tm  Tm0  1  0.000000  0.000000  0.000000  1
  Th  Th1  1  0.666667  0.333333  0.500000  1
  Mn  Mn2  1  0.710860  0.618828  0.000000  1
  Mn  Mn3  1  0.381172  0.092033  0.000000  1
  Mn  Mn4  1  0.907967  0.289140  0.000000  1
  Mn  Mn5  1  0.211109  0.390646  0.000000  1
  Mn  Mn6  1  0.609354  0.820462  0.000000  1
  Mn  Mn7  1  0.179538  0.788891  0.000000  1
  Mn  Mn8  1  0.286000  0.228051  0.500000  1
  Mn  Mn9  1  0.771949  0.057949  0.500000  1
  Mn  Mn10  1  0.942051  0.714000  0.500000  1
  Mn  Mn11  1  0.457069  0.563945  0.500000  1
  Mn  Mn12  1  0.436055  0.893125  0.500000  1
  Mn  Mn13  1  0.106875  0.542931  0.500000  1
  P  P14  1  0.446497  0.377020  0.000000  1
  P  P15  1  0.622980  0.069477  0.000000  1
  P  P16  1  0.930523  0.553503  0.000000  1
  P  P17  1  0.052116  0.257035  0.500000  1
  P  P18  1  0.742965  0.795082  0.500000  1
  P  P19  1  0.204918  0.947884  0.500000  1
  P  P20  1  0.333333  0.666667  0.000000  1
