# generated using pymatgen
data_PrDyNp6F30
_symmetry_space_group_name_H-M   'P 1'
_cell_length_a   8.67767431
_cell_length_b   8.67767341
_cell_length_c   8.68694700
_cell_angle_alpha   79.60055842
_cell_angle_beta   79.60055281
_cell_angle_gamma   100.36364508
_symmetry_Int_Tables_number   1
_chemical_formula_structural   PrDyNp6F30
_chemical_formula_sum   'Pr1 Dy1 Np6 F30'
_cell_volume   617.37780868
_cell_formula_units_Z   1
loop_
 _symmetry_equiv_pos_site_id
 _symmetry_equiv_pos_as_xyz
  1  'x, y, z'
loop_
 _atom_site_type_symbol
 _atom_site_label
 _atom_site_symmetry_multiplicity
 _atom_site_fract_x
 _atom_site_fract_y
 _atom_site_fract_z
 _atom_site_occupancy
  Pr  Pr0  1  0.177804  0.822196  0.250000  1
  Dy  Dy1  1  0.822916  0.177084  0.750000  1
  Np  Np2  1  0.749527  0.250473  0.250000  1
  Np  Np3  1  0.250996  0.749004  0.750000  1
  Np  Np4  1  0.752682  0.676756  0.678724  1
  Np  Np5  1  0.323244  0.247318  0.821276  1
  Np  Np6  1  0.243804  0.322287  0.325254  1
  Np  Np7  1  0.677713  0.756196  0.174746  1
  F  F8  1  0.322276  0.341750  0.051816  1
  F  F9  1  0.939061  0.814596  0.152665  1
  F  F10  1  0.836635  0.447137  0.684816  1
  F  F11  1  0.458441  0.848015  0.173803  1
  F  F12  1  0.811258  0.941810  0.665048  1
  F  F13  1  0.344343  0.324742  0.550398  1
  F  F14  1  0.675258  0.655657  0.949601  1
  F  F15  1  0.058190  0.188742  0.834952  1
  F  F16  1  0.151985  0.541559  0.326197  1
  F  F17  1  0.552863  0.163365  0.815184  1
  F  F18  1  0.185404  0.060939  0.347335  1
  F  F19  1  0.658250  0.677724  0.448184  1
  F  F20  1  0.780134  0.274299  0.993258  1
  F  F21  1  0.012099  0.278913  0.215774  1
  F  F22  1  0.779048  0.509556  0.219232  1
  F  F23  1  0.509549  0.779437  0.721296  1
  F  F24  1  0.281819  0.011811  0.715033  1
  F  F25  1  0.285009  0.776754  0.493457  1
  F  F26  1  0.223246  0.714991  0.006543  1
  F  F27  1  0.988189  0.718181  0.784967  1
  F  F28  1  0.220563  0.490451  0.778704  1
  F  F29  1  0.490444  0.220952  0.280768  1
  F  F30  1  0.721087  0.987901  0.284226  1
  F  F31  1  0.725701  0.219866  0.506742  1
  F  F32  1  0.464556  0.535444  0.250000  1
  F  F33  1  0.753247  0.966071  0.967547  1
  F  F34  1  0.033929  0.246753  0.532453  1
  F  F35  1  0.248176  0.039514  0.025492  1
  F  F36  1  0.960486  0.751824  0.474508  1
  F  F37  1  0.530073  0.469927  0.750000  1
