# generated using pymatgen
data_Ti3Mn2CrSiAs2
_symmetry_space_group_name_H-M   'P 1'
_cell_length_a   6.57030100
_cell_length_b   6.54059472
_cell_length_c   3.31322700
_cell_angle_alpha   90.00000000
_cell_angle_beta   90.00000000
_cell_angle_gamma   120.15035161
_symmetry_Int_Tables_number   1
_chemical_formula_structural   Ti3Mn2CrSiAs2
_chemical_formula_sum   'Ti3 Mn2 Cr1 Si1 As2'
_cell_volume   123.11879559
_cell_formula_units_Z   1
loop_
 _symmetry_equiv_pos_site_id
 _symmetry_equiv_pos_as_xyz
  1  'x, y, z'
loop_
 _atom_site_type_symbol
 _atom_site_label
 _atom_site_symmetry_multiplicity
 _atom_site_fract_x
 _atom_site_fract_y
 _atom_site_fract_z
 _atom_site_occupancy
  Ti  Ti0  1  0.595356  0.000000  0.000000  1
  Ti  Ti1  1  0.005660  0.605649  0.000000  1
  Ti  Ti2  1  0.400011  0.394351  0.000000  1
  Mn  Mn3  1  0.000261  0.252347  0.500000  1
  Mn  Mn4  1  0.747914  0.747653  0.500000  1
  Cr  Cr5  1  0.249476  0.000000  0.500000  1
  Si  Si6  1  0.994339  0.000000  0.000000  1
  As  As7  1  0.335425  0.663867  0.500000  1
  As  As8  1  0.671559  0.336133  0.500000  1
