# generated using pymatgen
data_KRb3UBiTe6
_symmetry_space_group_name_H-M   'P 1'
_cell_length_a   8.22281435
_cell_length_b   8.22281413
_cell_length_c   8.93413174
_cell_angle_alpha   81.00303102
_cell_angle_beta   81.00303181
_cell_angle_gamma   120.12256360
_symmetry_Int_Tables_number   1
_chemical_formula_structural   KRb3UBiTe6
_chemical_formula_sum   'K1 Rb3 U1 Bi1 Te6'
_cell_volume   496.18649841
_cell_formula_units_Z   1
loop_
 _symmetry_equiv_pos_site_id
 _symmetry_equiv_pos_as_xyz
  1  'x, y, z'
loop_
 _atom_site_type_symbol
 _atom_site_label
 _atom_site_symmetry_multiplicity
 _atom_site_fract_x
 _atom_site_fract_y
 _atom_site_fract_z
 _atom_site_occupancy
  K  K0  1  0.500311  0.499689  0.000000  1
  Rb  Rb1  1  0.655690  0.344310  0.500000  1
  Rb  Rb2  1  0.347712  0.652288  0.500000  1
  Rb  Rb3  1  0.995254  0.004746  0.500000  1
  U  U4  1  0.167852  0.832148  0.000000  1
  Bi  Bi5  1  0.830785  0.169215  0.000000  1
  Te  Te6  1  0.808890  0.792412  0.198142  1
  Te  Te7  1  0.207588  0.191110  0.801858  1
  Te  Te8  1  0.415002  0.052891  0.203184  1
  Te  Te9  1  0.553286  0.929477  0.797598  1
  Te  Te10  1  0.947109  0.584998  0.796816  1
  Te  Te11  1  0.070523  0.446714  0.202402  1
