# generated using pymatgen
data_IrRu3(RhW)2
_symmetry_space_group_name_H-M   'P 1'
_cell_length_a   5.53341275
_cell_length_b   5.52055109
_cell_length_c   4.39496600
_cell_angle_alpha   90.00000000
_cell_angle_beta   90.00000000
_cell_angle_gamma   120.38360778
_symmetry_Int_Tables_number   1
_chemical_formula_structural   IrRu3(RhW)2
_chemical_formula_sum   'Ir1 Ru3 Rh2 W2'
_cell_volume   115.81635162
_cell_formula_units_Z   1
loop_
 _symmetry_equiv_pos_site_id
 _symmetry_equiv_pos_as_xyz
  1  'x, y, z'
loop_
 _atom_site_type_symbol
 _atom_site_label
 _atom_site_symmetry_multiplicity
 _atom_site_fract_x
 _atom_site_fract_y
 _atom_site_fract_z
 _atom_site_occupancy
  Ir  Ir0  1  0.164448  0.332720  0.250000  1
  Ru  Ru1  1  0.167648  0.834023  0.250000  1
  Ru  Ru2  1  0.333182  0.163525  0.750000  1
  Ru  Ru3  1  0.832496  0.165446  0.750000  1
  Rh  Rh4  1  0.668862  0.834955  0.250000  1
  Rh  Rh5  1  0.834635  0.668732  0.750000  1
  W  W6  1  0.333223  0.669384  0.750000  1
  W  W7  1  0.665506  0.331216  0.250000  1
