# generated using pymatgen
data_Tb7CeAsPt24
_symmetry_space_group_name_H-M   'P 1'
_cell_length_a   8.39198146
_cell_length_b   8.39198191
_cell_length_c   8.39198100
_cell_angle_alpha   89.96623829
_cell_angle_beta   90.03376171
_cell_angle_gamma   90.03376111
_symmetry_Int_Tables_number   1
_chemical_formula_structural   Tb7CeAsPt24
_chemical_formula_sum   'Tb7 Ce1 As1 Pt24'
_cell_volume   591.00794676
_cell_formula_units_Z   1
loop_
 _symmetry_equiv_pos_site_id
 _symmetry_equiv_pos_as_xyz
  1  'x, y, z'
loop_
 _atom_site_type_symbol
 _atom_site_label
 _atom_site_symmetry_multiplicity
 _atom_site_fract_x
 _atom_site_fract_y
 _atom_site_fract_z
 _atom_site_occupancy
  Tb  Tb0  1  0.253646  0.254315  0.254318  1
  Tb  Tb1  1  0.745869  0.745348  0.745347  1
  Tb  Tb2  1  0.745685  0.746352  0.254316  1
  Tb  Tb3  1  0.745689  0.254316  0.746353  1
  Tb  Tb4  1  0.254650  0.254131  0.745348  1
  Tb  Tb5  1  0.254653  0.745351  0.254131  1
  Tb  Tb6  1  0.254375  0.745624  0.745626  1
  Ce  Ce7  1  0.744855  0.255147  0.255146  1
  As  As8  1  0.000037  0.999954  0.999954  1
  Pt  Pt9  1  0.260108  0.499999  0.999575  1
  Pt  Pt10  1  0.739914  0.499717  0.000589  1
  Pt  Pt11  1  0.999414  0.260086  0.499719  1
  Pt  Pt12  1  0.500279  0.260086  0.000588  1
  Pt  Pt13  1  0.000427  0.739892  0.499998  1
  Pt  Pt14  1  0.500003  0.739894  0.999575  1
  Pt  Pt15  1  0.500279  0.000586  0.260085  1
  Pt  Pt16  1  0.260107  0.999572  0.499999  1
  Pt  Pt17  1  0.500003  0.999573  0.739895  1
  Pt  Pt18  1  0.739914  0.000589  0.499717  1
  Pt  Pt19  1  0.999415  0.499723  0.260085  1
  Pt  Pt20  1  0.000425  0.499998  0.739892  1
  Pt  Pt21  1  0.252736  0.500151  0.500151  1
  Pt  Pt22  1  0.746881  0.500099  0.500098  1
  Pt  Pt23  1  0.499902  0.253118  0.500098  1
  Pt  Pt24  1  0.499849  0.747263  0.500150  1
  Pt  Pt25  1  0.499903  0.500097  0.253116  1
  Pt  Pt26  1  0.499850  0.500151  0.747265  1
  Pt  Pt27  1  0.289425  0.999870  0.999870  1
  Pt  Pt28  1  0.710022  0.999287  0.999288  1
  Pt  Pt29  1  0.000713  0.289979  0.999291  1
  Pt  Pt30  1  0.000130  0.710572  0.999868  1
  Pt  Pt31  1  0.000712  0.999289  0.289980  1
  Pt  Pt32  1  0.000130  0.999867  0.710572  1
