# generated using pymatgen
data_Th2NpSnN6
_symmetry_space_group_name_H-M   'P 1'
_cell_length_a   5.80679629
_cell_length_b   5.98586300
_cell_length_c   8.33468940
_cell_angle_alpha   90.00000000
_cell_angle_beta   90.03574797
_cell_angle_gamma   90.00000000
_symmetry_Int_Tables_number   1
_chemical_formula_structural   Th2NpSnN6
_chemical_formula_sum   'Th4 Np2 Sn2 N12'
_cell_volume   289.70280404
_cell_formula_units_Z   2
loop_
 _symmetry_equiv_pos_site_id
 _symmetry_equiv_pos_as_xyz
  1  'x, y, z'
loop_
 _atom_site_type_symbol
 _atom_site_label
 _atom_site_symmetry_multiplicity
 _atom_site_fract_x
 _atom_site_fract_y
 _atom_site_fract_z
 _atom_site_occupancy
  Th  Th0  1  0.511847  0.552650  0.248249  1
  Th  Th1  1  0.988153  0.052650  0.251751  1
  Th  Th2  1  0.488153  0.447350  0.751751  1
  Th  Th3  1  0.011847  0.947350  0.748249  1
  Np  Np4  1  0.000000  0.500000  0.500000  1
  Np  Np5  1  0.500000  0.000000  0.000000  1
  Sn  Sn6  1  0.000000  0.500000  0.000000  1
  Sn  Sn7  1  0.500000  0.000000  0.500000  1
  N  N8  1  0.385166  0.957298  0.246974  1
  N  N9  1  0.114834  0.457298  0.253026  1
  N  N10  1  0.614834  0.042702  0.753026  1
  N  N11  1  0.885166  0.542702  0.746974  1
  N  N12  1  0.795257  0.809581  0.056481  1
  N  N13  1  0.704743  0.309581  0.443519  1
  N  N14  1  0.194245  0.199261  0.559958  1
  N  N15  1  0.305755  0.699261  0.940042  1
  N  N16  1  0.204743  0.190419  0.943519  1
  N  N17  1  0.295257  0.690419  0.556481  1
  N  N18  1  0.805755  0.800739  0.440042  1
  N  N19  1  0.694245  0.300739  0.059958  1
