# generated using pymatgen
data_Tm2Sc3(SiGe)2
_symmetry_space_group_name_H-M   'P 1'
_cell_length_a   7.12372600
_cell_length_b   7.37373600
_cell_length_c   13.99744000
_cell_angle_alpha   90.00000000
_cell_angle_beta   90.00000000
_cell_angle_gamma   90.00000000
_symmetry_Int_Tables_number   1
_chemical_formula_structural   Tm2Sc3(SiGe)2
_chemical_formula_sum   'Tm8 Sc12 Si8 Ge8'
_cell_volume   735.26417515
_cell_formula_units_Z   4
loop_
 _symmetry_equiv_pos_site_id
 _symmetry_equiv_pos_as_xyz
  1  'x, y, z'
loop_
 _atom_site_type_symbol
 _atom_site_label
 _atom_site_symmetry_multiplicity
 _atom_site_fract_x
 _atom_site_fract_y
 _atom_site_fract_z
 _atom_site_occupancy
  Tm  Tm0  1  0.992734  0.176822  0.098755  1
  Tm  Tm1  1  0.492734  0.323178  0.401245  1
  Tm  Tm2  1  0.507266  0.676822  0.901245  1
  Tm  Tm3  1  0.007266  0.823178  0.598755  1
  Tm  Tm4  1  0.007266  0.823178  0.901245  1
  Tm  Tm5  1  0.507266  0.676822  0.598755  1
  Tm  Tm6  1  0.492734  0.323178  0.098755  1
  Tm  Tm7  1  0.992734  0.176822  0.401245  1
  Sc  Sc8  1  0.666107  0.002993  0.250000  1
  Sc  Sc9  1  0.166107  0.497007  0.250000  1
  Sc  Sc10  1  0.833893  0.502993  0.750000  1
  Sc  Sc11  1  0.333893  0.997007  0.750000  1
  Sc  Sc12  1  0.836025  0.673155  0.126422  1
  Sc  Sc13  1  0.336025  0.826845  0.373578  1
  Sc  Sc14  1  0.663975  0.173155  0.873578  1
  Sc  Sc15  1  0.163975  0.326845  0.626422  1
  Sc  Sc16  1  0.163975  0.326845  0.873578  1
  Sc  Sc17  1  0.663975  0.173155  0.626422  1
  Sc  Sc18  1  0.336025  0.826845  0.126422  1
  Sc  Sc19  1  0.836025  0.673155  0.373578  1
  Si  Si20  1  0.790335  0.370158  0.250000  1
  Si  Si21  1  0.290335  0.129842  0.250000  1
  Si  Si22  1  0.709665  0.870158  0.750000  1
  Si  Si23  1  0.209665  0.629842  0.750000  1
  Si  Si24  1  0.037257  0.883844  0.250000  1
  Si  Si25  1  0.537257  0.616156  0.250000  1
  Si  Si26  1  0.462743  0.383844  0.750000  1
  Si  Si27  1  0.962743  0.116156  0.750000  1
  Ge  Ge28  1  0.828625  0.461730  0.959259  1
  Ge  Ge29  1  0.328625  0.038270  0.540741  1
  Ge  Ge30  1  0.671375  0.961730  0.040741  1
  Ge  Ge31  1  0.171375  0.538270  0.459259  1
  Ge  Ge32  1  0.171375  0.538270  0.040741  1
  Ge  Ge33  1  0.671375  0.961730  0.459259  1
  Ge  Ge34  1  0.328625  0.038270  0.959259  1
  Ge  Ge35  1  0.828625  0.461730  0.540741  1
