# generated using pymatgen
data_Ac8Be3Si12Ag
_symmetry_space_group_name_H-M   'P 1'
_cell_length_a   11.78119632
_cell_length_b   10.23692848
_cell_length_c   8.25062155
_cell_angle_alpha   78.38470121
_cell_angle_beta   58.31309627
_cell_angle_gamma   43.39731230
_symmetry_Int_Tables_number   1
_chemical_formula_structural   Ac8Be3Si12Ag
_chemical_formula_sum   'Ac8 Be3 Si12 Ag1'
_cell_volume   553.37698238
_cell_formula_units_Z   1
loop_
 _symmetry_equiv_pos_site_id
 _symmetry_equiv_pos_as_xyz
  1  'x, y, z'
loop_
 _atom_site_type_symbol
 _atom_site_label
 _atom_site_symmetry_multiplicity
 _atom_site_fract_x
 _atom_site_fract_y
 _atom_site_fract_z
 _atom_site_occupancy
  Ac  Ac0  1  0.379043  0.376237  0.619049  1
  Ac  Ac1  1  0.618258  0.625337  0.379582  1
  Ac  Ac2  1  0.873571  0.874620  0.626717  1
  Ac  Ac3  1  0.626242  0.625820  0.873699  1
  Ac  Ac4  1  0.872686  0.880779  0.125330  1
  Ac  Ac5  1  0.125814  0.121503  0.873554  1
  Ac  Ac6  1  0.377674  0.373219  0.125401  1
  Ac  Ac7  1  0.126639  0.122344  0.376938  1
  Be  Be8  1  0.833221  0.166366  0.833775  1
  Be  Be9  1  0.166318  0.833485  0.167056  1
  Be  Be10  1  0.416399  0.083892  0.417296  1
  Si  Si11  1  0.673058  0.327176  0.672565  1
  Si  Si12  1  0.327593  0.672623  0.326544  1
  Si  Si13  1  0.577433  0.922365  0.576950  1
  Si  Si14  1  0.912982  0.587322  0.912138  1
  Si  Si15  1  0.325424  0.671017  0.847950  1
  Si  Si16  1  0.154720  0.845531  0.672703  1
  Si  Si17  1  0.847705  0.156416  0.325754  1
  Si  Si18  1  0.672423  0.326690  0.154414  1
  Si  Si19  1  0.913675  0.588466  0.422950  1
  Si  Si20  1  0.094427  0.404045  0.578615  1
  Si  Si21  1  0.423369  0.074444  0.912863  1
  Si  Si22  1  0.579003  0.922915  0.094630  1
  Ag  Ag23  1  0.082321  0.417388  0.083526  1
