# generated using pymatgen
data_Lu16Zn3Ni4Pb
_symmetry_space_group_name_H-M   'P 1'
_cell_length_a   9.27311160
_cell_length_b   9.27893525
_cell_length_c   9.27893500
_cell_angle_alpha   59.99999734
_cell_angle_beta   59.97922060
_cell_angle_gamma   59.97921625
_symmetry_Int_Tables_number   1
_chemical_formula_structural   Lu16Zn3Ni4Pb
_chemical_formula_sum   'Lu16 Zn3 Ni4 Pb1'
_cell_volume   564.37824864
_cell_formula_units_Z   1
loop_
 _symmetry_equiv_pos_site_id
 _symmetry_equiv_pos_as_xyz
  1  'x, y, z'
loop_
 _atom_site_type_symbol
 _atom_site_label
 _atom_site_symmetry_multiplicity
 _atom_site_fract_x
 _atom_site_fract_y
 _atom_site_fract_z
 _atom_site_occupancy
  Lu  Lu0  1  0.601880  0.598918  0.598918  1
  Lu  Lu1  1  0.601880  0.598918  0.200284  1
  Lu  Lu2  1  0.601880  0.200284  0.598918  1
  Lu  Lu3  1  0.192479  0.602507  0.602507  1
  Lu  Lu4  1  0.060215  0.439569  0.439569  1
  Lu  Lu5  1  0.439063  0.061996  0.061996  1
  Lu  Lu6  1  0.439063  0.061996  0.436945  1
  Lu  Lu7  1  0.060215  0.439569  0.060648  1
  Lu  Lu8  1  0.439063  0.436945  0.061996  1
  Lu  Lu9  1  0.060215  0.060648  0.439569  1
  Lu  Lu10  1  0.178125  0.814067  0.814067  1
  Lu  Lu11  1  0.811641  0.186331  0.186331  1
  Lu  Lu12  1  0.811641  0.186331  0.815695  1
  Lu  Lu13  1  0.178125  0.814067  0.193741  1
  Lu  Lu14  1  0.811641  0.815695  0.186331  1
  Lu  Lu15  1  0.178125  0.193741  0.814067  1
  Zn  Zn16  1  0.840928  0.830157  0.830157  1
  Zn  Zn17  1  0.840928  0.830157  0.498757  1
  Zn  Zn18  1  0.840928  0.498757  0.830157  1
  Ni  Ni19  1  0.391566  0.393801  0.393801  1
  Ni  Ni20  1  0.391566  0.393801  0.820832  1
  Ni  Ni21  1  0.391566  0.820832  0.393801  1
  Ni  Ni22  1  0.820979  0.393007  0.393007  1
  Pb  Pb23  1  0.516290  0.827903  0.827903  1
