# generated using pymatgen
data_Sc11FeOsRh2
_symmetry_space_group_name_H-M   'P 1'
_cell_length_a   9.45415270
_cell_length_b   9.44617541
_cell_length_c   9.45415320
_cell_angle_alpha   60.02791178
_cell_angle_beta   59.94418737
_cell_angle_gamma   60.02791619
_symmetry_Int_Tables_number   1
_chemical_formula_structural   Sc11FeOsRh2
_chemical_formula_sum   'Sc22 Fe2 Os2 Rh4'
_cell_volume   597.01561230
_cell_formula_units_Z   2
loop_
 _symmetry_equiv_pos_site_id
 _symmetry_equiv_pos_as_xyz
  1  'x, y, z'
loop_
 _atom_site_type_symbol
 _atom_site_label
 _atom_site_symmetry_multiplicity
 _atom_site_fract_x
 _atom_site_fract_y
 _atom_site_fract_z
 _atom_site_occupancy
  Sc  Sc0  1  0.842195  0.840400  0.842195  1
  Sc  Sc1  1  0.524789  0.157805  0.159600  1
  Sc  Sc2  1  0.159600  0.157805  0.524789  1
  Sc  Sc3  1  0.157805  0.524789  0.157805  1
  Sc  Sc4  1  0.840400  0.842195  0.475211  1
  Sc  Sc5  1  0.842195  0.475211  0.842195  1
  Sc  Sc6  1  0.475211  0.842195  0.840400  1
  Sc  Sc7  1  0.157805  0.159600  0.157805  1
  Sc  Sc8  1  0.191569  0.808431  0.191569  1
  Sc  Sc9  1  0.191121  0.808879  0.808879  1
  Sc  Sc10  1  0.808879  0.191121  0.191121  1
  Sc  Sc11  1  0.808879  0.808879  0.191121  1
  Sc  Sc12  1  0.191121  0.191121  0.808879  1
  Sc  Sc13  1  0.808431  0.191569  0.808431  1
  Sc  Sc14  1  0.387441  0.382318  0.387441  1
  Sc  Sc15  1  0.157200  0.612559  0.617682  1
  Sc  Sc16  1  0.612559  0.157200  0.612559  1
  Sc  Sc17  1  0.617682  0.612559  0.157200  1
  Sc  Sc18  1  0.387441  0.842800  0.387441  1
  Sc  Sc19  1  0.382318  0.387441  0.842800  1
  Sc  Sc20  1  0.842800  0.387441  0.382318  1
  Sc  Sc21  1  0.612559  0.617682  0.612559  1
  Fe  Fe22  1  0.500000  0.500000  0.500000  1
  Fe  Fe23  1  0.000000  0.000000  0.000000  1
  Os  Os24  1  0.500000  0.000000  0.500000  1
  Os  Os25  1  0.000000  0.500000  0.000000  1
  Rh  Rh26  1  0.500000  0.500000  0.000000  1
  Rh  Rh27  1  0.000000  0.000000  0.500000  1
  Rh  Rh28  1  0.000000  0.500000  0.500000  1
  Rh  Rh29  1  0.500000  0.000000  0.000000  1
