# generated using pymatgen
data_Tb2ReB8Mo
_symmetry_space_group_name_H-M   'P 1'
_cell_length_a   3.62868800
_cell_length_b   6.01434375
_cell_length_c   11.63680646
_cell_angle_alpha   90.05731678
_cell_angle_beta   90.00000000
_cell_angle_gamma   90.00000000
_symmetry_Int_Tables_number   1
_chemical_formula_structural   Tb2ReB8Mo
_chemical_formula_sum   'Tb4 Re2 B16 Mo2'
_cell_volume   253.96359675
_cell_formula_units_Z   2
loop_
 _symmetry_equiv_pos_site_id
 _symmetry_equiv_pos_as_xyz
  1  'x, y, z'
loop_
 _atom_site_type_symbol
 _atom_site_label
 _atom_site_symmetry_multiplicity
 _atom_site_fract_x
 _atom_site_fract_y
 _atom_site_fract_z
 _atom_site_occupancy
  Tb  Tb0  1  0.000000  0.627181  0.350418  1
  Tb  Tb1  1  0.000000  0.372819  0.649582  1
  Tb  Tb2  1  0.000000  0.126358  0.150698  1
  Tb  Tb3  1  0.000000  0.873642  0.849302  1
  Re  Re4  1  0.000000  0.133989  0.413162  1
  Re  Re5  1  0.000000  0.866011  0.586838  1
  B  B6  1  0.500000  0.788437  0.186176  1
  B  B7  1  0.500000  0.211563  0.813824  1
  B  B8  1  0.500000  0.284778  0.315753  1
  B  B9  1  0.500000  0.715222  0.684247  1
  B  B10  1  0.500000  0.866577  0.032255  1
  B  B11  1  0.500000  0.133423  0.967745  1
  B  B12  1  0.500000  0.362751  0.468982  1
  B  B13  1  0.500000  0.637249  0.531018  1
  B  B14  1  0.500000  0.886982  0.452947  1
  B  B15  1  0.500000  0.113018  0.547053  1
  B  B16  1  0.500000  0.385480  0.047417  1
  B  B17  1  0.500000  0.614520  0.952583  1
  B  B18  1  0.500000  0.976953  0.308786  1
  B  B19  1  0.500000  0.023047  0.691214  1
  B  B20  1  0.500000  0.475912  0.193755  1
  B  B21  1  0.500000  0.524088  0.806245  1
  Mo  Mo22  1  0.000000  0.628902  0.084600  1
  Mo  Mo23  1  0.000000  0.371098  0.915400  1
