# generated using pymatgen
data_Ba2NiAs2Pd
_symmetry_space_group_name_H-M   'P 1'
_cell_length_a   6.44306420
_cell_length_b   6.43614164
_cell_length_c   7.86403295
_cell_angle_alpha   89.49517083
_cell_angle_beta   89.01101599
_cell_angle_gamma   104.12152606
_symmetry_Int_Tables_number   1
_chemical_formula_structural   Ba2NiAs2Pd
_chemical_formula_sum   'Ba4 Ni2 As4 Pd2'
_cell_volume   316.17892605
_cell_formula_units_Z   2
loop_
 _symmetry_equiv_pos_site_id
 _symmetry_equiv_pos_as_xyz
  1  'x, y, z'
loop_
 _atom_site_type_symbol
 _atom_site_label
 _atom_site_symmetry_multiplicity
 _atom_site_fract_x
 _atom_site_fract_y
 _atom_site_fract_z
 _atom_site_occupancy
  Ba  Ba0  1  0.178432  0.810912  0.527342  1
  Ba  Ba1  1  0.679339  0.312026  0.971276  1
  Ba  Ba2  1  0.821568  0.189088  0.472658  1
  Ba  Ba3  1  0.320661  0.687974  0.028724  1
  Ni  Ni4  1  0.388926  0.388595  0.615481  1
  Ni  Ni5  1  0.611074  0.611405  0.384519  1
  As  As6  1  0.143115  0.231337  0.815025  1
  As  As7  1  0.628497  0.710867  0.665918  1
  As  As8  1  0.856885  0.768663  0.184975  1
  As  As9  1  0.371503  0.289133  0.334082  1
  Pd  Pd10  1  0.118415  0.120691  0.122273  1
  Pd  Pd11  1  0.881585  0.879309  0.877727  1
