# generated using pymatgen
data_Ta11NbAl8CrRh3C4
_symmetry_space_group_name_H-M   'P 1'
_cell_length_a   8.32113635
_cell_length_b   8.32104725
_cell_length_c   8.32101400
_cell_angle_alpha   59.71843822
_cell_angle_beta   59.71898780
_cell_angle_gamma   59.71904337
_symmetry_Int_Tables_number   1
_chemical_formula_structural   Ta11NbAl8CrRh3C4
_chemical_formula_sum   'Ta11 Nb1 Al8 Cr1 Rh3 C4'
_cell_volume   404.79907592
_cell_formula_units_Z   1
loop_
 _symmetry_equiv_pos_site_id
 _symmetry_equiv_pos_as_xyz
  1  'x, y, z'
loop_
 _atom_site_type_symbol
 _atom_site_label
 _atom_site_symmetry_multiplicity
 _atom_site_fract_x
 _atom_site_fract_y
 _atom_site_fract_z
 _atom_site_occupancy
  Ta  Ta0  1  0.313560  0.686112  0.686229  1
  Ta  Ta1  1  0.700599  0.307018  0.307214  1
  Ta  Ta2  1  0.306978  0.700660  0.306980  1
  Ta  Ta3  1  0.686227  0.686112  0.313559  1
  Ta  Ta4  1  0.307215  0.307018  0.700599  1
  Ta  Ta5  1  0.563441  0.563399  0.937044  1
  Ta  Ta6  1  0.937041  0.563401  0.563443  1
  Ta  Ta7  1  0.549364  0.943040  0.943137  1
  Ta  Ta8  1  0.943139  0.943043  0.549359  1
  Ta  Ta9  1  0.686638  0.312945  0.686641  1
  Ta  Ta10  1  0.942745  0.549623  0.942745  1
  Nb  Nb11  1  0.563243  0.937234  0.563242  1
  Al  Al12  1  0.914864  0.914319  0.914871  1
  Al  Al13  1  0.002214  0.333044  0.332481  1
  Al  Al14  1  0.333074  0.002259  0.333078  1
  Al  Al15  1  0.332483  0.333041  0.002218  1
  Al  Al16  1  0.917357  0.247739  0.917361  1
  Al  Al17  1  0.916470  0.917393  0.248092  1
  Al  Al18  1  0.248092  0.917393  0.916468  1
  Al  Al19  1  0.335567  0.334806  0.335573  1
  Cr  Cr20  1  0.125104  0.124708  0.125052  1
  Rh  Rh21  1  0.625301  0.125802  0.123071  1
  Rh  Rh22  1  0.125136  0.624989  0.125134  1
  Rh  Rh23  1  0.123055  0.125802  0.625307  1
  C  C24  1  0.625507  0.623378  0.625508  1
  C  C25  1  0.125088  0.624911  0.625118  1
  C  C26  1  0.625386  0.125901  0.625387  1
  C  C27  1  0.625115  0.624908  0.125090  1
