# generated using pymatgen
data_YCoB4Os3
_symmetry_space_group_name_H-M   'P 1'
_cell_length_a   7.49412276
_cell_length_b   7.29229924
_cell_length_c   4.00476400
_cell_angle_alpha   90.00000000
_cell_angle_beta   90.00000000
_cell_angle_gamma   87.71444157
_symmetry_Int_Tables_number   1
_chemical_formula_structural   YCoB4Os3
_chemical_formula_sum   'Y2 Co2 B8 Os6'
_cell_volume   218.68378641
_cell_formula_units_Z   2
loop_
 _symmetry_equiv_pos_site_id
 _symmetry_equiv_pos_as_xyz
  1  'x, y, z'
loop_
 _atom_site_type_symbol
 _atom_site_label
 _atom_site_symmetry_multiplicity
 _atom_site_fract_x
 _atom_site_fract_y
 _atom_site_fract_z
 _atom_site_occupancy
  Y  Y0  1  0.000000  0.000000  0.027869  1
  Y  Y1  1  0.500000  0.500000  0.618894  1
  Co  Co2  1  0.126060  0.383907  0.878575  1
  Co  Co3  1  0.873940  0.616093  0.878575  1
  B  B4  1  0.675643  0.775719  0.100589  1
  B  B5  1  0.324357  0.224281  0.100589  1
  B  B6  1  0.281432  0.834183  0.603242  1
  B  B7  1  0.718568  0.165817  0.603242  1
  B  B8  1  0.840981  0.686884  0.378988  1
  B  B9  1  0.159019  0.313116  0.378988  1
  B  B10  1  0.200598  0.667681  0.879566  1
  B  B11  1  0.799402  0.332319  0.879566  1
  Os  Os12  1  0.879139  0.371195  0.376712  1
  Os  Os13  1  0.120861  0.628805  0.376712  1
  Os  Os14  1  0.346403  0.114134  0.604631  1
  Os  Os15  1  0.653597  0.885866  0.604631  1
  Os  Os16  1  0.603660  0.152277  0.104317  1
  Os  Os17  1  0.396340  0.847723  0.104317  1
