# generated using pymatgen
data_Dy2TiCo16
_symmetry_space_group_name_H-M   'P 1'
_cell_length_a   6.28601888
_cell_length_b   6.28601828
_cell_length_c   6.28601857
_cell_angle_alpha   82.96757171
_cell_angle_beta   82.96757228
_cell_angle_gamma   82.96758506
_symmetry_Int_Tables_number   1
_chemical_formula_structural   Dy2TiCo16
_chemical_formula_sum   'Dy2 Ti1 Co16'
_cell_volume   243.20296100
_cell_formula_units_Z   1
loop_
 _symmetry_equiv_pos_site_id
 _symmetry_equiv_pos_as_xyz
  1  'x, y, z'
loop_
 _atom_site_type_symbol
 _atom_site_label
 _atom_site_symmetry_multiplicity
 _atom_site_fract_x
 _atom_site_fract_y
 _atom_site_fract_z
 _atom_site_occupancy
  Dy  Dy0  1  0.656263  0.656263  0.656263  1
  Dy  Dy1  1  0.351901  0.351901  0.351901  1
  Ti  Ti2  1  0.092208  0.092208  0.092208  1
  Co  Co3  1  0.292286  0.706979  0.997901  1
  Co  Co4  1  0.706979  0.997901  0.292286  1
  Co  Co5  1  0.997901  0.292286  0.706979  1
  Co  Co6  1  0.292286  0.997901  0.706979  1
  Co  Co7  1  0.997901  0.706979  0.292286  1
  Co  Co8  1  0.706979  0.292286  0.997901  1
  Co  Co9  1  0.998663  0.998663  0.504564  1
  Co  Co10  1  0.998663  0.504564  0.998663  1
  Co  Co11  1  0.504564  0.998663  0.998663  1
  Co  Co12  1  0.347728  0.347728  0.848285  1
  Co  Co13  1  0.347728  0.848285  0.347728  1
  Co  Co14  1  0.848285  0.347728  0.347728  1
  Co  Co15  1  0.654719  0.654719  0.150056  1
  Co  Co16  1  0.654719  0.150056  0.654719  1
  Co  Co17  1  0.150056  0.654719  0.654719  1
  Co  Co18  1  0.900167  0.900167  0.900167  1
