# generated using pymatgen
data_Ti8Mn2Al14GaRh5
_symmetry_space_group_name_H-M   'P 1'
_cell_length_a   8.62045064
_cell_length_b   8.61014839
_cell_length_c   8.62124936
_cell_angle_alpha   119.75770311
_cell_angle_beta   119.90003232
_cell_angle_gamma   90.31277188
_symmetry_Int_Tables_number   1
_chemical_formula_structural   Ti8Mn2Al14GaRh5
_chemical_formula_sum   'Ti8 Mn2 Al14 Ga1 Rh5'
_cell_volume   453.57526982
_cell_formula_units_Z   1
loop_
 _symmetry_equiv_pos_site_id
 _symmetry_equiv_pos_as_xyz
  1  'x, y, z'
loop_
 _atom_site_type_symbol
 _atom_site_label
 _atom_site_symmetry_multiplicity
 _atom_site_fract_x
 _atom_site_fract_y
 _atom_site_fract_z
 _atom_site_occupancy
  Ti  Ti0  1  0.781746  0.281832  0.070671  1
  Ti  Ti1  1  0.211159  0.281740  0.500040  1
  Ti  Ti2  1  0.210113  0.723321  0.513263  1
  Ti  Ti3  1  0.222997  0.726510  0.927939  1
  Ti  Ti4  1  0.798490  0.726444  0.503488  1
  Ti  Ti5  1  0.780397  0.268372  0.487895  1
  Ti  Ti6  1  0.375202  0.118247  0.743443  1
  Ti  Ti7  1  0.379585  0.636136  0.256660  1
  Mn  Mn8  1  0.002718  0.000020  0.502054  1
  Mn  Mn9  1  0.497872  0.999958  0.997235  1
  Al  Al10  1  0.151858  0.347234  0.195480  1
  Al  Al11  1  0.162015  0.981929  0.820304  1
  Al  Al12  1  0.151351  0.341967  0.806261  1
  Al  Al13  1  0.535635  0.341606  0.190453  1
  Al  Al14  1  0.847393  0.649023  0.801560  1
  Al  Al15  1  0.840611  0.025144  0.183828  1
  Al  Al16  1  0.844899  0.657892  0.187622  1
  Al  Al17  1  0.470349  0.658209  0.813123  1
  Al  Al18  1  0.378982  0.123052  0.258327  1
  Al  Al19  1  0.864629  0.123095  0.744286  1
  Al  Al20  1  0.622196  0.875645  0.252924  1
  Al  Al21  1  0.620425  0.364067  0.743599  1
  Al  Al22  1  0.619407  0.878901  0.743504  1
  Al  Al23  1  0.135481  0.878831  0.259315  1
  Ga  Ga24  1  0.995148  0.494816  0.499628  1
  Rh  Rh25  1  0.498196  0.499739  0.001569  1
  Rh  Rh26  1  0.499031  0.499867  0.498345  1
  Rh  Rh27  1  0.001591  0.499906  0.000941  1
  Rh  Rh28  1  0.999738  0.998648  0.999002  1
  Rh  Rh29  1  0.500779  0.997845  0.497241  1
