# generated using pymatgen
data_Er12Co4BiIr
_symmetry_space_group_name_H-M   'P 1'
_cell_length_a   8.26008260
_cell_length_b   8.26008206
_cell_length_c   8.26008214
_cell_angle_alpha   110.69990103
_cell_angle_beta   111.24560440
_cell_angle_gamma   106.50865366
_symmetry_Int_Tables_number   1
_chemical_formula_structural   Er12Co4BiIr
_chemical_formula_sum   'Er12 Co4 Bi1 Ir1'
_cell_volume   432.96705992
_cell_formula_units_Z   1
loop_
 _symmetry_equiv_pos_site_id
 _symmetry_equiv_pos_as_xyz
  1  'x, y, z'
loop_
 _atom_site_type_symbol
 _atom_site_label
 _atom_site_symmetry_multiplicity
 _atom_site_fract_x
 _atom_site_fract_y
 _atom_site_fract_z
 _atom_site_occupancy
  Er  Er0  1  0.284757  0.182460  0.467217  1
  Er  Er1  1  0.715243  0.817540  0.532783  1
  Er  Er2  1  0.284757  0.817540  0.102296  1
  Er  Er3  1  0.715243  0.182460  0.897704  1
  Er  Er4  1  0.620276  0.311859  0.308416  1
  Er  Er5  1  0.379724  0.688141  0.691584  1
  Er  Er6  1  0.003444  0.311859  0.691584  1
  Er  Er7  1  0.996556  0.688141  0.308416  1
  Er  Er8  1  0.212798  0.410813  0.198015  1
  Er  Er9  1  0.787202  0.589187  0.801985  1
  Er  Er10  1  0.212798  0.014783  0.801985  1
  Er  Er11  1  0.787202  0.985217  0.198015  1
  Co  Co12  1  0.000000  0.375885  0.375885  1
  Co  Co13  1  0.000000  0.624115  0.624115  1
  Co  Co14  1  0.388801  0.888801  0.500000  1
  Co  Co15  1  0.611199  0.111199  0.500000  1
  Bi  Bi16  1  0.500000  0.500000  0.000000  1
  Ir  Ir17  1  0.000000  0.000000  0.000000  1
