# generated using pymatgen
data_Ac(PrSn4)3
_symmetry_space_group_name_H-M   'P 1'
_cell_length_a   12.31175691
_cell_length_b   12.31175723
_cell_length_c   12.31175747
_cell_angle_alpha   31.48491863
_cell_angle_beta   31.48491815
_cell_angle_gamma   31.48492001
_symmetry_Int_Tables_number   1
_chemical_formula_structural   Ac(PrSn4)3
_chemical_formula_sum   'Ac1 Pr3 Sn12'
_cell_volume   451.92049906
_cell_formula_units_Z   1
loop_
 _symmetry_equiv_pos_site_id
 _symmetry_equiv_pos_as_xyz
  1  'x, y, z'
loop_
 _atom_site_type_symbol
 _atom_site_label
 _atom_site_symmetry_multiplicity
 _atom_site_fract_x
 _atom_site_fract_y
 _atom_site_fract_z
 _atom_site_occupancy
  Ac  Ac0  1  0.292549  0.292549  0.292549  1
  Pr  Pr1  1  0.877782  0.877782  0.877782  1
  Pr  Pr2  1  0.122857  0.122857  0.122857  1
  Pr  Pr3  1  0.706570  0.706570  0.706570  1
  Sn  Sn4  1  0.294247  0.791226  0.791226  1
  Sn  Sn5  1  0.791226  0.791226  0.294247  1
  Sn  Sn6  1  0.853093  0.385812  0.385812  1
  Sn  Sn7  1  0.385812  0.385812  0.853093  1
  Sn  Sn8  1  0.385812  0.853093  0.385812  1
  Sn  Sn9  1  0.616494  0.138873  0.616494  1
  Sn  Sn10  1  0.138873  0.616494  0.616494  1
  Sn  Sn11  1  0.616494  0.616494  0.138873  1
  Sn  Sn12  1  0.791226  0.294247  0.791226  1
  Sn  Sn13  1  0.208619  0.709726  0.208619  1
  Sn  Sn14  1  0.208619  0.208619  0.709726  1
  Sn  Sn15  1  0.709726  0.208619  0.208619  1
