# generated using pymatgen
data_ErZrAgS4
_symmetry_space_group_name_H-M   'P 1'
_cell_length_a   7.78196693
_cell_length_b   7.78196713
_cell_length_c   11.00157008
_cell_angle_alpha   91.18227642
_cell_angle_beta   91.18227679
_cell_angle_gamma   89.76708997
_symmetry_Int_Tables_number   1
_chemical_formula_structural   ErZrAgS4
_chemical_formula_sum   'Er4 Zr4 Ag4 S16'
_cell_volume   665.95614974
_cell_formula_units_Z   4
loop_
 _symmetry_equiv_pos_site_id
 _symmetry_equiv_pos_as_xyz
  1  'x, y, z'
loop_
 _atom_site_type_symbol
 _atom_site_label
 _atom_site_symmetry_multiplicity
 _atom_site_fract_x
 _atom_site_fract_y
 _atom_site_fract_z
 _atom_site_occupancy
  Er  Er0  1  0.002046  0.748984  0.623959  1
  Er  Er1  1  0.748984  0.502046  0.873959  1
  Er  Er2  1  0.248984  0.002046  0.373959  1
  Er  Er3  1  0.502046  0.248984  0.123959  1
  Zr  Zr4  1  0.999620  0.247431  0.624974  1
  Zr  Zr5  1  0.747431  0.999620  0.374974  1
  Zr  Zr6  1  0.499620  0.747431  0.124974  1
  Zr  Zr7  1  0.247431  0.499620  0.874974  1
  Ag  Ag8  1  0.001601  0.000701  0.001514  1
  Ag  Ag9  1  0.501601  0.500701  0.501514  1
  Ag  Ag10  1  0.500701  0.001601  0.751514  1
  Ag  Ag11  1  0.000701  0.501601  0.251514  1
  S  S12  1  0.986905  0.235883  0.387675  1
  S  S13  1  0.764642  0.009401  0.612889  1
  S  S14  1  0.989809  0.773929  0.380187  1
  S  S15  1  0.729464  0.509581  0.118802  1
  S  S16  1  0.509401  0.764642  0.362889  1
  S  S17  1  0.273929  0.989809  0.130187  1
  S  S18  1  0.509581  0.229464  0.368802  1
  S  S19  1  0.735883  0.986905  0.137675  1
  S  S20  1  0.486905  0.735883  0.887675  1
  S  S21  1  0.264642  0.509401  0.112889  1
  S  S22  1  0.489809  0.273929  0.880187  1
  S  S23  1  0.229464  0.009581  0.618802  1
  S  S24  1  0.009401  0.264642  0.862889  1
  S  S25  1  0.773929  0.489809  0.630187  1
  S  S26  1  0.009581  0.729464  0.868802  1
  S  S27  1  0.235883  0.486905  0.637675  1
