# generated using pymatgen
data_Dy7TmLu2(In2Ni)4
_symmetry_space_group_name_H-M   'P 1'
_cell_length_a   3.54441600
_cell_length_b   8.04405338
_cell_length_c   17.88544504
_cell_angle_alpha   90.06265869
_cell_angle_beta   90.00000000
_cell_angle_gamma   90.00000000
_symmetry_Int_Tables_number   1
_chemical_formula_structural   Dy7TmLu2(In2Ni)4
_chemical_formula_sum   'Dy7 Tm1 Lu2 In8 Ni4'
_cell_volume   509.94005182
_cell_formula_units_Z   1
loop_
 _symmetry_equiv_pos_site_id
 _symmetry_equiv_pos_as_xyz
  1  'x, y, z'
loop_
 _atom_site_type_symbol
 _atom_site_label
 _atom_site_symmetry_multiplicity
 _atom_site_fract_x
 _atom_site_fract_y
 _atom_site_fract_z
 _atom_site_occupancy
  Dy  Dy0  1  0.500000  0.756345  0.720397  1
  Dy  Dy1  1  0.500000  0.256284  0.780322  1
  Dy  Dy2  1  0.500000  0.500309  0.999678  1
  Dy  Dy3  1  0.500000  0.744137  0.219569  1
  Dy  Dy4  1  0.500000  0.244399  0.279360  1
  Dy  Dy5  1  0.500000  0.999033  0.500551  1
  Dy  Dy6  1  0.500000  0.616958  0.412177  1
  Tm  Tm7  1  0.500000  0.117075  0.088265  1
  Lu  Lu8  1  0.500000  0.383088  0.589604  1
  Lu  Lu9  1  0.500000  0.883575  0.910686  1
  In  In10  1  0.000000  0.798880  0.066329  1
  In  In11  1  0.000000  0.926280  0.347124  1
  In  In12  1  0.000000  0.076652  0.652605  1
  In  In13  1  0.000000  0.576955  0.847779  1
  In  In14  1  0.000000  0.700875  0.568502  1
  In  In15  1  0.000000  0.200530  0.933098  1
  In  In16  1  0.000000  0.295327  0.433012  1
  In  In17  1  0.000000  0.423984  0.151831  1
  Ni  Ni18  1  0.000000  0.976231  0.805277  1
  Ni  Ni19  1  0.000000  0.523325  0.303598  1
  Ni  Ni20  1  0.000000  0.475321  0.695361  1
  Ni  Ni21  1  0.000000  0.024442  0.194870  1
