# generated using pymatgen
data_TmScGa3Au
_symmetry_space_group_name_H-M   'P 1'
_cell_length_a   4.41969400
_cell_length_b   4.41969462
_cell_length_c   6.93363900
_cell_angle_alpha   90.00000000
_cell_angle_beta   90.00000000
_cell_angle_gamma   119.99999534
_symmetry_Int_Tables_number   1
_chemical_formula_structural   TmScGa3Au
_chemical_formula_sum   'Tm1 Sc1 Ga3 Au1'
_cell_volume   117.29414751
_cell_formula_units_Z   1
loop_
 _symmetry_equiv_pos_site_id
 _symmetry_equiv_pos_as_xyz
  1  'x, y, z'
loop_
 _atom_site_type_symbol
 _atom_site_label
 _atom_site_symmetry_multiplicity
 _atom_site_fract_x
 _atom_site_fract_y
 _atom_site_fract_z
 _atom_site_occupancy
  Tm  Tm0  1  0.333333  0.666667  0.253338  1
  Sc  Sc1  1  0.333333  0.666667  0.734102  1
  Ga  Ga2  1  0.666667  0.333333  0.477615  1
  Ga  Ga3  1  0.666667  0.333333  0.041721  1
  Ga  Ga4  1  0.000000  0.000000  0.946234  1
  Au  Au5  1  0.000000  0.000000  0.546989  1
