# generated using pymatgen
data_TbHo2Ga4Pd7
_symmetry_space_group_name_H-M   'P 1'
_cell_length_a   8.08408489
_cell_length_b   8.08408484
_cell_length_c   9.64116002
_cell_angle_alpha   56.20519355
_cell_angle_beta   56.20519490
_cell_angle_gamma   29.44833147
_symmetry_Int_Tables_number   1
_chemical_formula_structural   TbHo2Ga4Pd7
_chemical_formula_sum   'Tb1 Ho2 Ga4 Pd7'
_cell_volume   253.41477443
_cell_formula_units_Z   1
loop_
 _symmetry_equiv_pos_site_id
 _symmetry_equiv_pos_as_xyz
  1  'x, y, z'
loop_
 _atom_site_type_symbol
 _atom_site_label
 _atom_site_symmetry_multiplicity
 _atom_site_fract_x
 _atom_site_fract_y
 _atom_site_fract_z
 _atom_site_occupancy
  Tb  Tb0  1  0.000000  0.000000  0.000000  1
  Ho  Ho1  1  0.672528  0.672528  0.333519  1
  Ho  Ho2  1  0.327472  0.327472  0.666481  1
  Ga  Ga3  1  0.337652  0.337652  0.267821  1
  Ga  Ga4  1  0.662348  0.662348  0.732179  1
  Ga  Ga5  1  0.887257  0.887257  0.834336  1
  Ga  Ga6  1  0.112743  0.112743  0.165664  1
  Pd  Pd7  1  0.308813  0.308813  0.036509  1
  Pd  Pd8  1  0.691187  0.691187  0.963491  1
  Pd  Pd9  1  0.507298  0.507298  0.710745  1
  Pd  Pd10  1  0.836003  0.836003  0.427158  1
  Pd  Pd11  1  0.492702  0.492702  0.289255  1
  Pd  Pd12  1  0.163997  0.163997  0.572842  1
  Pd  Pd13  1  0.000000  0.000000  0.500000  1
