# generated using pymatgen
data_Tb5Dy5CuBi6As
_symmetry_space_group_name_H-M   'P 1'
_cell_length_a   9.36759435
_cell_length_b   9.36759455
_cell_length_c   6.44515540
_cell_angle_alpha   90.02023974
_cell_angle_beta   90.02023825
_cell_angle_gamma   120.02393704
_symmetry_Int_Tables_number   1
_chemical_formula_structural   Tb5Dy5CuBi6As
_chemical_formula_sum   'Tb5 Dy5 Cu1 Bi6 As1'
_cell_volume   489.68327735
_cell_formula_units_Z   1
loop_
 _symmetry_equiv_pos_site_id
 _symmetry_equiv_pos_as_xyz
  1  'x, y, z'
loop_
 _atom_site_type_symbol
 _atom_site_label
 _atom_site_symmetry_multiplicity
 _atom_site_fract_x
 _atom_site_fract_y
 _atom_site_fract_z
 _atom_site_occupancy
  Tb  Tb0  1  0.252224  0.000016  0.247821  1
  Tb  Tb1  1  0.000016  0.252224  0.247821  1
  Tb  Tb2  1  0.252089  0.252089  0.752130  1
  Tb  Tb3  1  0.747802  0.999888  0.752200  1
  Tb  Tb4  1  0.999888  0.747802  0.752200  1
  Dy  Dy5  1  0.666671  0.333347  0.500002  1
  Dy  Dy6  1  0.333347  0.666671  0.500002  1
  Dy  Dy7  1  0.333337  0.666646  0.000035  1
  Dy  Dy8  1  0.666646  0.333337  0.000035  1
  Dy  Dy9  1  0.748524  0.748524  0.248028  1
  Cu  Cu10  1  0.999688  0.999688  0.000388  1
  Bi  Bi11  1  0.391061  0.391061  0.248959  1
  Bi  Bi12  1  0.609551  0.999632  0.248993  1
  Bi  Bi13  1  0.999632  0.609551  0.248993  1
  Bi  Bi14  1  0.609482  0.609482  0.751041  1
  Bi  Bi15  1  0.390571  0.000015  0.751005  1
  Bi  Bi16  1  0.000015  0.390571  0.751005  1
  As  As17  1  0.999456  0.999456  0.499342  1
