# generated using pymatgen
data_Ce9Ho(TcPb3)2
_symmetry_space_group_name_H-M   'P 1'
_cell_length_a   9.62029405
_cell_length_b   9.62029502
_cell_length_c   6.38855600
_cell_angle_alpha   90.00000000
_cell_angle_beta   90.00000000
_cell_angle_gamma   119.48527911
_symmetry_Int_Tables_number   1
_chemical_formula_structural   Ce9Ho(TcPb3)2
_chemical_formula_sum   'Ce9 Ho1 Tc2 Pb6'
_cell_volume   514.68241536
_cell_formula_units_Z   1
loop_
 _symmetry_equiv_pos_site_id
 _symmetry_equiv_pos_as_xyz
  1  'x, y, z'
loop_
 _atom_site_type_symbol
 _atom_site_label
 _atom_site_symmetry_multiplicity
 _atom_site_fract_x
 _atom_site_fract_y
 _atom_site_fract_z
 _atom_site_occupancy
  Ce  Ce0  1  0.760349  0.760349  0.250000  1
  Ce  Ce1  1  0.238074  0.001081  0.250000  1
  Ce  Ce2  1  0.762950  0.999481  0.750000  1
  Ce  Ce3  1  0.333160  0.666881  0.500429  1
  Ce  Ce4  1  0.666881  0.333160  0.500429  1
  Ce  Ce5  1  0.001081  0.238074  0.250000  1
  Ce  Ce6  1  0.999481  0.762950  0.750000  1
  Ce  Ce7  1  0.333160  0.666881  0.999571  1
  Ce  Ce8  1  0.666881  0.333160  0.999571  1
  Ho  Ho9  1  0.247090  0.247090  0.750000  1
  Tc  Tc10  1  0.996304  0.996304  0.004269  1
  Tc  Tc11  1  0.996304  0.996304  0.495731  1
  Pb  Pb12  1  0.394952  0.394952  0.250000  1
  Pb  Pb13  1  0.603090  0.603090  0.750000  1
  Pb  Pb14  1  0.001672  0.394615  0.750000  1
  Pb  Pb15  1  0.603828  0.000130  0.250000  1
  Pb  Pb16  1  0.394615  0.001672  0.750000  1
  Pb  Pb17  1  0.000130  0.603828  0.250000  1
