# generated using pymatgen
data_Pr2U(BiO3)4
_symmetry_space_group_name_H-M   'P 1'
_cell_length_a   6.99105433
_cell_length_b   6.93709492
_cell_length_c   6.77786008
_cell_angle_alpha   98.17726783
_cell_angle_beta   99.22334808
_cell_angle_gamma   102.02854849
_symmetry_Int_Tables_number   1
_chemical_formula_structural   Pr2U(BiO3)4
_chemical_formula_sum   'Pr2 U1 Bi4 O12'
_cell_volume   312.04010967
_cell_formula_units_Z   1
loop_
 _symmetry_equiv_pos_site_id
 _symmetry_equiv_pos_as_xyz
  1  'x, y, z'
loop_
 _atom_site_type_symbol
 _atom_site_label
 _atom_site_symmetry_multiplicity
 _atom_site_fract_x
 _atom_site_fract_y
 _atom_site_fract_z
 _atom_site_occupancy
  Pr  Pr0  1  0.861888  0.701047  0.391568  1
  Pr  Pr1  1  0.138112  0.298953  0.608432  1
  U  U2  1  0.000000  0.000000  0.000000  1
  Bi  Bi3  1  0.316021  0.598084  0.154175  1
  Bi  Bi4  1  0.587609  0.152524  0.316103  1
  Bi  Bi5  1  0.412391  0.847476  0.683897  1
  Bi  Bi6  1  0.683979  0.401916  0.845825  1
  O  O7  1  0.430420  0.177811  0.568673  1
  O  O8  1  0.904583  0.695013  0.038414  1
  O  O9  1  0.172459  0.578693  0.421507  1
  O  O10  1  0.827541  0.421307  0.578493  1
  O  O11  1  0.569580  0.822189  0.431327  1
  O  O12  1  0.557711  0.439166  0.203345  1
  O  O13  1  0.442289  0.560834  0.796655  1
  O  O14  1  0.961989  0.060796  0.300515  1
  O  O15  1  0.038011  0.939204  0.699485  1
  O  O16  1  0.709619  0.017382  0.900843  1
  O  O17  1  0.095417  0.304987  0.961586  1
  O  O18  1  0.290381  0.982618  0.099157  1
