# generated using pymatgen
data_PrY2Ho(WN3)4
_symmetry_space_group_name_H-M   'P 1'
_cell_length_a   7.32832209
_cell_length_b   7.32832207
_cell_length_c   6.28010862
_cell_angle_alpha   74.73643342
_cell_angle_beta   74.73644523
_cell_angle_gamma   82.67654290
_symmetry_Int_Tables_number   1
_chemical_formula_structural   PrY2Ho(WN3)4
_chemical_formula_sum   'Pr1 Y2 Ho1 W4 N12'
_cell_volume   313.28064287
_cell_formula_units_Z   1
loop_
 _symmetry_equiv_pos_site_id
 _symmetry_equiv_pos_as_xyz
  1  'x, y, z'
loop_
 _atom_site_type_symbol
 _atom_site_label
 _atom_site_symmetry_multiplicity
 _atom_site_fract_x
 _atom_site_fract_y
 _atom_site_fract_z
 _atom_site_occupancy
  Pr  Pr0  1  0.700731  0.299269  0.750000  1
  Y  Y1  1  0.294725  0.705275  0.250000  1
  Y  Y2  1  0.915028  0.084972  0.250000  1
  Ho  Ho3  1  0.091379  0.908621  0.750000  1
  W  W4  1  0.379514  0.200511  0.242934  1
  W  W5  1  0.617820  0.800245  0.761140  1
  W  W6  1  0.799489  0.620486  0.257066  1
  W  W7  1  0.199755  0.382180  0.738860  1
  N  N8  1  0.621672  0.110840  0.166956  1
  N  N9  1  0.358770  0.359504  0.453109  1
  N  N10  1  0.007741  0.213057  0.849949  1
  N  N11  1  0.376638  0.894083  0.842236  1
  N  N12  1  0.786943  0.992259  0.650051  1
  N  N13  1  0.105917  0.623362  0.657764  1
  N  N14  1  0.889160  0.378328  0.333044  1
  N  N15  1  0.641497  0.649489  0.541289  1
  N  N16  1  0.640496  0.641230  0.046891  1
  N  N17  1  0.350511  0.358503  0.958711  1
  N  N18  1  0.001659  0.779442  0.148167  1
  N  N19  1  0.220558  0.998341  0.351833  1
