# generated using pymatgen
data_ThSc4Si7Pt9
_symmetry_space_group_name_H-M   'P 1'
_cell_length_a   10.06278200
_cell_length_b   10.06278213
_cell_length_c   3.99313900
_cell_angle_alpha   90.00000000
_cell_angle_beta   90.00000000
_cell_angle_gamma   119.99999956
_symmetry_Int_Tables_number   1
_chemical_formula_structural   ThSc4Si7Pt9
_chemical_formula_sum   'Th1 Sc4 Si7 Pt9'
_cell_volume   350.17182212
_cell_formula_units_Z   1
loop_
 _symmetry_equiv_pos_site_id
 _symmetry_equiv_pos_as_xyz
  1  'x, y, z'
loop_
 _atom_site_type_symbol
 _atom_site_label
 _atom_site_symmetry_multiplicity
 _atom_site_fract_x
 _atom_site_fract_y
 _atom_site_fract_z
 _atom_site_occupancy
  Th  Th0  1  0.333333  0.666667  0.500000  1
  Sc  Sc1  1  0.000000  0.000000  0.000000  1
  Sc  Sc2  1  0.891754  0.455545  0.500000  1
  Sc  Sc3  1  0.563792  0.108246  0.500000  1
  Sc  Sc4  1  0.544455  0.436208  0.500000  1
  Si  Si5  1  0.238723  0.187963  0.500000  1
  Si  Si6  1  0.812037  0.050761  0.500000  1
  Si  Si7  1  0.949239  0.761277  0.500000  1
  Si  Si8  1  0.563290  0.646722  0.000000  1
  Si  Si9  1  0.353278  0.916566  0.000000  1
  Si  Si10  1  0.083434  0.436710  0.000000  1
  Si  Si11  1  0.666667  0.333333  0.000000  1
  Pt  Pt12  1  0.216265  0.935285  0.500000  1
  Pt  Pt13  1  0.064715  0.280982  0.500000  1
  Pt  Pt14  1  0.719018  0.783735  0.500000  1
  Pt  Pt15  1  0.314760  0.414587  0.000000  1
  Pt  Pt16  1  0.585413  0.900173  0.000000  1
  Pt  Pt17  1  0.099827  0.685240  0.000000  1
  Pt  Pt18  1  0.381710  0.173113  0.000000  1
  Pt  Pt19  1  0.826887  0.208597  0.000000  1
  Pt  Pt20  1  0.791403  0.618290  0.000000  1
