# generated using pymatgen
data_Tm3Lu2Be4P8Ir19
_symmetry_space_group_name_H-M   'P 1'
_cell_length_a   12.60510603
_cell_length_b   12.49523422
_cell_length_c   3.93073900
_cell_angle_alpha   90.00000000
_cell_angle_beta   90.00000000
_cell_angle_gamma   120.03718485
_symmetry_Int_Tables_number   1
_chemical_formula_structural   Tm3Lu2Be4P8Ir19
_chemical_formula_sum   'Tm3 Lu2 Be4 P8 Ir19'
_cell_volume   535.96063381
_cell_formula_units_Z   1
loop_
 _symmetry_equiv_pos_site_id
 _symmetry_equiv_pos_as_xyz
  1  'x, y, z'
loop_
 _atom_site_type_symbol
 _atom_site_label
 _atom_site_symmetry_multiplicity
 _atom_site_fract_x
 _atom_site_fract_y
 _atom_site_fract_z
 _atom_site_occupancy
  Tm  Tm0  1  0.183220  0.191422  0.000000  1
  Tm  Tm1  1  0.808724  0.000041  0.000000  1
  Tm  Tm2  1  0.004985  0.815224  0.000000  1
  Lu  Lu3  1  0.334396  0.667238  0.500000  1
  Lu  Lu4  1  0.677755  0.331341  0.500000  1
  Be  Be5  1  0.314454  0.835136  0.000000  1
  Be  Be6  1  0.164651  0.478418  0.000000  1
  Be  Be7  1  0.520716  0.684428  0.000000  1
  Be  Be8  1  0.830677  0.308168  0.000000  1
  P  P9  1  0.485742  0.176627  0.000000  1
  P  P10  1  0.697208  0.516955  0.000000  1
  P  P11  1  0.361176  0.373782  0.500000  1
  P  P12  1  0.626875  0.993540  0.500000  1
  P  P13  1  0.007530  0.632047  0.500000  1
  P  P14  1  0.818299  0.820625  0.500000  1
  P  P15  1  0.181222  0.002221  0.500000  1
  P  P16  1  0.995833  0.180385  0.500000  1
  Ir  Ir17  1  0.194296  0.820311  0.500000  1
  Ir  Ir18  1  0.177564  0.375981  0.500000  1
  Ir  Ir19  1  0.624858  0.805275  0.500000  1
  Ir  Ir20  1  0.811047  0.187077  0.500000  1
  Ir  Ir21  1  0.376956  0.190803  0.500000  1
  Ir  Ir22  1  0.809185  0.623234  0.500000  1
  Ir  Ir23  1  0.127975  0.641041  0.000000  1
  Ir  Ir24  1  0.356804  0.484375  0.000000  1
  Ir  Ir25  1  0.511564  0.867934  0.000000  1
  Ir  Ir26  1  0.633943  0.128524  0.000000  1
  Ir  Ir27  1  0.500693  0.368225  0.000000  1
  Ir  Ir28  1  0.874675  0.509432  0.000000  1
  Ir  Ir29  1  0.546797  0.554081  0.500000  1
  Ir  Ir30  1  0.443405  0.991150  0.500000  1
  Ir  Ir31  1  0.995248  0.443036  0.500000  1
  Ir  Ir32  1  0.719026  0.714660  0.000000  1
  Ir  Ir33  1  0.286636  0.007088  0.000000  1
  Ir  Ir34  1  0.995829  0.280135  0.000000  1
  Ir  Ir35  1  0.000034  0.000040  0.500000  1
