# generated using pymatgen
data_LaYbPr5RuBr12
_symmetry_space_group_name_H-M   'P 1'
_cell_length_a   9.78148568
_cell_length_b   9.49440154
_cell_length_c   9.77826500
_cell_angle_alpha   106.80011671
_cell_angle_beta   107.44751207
_cell_angle_gamma   107.43005687
_symmetry_Int_Tables_number   1
_chemical_formula_structural   LaYbPr5RuBr12
_chemical_formula_sum   'La1 Yb1 Pr5 Ru1 Br12'
_cell_volume   751.54234274
_cell_formula_units_Z   1
loop_
 _symmetry_equiv_pos_site_id
 _symmetry_equiv_pos_as_xyz
  1  'x, y, z'
loop_
 _atom_site_type_symbol
 _atom_site_label
 _atom_site_symmetry_multiplicity
 _atom_site_fract_x
 _atom_site_fract_y
 _atom_site_fract_z
 _atom_site_occupancy
  La  La0  1  0.103288  0.298223  0.024719  1
  Yb  Yb1  1  0.500460  0.499152  0.501321  1
  Pr  Pr2  1  0.322691  0.025803  0.113019  1
  Pr  Pr3  1  0.026020  0.111940  0.320490  1
  Pr  Pr4  1  0.973464  0.886883  0.678095  1
  Pr  Pr5  1  0.677132  0.975477  0.886442  1
  Pr  Pr6  1  0.895445  0.699984  0.974938  1
  Ru  Ru7  1  0.004328  0.012783  0.000012  1
  Br  Br8  1  0.211808  0.681223  0.070211  1
  Br  Br9  1  0.463569  0.381016  0.177675  1
  Br  Br10  1  0.684729  0.070919  0.214218  1
  Br  Br11  1  0.926256  0.780108  0.312123  1
  Br  Br12  1  0.176710  0.462888  0.383709  1
  Br  Br13  1  0.376280  0.165927  0.458868  1
  Br  Br14  1  0.622999  0.831343  0.540529  1
  Br  Br15  1  0.825432  0.537437  0.622959  1
  Br  Br16  1  0.071727  0.215408  0.681100  1
  Br  Br17  1  0.314393  0.926238  0.785038  1
  Br  Br18  1  0.541897  0.619944  0.826912  1
  Br  Br19  1  0.781377  0.317304  0.927624  1
