# generated using pymatgen
data_Cs2SbHPd
_symmetry_space_group_name_H-M   'P 1'
_cell_length_a   9.94236287
_cell_length_b   9.94236230
_cell_length_c   5.72301000
_cell_angle_alpha   90.00000000
_cell_angle_beta   90.00000000
_cell_angle_gamma   142.84163730
_symmetry_Int_Tables_number   1
_chemical_formula_structural   Cs2SbHPd
_chemical_formula_sum   'Cs4 Sb2 H2 Pd2'
_cell_volume   341.70796138
_cell_formula_units_Z   2
loop_
 _symmetry_equiv_pos_site_id
 _symmetry_equiv_pos_as_xyz
  1  'x, y, z'
loop_
 _atom_site_type_symbol
 _atom_site_label
 _atom_site_symmetry_multiplicity
 _atom_site_fract_x
 _atom_site_fract_y
 _atom_site_fract_z
 _atom_site_occupancy
  Cs  Cs0  1  0.564557  0.414405  0.750000  1
  Cs  Cs1  1  0.414405  0.564557  0.250000  1
  Cs  Cs2  1  0.254628  0.765131  0.750000  1
  Cs  Cs3  1  0.765131  0.254628  0.250000  1
  Sb  Sb4  1  0.137046  0.897481  0.250000  1
  Sb  Sb5  1  0.897481  0.137046  0.750000  1
  H  H6  1  0.040786  0.931682  0.750000  1
  H  H7  1  0.931682  0.040786  0.250000  1
  Pd  Pd8  1  0.997142  0.997142  0.000000  1
  Pd  Pd9  1  0.997142  0.997142  0.500000  1
