# generated using pymatgen
data_Ca3Bi2Pb3O14
_symmetry_space_group_name_H-M   'P 1'
_cell_length_a   7.62583930
_cell_length_b   7.68005268
_cell_length_c   7.60936900
_cell_angle_alpha   60.30394787
_cell_angle_beta   60.07141566
_cell_angle_gamma   60.12427567
_symmetry_Int_Tables_number   1
_chemical_formula_structural   Ca3Bi2Pb3O14
_chemical_formula_sum   'Ca3 Bi2 Pb3 O14'
_cell_volume   316.31273182
_cell_formula_units_Z   1
loop_
 _symmetry_equiv_pos_site_id
 _symmetry_equiv_pos_as_xyz
  1  'x, y, z'
loop_
 _atom_site_type_symbol
 _atom_site_label
 _atom_site_symmetry_multiplicity
 _atom_site_fract_x
 _atom_site_fract_y
 _atom_site_fract_z
 _atom_site_occupancy
  Ca  Ca0  1  0.500003  0.499999  0.999999  1
  Ca  Ca1  1  0.500003  0.500001  0.499998  1
  Ca  Ca2  1  0.499998  0.999998  0.500001  1
  Bi  Bi3  1  0.500001  0.999997  0.000001  1
  Bi  Bi4  1  0.999992  0.499995  0.000005  1
  Pb  Pb5  1  0.999993  0.000030  0.999968  1
  Pb  Pb6  1  0.000021  0.000009  0.500005  1
  Pb  Pb7  1  0.999967  0.499993  0.500023  1
  O  O8  1  0.663891  0.663765  0.086171  1
  O  O9  1  0.655536  0.094454  0.088157  1
  O  O10  1  0.090006  0.658290  0.086321  1
  O  O11  1  0.909999  0.341707  0.334611  1
  O  O12  1  0.344463  0.905545  0.338147  1
  O  O13  1  0.911240  0.900026  0.344367  1
  O  O14  1  0.335062  0.391131  0.386904  1
  O  O15  1  0.664956  0.608863  0.613092  1
  O  O16  1  0.088753  0.099963  0.655642  1
  O  O17  1  0.655525  0.094453  0.661858  1
  O  O18  1  0.090005  0.658294  0.665381  1
  O  O19  1  0.336117  0.336235  0.913824  1
  O  O20  1  0.910002  0.341701  0.913686  1
  O  O21  1  0.344470  0.905544  0.911844  1
