# generated using pymatgen
data_YbEr4Tm5(In2Pt)4
_symmetry_space_group_name_H-M   'P 1'
_cell_length_a   3.62176800
_cell_length_b   8.07138849
_cell_length_c   18.13280723
_cell_angle_alpha   89.85933338
_cell_angle_beta   90.00000000
_cell_angle_gamma   90.00000000
_symmetry_Int_Tables_number   1
_chemical_formula_structural   YbEr4Tm5(In2Pt)4
_chemical_formula_sum   'Yb1 Er4 Tm5 In8 Pt4'
_cell_volume   530.06925383
_cell_formula_units_Z   1
loop_
 _symmetry_equiv_pos_site_id
 _symmetry_equiv_pos_as_xyz
  1  'x, y, z'
loop_
 _atom_site_type_symbol
 _atom_site_label
 _atom_site_symmetry_multiplicity
 _atom_site_fract_x
 _atom_site_fract_y
 _atom_site_fract_z
 _atom_site_occupancy
  Yb  Yb0  1  0.000000  0.999998  0.000027  1
  Er  Er1  1  0.000000  0.117140  0.414068  1
  Er  Er2  1  0.000000  0.882900  0.585788  1
  Er  Er3  1  0.000000  0.381221  0.914097  1
  Er  Er4  1  0.000000  0.499965  0.499966  1
  Tm  Tm5  1  0.000000  0.618524  0.086345  1
  Tm  Tm6  1  0.000000  0.243657  0.221369  1
  Tm  Tm7  1  0.000000  0.756411  0.778557  1
  Tm  Tm8  1  0.000000  0.256617  0.721258  1
  Tm  Tm9  1  0.000000  0.743362  0.278680  1
  In  In10  1  0.500000  0.424759  0.351928  1
  In  In11  1  0.500000  0.575382  0.648001  1
  In  In12  1  0.500000  0.073567  0.851261  1
  In  In13  1  0.500000  0.925865  0.148699  1
  In  In14  1  0.500000  0.294035  0.067365  1
  In  In15  1  0.500000  0.706196  0.932797  1
  In  In16  1  0.500000  0.208403  0.566627  1
  In  In17  1  0.500000  0.791692  0.433319  1
  Pt  Pt18  1  0.500000  0.025048  0.303967  1
  Pt  Pt19  1  0.500000  0.975019  0.696015  1
  Pt  Pt20  1  0.500000  0.476305  0.802834  1
  Pt  Pt21  1  0.500000  0.523933  0.197032  1
