# generated using pymatgen
data_Na7Nd(P7Ir8)2
_symmetry_space_group_name_H-M   'P 1'
_cell_length_a   3.97413300
_cell_length_b   12.53416992
_cell_length_c   13.00827420
_cell_angle_alpha   81.69459081
_cell_angle_beta   90.00000000
_cell_angle_gamma   90.00000000
_symmetry_Int_Tables_number   1
_chemical_formula_structural   Na7Nd(P7Ir8)2
_chemical_formula_sum   'Na7 Nd1 P14 Ir16'
_cell_volume   641.17826525
_cell_formula_units_Z   1
loop_
 _symmetry_equiv_pos_site_id
 _symmetry_equiv_pos_as_xyz
  1  'x, y, z'
loop_
 _atom_site_type_symbol
 _atom_site_label
 _atom_site_symmetry_multiplicity
 _atom_site_fract_x
 _atom_site_fract_y
 _atom_site_fract_z
 _atom_site_occupancy
  Na  Na0  1  0.750000  0.783312  0.567494  1
  Na  Na1  1  0.250000  0.214231  0.434555  1
  Na  Na2  1  0.750000  0.485148  0.707569  1
  Na  Na3  1  0.250000  0.516903  0.291177  1
  Na  Na4  1  0.750000  0.714241  0.890334  1
  Na  Na5  1  0.250000  0.099409  0.797714  1
  Na  Na6  1  0.750000  0.899693  0.203866  1
  Nd  Nd7  1  0.250000  0.285629  0.106074  1
  P  P8  1  0.250000  0.908297  0.413154  1
  P  P9  1  0.750000  0.477977  0.127388  1
  P  P10  1  0.250000  0.527428  0.867965  1
  P  P11  1  0.750000  0.087753  0.590023  1
  P  P12  1  0.250000  0.744109  0.080286  1
  P  P13  1  0.750000  0.260475  0.916618  1
  P  P14  1  0.750000  0.154648  0.286067  1
  P  P15  1  0.250000  0.842387  0.717492  1
  P  P16  1  0.250000  0.057602  0.101394  1
  P  P17  1  0.750000  0.941866  0.903452  1
  P  P18  1  0.250000  0.300917  0.684827  1
  P  P19  1  0.750000  0.697462  0.313808  1
  P  P20  1  0.250000  0.607884  0.562929  1
  P  P21  1  0.750000  0.390414  0.437537  1
  Ir  Ir22  1  0.250000  0.983555  0.576549  1
  Ir  Ir23  1  0.750000  0.013248  0.427807  1
  Ir  Ir24  1  0.250000  0.661881  0.725042  1
  Ir  Ir25  1  0.750000  0.337556  0.268169  1
  Ir  Ir26  1  0.250000  0.558606  0.045876  1
  Ir  Ir27  1  0.750000  0.444536  0.951164  1
  Ir  Ir28  1  0.250000  0.061205  0.275991  1
  Ir  Ir29  1  0.750000  0.935865  0.728775  1
  Ir  Ir30  1  0.250000  0.421949  0.527900  1
  Ir  Ir31  1  0.750000  0.576399  0.470816  1
  Ir  Ir32  1  0.250000  0.919284  0.000907  1
  Ir  Ir33  1  0.750000  0.087268  0.002272  1
  Ir  Ir34  1  0.250000  0.727303  0.398878  1
  Ir  Ir35  1  0.750000  0.269685  0.601103  1
  Ir  Ir36  1  0.250000  0.338010  0.853621  1
  Ir  Ir37  1  0.750000  0.665866  0.143406  1
