# generated using pymatgen
data_Sc2ZnCo5B2
_symmetry_space_group_name_H-M   'P 1'
_cell_length_a   8.77263700
_cell_length_b   8.77263700
_cell_length_c   2.94796100
_cell_angle_alpha   90.00000000
_cell_angle_beta   90.00000000
_cell_angle_gamma   90.00000000
_symmetry_Int_Tables_number   1
_chemical_formula_structural   Sc2ZnCo5B2
_chemical_formula_sum   'Sc4 Zn2 Co10 B4'
_cell_volume   226.87260208
_cell_formula_units_Z   2
loop_
 _symmetry_equiv_pos_site_id
 _symmetry_equiv_pos_as_xyz
  1  'x, y, z'
loop_
 _atom_site_type_symbol
 _atom_site_label
 _atom_site_symmetry_multiplicity
 _atom_site_fract_x
 _atom_site_fract_y
 _atom_site_fract_z
 _atom_site_occupancy
  Sc  Sc0  1  0.175859  0.675859  0.000000  1
  Sc  Sc1  1  0.824141  0.324141  0.000000  1
  Sc  Sc2  1  0.324141  0.175859  0.000000  1
  Sc  Sc3  1  0.675859  0.824141  0.000000  1
  Zn  Zn4  1  0.000000  0.000000  0.000000  1
  Zn  Zn5  1  0.500000  0.500000  0.000000  1
  Co  Co6  1  0.500000  0.000000  0.500000  1
  Co  Co7  1  0.723261  0.569242  0.500000  1
  Co  Co8  1  0.569242  0.276739  0.500000  1
  Co  Co9  1  0.430758  0.723261  0.500000  1
  Co  Co10  1  0.276739  0.430758  0.500000  1
  Co  Co11  1  0.000000  0.500000  0.500000  1
  Co  Co12  1  0.930758  0.776739  0.500000  1
  Co  Co13  1  0.776739  0.069242  0.500000  1
  Co  Co14  1  0.223261  0.930758  0.500000  1
  Co  Co15  1  0.069242  0.223261  0.500000  1
  B  B16  1  0.378470  0.878470  0.000000  1
  B  B17  1  0.878470  0.621530  0.000000  1
  B  B18  1  0.121530  0.378470  0.000000  1
  B  B19  1  0.621530  0.121530  0.000000  1
