# generated using pymatgen
data_Tb2Y2Pd3PtO14
_symmetry_space_group_name_H-M   'P 1'
_cell_length_a   7.27180172
_cell_length_b   7.27697569
_cell_length_c   7.27180122
_cell_angle_alpha   60.07600747
_cell_angle_beta   60.05068272
_cell_angle_gamma   60.07601395
_symmetry_Int_Tables_number   1
_chemical_formula_structural   Tb2Y2Pd3PtO14
_chemical_formula_sum   'Tb2 Y2 Pd3 Pt1 O14'
_cell_volume   272.51123724
_cell_formula_units_Z   1
loop_
 _symmetry_equiv_pos_site_id
 _symmetry_equiv_pos_as_xyz
  1  'x, y, z'
loop_
 _atom_site_type_symbol
 _atom_site_label
 _atom_site_symmetry_multiplicity
 _atom_site_fract_x
 _atom_site_fract_y
 _atom_site_fract_z
 _atom_site_occupancy
  Tb  Tb0  1  0.125000  0.625000  0.125000  1
  Tb  Tb1  1  0.125000  0.125000  0.125000  1
  Y  Y2  1  0.125000  0.125000  0.625000  1
  Y  Y3  1  0.625000  0.125000  0.125000  1
  Pd  Pd4  1  0.125000  0.625000  0.625000  1
  Pd  Pd5  1  0.625000  0.625000  0.125000  1
  Pd  Pd6  1  0.625000  0.125000  0.625000  1
  Pt  Pt7  1  0.625000  0.625000  0.625000  1
  O  O8  1  0.286014  0.715175  0.715004  1
  O  O9  1  0.535525  0.964679  0.964671  1
  O  O10  1  0.715004  0.715175  0.286014  1
  O  O11  1  0.285329  0.285321  0.714475  1
  O  O12  1  0.999312  0.000436  0.999312  1
  O  O13  1  0.285362  0.714517  0.285362  1
  O  O14  1  0.715125  0.285968  0.715125  1
  O  O15  1  0.964638  0.535483  0.964638  1
  O  O16  1  0.534996  0.534825  0.963986  1
  O  O17  1  0.964671  0.964679  0.535525  1
  O  O18  1  0.250688  0.249564  0.250688  1
  O  O19  1  0.534875  0.964032  0.534875  1
  O  O20  1  0.714475  0.285321  0.285329  1
  O  O21  1  0.963986  0.534825  0.534996  1
