# generated using pymatgen
data_Y4HoCo16Tc2P12Ru
_symmetry_space_group_name_H-M   'P 1'
_cell_length_a   12.04919100
_cell_length_b   12.04916333
_cell_length_c   3.71909700
_cell_angle_alpha   90.00000000
_cell_angle_beta   90.00000000
_cell_angle_gamma   119.99991949
_symmetry_Int_Tables_number   1
_chemical_formula_structural   Y4HoCo16Tc2P12Ru
_chemical_formula_sum   'Y4 Ho1 Co16 Tc2 P12 Ru1'
_cell_volume   467.60943957
_cell_formula_units_Z   1
loop_
 _symmetry_equiv_pos_site_id
 _symmetry_equiv_pos_as_xyz
  1  'x, y, z'
loop_
 _atom_site_type_symbol
 _atom_site_label
 _atom_site_symmetry_multiplicity
 _atom_site_fract_x
 _atom_site_fract_y
 _atom_site_fract_z
 _atom_site_occupancy
  Y  Y0  1  0.666516  0.333450  0.000000  1
  Y  Y1  1  0.333484  0.666935  0.000000  1
  Y  Y2  1  0.814962  0.815200  0.500000  1
  Y  Y3  1  0.185038  0.000237  0.500000  1
  Ho  Ho4  1  0.000000  0.185159  0.500000  1
  Co  Co5  1  0.873952  0.357776  0.500000  1
  Co  Co6  1  0.641737  0.516797  0.500000  1
  Co  Co7  1  0.483287  0.125765  0.500000  1
  Co  Co8  1  0.358263  0.875060  0.500000  1
  Co  Co9  1  0.516713  0.642477  0.500000  1
  Co  Co10  1  0.126048  0.483823  0.500000  1
  Co  Co11  1  0.804164  0.179669  0.000000  1
  Co  Co12  1  0.820166  0.623370  0.000000  1
  Co  Co13  1  0.375749  0.196576  0.000000  1
  Co  Co14  1  0.179834  0.803205  0.000000  1
  Co  Co15  1  0.624251  0.820828  0.000000  1
  Co  Co16  1  0.195836  0.375506  0.000000  1
  Co  Co17  1  0.282034  0.281998  0.500000  1
  Co  Co18  1  0.717966  0.999964  0.500000  1
  Co  Co19  1  0.000000  0.716966  0.500000  1
  Co  Co20  1  0.000000  0.999946  0.000000  1
  Tc  Tc21  1  0.444972  0.445184  0.000000  1
  Tc  Tc22  1  0.555028  0.000211  0.000000  1
  P  P23  1  0.687141  0.165497  0.500000  1
  P  P24  1  0.834321  0.521944  0.500000  1
  P  P25  1  0.478234  0.313162  0.500000  1
  P  P26  1  0.165679  0.687622  0.500000  1
  P  P27  1  0.521766  0.834928  0.500000  1
  P  P28  1  0.312859  0.478356  0.500000  1
  P  P29  1  0.178695  0.179422  0.000000  1
  P  P30  1  0.821305  0.000727  0.000000  1
  P  P31  1  0.000000  0.820030  0.000000  1
  P  P32  1  0.636210  0.635735  0.000000  1
  P  P33  1  0.363790  0.999525  0.000000  1
  P  P34  1  0.000000  0.363317  0.000000  1
  Ru  Ru35  1  0.000000  0.553637  0.000000  1
