# generated using pymatgen
data_Yb12Si11Pd
_symmetry_space_group_name_H-M   'P 1'
_cell_length_a   3.91551000
_cell_length_b   5.75303458
_cell_length_c   25.25458204
_cell_angle_alpha   82.28514890
_cell_angle_beta   90.00000000
_cell_angle_gamma   90.00000000
_symmetry_Int_Tables_number   1
_chemical_formula_structural   Yb12Si11Pd
_chemical_formula_sum   'Yb12 Si11 Pd1'
_cell_volume   563.73703139
_cell_formula_units_Z   1
loop_
 _symmetry_equiv_pos_site_id
 _symmetry_equiv_pos_as_xyz
  1  'x, y, z'
loop_
 _atom_site_type_symbol
 _atom_site_label
 _atom_site_symmetry_multiplicity
 _atom_site_fract_x
 _atom_site_fract_y
 _atom_site_fract_z
 _atom_site_occupancy
  Yb  Yb0  1  0.750000  0.354482  0.063251  1
  Yb  Yb1  1  0.250000  0.658762  0.939479  1
  Yb  Yb2  1  0.750000  0.544520  0.224285  1
  Yb  Yb3  1  0.250000  0.453461  0.773004  1
  Yb  Yb4  1  0.750000  0.159539  0.393739  1
  Yb  Yb5  1  0.250000  0.832900  0.606908  1
  Yb  Yb6  1  0.750000  0.355928  0.560146  1
  Yb  Yb7  1  0.250000  0.639174  0.440143  1
  Yb  Yb8  1  0.750000  0.984478  0.726835  1
  Yb  Yb9  1  0.250000  0.006102  0.272817  1
  Yb  Yb10  1  0.750000  0.160801  0.892925  1
  Yb  Yb11  1  0.250000  0.842301  0.108006  1
  Si  Si12  1  0.750000  0.884334  0.009465  1
  Si  Si13  1  0.250000  0.133640  0.988291  1
  Si  Si14  1  0.750000  0.074406  0.177116  1
  Si  Si15  1  0.250000  0.931748  0.821963  1
  Si  Si16  1  0.750000  0.689569  0.346182  1
  Si  Si17  1  0.250000  0.301608  0.654950  1
  Si  Si18  1  0.750000  0.876029  0.512023  1
  Si  Si19  1  0.250000  0.119543  0.489049  1
  Si  Si20  1  0.750000  0.516765  0.678291  1
  Si  Si21  1  0.250000  0.474034  0.321993  1
  Si  Si22  1  0.750000  0.685398  0.843617  1
  Pd  Pd23  1  0.250000  0.320477  0.155521  1
