# generated using pymatgen
data_Gd5Y5(Ga2Ru3)2
_symmetry_space_group_name_H-M   'P 1'
_cell_length_a   8.34298089
_cell_length_b   8.34298174
_cell_length_c   8.33350600
_cell_angle_alpha   109.36563575
_cell_angle_beta   109.54677009
_cell_angle_gamma   109.54729602
_symmetry_Int_Tables_number   1
_chemical_formula_structural   Gd5Y5(Ga2Ru3)2
_chemical_formula_sum   'Gd5 Y5 Ga4 Ru6'
_cell_volume   446.27268565
_cell_formula_units_Z   1
loop_
 _symmetry_equiv_pos_site_id
 _symmetry_equiv_pos_as_xyz
  1  'x, y, z'
loop_
 _atom_site_type_symbol
 _atom_site_label
 _atom_site_symmetry_multiplicity
 _atom_site_fract_x
 _atom_site_fract_y
 _atom_site_fract_z
 _atom_site_occupancy
  Gd  Gd0  1  0.999711  0.216091  0.999146  1
  Gd  Gd1  1  0.749278  0.433868  0.183990  1
  Gd  Gd2  1  0.435414  0.685415  0.250000  1
  Gd  Gd3  1  0.249879  0.065288  0.316011  1
  Gd  Gd4  1  0.216944  0.500566  0.500855  1
  Y  Y5  1  0.817013  0.250084  0.567543  1
  Y  Y6  1  0.500222  0.000934  0.718923  1
  Y  Y7  1  0.066868  0.816868  0.750000  1
  Y  Y8  1  0.282011  0.281300  0.781078  1
  Y  Y9  1  0.682542  0.749471  0.932457  1
  Ga  Ga10  1  0.999272  0.587263  0.998090  1
  Ga  Ga11  1  0.500870  0.999762  0.087518  1
  Ga  Ga12  1  0.912243  0.913351  0.412482  1
  Ga  Ga13  1  0.589174  0.501182  0.501910  1
  Ru  Ru14  1  0.376350  0.249118  0.126614  1
  Ru  Ru15  1  0.875383  0.125383  0.249999  1
  Ru  Ru16  1  0.122504  0.749737  0.373386  1
  Ru  Ru17  1  0.748252  0.873513  0.623081  1
  Ru  Ru18  1  0.625637  0.375638  0.750000  1
  Ru  Ru19  1  0.250432  0.625171  0.876920  1
