# generated using pymatgen
data_Li3ErU2O8
_symmetry_space_group_name_H-M   'P 1'
_cell_length_a   5.21245000
_cell_length_b   6.26591506
_cell_length_c   11.08519878
_cell_angle_alpha   86.60254876
_cell_angle_beta   90.00000000
_cell_angle_gamma   90.00000000
_symmetry_Int_Tables_number   1
_chemical_formula_structural   Li3ErU2O8
_chemical_formula_sum   'Li6 Er2 U4 O16'
_cell_volume   361.41479863
_cell_formula_units_Z   2
loop_
 _symmetry_equiv_pos_site_id
 _symmetry_equiv_pos_as_xyz
  1  'x, y, z'
loop_
 _atom_site_type_symbol
 _atom_site_label
 _atom_site_symmetry_multiplicity
 _atom_site_fract_x
 _atom_site_fract_y
 _atom_site_fract_z
 _atom_site_occupancy
  Li  Li0  1  0.542707  0.726668  0.918448  1
  Li  Li1  1  0.042707  0.273332  0.581552  1
  Li  Li2  1  0.457293  0.273332  0.081552  1
  Li  Li3  1  0.957293  0.726668  0.418448  1
  Li  Li4  1  0.500000  0.500000  0.500000  1
  Li  Li5  1  0.000000  0.500000  0.000000  1
  Er  Er6  1  0.500000  0.000000  0.500000  1
  Er  Er7  1  0.000000  0.000000  0.000000  1
  U  U8  1  0.991161  0.742877  0.733702  1
  U  U9  1  0.491161  0.257123  0.766298  1
  U  U10  1  0.008839  0.257123  0.266298  1
  U  U11  1  0.508839  0.742877  0.233702  1
  O  O12  1  0.179387  0.740357  0.900141  1
  O  O13  1  0.218647  0.243694  0.424323  1
  O  O14  1  0.281353  0.243694  0.924323  1
  O  O15  1  0.718647  0.756306  0.075677  1
  O  O16  1  0.250704  0.015580  0.167420  1
  O  O17  1  0.750704  0.984420  0.332580  1
  O  O18  1  0.733363  0.512003  0.829904  1
  O  O19  1  0.233363  0.487997  0.670096  1
  O  O20  1  0.749296  0.984420  0.832580  1
  O  O21  1  0.249296  0.015580  0.667420  1
  O  O22  1  0.266637  0.487997  0.170096  1
  O  O23  1  0.766637  0.512003  0.329904  1
  O  O24  1  0.820613  0.259643  0.099859  1
  O  O25  1  0.320613  0.740357  0.400141  1
  O  O26  1  0.781353  0.756306  0.575677  1
  O  O27  1  0.679387  0.259643  0.599859  1
