# generated using pymatgen
data_LaTbPr(Si3Pd10)2
_symmetry_space_group_name_H-M   'P 1'
_cell_length_a   8.77218557
_cell_length_b   8.77218479
_cell_length_c   8.77218600
_cell_angle_alpha   60.00000299
_cell_angle_beta   60.00000591
_cell_angle_gamma   60.00000102
_symmetry_Int_Tables_number   1
_chemical_formula_structural   LaTbPr(Si3Pd10)2
_chemical_formula_sum   'La1 Tb1 Pr1 Si6 Pd20'
_cell_volume   477.31869908
_cell_formula_units_Z   1
loop_
 _symmetry_equiv_pos_site_id
 _symmetry_equiv_pos_as_xyz
  1  'x, y, z'
loop_
 _atom_site_type_symbol
 _atom_site_label
 _atom_site_symmetry_multiplicity
 _atom_site_fract_x
 _atom_site_fract_y
 _atom_site_fract_z
 _atom_site_occupancy
  La  La0  1  0.250000  0.250000  0.250000  1
  Tb  Tb1  1  0.000000  0.000000  0.000000  1
  Pr  Pr2  1  0.750000  0.750000  0.750000  1
  Si  Si3  1  0.733497  0.266503  0.266503  1
  Si  Si4  1  0.266503  0.733497  0.733497  1
  Si  Si5  1  0.266503  0.733497  0.266503  1
  Si  Si6  1  0.733497  0.266503  0.733497  1
  Si  Si7  1  0.266503  0.266503  0.733497  1
  Si  Si8  1  0.733497  0.733497  0.266503  1
  Pd  Pd9  1  0.384895  0.384895  0.384895  1
  Pd  Pd10  1  0.613940  0.613940  0.613940  1
  Pd  Pd11  1  0.384895  0.384895  0.845317  1
  Pd  Pd12  1  0.384895  0.845317  0.384895  1
  Pd  Pd13  1  0.613940  0.613940  0.158179  1
  Pd  Pd14  1  0.613940  0.158179  0.613940  1
  Pd  Pd15  1  0.845317  0.384895  0.384895  1
  Pd  Pd16  1  0.158179  0.613940  0.613940  1
  Pd  Pd17  1  0.345457  0.000069  0.000069  1
  Pd  Pd18  1  0.654404  0.000069  0.000069  1
  Pd  Pd19  1  0.000069  0.345457  0.654404  1
  Pd  Pd20  1  0.000069  0.654404  0.345457  1
  Pd  Pd21  1  0.000069  0.345457  0.000069  1
  Pd  Pd22  1  0.654404  0.000069  0.345457  1
  Pd  Pd23  1  0.000069  0.654404  0.000069  1
  Pd  Pd24  1  0.345457  0.000069  0.654404  1
  Pd  Pd25  1  0.000069  0.000069  0.345457  1
  Pd  Pd26  1  0.000069  0.000069  0.654404  1
  Pd  Pd27  1  0.654404  0.345457  0.000069  1
  Pd  Pd28  1  0.345457  0.654404  0.000069  1
