# generated using pymatgen
data_RbSr9(RuO6)4
_symmetry_space_group_name_H-M   'P 1'
_cell_length_a   7.87152766
_cell_length_b   7.86886627
_cell_length_c   10.58283795
_cell_angle_alpha   111.81350803
_cell_angle_beta   111.82140340
_cell_angle_gamma   90.01900200
_symmetry_Int_Tables_number   1
_chemical_formula_structural   RbSr9(RuO6)4
_chemical_formula_sum   'Rb1 Sr9 Ru4 O24'
_cell_volume   557.62284621
_cell_formula_units_Z   1
loop_
 _symmetry_equiv_pos_site_id
 _symmetry_equiv_pos_as_xyz
  1  'x, y, z'
loop_
 _atom_site_type_symbol
 _atom_site_label
 _atom_site_symmetry_multiplicity
 _atom_site_fract_x
 _atom_site_fract_y
 _atom_site_fract_z
 _atom_site_occupancy
  Rb  Rb0  1  0.500005  0.499997  0.999998  1
  Sr  Sr1  1  0.999960  0.999960  0.999895  1
  Sr  Sr2  1  0.444409  0.320407  0.284949  1
  Sr  Sr3  1  0.964597  0.444572  0.284844  1
  Sr  Sr4  1  0.320228  0.840230  0.284842  1
  Sr  Sr5  1  0.840590  0.964592  0.285017  1
  Sr  Sr6  1  0.158892  0.035142  0.714845  1
  Sr  Sr7  1  0.679842  0.159182  0.714989  1
  Sr  Sr8  1  0.035146  0.555822  0.714987  1
  Sr  Sr9  1  0.556003  0.679732  0.714906  1
  Ru  Ru10  1  0.500070  0.000057  0.000130  1
  Ru  Ru11  1  0.000041  0.500047  0.000098  1
  Ru  Ru12  1  0.246774  0.246759  0.493417  1
  Ru  Ru13  1  0.753559  0.753570  0.507193  1
  O  O14  1  0.294087  0.124072  0.000080  1
  O  O15  1  0.875867  0.293981  0.000043  1
  O  O16  1  0.124171  0.706072  0.000073  1
  O  O17  1  0.706005  0.876015  0.000083  1
  O  O18  1  0.665060  0.219090  0.154367  1
  O  O19  1  0.219063  0.489316  0.154456  1
  O  O20  1  0.935249  0.665121  0.154401  1
  O  O21  1  0.489335  0.935230  0.154406  1
  O  O22  1  0.131366  0.131469  0.262727  1
  O  O23  1  0.651791  0.651640  0.303569  1
  O  O24  1  0.467207  0.176731  0.471034  1
  O  O25  1  0.003885  0.294299  0.471108  1
  O  O26  1  0.294479  0.467297  0.470957  1
  O  O27  1  0.176542  0.003721  0.470922  1
  O  O28  1  0.823745  0.996718  0.528972  1
  O  O29  1  0.705137  0.532182  0.528932  1
  O  O30  1  0.996543  0.705287  0.528738  1
  O  O31  1  0.532214  0.823530  0.528812  1
  O  O32  1  0.348348  0.348517  0.696743  1
  O  O33  1  0.868348  0.868251  0.736710  1
  O  O34  1  0.510818  0.064785  0.845713  1
  O  O35  1  0.064740  0.334811  0.845674  1
  O  O36  1  0.780990  0.510806  0.845633  1
  O  O37  1  0.334898  0.780993  0.845743  1
