# generated using pymatgen
data_SrPrCdRuO6
_symmetry_space_group_name_H-M   'P 1'
_cell_length_a   8.25787092
_cell_length_b   8.25787045
_cell_length_c   9.92886778
_cell_angle_alpha   66.74328481
_cell_angle_beta   66.74328485
_cell_angle_gamma   92.77316465
_symmetry_Int_Tables_number   1
_chemical_formula_structural   SrPrCdRuO6
_chemical_formula_sum   'Sr4 Pr4 Cd4 Ru4 O24'
_cell_volume   554.52182129
_cell_formula_units_Z   4
loop_
 _symmetry_equiv_pos_site_id
 _symmetry_equiv_pos_as_xyz
  1  'x, y, z'
loop_
 _atom_site_type_symbol
 _atom_site_label
 _atom_site_symmetry_multiplicity
 _atom_site_fract_x
 _atom_site_fract_y
 _atom_site_fract_z
 _atom_site_occupancy
  Sr  Sr0  1  0.396108  0.342777  0.248791  1
  Sr  Sr1  1  0.896108  0.842776  0.248791  1
  Sr  Sr2  1  0.092776  0.646107  0.748791  1
  Sr  Sr3  1  0.592776  0.146107  0.748792  1
  Pr  Pr4  1  0.419147  0.854227  0.245569  1
  Pr  Pr5  1  0.919146  0.354228  0.245568  1
  Pr  Pr6  1  0.104228  0.169147  0.745568  1
  Pr  Pr7  1  0.604228  0.669147  0.745569  1
  Cd  Cd8  1  0.997139  0.506309  0.497763  1
  Cd  Cd9  1  0.256309  0.247140  0.997764  1
  Cd  Cd10  1  0.497139  0.006309  0.497764  1
  Cd  Cd11  1  0.756309  0.747140  0.997763  1
  Ru  Ru12  1  0.749412  0.251491  0.999713  1
  Ru  Ru13  1  0.249412  0.751492  0.999713  1
  Ru  Ru14  1  0.001492  0.999411  0.499714  1
  Ru  Ru15  1  0.501491  0.499412  0.499714  1
  O  O16  1  0.342782  0.796637  0.768657  1
  O  O17  1  0.842783  0.296638  0.768658  1
  O  O18  1  0.546638  0.592783  0.268657  1
  O  O19  1  0.046637  0.092782  0.268658  1
  O  O20  1  0.757823  0.992339  0.062003  1
  O  O21  1  0.257821  0.492338  0.062004  1
  O  O22  1  0.242339  0.507823  0.562002  1
  O  O23  1  0.742338  0.007821  0.562005  1
  O  O24  1  0.567349  0.755253  0.455660  1
  O  O25  1  0.067349  0.255253  0.455661  1
  O  O26  1  0.005253  0.317349  0.955661  1
  O  O27  1  0.505253  0.817348  0.955659  1
  O  O28  1  0.491231  0.167501  0.053000  1
  O  O29  1  0.991230  0.667502  0.053001  1
  O  O30  1  0.917502  0.741230  0.553001  1
  O  O31  1  0.417502  0.241231  0.553000  1
  O  O32  1  0.256355  0.967900  0.438660  1
  O  O33  1  0.756355  0.467899  0.438660  1
  O  O34  1  0.717899  0.506354  0.938661  1
  O  O35  1  0.217901  0.006355  0.938659  1
  O  O36  1  0.963706  0.924514  0.730180  1
  O  O37  1  0.463705  0.424514  0.730180  1
  O  O38  1  0.174514  0.713706  0.230179  1
  O  O39  1  0.674513  0.213705  0.230180  1
