# generated using pymatgen
data_Dy2Y2ThRu2
_symmetry_space_group_name_H-M   'P 1'
_cell_length_a   8.70831223
_cell_length_b   8.70831120
_cell_length_c   7.24112942
_cell_angle_alpha   83.54601033
_cell_angle_beta   83.54600990
_cell_angle_gamma   43.39531479
_symmetry_Int_Tables_number   1
_chemical_formula_structural   Dy2Y2ThRu2
_chemical_formula_sum   'Dy4 Y4 Th2 Ru4'
_cell_volume   374.49603202
_cell_formula_units_Z   2
loop_
 _symmetry_equiv_pos_site_id
 _symmetry_equiv_pos_as_xyz
  1  'x, y, z'
loop_
 _atom_site_type_symbol
 _atom_site_label
 _atom_site_symmetry_multiplicity
 _atom_site_fract_x
 _atom_site_fract_y
 _atom_site_fract_z
 _atom_site_occupancy
  Dy  Dy0  1  0.978211  0.207012  0.086245  1
  Dy  Dy1  1  0.792988  0.021789  0.413755  1
  Dy  Dy2  1  0.575331  0.424669  0.750000  1
  Dy  Dy3  1  0.422066  0.577934  0.250000  1
  Y  Y4  1  0.211741  0.355882  0.311728  1
  Y  Y5  1  0.644118  0.788259  0.188272  1
  Y  Y6  1  0.789824  0.642670  0.684387  1
  Y  Y7  1  0.357330  0.210176  0.815613  1
  Th  Th8  1  0.200531  0.991087  0.593128  1
  Th  Th9  1  0.008913  0.799469  0.906872  1
  Ru  Ru10  1  0.168936  0.615345  0.586109  1
  Ru  Ru11  1  0.384655  0.831064  0.913891  1
  Ru  Ru12  1  0.842847  0.377491  0.429025  1
  Ru  Ru13  1  0.622509  0.157153  0.070975  1
