# generated using pymatgen
data_Nb3GeOsN
_symmetry_space_group_name_H-M   'P 1'
_cell_length_a   7.03274600
_cell_length_b   7.03274600
_cell_length_c   7.03274600
_cell_angle_alpha   90.00000000
_cell_angle_beta   90.00000000
_cell_angle_gamma   90.00000000
_symmetry_Int_Tables_number   1
_chemical_formula_structural   Nb3GeOsN
_chemical_formula_sum   'Nb12 Ge4 Os4 N4'
_cell_volume   347.83621542
_cell_formula_units_Z   4
loop_
 _symmetry_equiv_pos_site_id
 _symmetry_equiv_pos_as_xyz
  1  'x, y, z'
loop_
 _atom_site_type_symbol
 _atom_site_label
 _atom_site_symmetry_multiplicity
 _atom_site_fract_x
 _atom_site_fract_y
 _atom_site_fract_z
 _atom_site_occupancy
  Nb  Nb0  1  0.796653  0.954234  0.377848  1
  Nb  Nb1  1  0.703347  0.045766  0.877848  1
  Nb  Nb2  1  0.203347  0.454234  0.122152  1
  Nb  Nb3  1  0.296653  0.545766  0.622152  1
  Nb  Nb4  1  0.954234  0.377848  0.796653  1
  Nb  Nb5  1  0.045766  0.877848  0.703347  1
  Nb  Nb6  1  0.454234  0.122152  0.203347  1
  Nb  Nb7  1  0.545766  0.622152  0.296653  1
  Nb  Nb8  1  0.377848  0.796653  0.954234  1
  Nb  Nb9  1  0.877848  0.703347  0.045766  1
  Nb  Nb10  1  0.122152  0.203347  0.454234  1
  Nb  Nb11  1  0.622152  0.296653  0.545766  1
  Ge  Ge12  1  0.567245  0.432755  0.932755  1
  Ge  Ge13  1  0.432755  0.932755  0.567245  1
  Ge  Ge14  1  0.932755  0.567245  0.432755  1
  Ge  Ge15  1  0.067245  0.067245  0.067245  1
  Os  Os16  1  0.176620  0.823380  0.323380  1
  Os  Os17  1  0.323380  0.176620  0.823380  1
  Os  Os18  1  0.823380  0.323380  0.176620  1
  Os  Os19  1  0.676620  0.676620  0.676620  1
  N  N20  1  0.872695  0.127305  0.627305  1
  N  N21  1  0.627305  0.872695  0.127305  1
  N  N22  1  0.127305  0.627305  0.872695  1
  N  N23  1  0.372695  0.372695  0.372695  1
