# generated using pymatgen
data_Ho16MgIn3(RuRh)2
_symmetry_space_group_name_H-M   'P 1'
_cell_length_a   9.63561679
_cell_length_b   9.65883687
_cell_length_c   9.63561662
_cell_angle_alpha   59.72182454
_cell_angle_beta   59.52382364
_cell_angle_gamma   59.72182788
_symmetry_Int_Tables_number   1
_chemical_formula_structural   Ho16MgIn3(RuRh)2
_chemical_formula_sum   'Ho16 Mg1 In3 Ru2 Rh2'
_cell_volume   629.15237190
_cell_formula_units_Z   1
loop_
 _symmetry_equiv_pos_site_id
 _symmetry_equiv_pos_as_xyz
  1  'x, y, z'
loop_
 _atom_site_type_symbol
 _atom_site_label
 _atom_site_symmetry_multiplicity
 _atom_site_fract_x
 _atom_site_fract_y
 _atom_site_fract_z
 _atom_site_occupancy
  Ho  Ho0  1  0.188096  0.189393  0.808534  1
  Ho  Ho1  1  0.596907  0.597789  0.206612  1
  Ho  Ho2  1  0.440655  0.059274  0.440655  1
  Ho  Ho3  1  0.440195  0.441310  0.060939  1
  Ho  Ho4  1  0.813369  0.187471  0.813369  1
  Ho  Ho5  1  0.189926  0.810167  0.189926  1
  Ho  Ho6  1  0.437193  0.059465  0.063440  1
  Ho  Ho7  1  0.188332  0.814015  0.809246  1
  Ho  Ho8  1  0.060814  0.438599  0.060814  1
  Ho  Ho9  1  0.809246  0.814015  0.188332  1
  Ho  Ho10  1  0.206612  0.597789  0.596907  1
  Ho  Ho11  1  0.060939  0.441310  0.440195  1
  Ho  Ho12  1  0.063440  0.059465  0.437193  1
  Ho  Ho13  1  0.808534  0.189393  0.188096  1
  Ho  Ho14  1  0.598466  0.204035  0.598466  1
  Ho  Ho15  1  0.599069  0.599976  0.599069  1
  Mg  Mg16  1  0.827953  0.828521  0.827953  1
  In  In17  1  0.832149  0.832735  0.502268  1
  In  In18  1  0.502268  0.832735  0.832149  1
  In  In19  1  0.831815  0.503687  0.831815  1
  Ru  Ru20  1  0.392333  0.826859  0.392333  1
  Ru  Ru21  1  0.392561  0.390041  0.392561  1
  Rh  Rh22  1  0.826604  0.390976  0.392529  1
  Rh  Rh23  1  0.392529  0.390976  0.826604  1
