# generated using pymatgen
data_YbCe3Os5Ru3
_symmetry_space_group_name_H-M   'P 1'
_cell_length_a   5.31775505
_cell_length_b   5.21107682
_cell_length_c   9.06421799
_cell_angle_alpha   89.99585193
_cell_angle_beta   89.87754204
_cell_angle_gamma   119.12049026
_symmetry_Int_Tables_number   1
_chemical_formula_structural   YbCe3Os5Ru3
_chemical_formula_sum   'Yb1 Ce3 Os5 Ru3'
_cell_volume   219.43027808
_cell_formula_units_Z   1
loop_
 _symmetry_equiv_pos_site_id
 _symmetry_equiv_pos_as_xyz
  1  'x, y, z'
loop_
 _atom_site_type_symbol
 _atom_site_label
 _atom_site_symmetry_multiplicity
 _atom_site_fract_x
 _atom_site_fract_y
 _atom_site_fract_z
 _atom_site_occupancy
  Yb  Yb0  1  0.666484  0.333416  0.934814  1
  Ce  Ce1  1  0.664625  0.333165  0.572578  1
  Ce  Ce2  1  0.333494  0.666212  0.429705  1
  Ce  Ce3  1  0.331340  0.665403  0.066855  1
  Os  Os4  1  0.171269  0.341171  0.750940  1
  Os  Os5  1  0.172170  0.830031  0.751258  1
  Os  Os6  1  0.662327  0.831795  0.751568  1
  Os  Os7  1  0.834216  0.661653  0.248499  1
  Os  Os8  1  0.833330  0.172198  0.248106  1
  Ru  Ru9  1  0.993521  0.996999  0.498383  1
  Ru  Ru10  1  0.991871  0.995873  0.997938  1
  Ru  Ru11  1  0.345351  0.172085  0.249356  1
