# generated using pymatgen
data_Er4Tm(RuO6)2
_symmetry_space_group_name_H-M   'P 1'
_cell_length_a   6.79027287
_cell_length_b   6.79027376
_cell_length_c   7.38481866
_cell_angle_alpha   73.99413499
_cell_angle_beta   73.99413254
_cell_angle_gamma   49.28072883
_symmetry_Int_Tables_number   1
_chemical_formula_structural   Er4Tm(RuO6)2
_chemical_formula_sum   'Er4 Tm1 Ru2 O12'
_cell_volume   245.90728431
_cell_formula_units_Z   1
loop_
 _symmetry_equiv_pos_site_id
 _symmetry_equiv_pos_as_xyz
  1  'x, y, z'
loop_
 _atom_site_type_symbol
 _atom_site_label
 _atom_site_symmetry_multiplicity
 _atom_site_fract_x
 _atom_site_fract_y
 _atom_site_fract_z
 _atom_site_occupancy
  Er  Er0  1  0.801561  0.801561  0.358627  1
  Er  Er1  1  0.198439  0.198439  0.641373  1
  Er  Er2  1  0.187170  0.187170  0.173105  1
  Er  Er3  1  0.812830  0.812830  0.826895  1
  Tm  Tm4  1  0.500000  0.500000  0.500000  1
  Ru  Ru5  1  0.277929  0.722071  0.000000  1
  Ru  Ru6  1  0.722071  0.277929  0.000000  1
  O  O7  1  0.414521  0.920164  0.912989  1
  O  O8  1  0.079836  0.585479  0.087011  1
  O  O9  1  0.585479  0.079836  0.087011  1
  O  O10  1  0.920164  0.414521  0.912989  1
  O  O11  1  0.599195  0.097186  0.571453  1
  O  O12  1  0.902814  0.400805  0.428547  1
  O  O13  1  0.400805  0.902814  0.428547  1
  O  O14  1  0.001179  0.001179  0.822036  1
  O  O15  1  0.998821  0.998821  0.177964  1
  O  O16  1  0.498007  0.498007  0.796695  1
  O  O17  1  0.501993  0.501993  0.203305  1
  O  O18  1  0.097186  0.599195  0.571453  1
