# generated using pymatgen
data_CaNd2(MgIr)3
_symmetry_space_group_name_H-M   'P 1'
_cell_length_a   7.27467000
_cell_length_b   7.33881439
_cell_length_c   4.22516600
_cell_angle_alpha   90.00000000
_cell_angle_beta   90.00000000
_cell_angle_gamma   119.71128767
_symmetry_Int_Tables_number   1
_chemical_formula_structural   CaNd2(MgIr)3
_chemical_formula_sum   'Ca1 Nd2 Mg3 Ir3'
_cell_volume   195.91592814
_cell_formula_units_Z   1
loop_
 _symmetry_equiv_pos_site_id
 _symmetry_equiv_pos_as_xyz
  1  'x, y, z'
loop_
 _atom_site_type_symbol
 _atom_site_label
 _atom_site_symmetry_multiplicity
 _atom_site_fract_x
 _atom_site_fract_y
 _atom_site_fract_z
 _atom_site_occupancy
  Ca  Ca0  1  0.412572  0.000000  0.500000  1
  Nd  Nd1  1  0.999362  0.412149  0.500000  1
  Nd  Nd2  1  0.587213  0.587851  0.500000  1
  Mg  Mg3  1  0.754557  0.000000  0.000000  1
  Mg  Mg4  1  0.241335  0.237587  0.000000  1
  Mg  Mg5  1  0.003747  0.762413  0.000000  1
  Ir  Ir6  1  0.674285  0.342205  0.000000  1
  Ir  Ir7  1  0.332081  0.657795  0.000000  1
  Ir  Ir8  1  0.994849  0.000000  0.500000  1
