# generated using pymatgen
data_Tm2LuIn3HgRh2
_symmetry_space_group_name_H-M   'P 1'
_cell_length_a   7.78436060
_cell_length_b   7.82102722
_cell_length_c   3.73981300
_cell_angle_alpha   90.00000000
_cell_angle_beta   90.00000000
_cell_angle_gamma   120.05842501
_symmetry_Int_Tables_number   1
_chemical_formula_structural   Tm2LuIn3HgRh2
_chemical_formula_sum   'Tm2 Lu1 In3 Hg1 Rh2'
_cell_volume   197.06580822
_cell_formula_units_Z   1
loop_
 _symmetry_equiv_pos_site_id
 _symmetry_equiv_pos_as_xyz
  1  'x, y, z'
loop_
 _atom_site_type_symbol
 _atom_site_label
 _atom_site_symmetry_multiplicity
 _atom_site_fract_x
 _atom_site_fract_y
 _atom_site_fract_z
 _atom_site_occupancy
  Tm  Tm0  1  0.616132  0.587408  0.500000  1
  Tm  Tm1  1  0.412745  0.029156  0.500000  1
  Lu  Lu2  1  0.970139  0.383225  0.500000  1
  In  In3  1  0.259157  0.258408  0.000000  1
  In  In4  1  0.998654  0.739526  0.000000  1
  In  In5  1  0.742299  0.002872  0.000000  1
  Hg  Hg6  1  0.333031  0.666553  0.000000  1
  Rh  Rh7  1  0.999898  0.999575  0.500000  1
  Rh  Rh8  1  0.667943  0.333278  0.000000  1
