# generated using pymatgen
data_BaUPdS3
_symmetry_space_group_name_H-M   'P 1'
_cell_length_a   7.12610296
_cell_length_b   7.12610285
_cell_length_c   10.20987935
_cell_angle_alpha   89.97111057
_cell_angle_beta   90.02888758
_cell_angle_gamma   146.85567647
_symmetry_Int_Tables_number   1
_chemical_formula_structural   BaUPdS3
_chemical_formula_sum   'Ba2 U2 Pd2 S6'
_cell_volume   283.47411081
_cell_formula_units_Z   2
loop_
 _symmetry_equiv_pos_site_id
 _symmetry_equiv_pos_as_xyz
  1  'x, y, z'
loop_
 _atom_site_type_symbol
 _atom_site_label
 _atom_site_symmetry_multiplicity
 _atom_site_fract_x
 _atom_site_fract_y
 _atom_site_fract_z
 _atom_site_occupancy
  Ba  Ba0  1  0.257518  0.742480  0.249953  1
  Ba  Ba1  1  0.742480  0.257518  0.750047  1
  U  U2  1  0.000000  0.000000  0.000000  1
  U  U3  1  0.000000  0.000000  0.500000  1
  Pd  Pd4  1  0.534017  0.465981  0.249750  1
  Pd  Pd5  1  0.465981  0.534017  0.750250  1
  S  S6  1  0.632461  0.367537  0.050450  1
  S  S7  1  0.931511  0.068486  0.249753  1
  S  S8  1  0.632579  0.367419  0.449419  1
  S  S9  1  0.367419  0.632579  0.550581  1
  S  S10  1  0.068486  0.931511  0.750247  1
  S  S11  1  0.367537  0.632461  0.949550  1
