# generated using pymatgen
data_Tm5GaSnBi
_symmetry_space_group_name_H-M   'P 1'
_cell_length_a   8.78829413
_cell_length_b   8.74199254
_cell_length_c   6.44634900
_cell_angle_alpha   90.00000000
_cell_angle_beta   90.00000000
_cell_angle_gamma   119.82588183
_symmetry_Int_Tables_number   1
_chemical_formula_structural   Tm5GaSnBi
_chemical_formula_sum   'Tm10 Ga2 Sn2 Bi2'
_cell_volume   429.65391433
_cell_formula_units_Z   2
loop_
 _symmetry_equiv_pos_site_id
 _symmetry_equiv_pos_as_xyz
  1  'x, y, z'
loop_
 _atom_site_type_symbol
 _atom_site_label
 _atom_site_symmetry_multiplicity
 _atom_site_fract_x
 _atom_site_fract_y
 _atom_site_fract_z
 _atom_site_occupancy
  Tm  Tm0  1  0.689441  0.346837  0.004381  1
  Tm  Tm1  1  0.310559  0.657397  0.004381  1
  Tm  Tm2  1  0.310559  0.657397  0.495619  1
  Tm  Tm3  1  0.689441  0.346837  0.495619  1
  Tm  Tm4  1  0.775407  0.757502  0.750000  1
  Tm  Tm5  1  0.224593  0.982095  0.750000  1
  Tm  Tm6  1  0.000000  0.244925  0.750000  1
  Tm  Tm7  1  0.229849  0.241007  0.250000  1
  Tm  Tm8  1  0.770151  0.011158  0.250000  1
  Tm  Tm9  1  0.000000  0.758464  0.250000  1
  Ga  Ga10  1  0.000000  0.600207  0.750000  1
  Ga  Ga11  1  0.000000  0.395163  0.250000  1
  Sn  Sn12  1  0.602101  0.609026  0.250000  1
  Sn  Sn13  1  0.397899  0.006925  0.250000  1
  Bi  Bi14  1  0.396487  0.390773  0.750000  1
  Bi  Bi15  1  0.603513  0.994286  0.750000  1
