# generated using pymatgen
data_Tb2U(GaRh)3
_symmetry_space_group_name_H-M   'P 1'
_cell_length_a   7.21434937
_cell_length_b   7.31674161
_cell_length_c   3.79393500
_cell_angle_alpha   90.00000000
_cell_angle_beta   90.00000000
_cell_angle_gamma   120.47062134
_symmetry_Int_Tables_number   1
_chemical_formula_structural   Tb2U(GaRh)3
_chemical_formula_sum   'Tb2 U1 Ga3 Rh3'
_cell_volume   172.60614709
_cell_formula_units_Z   1
loop_
 _symmetry_equiv_pos_site_id
 _symmetry_equiv_pos_as_xyz
  1  'x, y, z'
loop_
 _atom_site_type_symbol
 _atom_site_label
 _atom_site_symmetry_multiplicity
 _atom_site_fract_x
 _atom_site_fract_y
 _atom_site_fract_z
 _atom_site_occupancy
  Tb  Tb0  1  0.406585  0.411547  0.500000  1
  Tb  Tb1  1  0.593415  0.004961  0.500000  1
  U  U2  1  0.000000  0.585795  0.500000  1
  Ga  Ga3  1  0.734564  0.747813  0.000000  1
  Ga  Ga4  1  0.265436  0.013249  0.000000  1
  Ga  Ga5  1  0.000000  0.235178  0.000000  1
  Rh  Rh6  1  0.706737  0.366877  0.000000  1
  Rh  Rh7  1  0.293263  0.660141  0.000000  1
  Rh  Rh8  1  0.000000  0.974440  0.500000  1
