# generated using pymatgen
data_Sc6GaTcNi
_symmetry_space_group_name_H-M   'P 1'
_cell_length_a   7.85774032
_cell_length_b   7.85774057
_cell_length_c   7.85774105
_cell_angle_alpha   113.70886349
_cell_angle_beta   111.05578100
_cell_angle_gamma   103.80592908
_symmetry_Int_Tables_number   1
_chemical_formula_structural   Sc6GaTcNi
_chemical_formula_sum   'Sc12 Ga2 Tc2 Ni2'
_cell_volume   370.55971779
_cell_formula_units_Z   2
loop_
 _symmetry_equiv_pos_site_id
 _symmetry_equiv_pos_as_xyz
  1  'x, y, z'
loop_
 _atom_site_type_symbol
 _atom_site_label
 _atom_site_symmetry_multiplicity
 _atom_site_fract_x
 _atom_site_fract_y
 _atom_site_fract_z
 _atom_site_occupancy
  Sc  Sc0  1  0.051946  0.745180  0.306765  1
  Sc  Sc1  1  0.948054  0.254820  0.693235  1
  Sc  Sc2  1  0.561586  0.254820  0.306765  1
  Sc  Sc3  1  0.438414  0.745180  0.693235  1
  Sc  Sc4  1  0.666681  0.853912  0.187230  1
  Sc  Sc5  1  0.333319  0.520549  0.187230  1
  Sc  Sc6  1  0.333319  0.146088  0.812770  1
  Sc  Sc7  1  0.666681  0.479451  0.812770  1
  Sc  Sc8  1  0.181373  0.214661  0.396034  1
  Sc  Sc9  1  0.818627  0.214661  0.033288  1
  Sc  Sc10  1  0.181373  0.785339  0.966712  1
  Sc  Sc11  1  0.818627  0.785339  0.603966  1
  Ga  Ga12  1  0.000000  0.500000  0.500000  1
  Ga  Ga13  1  0.500000  0.000000  0.500000  1
  Tc  Tc14  1  0.679925  0.500000  0.179925  1
  Tc  Tc15  1  0.320075  0.500000  0.820075  1
  Ni  Ni16  1  0.875408  0.875408  0.000000  1
  Ni  Ni17  1  0.124592  0.124592  0.000000  1
