# generated using pymatgen
data_PrEuB2(RhN)2
_symmetry_space_group_name_H-M   'P 1'
_cell_length_a   3.82986500
_cell_length_b   3.82986500
_cell_length_c   7.58701000
_cell_angle_alpha   90.00000000
_cell_angle_beta   90.00000000
_cell_angle_gamma   90.00000000
_symmetry_Int_Tables_number   1
_chemical_formula_structural   PrEuB2(RhN)2
_chemical_formula_sum   'Pr1 Eu1 B2 Rh2 N2'
_cell_volume   111.28524540
_cell_formula_units_Z   1
loop_
 _symmetry_equiv_pos_site_id
 _symmetry_equiv_pos_as_xyz
  1  'x, y, z'
loop_
 _atom_site_type_symbol
 _atom_site_label
 _atom_site_symmetry_multiplicity
 _atom_site_fract_x
 _atom_site_fract_y
 _atom_site_fract_z
 _atom_site_occupancy
  Pr  Pr0  1  0.500000  0.000000  0.168748  1
  Eu  Eu1  1  0.000000  0.500000  0.832875  1
  B  B2  1  0.000000  0.500000  0.349053  1
  B  B3  1  0.500000  0.000000  0.651820  1
  Rh  Rh4  1  0.000000  0.000000  0.499636  1
  Rh  Rh5  1  0.500000  0.500000  0.499636  1
  N  N6  1  0.000000  0.500000  0.156462  1
  N  N7  1  0.500000  0.000000  0.841773  1
