# generated using pymatgen
data_Sc4FeRu7
_symmetry_space_group_name_H-M   'P 1'
_cell_length_a   5.18361900
_cell_length_b   5.07249111
_cell_length_c   8.62566600
_cell_angle_alpha   90.00000000
_cell_angle_beta   90.00000000
_cell_angle_gamma   120.72740106
_symmetry_Int_Tables_number   1
_chemical_formula_structural   Sc4FeRu7
_chemical_formula_sum   'Sc4 Fe1 Ru7'
_cell_volume   194.96087259
_cell_formula_units_Z   1
loop_
 _symmetry_equiv_pos_site_id
 _symmetry_equiv_pos_as_xyz
  1  'x, y, z'
loop_
 _atom_site_type_symbol
 _atom_site_label
 _atom_site_symmetry_multiplicity
 _atom_site_fract_x
 _atom_site_fract_y
 _atom_site_fract_z
 _atom_site_occupancy
  Sc  Sc0  1  0.331813  0.663628  0.433774  1
  Sc  Sc1  1  0.667677  0.335354  0.568575  1
  Sc  Sc2  1  0.667677  0.335354  0.931425  1
  Sc  Sc3  1  0.331813  0.663628  0.066226  1
  Fe  Fe4  1  0.167797  0.335594  0.750000  1
  Ru  Ru5  1  0.171783  0.822692  0.750000  1
  Ru  Ru6  1  0.344474  0.171486  0.250000  1
  Ru  Ru7  1  0.830190  0.660381  0.250000  1
  Ru  Ru8  1  0.650909  0.822692  0.750000  1
  Ru  Ru9  1  0.004426  0.008853  0.997565  1
  Ru  Ru10  1  0.827012  0.171486  0.250000  1
  Ru  Ru11  1  0.004426  0.008853  0.502435  1
