# generated using pymatgen
data_LiHf2(AsRu)3
_symmetry_space_group_name_H-M   'P 1'
_cell_length_a   7.64790628
_cell_length_b   7.64790693
_cell_length_c   7.64790733
_cell_angle_alpha   128.21213566
_cell_angle_beta   121.33840982
_cell_angle_gamma   82.02930164
_symmetry_Int_Tables_number   1
_chemical_formula_structural   LiHf2(AsRu)3
_chemical_formula_sum   'Li2 Hf4 As6 Ru6'
_cell_volume   288.81837681
_cell_formula_units_Z   2
loop_
 _symmetry_equiv_pos_site_id
 _symmetry_equiv_pos_as_xyz
  1  'x, y, z'
loop_
 _atom_site_type_symbol
 _atom_site_label
 _atom_site_symmetry_multiplicity
 _atom_site_fract_x
 _atom_site_fract_y
 _atom_site_fract_z
 _atom_site_occupancy
  Li  Li0  1  0.474218  0.709143  0.734925  1
  Li  Li1  1  0.525782  0.260707  0.234925  1
  Hf  Hf2  1  0.751067  0.835547  0.584480  1
  Hf  Hf3  1  0.248933  0.833414  0.084480  1
  Hf  Hf4  1  0.053325  0.256458  0.703133  1
  Hf  Hf5  1  0.946675  0.649808  0.203133  1
  As  As6  1  0.287957  0.287582  0.499626  1
  As  As7  1  0.712043  0.211669  0.999626  1
  As  As8  1  0.333112  0.580947  0.256278  1
  As  As9  1  0.666888  0.923166  0.247835  1
  As  As10  1  0.175331  0.923166  0.756278  1
  As  As11  1  0.824669  0.580947  0.747835  1
  Ru  Ru12  1  0.500000  0.497811  0.997811  1
  Ru  Ru13  1  0.000000  0.497811  0.497811  1
  Ru  Ru14  1  0.081190  0.246986  0.089916  1
  Ru  Ru15  1  0.918810  0.008725  0.165795  1
  Ru  Ru16  1  0.342930  0.008725  0.589916  1
  Ru  Ru17  1  0.657070  0.246986  0.665795  1
