# generated using pymatgen
data_BaPt4PbO8
_symmetry_space_group_name_H-M   'P 1'
_cell_length_a   5.92665851
_cell_length_b   6.26372022
_cell_length_c   6.89301711
_cell_angle_alpha   116.25924506
_cell_angle_beta   96.16077850
_cell_angle_gamma   110.22164046
_symmetry_Int_Tables_number   1
_chemical_formula_structural   BaPt4PbO8
_chemical_formula_sum   'Ba1 Pt4 Pb1 O8'
_cell_volume   204.78082904
_cell_formula_units_Z   1
loop_
 _symmetry_equiv_pos_site_id
 _symmetry_equiv_pos_as_xyz
  1  'x, y, z'
loop_
 _atom_site_type_symbol
 _atom_site_label
 _atom_site_symmetry_multiplicity
 _atom_site_fract_x
 _atom_site_fract_y
 _atom_site_fract_z
 _atom_site_occupancy
  Ba  Ba0  1  0.871443  0.250832  0.125658  1
  Pt  Pt1  1  0.499273  0.499638  0.502740  1
  Pt  Pt2  1  0.998909  0.000032  0.503182  1
  Pt  Pt3  1  0.499452  0.504244  0.002323  1
  Pt  Pt4  1  0.496069  0.000529  0.500695  1
  Pb  Pb5  1  0.142956  0.741568  0.836352  1
  O  O6  1  0.513230  0.862143  0.719088  1
  O  O7  1  0.474416  0.135326  0.284453  1
  O  O8  1  0.836588  0.815797  0.166399  1
  O  O9  1  0.165158  0.179674  0.837835  1
  O  O10  1  0.862257  0.658125  0.500694  1
  O  O11  1  0.140881  0.349272  0.516069  1
  O  O12  1  0.376060  0.603835  0.278152  1
  O  O13  1  0.623308  0.398985  0.726360  1
