# generated using pymatgen
data_Tb4Co15Mo4P12Ru
_symmetry_space_group_name_H-M   'P 1'
_cell_length_a   3.72683400
_cell_length_b   10.48362702
_cell_length_c   11.92262125
_cell_angle_alpha   90.15211522
_cell_angle_beta   90.00000000
_cell_angle_gamma   90.00000000
_symmetry_Int_Tables_number   1
_chemical_formula_structural   Tb4Co15Mo4P12Ru
_chemical_formula_sum   'Tb4 Co15 Mo4 P12 Ru1'
_cell_volume   465.82396490
_cell_formula_units_Z   1
loop_
 _symmetry_equiv_pos_site_id
 _symmetry_equiv_pos_as_xyz
  1  'x, y, z'
loop_
 _atom_site_type_symbol
 _atom_site_label
 _atom_site_symmetry_multiplicity
 _atom_site_fract_x
 _atom_site_fract_y
 _atom_site_fract_z
 _atom_site_occupancy
  Tb  Tb0  1  0.250000  0.584239  0.705573  1
  Tb  Tb1  1  0.250000  0.917005  0.204528  1
  Tb  Tb2  1  0.750000  0.416567  0.292031  1
  Tb  Tb3  1  0.750000  0.082632  0.795458  1
  Co  Co4  1  0.250000  0.093365  0.989403  1
  Co  Co5  1  0.750000  0.600397  0.513258  1
  Co  Co6  1  0.750000  0.906199  0.010584  1
  Co  Co7  1  0.250000  0.220733  0.176066  1
  Co  Co8  1  0.250000  0.274463  0.681170  1
  Co  Co9  1  0.750000  0.778851  0.823184  1
  Co  Co10  1  0.750000  0.722567  0.321064  1
  Co  Co11  1  0.250000  0.886694  0.700584  1
  Co  Co12  1  0.250000  0.614722  0.198034  1
  Co  Co13  1  0.750000  0.112654  0.299558  1
  Co  Co14  1  0.750000  0.387142  0.800976  1
  Co  Co15  1  0.250000  0.465742  0.933552  1
  Co  Co16  1  0.250000  0.033210  0.433122  1
  Co  Co17  1  0.750000  0.534790  0.065758  1
  Co  Co18  1  0.750000  0.964050  0.566677  1
  Mo  Mo19  1  0.250000  0.708887  0.986727  1
  Mo  Mo20  1  0.250000  0.792315  0.487301  1
  Mo  Mo21  1  0.750000  0.291292  0.012651  1
  Mo  Mo22  1  0.750000  0.205025  0.514859  1
  P  P23  1  0.250000  0.420402  0.114036  1
  P  P24  1  0.250000  0.078471  0.614708  1
  P  P25  1  0.750000  0.580104  0.885415  1
  P  P26  1  0.750000  0.920027  0.385250  1
  P  P27  1  0.250000  0.269617  0.866120  1
  P  P28  1  0.250000  0.227004  0.363193  1
  P  P29  1  0.750000  0.730229  0.134488  1
  P  P30  1  0.750000  0.770265  0.635702  1
  P  P31  1  0.250000  0.600139  0.388150  1
  P  P32  1  0.250000  0.904131  0.891395  1
  P  P33  1  0.750000  0.402901  0.611941  1
  P  P34  1  0.750000  0.095877  0.108300  1
  Ru  Ru35  1  0.250000  0.407292  0.489177  1
