# generated using pymatgen
data_Ac(Al2Ir)2
_symmetry_space_group_name_H-M   'P 1'
_cell_length_a   4.21268800
_cell_length_b   7.35792300
_cell_length_c   17.46060000
_cell_angle_alpha   90.00000000
_cell_angle_beta   90.00000000
_cell_angle_gamma   90.00000000
_symmetry_Int_Tables_number   1
_chemical_formula_structural   Ac(Al2Ir)2
_chemical_formula_sum   'Ac4 Al16 Ir8'
_cell_volume   541.21982635
_cell_formula_units_Z   4
loop_
 _symmetry_equiv_pos_site_id
 _symmetry_equiv_pos_as_xyz
  1  'x, y, z'
loop_
 _atom_site_type_symbol
 _atom_site_label
 _atom_site_symmetry_multiplicity
 _atom_site_fract_x
 _atom_site_fract_y
 _atom_site_fract_z
 _atom_site_occupancy
  Ac  Ac0  1  0.250000  0.973642  0.887327  1
  Ac  Ac1  1  0.250000  0.526358  0.387327  1
  Ac  Ac2  1  0.750000  0.026358  0.112673  1
  Ac  Ac3  1  0.750000  0.473642  0.612673  1
  Al  Al4  1  0.250000  0.353476  0.188782  1
  Al  Al5  1  0.250000  0.146524  0.688782  1
  Al  Al6  1  0.750000  0.646524  0.811218  1
  Al  Al7  1  0.750000  0.853476  0.311218  1
  Al  Al8  1  0.250000  0.730781  0.206841  1
  Al  Al9  1  0.250000  0.769219  0.706841  1
  Al  Al10  1  0.750000  0.269219  0.793159  1
  Al  Al11  1  0.750000  0.230781  0.293159  1
  Al  Al12  1  0.250000  0.706175  0.042101  1
  Al  Al13  1  0.250000  0.793825  0.542101  1
  Al  Al14  1  0.750000  0.293825  0.957899  1
  Al  Al15  1  0.750000  0.206175  0.457899  1
  Al  Al16  1  0.250000  0.500906  0.900952  1
  Al  Al17  1  0.250000  0.999094  0.400952  1
  Al  Al18  1  0.750000  0.499094  0.099048  1
  Al  Al19  1  0.750000  0.000906  0.599048  1
  Ir  Ir20  1  0.250000  0.357107  0.035261  1
  Ir  Ir21  1  0.250000  0.142893  0.535261  1
  Ir  Ir22  1  0.750000  0.642893  0.964739  1
  Ir  Ir23  1  0.750000  0.857107  0.464739  1
  Ir  Ir24  1  0.250000  0.046888  0.261437  1
  Ir  Ir25  1  0.250000  0.453112  0.761437  1
  Ir  Ir26  1  0.750000  0.953112  0.738563  1
  Ir  Ir27  1  0.750000  0.546888  0.238563  1
