# generated using pymatgen
data_Er7TmTi9Si16W3
_symmetry_space_group_name_H-M   'P 1'
_cell_length_a   6.97033407
_cell_length_b   6.97033469
_cell_length_c   12.81802400
_cell_angle_alpha   90.00796513
_cell_angle_beta   89.99203487
_cell_angle_gamma   89.96089060
_symmetry_Int_Tables_number   1
_chemical_formula_structural   Er7TmTi9Si16W3
_chemical_formula_sum   'Er7 Tm1 Ti9 Si16 W3'
_cell_volume   622.77073443
_cell_formula_units_Z   1
loop_
 _symmetry_equiv_pos_site_id
 _symmetry_equiv_pos_as_xyz
  1  'x, y, z'
loop_
 _atom_site_type_symbol
 _atom_site_label
 _atom_site_symmetry_multiplicity
 _atom_site_fract_x
 _atom_site_fract_y
 _atom_site_fract_z
 _atom_site_occupancy
  Er  Er0  1  0.498674  0.842231  0.717971  1
  Er  Er1  1  0.500324  0.158203  0.216693  1
  Er  Er2  1  0.842231  0.498674  0.282029  1
  Er  Er3  1  0.158203  0.500324  0.783307  1
  Er  Er4  1  0.658872  0.999566  0.966999  1
  Er  Er5  1  0.002016  0.340839  0.533376  1
  Er  Er6  1  0.999566  0.658872  0.033001  1
  Tm  Tm7  1  0.340839  0.002016  0.466624  1
  Ti  Ti8  1  0.672498  0.672498  0.500000  1
  Ti  Ti9  1  0.151865  0.008385  0.875578  1
  Ti  Ti10  1  0.491490  0.652213  0.124795  1
  Ti  Ti11  1  0.507352  0.347131  0.626622  1
  Ti  Ti12  1  0.652213  0.491490  0.875205  1
  Ti  Ti13  1  0.347131  0.507352  0.373378  1
  Ti  Ti14  1  0.849208  0.992315  0.374316  1
  Ti  Ti15  1  0.008385  0.151865  0.124422  1
  Ti  Ti16  1  0.992315  0.849208  0.625684  1
  Si  Si17  1  0.202308  0.131325  0.683594  1
  Si  Si18  1  0.368308  0.701465  0.933690  1
  Si  Si19  1  0.631623  0.297036  0.433659  1
  Si  Si20  1  0.701465  0.368308  0.066310  1
  Si  Si21  1  0.297036  0.631623  0.566341  1
  Si  Si22  1  0.798198  0.868491  0.183996  1
  Si  Si23  1  0.131325  0.202308  0.316406  1
  Si  Si24  1  0.868491  0.798198  0.816004  1
  Si  Si25  1  0.292250  0.953423  0.065099  1
  Si  Si26  1  0.545790  0.791535  0.314969  1
  Si  Si27  1  0.453161  0.208079  0.815209  1
  Si  Si28  1  0.791535  0.545790  0.685031  1
  Si  Si29  1  0.208079  0.453161  0.184791  1
  Si  Si30  1  0.707501  0.048002  0.565843  1
  Si  Si31  1  0.953423  0.292250  0.934901  1
  Si  Si32  1  0.048002  0.707501  0.434157  1
  W  W33  1  0.327249  0.327249  0.000000  1
  W  W34  1  0.173461  0.827614  0.249349  1
  W  W35  1  0.827614  0.173461  0.750651  1
