# generated using pymatgen
data_Sr8Cd4Si11Sn
_symmetry_space_group_name_H-M   'P 1'
_cell_length_a   12.10365627
_cell_length_b   10.36415622
_cell_length_c   8.65578773
_cell_angle_alpha   78.45158569
_cell_angle_beta   57.10485563
_cell_angle_gamma   45.20935098
_symmetry_Int_Tables_number   1
_chemical_formula_structural   Sr8Cd4Si11Sn
_chemical_formula_sum   'Sr8 Cd4 Si11 Sn1'
_cell_volume   615.97068108
_cell_formula_units_Z   1
loop_
 _symmetry_equiv_pos_site_id
 _symmetry_equiv_pos_as_xyz
  1  'x, y, z'
loop_
 _atom_site_type_symbol
 _atom_site_label
 _atom_site_symmetry_multiplicity
 _atom_site_fract_x
 _atom_site_fract_y
 _atom_site_fract_z
 _atom_site_occupancy
  Sr  Sr0  1  0.123512  0.116513  0.877639  1
  Sr  Sr1  1  0.876410  0.879090  0.116758  1
  Sr  Sr2  1  0.130115  0.124427  0.371009  1
  Sr  Sr3  1  0.383837  0.368874  0.117245  1
  Sr  Sr4  1  0.620707  0.622716  0.378606  1
  Sr  Sr5  1  0.379031  0.376471  0.620237  1
  Sr  Sr6  1  0.623544  0.630830  0.878272  1
  Sr  Sr7  1  0.870461  0.880524  0.633919  1
  Cd  Cd8  1  0.091024  0.404983  0.062963  1
  Cd  Cd9  1  0.834804  0.170638  0.828220  1
  Cd  Cd10  1  0.165358  0.830948  0.171206  1
  Cd  Cd11  1  0.419564  0.084657  0.415435  1
  Si  Si12  1  0.065564  0.411972  0.611668  1
  Si  Si13  1  0.427198  0.069368  0.916829  1
  Si  Si14  1  0.598776  0.916265  0.060175  1
  Si  Si15  1  0.333722  0.649660  0.823852  1
  Si  Si16  1  0.650182  0.334112  0.191613  1
  Si  Si17  1  0.822507  0.183186  0.336384  1
  Si  Si18  1  0.184074  0.822779  0.656613  1
  Si  Si19  1  0.903463  0.591556  0.918284  1
  Si  Si20  1  0.563009  0.919194  0.608739  1
  Si  Si21  1  0.346164  0.663325  0.332796  1
  Si  Si22  1  0.663536  0.346858  0.656415  1
  Sn  Sn23  1  0.923442  0.601061  0.415117  1
