# generated using pymatgen
data_Zr10Sn3Ge2Bi2Sb
_symmetry_space_group_name_H-M   'P 1'
_cell_length_a   8.77483528
_cell_length_b   8.76662429
_cell_length_c   5.92924300
_cell_angle_alpha   90.00000000
_cell_angle_beta   90.00000000
_cell_angle_gamma   119.96904127
_symmetry_Int_Tables_number   1
_chemical_formula_structural   Zr10Sn3Ge2Bi2Sb
_chemical_formula_sum   'Zr10 Sn3 Ge2 Bi2 Sb1'
_cell_volume   395.12694498
_cell_formula_units_Z   1
loop_
 _symmetry_equiv_pos_site_id
 _symmetry_equiv_pos_as_xyz
  1  'x, y, z'
loop_
 _atom_site_type_symbol
 _atom_site_label
 _atom_site_symmetry_multiplicity
 _atom_site_fract_x
 _atom_site_fract_y
 _atom_site_fract_z
 _atom_site_occupancy
  Zr  Zr0  1  0.670096  0.333983  0.995708  1
  Zr  Zr1  1  0.329904  0.663888  0.995708  1
  Zr  Zr2  1  0.329904  0.663888  0.504292  1
  Zr  Zr3  1  0.670096  0.333983  0.504292  1
  Zr  Zr4  1  0.734967  0.734665  0.750000  1
  Zr  Zr5  1  0.265033  0.999698  0.750000  1
  Zr  Zr6  1  0.000000  0.266924  0.750000  1
  Zr  Zr7  1  0.255156  0.260510  0.250000  1
  Zr  Zr8  1  0.744844  0.005354  0.250000  1
  Zr  Zr9  1  0.000000  0.737827  0.250000  1
  Sn  Sn10  1  0.390630  0.389423  0.750000  1
  Sn  Sn11  1  0.609370  0.998793  0.750000  1
  Sn  Sn12  1  0.000000  0.610381  0.750000  1
  Ge  Ge13  1  0.000000  0.999264  0.995182  1
  Ge  Ge14  1  0.000000  0.999264  0.504818  1
  Bi  Bi15  1  0.604042  0.604412  0.250000  1
  Bi  Bi16  1  0.395958  0.000370  0.250000  1
  Sb  Sb17  1  0.000000  0.397375  0.250000  1
