# generated using pymatgen
data_Hf3Bi4MoO14
_symmetry_space_group_name_H-M   'P 1'
_cell_length_a   7.67148000
_cell_length_b   7.72023708
_cell_length_c   7.75394694
_cell_angle_alpha   59.61946073
_cell_angle_beta   59.89076062
_cell_angle_gamma   89.71363326
_symmetry_Int_Tables_number   1
_chemical_formula_structural   Hf3Bi4MoO14
_chemical_formula_sum   'Hf3 Bi4 Mo1 O14'
_cell_volume   323.12623824
_cell_formula_units_Z   1
loop_
 _symmetry_equiv_pos_site_id
 _symmetry_equiv_pos_as_xyz
  1  'x, y, z'
loop_
 _atom_site_type_symbol
 _atom_site_label
 _atom_site_symmetry_multiplicity
 _atom_site_fract_x
 _atom_site_fract_y
 _atom_site_fract_z
 _atom_site_occupancy
  Hf  Hf0  1  0.118834  0.879055  0.761612  1
  Hf  Hf1  1  0.124341  0.877051  0.253435  1
  Hf  Hf2  1  0.125275  0.378416  0.747504  1
  Bi  Bi3  1  0.651199  0.444814  0.678417  1
  Bi  Bi4  1  0.126126  0.397413  0.186108  1
  Bi  Bi5  1  0.663874  0.878589  0.766134  1
  Bi  Bi6  1  0.592237  0.313462  0.277019  1
  Mo  Mo7  1  0.617533  0.882503  0.245939  1
  O  O8  1  0.797276  0.191769  0.033495  1
  O  O9  1  0.515516  0.509919  0.961799  1
  O  O10  1  0.215862  0.199716  0.614160  1
  O  O11  1  0.443698  0.926659  0.112051  1
  O  O12  1  0.185128  0.202966  0.022119  1
  O  O13  1  0.437101  0.968024  0.483995  1
  O  O14  1  0.450141  0.558730  0.513971  1
  O  O15  1  0.024880  0.938050  0.524365  1
  O  O16  1  0.759710  0.250158  0.465172  1
  O  O17  1  0.023056  0.552635  0.535207  1
  O  O18  1  0.794764  0.819408  0.985654  1
  O  O19  1  0.067645  0.555669  0.898723  1
  O  O20  1  0.790967  0.795725  0.403691  1
  O  O21  1  0.167839  0.786269  0.029430  1
