# generated using pymatgen
data_Li2Ge(IO3)6
_symmetry_space_group_name_H-M   'P 1'
_cell_length_a   5.33635400
_cell_length_b   9.34341720
_cell_length_c   9.34340200
_cell_angle_alpha   60.00025567
_cell_angle_beta   90.00001368
_cell_angle_gamma   89.99988310
_symmetry_Int_Tables_number   1
_chemical_formula_structural   Li2Ge(IO3)6
_chemical_formula_sum   'Li2 Ge1 I6 O18'
_cell_volume   403.44762061
_cell_formula_units_Z   1
loop_
 _symmetry_equiv_pos_site_id
 _symmetry_equiv_pos_as_xyz
  1  'x, y, z'
loop_
 _atom_site_type_symbol
 _atom_site_label
 _atom_site_symmetry_multiplicity
 _atom_site_fract_x
 _atom_site_fract_y
 _atom_site_fract_z
 _atom_site_occupancy
  Li  Li0  1  0.740117  0.333339  0.333330  1
  Li  Li1  1  0.215500  0.666661  0.666669  1
  Ge  Ge2  1  0.665222  0.000000  0.000000  1
  I  I3  1  0.785610  0.965648  0.672801  1
  I  I4  1  0.785605  0.361548  0.965648  1
  I  I5  1  0.785607  0.672805  0.361550  1
  I  I6  1  0.301568  0.026594  0.307935  1
  I  I7  1  0.301568  0.665474  0.026595  1
  I  I8  1  0.301574  0.307933  0.665470  1
  O  O9  1  0.499276  0.236939  0.554884  1
  O  O10  1  0.499272  0.208177  0.236940  1
  O  O11  1  0.499273  0.554890  0.208178  1
  O  O12  1  0.000834  0.762884  0.446543  1
  O  O13  1  0.000829  0.790571  0.762886  1
  O  O14  1  0.000827  0.446540  0.790573  1
  O  O15  1  0.876734  0.049200  0.815920  1
  O  O16  1  0.876730  0.134878  0.049204  1
  O  O17  1  0.876734  0.815920  0.134880  1
  O  O18  1  0.453688  0.927482  0.192495  1
  O  O19  1  0.453691  0.880024  0.927479  1
  O  O20  1  0.453691  0.192497  0.880021  1
  O  O21  1  0.964297  0.114894  0.494094  1
  O  O22  1  0.964279  0.391012  0.114895  1
  O  O23  1  0.964284  0.494095  0.391011  1
  O  O24  1  0.447269  0.883644  0.503558  1
  O  O25  1  0.447259  0.612792  0.883648  1
  O  O26  1  0.447263  0.503560  0.612795  1
