# generated using pymatgen
data_Dy2Lu4Co17P12W
_symmetry_space_group_name_H-M   'P 1'
_cell_length_a   3.68245200
_cell_length_b   10.49068500
_cell_length_c   12.15610700
_cell_angle_alpha   90.00000000
_cell_angle_beta   90.00000000
_cell_angle_gamma   90.00000000
_symmetry_Int_Tables_number   1
_chemical_formula_structural   Dy2Lu4Co17P12W
_chemical_formula_sum   'Dy2 Lu4 Co17 P12 W1'
_cell_volume   469.60796634
_cell_formula_units_Z   1
loop_
 _symmetry_equiv_pos_site_id
 _symmetry_equiv_pos_as_xyz
  1  'x, y, z'
loop_
 _atom_site_type_symbol
 _atom_site_label
 _atom_site_symmetry_multiplicity
 _atom_site_fract_x
 _atom_site_fract_y
 _atom_site_fract_z
 _atom_site_occupancy
  Dy  Dy0  1  0.000000  0.500000  0.526267  1
  Dy  Dy1  1  0.500000  0.000000  0.476622  1
  Lu  Lu2  1  0.500000  0.819209  0.206808  1
  Lu  Lu3  1  0.500000  0.180791  0.206808  1
  Lu  Lu4  1  0.000000  0.681997  0.795829  1
  Lu  Lu5  1  0.000000  0.318003  0.795829  1
  Co  Co6  1  0.000000  0.000000  0.838850  1
  Co  Co7  1  0.500000  0.500000  0.702067  1
  Co  Co8  1  0.000000  0.000000  0.296103  1
  Co  Co9  1  0.000000  0.500000  0.986275  1
  Co  Co10  1  0.500000  0.000000  0.014707  1
  Co  Co11  1  0.500000  0.331476  0.989674  1
  Co  Co12  1  0.500000  0.668524  0.989674  1
  Co  Co13  1  0.000000  0.165719  0.005963  1
  Co  Co14  1  0.000000  0.834281  0.005963  1
  Co  Co15  1  0.500000  0.295346  0.431862  1
  Co  Co16  1  0.500000  0.704654  0.431862  1
  Co  Co17  1  0.000000  0.202527  0.569707  1
  Co  Co18  1  0.000000  0.797473  0.569707  1
  Co  Co19  1  0.500000  0.878145  0.708413  1
  Co  Co20  1  0.500000  0.121855  0.708413  1
  Co  Co21  1  0.000000  0.623229  0.292208  1
  Co  Co22  1  0.000000  0.376771  0.292208  1
  P  P23  1  0.500000  0.500000  0.879063  1
  P  P24  1  0.000000  0.000000  0.118465  1
  P  P25  1  0.500000  0.500000  0.352098  1
  P  P26  1  0.000000  0.000000  0.654887  1
  P  P27  1  0.500000  0.310868  0.617915  1
  P  P28  1  0.500000  0.689132  0.617915  1
  P  P29  1  0.000000  0.188009  0.383910  1
  P  P30  1  0.000000  0.811991  0.383910  1
  P  P31  1  0.500000  0.849206  0.890001  1
  P  P32  1  0.500000  0.150794  0.890001  1
  P  P33  1  0.000000  0.658676  0.106489  1
  P  P34  1  0.000000  0.341324  0.106489  1
  W  W35  1  0.500000  0.500000  0.157040  1
