# generated using pymatgen
data_YSc3(MoN2)4
_symmetry_space_group_name_H-M   'P 1'
_cell_length_a   3.10158100
_cell_length_b   5.57086635
_cell_length_c   10.38485555
_cell_angle_alpha   90.30895040
_cell_angle_beta   90.00000000
_cell_angle_gamma   90.00000000
_symmetry_Int_Tables_number   1
_chemical_formula_structural   YSc3(MoN2)4
_chemical_formula_sum   'Y1 Sc3 Mo4 N8'
_cell_volume   179.43204770
_cell_formula_units_Z   1
loop_
 _symmetry_equiv_pos_site_id
 _symmetry_equiv_pos_as_xyz
  1  'x, y, z'
loop_
 _atom_site_type_symbol
 _atom_site_label
 _atom_site_symmetry_multiplicity
 _atom_site_fract_x
 _atom_site_fract_y
 _atom_site_fract_z
 _atom_site_occupancy
  Y  Y0  1  0.750000  0.418758  0.353393  1
  Sc  Sc1  1  0.250000  0.077384  0.854036  1
  Sc  Sc2  1  0.250000  0.576549  0.649873  1
  Sc  Sc3  1  0.750000  0.922192  0.145007  1
  Mo  Mo4  1  0.250000  0.430474  0.091194  1
  Mo  Mo5  1  0.250000  0.926240  0.405599  1
  Mo  Mo6  1  0.750000  0.572276  0.904417  1
  Mo  Mo7  1  0.750000  0.069186  0.597400  1
  N  N8  1  0.250000  0.154768  0.242742  1
  N  N9  1  0.250000  0.672153  0.246909  1
  N  N10  1  0.750000  0.839277  0.755311  1
  N  N11  1  0.750000  0.340617  0.746997  1
  N  N12  1  0.250000  0.773315  0.994813  1
  N  N13  1  0.250000  0.266929  0.510156  1
  N  N14  1  0.750000  0.227873  0.000752  1
  N  N15  1  0.750000  0.732011  0.501401  1
