# generated using pymatgen
data_ErVP3Rh4
_symmetry_space_group_name_H-M   'P 1'
_cell_length_a   3.91357000
_cell_length_b   7.22758812
_cell_length_c   9.51850532
_cell_angle_alpha   79.19707214
_cell_angle_beta   90.00000000
_cell_angle_gamma   90.00000000
_symmetry_Int_Tables_number   1
_chemical_formula_structural   ErVP3Rh4
_chemical_formula_sum   'Er2 V2 P6 Rh8'
_cell_volume   264.46580841
_cell_formula_units_Z   2
loop_
 _symmetry_equiv_pos_site_id
 _symmetry_equiv_pos_as_xyz
  1  'x, y, z'
loop_
 _atom_site_type_symbol
 _atom_site_label
 _atom_site_symmetry_multiplicity
 _atom_site_fract_x
 _atom_site_fract_y
 _atom_site_fract_z
 _atom_site_occupancy
  Er  Er0  1  0.250000  0.806982  0.783868  1
  Er  Er1  1  0.750000  0.193024  0.216148  1
  V  V2  1  0.250000  0.310395  0.722625  1
  V  V3  1  0.750000  0.689613  0.277386  1
  P  P4  1  0.250000  0.256420  0.974244  1
  P  P5  1  0.750000  0.743601  0.025747  1
  P  P6  1  0.250000  0.430653  0.335782  1
  P  P7  1  0.750000  0.569343  0.664219  1
  P  P8  1  0.250000  0.900076  0.338529  1
  P  P9  1  0.750000  0.099907  0.661462  1
  Rh  Rh10  1  0.250000  0.529539  0.097178  1
  Rh  Rh11  1  0.750000  0.470459  0.902822  1
  Rh  Rh12  1  0.250000  0.926324  0.097328  1
  Rh  Rh13  1  0.750000  0.073695  0.902655  1
  Rh  Rh14  1  0.250000  0.623620  0.502573  1
  Rh  Rh15  1  0.750000  0.376358  0.497451  1
  Rh  Rh16  1  0.250000  0.130787  0.473856  1
  Rh  Rh17  1  0.750000  0.869206  0.526128  1
