# generated using pymatgen
data_Ac2Zn5Sn
_symmetry_space_group_name_H-M   'P 1'
_cell_length_a   8.88985832
_cell_length_b   8.88985933
_cell_length_c   9.32734200
_cell_angle_alpha   90.00000000
_cell_angle_beta   90.00000000
_cell_angle_gamma   149.21437370
_symmetry_Int_Tables_number   1
_chemical_formula_structural   Ac2Zn5Sn
_chemical_formula_sum   'Ac4 Zn10 Sn2'
_cell_volume   377.28638158
_cell_formula_units_Z   2
loop_
 _symmetry_equiv_pos_site_id
 _symmetry_equiv_pos_as_xyz
  1  'x, y, z'
loop_
 _atom_site_type_symbol
 _atom_site_label
 _atom_site_symmetry_multiplicity
 _atom_site_fract_x
 _atom_site_fract_y
 _atom_site_fract_z
 _atom_site_occupancy
  Ac  Ac0  1  0.207889  0.792111  0.250000  1
  Ac  Ac1  1  0.792111  0.207889  0.750000  1
  Ac  Ac2  1  0.000000  0.000000  0.500000  1
  Ac  Ac3  1  0.000000  0.000000  0.000000  1
  Zn  Zn4  1  0.814517  0.185483  0.390533  1
  Zn  Zn5  1  0.185483  0.814517  0.609467  1
  Zn  Zn6  1  0.814517  0.185483  0.109467  1
  Zn  Zn7  1  0.185483  0.814517  0.890533  1
  Zn  Zn8  1  0.656321  0.343679  0.487575  1
  Zn  Zn9  1  0.343679  0.656321  0.512425  1
  Zn  Zn10  1  0.656321  0.343679  0.012425  1
  Zn  Zn11  1  0.343679  0.656321  0.987575  1
  Zn  Zn12  1  0.398805  0.601195  0.250000  1
  Zn  Zn13  1  0.601195  0.398805  0.750000  1
  Sn  Sn14  1  0.557784  0.442216  0.250000  1
  Sn  Sn15  1  0.442216  0.557784  0.750000  1
