# generated using pymatgen
data_Ho2Be2Ag(PPd5)4
_symmetry_space_group_name_H-M   'P 1'
_cell_length_a   8.61507568
_cell_length_b   8.55215723
_cell_length_c   8.55215693
_cell_angle_alpha   60.48734093
_cell_angle_beta   59.75633217
_cell_angle_gamma   59.75633697
_symmetry_Int_Tables_number   1
_chemical_formula_structural   Ho2Be2Ag(PPd5)4
_chemical_formula_sum   'Ho2 Be2 Ag1 P4 Pd20'
_cell_volume   445.50040749
_cell_formula_units_Z   1
loop_
 _symmetry_equiv_pos_site_id
 _symmetry_equiv_pos_as_xyz
  1  'x, y, z'
loop_
 _atom_site_type_symbol
 _atom_site_label
 _atom_site_symmetry_multiplicity
 _atom_site_fract_x
 _atom_site_fract_y
 _atom_site_fract_z
 _atom_site_occupancy
  Ho  Ho0  1  0.250000  0.250000  0.250000  1
  Ho  Ho1  1  0.750000  0.750000  0.750000  1
  Be  Be2  1  0.733358  0.266642  0.266642  1
  Be  Be3  1  0.266642  0.733358  0.733358  1
  Ag  Ag4  1  0.000000  0.000000  0.000000  1
  P  P5  1  0.266113  0.733887  0.266113  1
  P  P6  1  0.733887  0.266113  0.733887  1
  P  P7  1  0.266113  0.266113  0.733887  1
  P  P8  1  0.733887  0.733887  0.266113  1
  Pd  Pd9  1  0.386932  0.382573  0.382573  1
  Pd  Pd10  1  0.613068  0.617427  0.617427  1
  Pd  Pd11  1  0.382573  0.386932  0.847924  1
  Pd  Pd12  1  0.382573  0.847924  0.386932  1
  Pd  Pd13  1  0.617427  0.613068  0.152076  1
  Pd  Pd14  1  0.617427  0.152076  0.613068  1
  Pd  Pd15  1  0.847924  0.382573  0.382573  1
  Pd  Pd16  1  0.152076  0.617427  0.617427  1
  Pd  Pd17  1  0.343157  0.000000  0.000000  1
  Pd  Pd18  1  0.656843  0.000000  0.000000  1
  Pd  Pd19  1  0.000000  0.343157  0.656843  1
  Pd  Pd20  1  0.000000  0.656843  0.343157  1
  Pd  Pd21  1  0.997527  0.342380  0.002473  1
  Pd  Pd22  1  0.657620  0.002473  0.342380  1
  Pd  Pd23  1  0.002473  0.657620  0.997527  1
  Pd  Pd24  1  0.342380  0.997527  0.657620  1
  Pd  Pd25  1  0.997527  0.002473  0.342380  1
  Pd  Pd26  1  0.002473  0.997527  0.657620  1
  Pd  Pd27  1  0.657620  0.342380  0.002473  1
  Pd  Pd28  1  0.342380  0.657620  0.997527  1
