# generated using pymatgen
data_RbCrSn3O8
_symmetry_space_group_name_H-M   'P 1'
_cell_length_a   3.21327025
_cell_length_b   7.60340914
_cell_length_c   7.71055532
_cell_angle_alpha   87.28228954
_cell_angle_beta   102.03441873
_cell_angle_gamma   102.17585640
_symmetry_Int_Tables_number   1
_chemical_formula_structural   RbCrSn3O8
_chemical_formula_sum   'Rb1 Cr1 Sn3 O8'
_cell_volume   180.09690197
_cell_formula_units_Z   1
loop_
 _symmetry_equiv_pos_site_id
 _symmetry_equiv_pos_as_xyz
  1  'x, y, z'
loop_
 _atom_site_type_symbol
 _atom_site_label
 _atom_site_symmetry_multiplicity
 _atom_site_fract_x
 _atom_site_fract_y
 _atom_site_fract_z
 _atom_site_occupancy
  Rb  Rb0  1  0.050517  0.008348  0.000062  1
  Cr  Cr1  1  0.168268  0.486219  0.817814  1
  Sn  Sn2  1  0.858945  0.515082  0.170659  1
  Sn  Sn3  1  0.679062  0.805414  0.521621  1
  Sn  Sn4  1  0.357785  0.189828  0.494438  1
  O  O5  1  0.348297  0.374873  0.288975  1
  O  O6  1  0.678085  0.613967  0.709664  1
  O  O7  1  0.978411  0.297671  0.627128  1
  O  O8  1  0.055061  0.706919  0.371373  1
  O  O9  1  0.360977  0.646603  0.042393  1
  O  O10  1  0.668332  0.359590  0.943001  1
  O  O11  1  0.722350  0.047899  0.364883  1
  O  O12  1  0.313910  0.947586  0.647989  1
