# generated using pymatgen
data_YHo15InAg3Ir4
_symmetry_space_group_name_H-M   'P 1'
_cell_length_a   9.51705912
_cell_length_b   9.54973094
_cell_length_c   9.54279900
_cell_angle_alpha   60.02401240
_cell_angle_beta   59.91049550
_cell_angle_gamma   59.93963954
_symmetry_Int_Tables_number   1
_chemical_formula_structural   YHo15InAg3Ir4
_chemical_formula_sum   'Y1 Ho15 In1 Ag3 Ir4'
_cell_volume   612.68942415
_cell_formula_units_Z   1
loop_
 _symmetry_equiv_pos_site_id
 _symmetry_equiv_pos_as_xyz
  1  'x, y, z'
loop_
 _atom_site_type_symbol
 _atom_site_label
 _atom_site_symmetry_multiplicity
 _atom_site_fract_x
 _atom_site_fract_y
 _atom_site_fract_z
 _atom_site_occupancy
  Y  Y0  1  0.438372  0.436584  0.062522  1
  Ho  Ho1  1  0.650294  0.649103  0.051405  1
  Ho  Ho2  1  0.188849  0.812048  0.188698  1
  Ho  Ho3  1  0.066047  0.436444  0.060425  1
  Ho  Ho4  1  0.188849  0.812048  0.810403  1
  Ho  Ho5  1  0.066047  0.436444  0.437085  1
  Ho  Ho6  1  0.811150  0.190517  0.190030  1
  Ho  Ho7  1  0.650294  0.649103  0.649200  1
  Ho  Ho8  1  0.811150  0.190517  0.808305  1
  Ho  Ho9  1  0.188738  0.189278  0.810992  1
  Ho  Ho10  1  0.051401  0.648969  0.649815  1
  Ho  Ho11  1  0.438469  0.061649  0.062198  1
  Ho  Ho12  1  0.066503  0.060595  0.436451  1
  Ho  Ho13  1  0.650051  0.051825  0.649063  1
  Ho  Ho14  1  0.811048  0.809035  0.189959  1
  Ho  Ho15  1  0.438469  0.061649  0.437684  1
  In  In16  1  0.737832  0.420761  0.420704  1
  Ag  Ag17  1  0.415944  0.417621  0.418373  1
  Ag  Ag18  1  0.415944  0.417621  0.748063  1
  Ag  Ag19  1  0.416002  0.748756  0.417622  1
  Ir  Ir20  1  0.426276  0.857650  0.858037  1
  Ir  Ir21  1  0.857435  0.857981  0.858968  1
  Ir  Ir22  1  0.857401  0.425823  0.858388  1
  Ir  Ir23  1  0.857435  0.857981  0.425616  1
