# generated using pymatgen
data_ErU(FeB)8
_symmetry_space_group_name_H-M   'P 1'
_cell_length_a   5.03154500
_cell_length_b   5.03154500
_cell_length_c   6.87806700
_cell_angle_alpha   90.00000000
_cell_angle_beta   90.00000000
_cell_angle_gamma   90.00000000
_symmetry_Int_Tables_number   1
_chemical_formula_structural   ErU(FeB)8
_chemical_formula_sum   'Er1 U1 Fe8 B8'
_cell_volume   174.12820551
_cell_formula_units_Z   1
loop_
 _symmetry_equiv_pos_site_id
 _symmetry_equiv_pos_as_xyz
  1  'x, y, z'
loop_
 _atom_site_type_symbol
 _atom_site_label
 _atom_site_symmetry_multiplicity
 _atom_site_fract_x
 _atom_site_fract_y
 _atom_site_fract_z
 _atom_site_occupancy
  Er  Er0  1  0.000000  0.000000  0.000000  1
  U  U1  1  0.500000  0.500000  0.500000  1
  Fe  Fe2  1  0.500000  0.739327  0.137909  1
  Fe  Fe3  1  0.755863  0.000000  0.630783  1
  Fe  Fe4  1  0.244137  0.000000  0.630783  1
  Fe  Fe5  1  0.000000  0.755863  0.369217  1
  Fe  Fe6  1  0.000000  0.244137  0.369217  1
  Fe  Fe7  1  0.500000  0.260673  0.137909  1
  Fe  Fe8  1  0.739327  0.500000  0.862091  1
  Fe  Fe9  1  0.260673  0.500000  0.862091  1
  B  B10  1  0.500000  0.826788  0.842940  1
  B  B11  1  0.674713  0.000000  0.340243  1
  B  B12  1  0.325287  0.000000  0.340243  1
  B  B13  1  0.000000  0.674713  0.659757  1
  B  B14  1  0.000000  0.325287  0.659757  1
  B  B15  1  0.500000  0.173212  0.842940  1
  B  B16  1  0.826788  0.500000  0.157060  1
  B  B17  1  0.173212  0.500000  0.157060  1
