# generated using pymatgen
data_TcAuF12
_symmetry_space_group_name_H-M   'P 1'
_cell_length_a   5.13643272
_cell_length_b   8.80075100
_cell_length_c   9.52027190
_cell_angle_alpha   90.00000000
_cell_angle_beta   90.26862464
_cell_angle_gamma   90.00000000
_symmetry_Int_Tables_number   1
_chemical_formula_structural   TcAuF12
_chemical_formula_sum   'Tc2 Au2 F24'
_cell_volume   430.35407169
_cell_formula_units_Z   2
loop_
 _symmetry_equiv_pos_site_id
 _symmetry_equiv_pos_as_xyz
  1  'x, y, z'
loop_
 _atom_site_type_symbol
 _atom_site_label
 _atom_site_symmetry_multiplicity
 _atom_site_fract_x
 _atom_site_fract_y
 _atom_site_fract_z
 _atom_site_occupancy
  Tc  Tc0  1  0.418611  0.250000  0.867960  1
  Tc  Tc1  1  0.581389  0.750000  0.132040  1
  Au  Au2  1  0.920020  0.750000  0.628945  1
  Au  Au3  1  0.079980  0.250000  0.371055  1
  F  F4  1  0.225282  0.750000  0.510419  1
  F  F5  1  0.774718  0.250000  0.489581  1
  F  F6  1  0.710708  0.250000  0.982229  1
  F  F7  1  0.289292  0.750000  0.017771  1
  F  F8  1  0.615300  0.750000  0.749130  1
  F  F9  1  0.384700  0.250000  0.250870  1
  F  F10  1  0.124689  0.250000  0.757015  1
  F  F11  1  0.875311  0.750000  0.242985  1
  F  F12  1  0.761416  0.595329  0.511861  1
  F  F13  1  0.238584  0.404671  0.488139  1
  F  F14  1  0.271563  0.397648  0.980248  1
  F  F15  1  0.238584  0.095329  0.488139  1
  F  F16  1  0.728437  0.602352  0.019752  1
  F  F17  1  0.761416  0.904671  0.511861  1
  F  F18  1  0.728437  0.897648  0.019752  1
  F  F19  1  0.271563  0.102352  0.980248  1
  F  F20  1  0.074502  0.594120  0.747599  1
  F  F21  1  0.925498  0.405880  0.252401  1
  F  F22  1  0.566511  0.397853  0.758704  1
  F  F23  1  0.925498  0.094120  0.252401  1
  F  F24  1  0.433489  0.602147  0.241296  1
  F  F25  1  0.074502  0.905880  0.747599  1
  F  F26  1  0.433489  0.897853  0.241296  1
  F  F27  1  0.566511  0.102147  0.758704  1
