# generated using pymatgen
data_Sr2Pd2PtO8
_symmetry_space_group_name_H-M   'P 1'
_cell_length_a   6.63037361
_cell_length_b   6.63037310
_cell_length_c   5.39701900
_cell_angle_alpha   72.08680531
_cell_angle_beta   72.08680673
_cell_angle_gamma   57.20327536
_symmetry_Int_Tables_number   1
_chemical_formula_structural   Sr2Pd2PtO8
_chemical_formula_sum   'Sr2 Pd2 Pt1 O8'
_cell_volume   186.80351765
_cell_formula_units_Z   1
loop_
 _symmetry_equiv_pos_site_id
 _symmetry_equiv_pos_as_xyz
  1  'x, y, z'
loop_
 _atom_site_type_symbol
 _atom_site_label
 _atom_site_symmetry_multiplicity
 _atom_site_fract_x
 _atom_site_fract_y
 _atom_site_fract_z
 _atom_site_occupancy
  Sr  Sr0  1  0.719205  0.719205  0.335217  1
  Sr  Sr1  1  0.280795  0.280795  0.664783  1
  Pd  Pd2  1  0.746813  0.253187  0.000000  1
  Pd  Pd3  1  0.253187  0.746813  0.000000  1
  Pt  Pt4  1  0.000000  0.000000  0.500000  1
  O  O5  1  0.400108  0.400108  0.954789  1
  O  O6  1  0.599892  0.599892  0.045211  1
  O  O7  1  0.906917  0.906917  0.902123  1
  O  O8  1  0.093083  0.093083  0.097877  1
  O  O9  1  0.321893  0.881855  0.607937  1
  O  O10  1  0.881855  0.321893  0.607937  1
  O  O11  1  0.118145  0.678107  0.392063  1
  O  O12  1  0.678107  0.118145  0.392063  1
