# generated using pymatgen
data_Li8Sm8AlPb7
_symmetry_space_group_name_H-M   'P 1'
_cell_length_a   9.56476700
_cell_length_b   9.56476657
_cell_length_c   7.60469900
_cell_angle_alpha   90.00000000
_cell_angle_beta   90.00000000
_cell_angle_gamma   119.99999801
_symmetry_Int_Tables_number   1
_chemical_formula_structural   Li8Sm8AlPb7
_chemical_formula_sum   'Li8 Sm8 Al1 Pb7'
_cell_volume   602.50608858
_cell_formula_units_Z   1
loop_
 _symmetry_equiv_pos_site_id
 _symmetry_equiv_pos_as_xyz
  1  'x, y, z'
loop_
 _atom_site_type_symbol
 _atom_site_label
 _atom_site_symmetry_multiplicity
 _atom_site_fract_x
 _atom_site_fract_y
 _atom_site_fract_z
 _atom_site_occupancy
  Li  Li0  1  0.833069  0.166931  0.709100  1
  Li  Li1  1  0.833069  0.666140  0.709100  1
  Li  Li2  1  0.333860  0.166931  0.709100  1
  Li  Li3  1  0.169109  0.830891  0.209918  1
  Li  Li4  1  0.169109  0.338217  0.209918  1
  Li  Li5  1  0.661783  0.830891  0.209918  1
  Li  Li6  1  0.666667  0.333333  0.330652  1
  Li  Li7  1  0.333333  0.666667  0.832465  1
  Sm  Sm8  1  0.483613  0.516387  0.501542  1
  Sm  Sm9  1  0.483613  0.967228  0.501542  1
  Sm  Sm10  1  0.032772  0.516387  0.501542  1
  Sm  Sm11  1  0.511914  0.488086  0.007663  1
  Sm  Sm12  1  0.511914  0.023829  0.007663  1
  Sm  Sm13  1  0.976171  0.488086  0.007663  1
  Sm  Sm14  1  0.000000  0.000000  0.497281  1
  Sm  Sm15  1  0.000000  0.000000  0.997638  1
  Al  Al16  1  0.333333  0.666667  0.231834  1
  Pb  Pb17  1  0.833472  0.166528  0.273984  1
  Pb  Pb18  1  0.833472  0.666942  0.273984  1
  Pb  Pb19  1  0.333058  0.166528  0.273984  1
  Pb  Pb20  1  0.167401  0.832599  0.775760  1
  Pb  Pb21  1  0.167401  0.334803  0.775760  1
  Pb  Pb22  1  0.665197  0.832599  0.775760  1
  Pb  Pb23  1  0.666667  0.333333  0.734247  1
