# generated using pymatgen
data_Pr8Cd2RuAu
_symmetry_space_group_name_H-M   'P 1'
_cell_length_a   10.12320848
_cell_length_b   10.12320921
_cell_length_c   10.20747900
_cell_angle_alpha   59.72424968
_cell_angle_beta   59.72424727
_cell_angle_gamma   59.61811942
_symmetry_Int_Tables_number   1
_chemical_formula_structural   Pr8Cd2RuAu
_chemical_formula_sum   'Pr16 Cd4 Ru2 Au2'
_cell_volume   734.44371294
_cell_formula_units_Z   2
loop_
 _symmetry_equiv_pos_site_id
 _symmetry_equiv_pos_as_xyz
  1  'x, y, z'
loop_
 _atom_site_type_symbol
 _atom_site_label
 _atom_site_symmetry_multiplicity
 _atom_site_fract_x
 _atom_site_fract_y
 _atom_site_fract_z
 _atom_site_occupancy
  Pr  Pr0  1  0.347113  0.347113  0.364578  1
  Pr  Pr1  1  0.347113  0.347113  0.941196  1
  Pr  Pr2  1  0.340585  0.956470  0.351473  1
  Pr  Pr3  1  0.956470  0.340585  0.351473  1
  Pr  Pr4  1  0.820501  0.189624  0.192011  1
  Pr  Pr5  1  0.189624  0.820501  0.797864  1
  Pr  Pr6  1  0.189624  0.820501  0.192011  1
  Pr  Pr7  1  0.820501  0.189624  0.797864  1
  Pr  Pr8  1  0.188638  0.188638  0.811362  1
  Pr  Pr9  1  0.804510  0.804510  0.195490  1
  Pr  Pr10  1  0.934829  0.558944  0.568083  1
  Pr  Pr11  1  0.558944  0.934829  0.938144  1
  Pr  Pr12  1  0.558944  0.934829  0.568083  1
  Pr  Pr13  1  0.934829  0.558944  0.938144  1
  Pr  Pr14  1  0.561653  0.561653  0.938347  1
  Pr  Pr15  1  0.935589  0.935589  0.564411  1
  Cd  Cd16  1  0.579971  0.579971  0.578709  1
  Cd  Cd17  1  0.579971  0.579971  0.261348  1
  Cd  Cd18  1  0.582166  0.258559  0.579637  1
  Cd  Cd19  1  0.258559  0.582166  0.579637  1
  Ru  Ru20  1  0.144385  0.144385  0.137247  1
  Ru  Ru21  1  0.144385  0.144385  0.573983  1
  Au  Au22  1  0.150130  0.570962  0.139454  1
  Au  Au23  1  0.570962  0.150130  0.139454  1
