# generated using pymatgen
data_BaLiPrSe3
_symmetry_space_group_name_H-M   'P 1'
_cell_length_a   11.28774800
_cell_length_b   4.36924200
_cell_length_c   14.10077700
_cell_angle_alpha   90.00000000
_cell_angle_beta   90.00000000
_cell_angle_gamma   90.00000000
_symmetry_Int_Tables_number   1
_chemical_formula_structural   BaLiPrSe3
_chemical_formula_sum   'Ba4 Li4 Pr4 Se12'
_cell_volume   695.43484811
_cell_formula_units_Z   4
loop_
 _symmetry_equiv_pos_site_id
 _symmetry_equiv_pos_as_xyz
  1  'x, y, z'
loop_
 _atom_site_type_symbol
 _atom_site_label
 _atom_site_symmetry_multiplicity
 _atom_site_fract_x
 _atom_site_fract_y
 _atom_site_fract_z
 _atom_site_occupancy
  Ba  Ba0  1  0.717972  0.750000  0.001698  1
  Ba  Ba1  1  0.217972  0.750000  0.498302  1
  Ba  Ba2  1  0.782028  0.250001  0.501697  1
  Ba  Ba3  1  0.282028  0.250001  0.998302  1
  Li  Li4  1  0.265921  0.750000  0.223783  1
  Li  Li5  1  0.765921  0.750000  0.276216  1
  Li  Li6  1  0.234079  0.250001  0.723783  1
  Li  Li7  1  0.734079  0.250001  0.776217  1
  Pr  Pr8  1  0.016573  0.250001  0.235793  1
  Pr  Pr9  1  0.516573  0.250001  0.264208  1
  Pr  Pr10  1  0.483427  0.750000  0.735792  1
  Pr  Pr11  1  0.983427  0.750000  0.764208  1
  Se  Se12  1  0.094117  0.750000  0.107631  1
  Se  Se13  1  0.453234  0.750000  0.123701  1
  Se  Se14  1  0.760852  0.250001  0.178304  1
  Se  Se15  1  0.260852  0.250001  0.321696  1
  Se  Se16  1  0.953234  0.750000  0.376298  1
  Se  Se17  1  0.594117  0.750000  0.392369  1
  Se  Se18  1  0.405883  0.250001  0.607631  1
  Se  Se19  1  0.046766  0.250001  0.623701  1
  Se  Se20  1  0.739148  0.750000  0.678305  1
  Se  Se21  1  0.239148  0.750000  0.821695  1
  Se  Se22  1  0.546766  0.250001  0.876299  1
  Se  Se23  1  0.905883  0.250001  0.892369  1
