# generated using pymatgen
data_Y3Er2P12Pd2Ru17
_symmetry_space_group_name_H-M   'P 1'
_cell_length_a   12.65657100
_cell_length_b   12.54423564
_cell_length_c   3.97362200
_cell_angle_alpha   90.00000000
_cell_angle_beta   90.00000000
_cell_angle_gamma   120.29667044
_symmetry_Int_Tables_number   1
_chemical_formula_structural   Y3Er2P12Pd2Ru17
_chemical_formula_sum   'Y3 Er2 P12 Pd2 Ru17'
_cell_volume   544.71754964
_cell_formula_units_Z   1
loop_
 _symmetry_equiv_pos_site_id
 _symmetry_equiv_pos_as_xyz
  1  'x, y, z'
loop_
 _atom_site_type_symbol
 _atom_site_label
 _atom_site_symmetry_multiplicity
 _atom_site_fract_x
 _atom_site_fract_y
 _atom_site_fract_z
 _atom_site_occupancy
  Y  Y0  1  0.000860  0.182461  0.500000  1
  Y  Y1  1  0.818399  0.817539  0.500000  1
  Y  Y2  1  0.183456  0.000000  0.500000  1
  Er  Er3  1  0.663955  0.327392  0.000000  1
  Er  Er4  1  0.336561  0.672608  0.000000  1
  P  P5  1  0.998087  0.811794  0.000000  1
  P  P6  1  0.186293  0.188206  0.000000  1
  P  P7  1  0.817820  0.000000  0.000000  1
  P  P8  1  0.692601  0.170063  0.500000  1
  P  P9  1  0.817699  0.516286  0.500000  1
  P  P10  1  0.477649  0.299962  0.500000  1
  P  P11  1  0.177688  0.700038  0.500000  1
  P  P12  1  0.522538  0.829937  0.500000  1
  P  P13  1  0.301414  0.483714  0.500000  1
  P  P14  1  0.000558  0.366417  0.000000  1
  P  P15  1  0.634141  0.633583  0.000000  1
  P  P16  1  0.374211  0.000000  0.000000  1
  Pd  Pd17  1  0.998937  0.551988  0.000000  1
  Pd  Pd18  1  0.446947  0.448012  0.000000  1
  Ru  Ru19  1  0.555441  0.000000  0.000000  1
  Ru  Ru20  1  0.997855  0.711469  0.500000  1
  Ru  Ru21  1  0.286386  0.288531  0.500000  1
  Ru  Ru22  1  0.718108  0.000000  0.500000  1
  Ru  Ru23  1  0.808308  0.185088  0.000000  1
  Ru  Ru24  1  0.812203  0.617423  0.000000  1
  Ru  Ru25  1  0.376805  0.192055  0.000000  1
  Ru  Ru26  1  0.184751  0.807945  0.000000  1
  Ru  Ru27  1  0.623221  0.814912  0.000000  1
  Ru  Ru28  1  0.194782  0.382577  0.000000  1
  Ru  Ru29  1  0.870770  0.365062  0.500000  1
  Ru  Ru30  1  0.629665  0.506545  0.500000  1
  Ru  Ru31  1  0.492505  0.124471  0.500000  1
  Ru  Ru32  1  0.368034  0.875529  0.500000  1
  Ru  Ru33  1  0.505708  0.634938  0.500000  1
  Ru  Ru34  1  0.123120  0.493455  0.500000  1
  Ru  Ru35  1  0.002524  0.000000  0.000000  1
