# generated using pymatgen
data_Ho2IrRhO7
_symmetry_space_group_name_H-M   'P 1'
_cell_length_a   7.22365291
_cell_length_b   7.21909881
_cell_length_c   7.21909823
_cell_angle_alpha   59.94155069
_cell_angle_beta   59.97911474
_cell_angle_gamma   59.97912372
_symmetry_Int_Tables_number   1
_chemical_formula_structural   Ho2IrRhO7
_chemical_formula_sum   'Ho4 Ir2 Rh2 O14'
_cell_volume   265.99812916
_cell_formula_units_Z   2
loop_
 _symmetry_equiv_pos_site_id
 _symmetry_equiv_pos_as_xyz
  1  'x, y, z'
loop_
 _atom_site_type_symbol
 _atom_site_label
 _atom_site_symmetry_multiplicity
 _atom_site_fract_x
 _atom_site_fract_y
 _atom_site_fract_z
 _atom_site_occupancy
  Ho  Ho0  1  0.625000  0.125000  0.125000  1
  Ho  Ho1  1  0.125000  0.625000  0.125000  1
  Ho  Ho2  1  0.125000  0.125000  0.625000  1
  Ho  Ho3  1  0.125000  0.125000  0.125000  1
  Ir  Ir4  1  0.125000  0.625000  0.625000  1
  Ir  Ir5  1  0.625000  0.625000  0.625000  1
  Rh  Rh6  1  0.625000  0.125000  0.625000  1
  Rh  Rh7  1  0.625000  0.625000  0.125000  1
  O  O8  1  0.715909  0.709523  0.289819  1
  O  O9  1  0.284751  0.289819  0.709523  1
  O  O10  1  0.715909  0.289819  0.709523  1
  O  O11  1  0.284751  0.709523  0.289819  1
  O  O12  1  0.290263  0.709737  0.709737  1
  O  O13  1  0.716448  0.283552  0.283552  1
  O  O14  1  0.534091  0.540477  0.960181  1
  O  O15  1  0.965249  0.960181  0.540477  1
  O  O16  1  0.534091  0.960181  0.540477  1
  O  O17  1  0.965249  0.540477  0.960181  1
  O  O18  1  0.959737  0.540263  0.540263  1
  O  O19  1  0.533552  0.966448  0.966448  1
  O  O20  1  0.248803  0.251197  0.251197  1
  O  O21  1  0.001197  0.998803  0.998803  1
