# generated using pymatgen
data_Tb2HoTl(SbO4)4
_symmetry_space_group_name_H-M   'P 1'
_cell_length_a   5.41381633
_cell_length_b   7.69449111
_cell_length_c   7.58898337
_cell_angle_alpha   80.48374582
_cell_angle_beta   89.67501996
_cell_angle_gamma   92.35251352
_symmetry_Int_Tables_number   1
_chemical_formula_structural   Tb2HoTl(SbO4)4
_chemical_formula_sum   'Tb2 Ho1 Tl1 Sb4 O16'
_cell_volume   311.49292523
_cell_formula_units_Z   1
loop_
 _symmetry_equiv_pos_site_id
 _symmetry_equiv_pos_as_xyz
  1  'x, y, z'
loop_
 _atom_site_type_symbol
 _atom_site_label
 _atom_site_symmetry_multiplicity
 _atom_site_fract_x
 _atom_site_fract_y
 _atom_site_fract_z
 _atom_site_occupancy
  Tb  Tb0  1  0.261314  0.129617  0.613036  1
  Tb  Tb1  1  0.738584  0.866636  0.388443  1
  Ho  Ho2  1  0.789259  0.839358  0.889636  1
  Tl  Tl3  1  0.218958  0.161747  0.113911  1
  Sb  Sb4  1  0.245097  0.667297  0.194102  1
  Sb  Sb5  1  0.757455  0.334945  0.804870  1
  Sb  Sb6  1  0.726100  0.337091  0.307874  1
  Sb  Sb7  1  0.275847  0.662920  0.693505  1
  O  O8  1  0.085063  0.435975  0.690975  1
  O  O9  1  0.917882  0.565001  0.309679  1
  O  O10  1  0.607392  0.326974  0.561289  1
  O  O11  1  0.388840  0.676509  0.439801  1
  O  O12  1  0.869734  0.329053  0.059015  1
  O  O13  1  0.131220  0.670380  0.940502  1
  O  O14  1  0.408706  0.436935  0.198863  1
  O  O15  1  0.599320  0.567256  0.803154  1
  O  O16  1  0.042341  0.886875  0.169441  1
  O  O17  1  0.936831  0.112498  0.811287  1
  O  O18  1  0.508059  0.112208  0.329304  1
  O  O19  1  0.495298  0.886024  0.678122  1
  O  O20  1  0.452948  0.185103  0.877980  1
  O  O21  1  0.544205  0.811745  0.122809  1
  O  O22  1  0.986727  0.166345  0.382535  1
  O  O23  1  0.012820  0.831508  0.619867  1
