# generated using pymatgen
data_Ta6Ga2Co4C
_symmetry_space_group_name_H-M   'P 1'
_cell_length_a   8.00232324
_cell_length_b   8.00232276
_cell_length_c   8.00232300
_cell_angle_alpha   59.99999486
_cell_angle_beta   59.99999687
_cell_angle_gamma   60.00000067
_symmetry_Int_Tables_number   1
_chemical_formula_structural   Ta6Ga2Co4C
_chemical_formula_sum   'Ta12 Ga4 Co8 C2'
_cell_volume   362.35412365
_cell_formula_units_Z   2
loop_
 _symmetry_equiv_pos_site_id
 _symmetry_equiv_pos_as_xyz
  1  'x, y, z'
loop_
 _atom_site_type_symbol
 _atom_site_label
 _atom_site_symmetry_multiplicity
 _atom_site_fract_x
 _atom_site_fract_y
 _atom_site_fract_z
 _atom_site_occupancy
  Ta  Ta0  1  0.055098  0.055098  0.444902  1
  Ta  Ta1  1  0.444902  0.055098  0.444902  1
  Ta  Ta2  1  0.055098  0.444902  0.444902  1
  Ta  Ta3  1  0.444902  0.444902  0.055098  1
  Ta  Ta4  1  0.055098  0.444902  0.055098  1
  Ta  Ta5  1  0.444902  0.055098  0.055098  1
  Ta  Ta6  1  0.194902  0.194902  0.805098  1
  Ta  Ta7  1  0.805098  0.194902  0.805098  1
  Ta  Ta8  1  0.194902  0.805098  0.805098  1
  Ta  Ta9  1  0.805098  0.805098  0.194902  1
  Ta  Ta10  1  0.194902  0.805098  0.194902  1
  Ta  Ta11  1  0.805098  0.194902  0.194902  1
  Ga  Ga12  1  0.625000  0.625000  0.125000  1
  Ga  Ga13  1  0.625000  0.125000  0.625000  1
  Ga  Ga14  1  0.125000  0.625000  0.625000  1
  Ga  Ga15  1  0.625000  0.625000  0.625000  1
  Co  Co16  1  0.416261  0.416261  0.751220  1
  Co  Co17  1  0.416261  0.751220  0.416261  1
  Co  Co18  1  0.751220  0.416261  0.416261  1
  Co  Co19  1  0.416261  0.416261  0.416261  1
  Co  Co20  1  0.833739  0.833739  0.498780  1
  Co  Co21  1  0.833739  0.498780  0.833739  1
  Co  Co22  1  0.498780  0.833739  0.833739  1
  Co  Co23  1  0.833739  0.833739  0.833739  1
  C  C24  1  0.250000  0.250000  0.250000  1
  C  C25  1  0.000000  0.000000  0.000000  1
