# generated using pymatgen
data_Ti(S8F)3
_symmetry_space_group_name_H-M   'P 1'
_cell_length_a   14.95262985
_cell_length_b   14.95263077
_cell_length_c   14.95262818
_cell_angle_alpha   118.70001223
_cell_angle_beta   118.70001099
_cell_angle_gamma   118.70002219
_symmetry_Int_Tables_number   1
_chemical_formula_structural   Ti(S8F)3
_chemical_formula_sum   'Ti1 S24 F3'
_cell_volume   984.16357277
_cell_formula_units_Z   1
loop_
 _symmetry_equiv_pos_site_id
 _symmetry_equiv_pos_as_xyz
  1  'x, y, z'
loop_
 _atom_site_type_symbol
 _atom_site_label
 _atom_site_symmetry_multiplicity
 _atom_site_fract_x
 _atom_site_fract_y
 _atom_site_fract_z
 _atom_site_occupancy
  Ti  Ti0  1  0.926980  0.926980  0.926980  1
  S  S1  1  0.802455  0.522391  0.522391  1
  S  S2  1  0.522391  0.522391  0.802455  1
  S  S3  1  0.522391  0.802455  0.522391  1
  S  S4  1  0.245992  0.376845  0.634369  1
  S  S5  1  0.352670  0.953455  0.352670  1
  S  S6  1  0.352670  0.352670  0.953455  1
  S  S7  1  0.953455  0.352670  0.352670  1
  S  S8  1  0.126594  0.740316  0.256794  1
  S  S9  1  0.256794  0.126594  0.740316  1
  S  S10  1  0.740316  0.256794  0.126594  1
  S  S11  1  0.740316  0.126594  0.256794  1
  S  S12  1  0.256794  0.740316  0.126594  1
  S  S13  1  0.126594  0.256794  0.740316  1
  S  S14  1  0.348249  0.880612  0.532248  1
  S  S15  1  0.532248  0.348249  0.880612  1
  S  S16  1  0.880612  0.532248  0.348249  1
  S  S17  1  0.880612  0.348249  0.532248  1
  S  S18  1  0.532248  0.880612  0.348249  1
  S  S19  1  0.348249  0.532248  0.880612  1
  S  S20  1  0.245992  0.634369  0.376845  1
  S  S21  1  0.376845  0.245992  0.634369  1
  S  S22  1  0.634369  0.376845  0.245992  1
  S  S23  1  0.634369  0.245992  0.376845  1
  S  S24  1  0.376845  0.634369  0.245992  1
  F  F25  1  0.855866  0.976189  0.976189  1
  F  F26  1  0.976189  0.976189  0.855866  1
  F  F27  1  0.976189  0.855866  0.976189  1
