# generated using pymatgen
data_Tb5YbDy2(B6Ru)4
_symmetry_space_group_name_H-M   'P 1'
_cell_length_a   3.67472700
_cell_length_b   9.16309092
_cell_length_c   11.54735106
_cell_angle_alpha   89.91733814
_cell_angle_beta   90.00000000
_cell_angle_gamma   90.00000000
_symmetry_Int_Tables_number   1
_chemical_formula_structural   Tb5YbDy2(B6Ru)4
_chemical_formula_sum   'Tb5 Yb1 Dy2 B24 Ru4'
_cell_volume   388.82035612
_cell_formula_units_Z   1
loop_
 _symmetry_equiv_pos_site_id
 _symmetry_equiv_pos_as_xyz
  1  'x, y, z'
loop_
 _atom_site_type_symbol
 _atom_site_label
 _atom_site_symmetry_multiplicity
 _atom_site_fract_x
 _atom_site_fract_y
 _atom_site_fract_z
 _atom_site_occupancy
  Tb  Tb0  1  0.000000  0.675070  0.585009  1
  Tb  Tb1  1  0.000000  0.822978  0.086329  1
  Tb  Tb2  1  0.000000  0.177441  0.914605  1
  Tb  Tb3  1  0.000000  0.943923  0.370982  1
  Tb  Tb4  1  0.000000  0.058327  0.628162  1
  Yb  Yb5  1  0.000000  0.324220  0.413644  1
  Dy  Dy6  1  0.000000  0.442839  0.129842  1
  Dy  Dy7  1  0.000000  0.556153  0.872013  1
  B  B8  1  0.500000  0.553669  0.432313  1
  B  B9  1  0.500000  0.445704  0.567336  1
  B  B10  1  0.500000  0.053654  0.067047  1
  B  B11  1  0.500000  0.945644  0.932214  1
  B  B12  1  0.500000  0.747513  0.418999  1
  B  B13  1  0.500000  0.253025  0.580717  1
  B  B14  1  0.500000  0.247336  0.080859  1
  B  B15  1  0.500000  0.751983  0.919378  1
  B  B16  1  0.500000  0.790403  0.266327  1
  B  B17  1  0.500000  0.210727  0.733760  1
  B  B18  1  0.500000  0.289872  0.233583  1
  B  B19  1  0.500000  0.709481  0.766587  1
  B  B20  1  0.500000  0.631869  0.186215  1
  B  B21  1  0.500000  0.368419  0.814826  1
  B  B22  1  0.500000  0.131952  0.313761  1
  B  B23  1  0.500000  0.868166  0.685536  1
  B  B24  1  0.500000  0.984325  0.211644  1
  B  B25  1  0.500000  0.015748  0.787524  1
  B  B26  1  0.500000  0.484063  0.287923  1
  B  B27  1  0.500000  0.515755  0.712620  1
  B  B28  1  0.500000  0.608352  0.030283  1
  B  B29  1  0.500000  0.391696  0.970487  1
  B  B30  1  0.500000  0.106129  0.470567  1
  B  B31  1  0.500000  0.893389  0.529435  1
  Ru  Ru32  1  0.000000  0.638692  0.320722  1
  Ru  Ru33  1  0.000000  0.362457  0.679935  1
  Ru  Ru34  1  0.000000  0.137253  0.177496  1
  Ru  Ru35  1  0.000000  0.861774  0.821324  1
