# generated using pymatgen
data_RbVS2O9
_symmetry_space_group_name_H-M   'P 1'
_cell_length_a   5.11267700
_cell_length_b   8.66289737
_cell_length_c   9.66114009
_cell_angle_alpha   75.07560391
_cell_angle_beta   90.00000000
_cell_angle_gamma   90.00000000
_symmetry_Int_Tables_number   1
_chemical_formula_structural   RbVS2O9
_chemical_formula_sum   'Rb2 V2 S4 O18'
_cell_volume   413.46317162
_cell_formula_units_Z   2
loop_
 _symmetry_equiv_pos_site_id
 _symmetry_equiv_pos_as_xyz
  1  'x, y, z'
loop_
 _atom_site_type_symbol
 _atom_site_label
 _atom_site_symmetry_multiplicity
 _atom_site_fract_x
 _atom_site_fract_y
 _atom_site_fract_z
 _atom_site_occupancy
  Rb  Rb0  1  0.250000  0.415094  0.220079  1
  Rb  Rb1  1  0.750000  0.584906  0.779921  1
  V  V2  1  0.250000  0.915644  0.253028  1
  V  V3  1  0.750000  0.084356  0.746972  1
  S  S4  1  0.250000  0.316911  0.654379  1
  S  S5  1  0.750000  0.683089  0.345621  1
  S  S6  1  0.250000  0.856212  0.897807  1
  S  S7  1  0.750000  0.143788  0.102193  1
  O  O8  1  0.250000  0.273183  0.520442  1
  O  O9  1  0.750000  0.726817  0.479558  1
  O  O10  1  0.250000  0.485385  0.650640  1
  O  O11  1  0.750000  0.514615  0.349360  1
  O  O12  1  0.014922  0.241291  0.749420  1
  O  O13  1  0.514922  0.758709  0.250580  1
  O  O14  1  0.985078  0.758709  0.250580  1
  O  O15  1  0.485078  0.241291  0.749420  1
  O  O16  1  0.250000  0.932632  0.015490  1
  O  O17  1  0.750000  0.067368  0.984510  1
  O  O18  1  0.250000  0.682004  0.938704  1
  O  O19  1  0.750000  0.317996  0.061296  1
  O  O20  1  0.013520  0.910477  0.801689  1
  O  O21  1  0.513520  0.089523  0.198311  1
  O  O22  1  0.986480  0.089523  0.198311  1
  O  O23  1  0.486480  0.910477  0.801689  1
  O  O24  1  0.250000  0.907630  0.419778  1
  O  O25  1  0.750000  0.092370  0.580222  1
