# generated using pymatgen
data_Pr2Nd2Al3ZnPt4
_symmetry_space_group_name_H-M   'P 1'
_cell_length_a   4.53393600
_cell_length_b   7.10045527
_cell_length_c   7.93051957
_cell_angle_alpha   89.63441316
_cell_angle_beta   90.00000000
_cell_angle_gamma   90.00000000
_symmetry_Int_Tables_number   1
_chemical_formula_structural   Pr2Nd2Al3ZnPt4
_chemical_formula_sum   'Pr2 Nd2 Al3 Zn1 Pt4'
_cell_volume   255.30209694
_cell_formula_units_Z   1
loop_
 _symmetry_equiv_pos_site_id
 _symmetry_equiv_pos_as_xyz
  1  'x, y, z'
loop_
 _atom_site_type_symbol
 _atom_site_label
 _atom_site_symmetry_multiplicity
 _atom_site_fract_x
 _atom_site_fract_y
 _atom_site_fract_z
 _atom_site_occupancy
  Pr  Pr0  1  0.250000  0.028625  0.685021  1
  Pr  Pr1  1  0.250000  0.533744  0.820562  1
  Nd  Nd2  1  0.750000  0.470768  0.182763  1
  Nd  Nd3  1  0.750000  0.970455  0.311686  1
  Al  Al4  1  0.250000  0.644496  0.434853  1
  Al  Al5  1  0.750000  0.351420  0.565052  1
  Al  Al6  1  0.250000  0.147724  0.066758  1
  Zn  Zn7  1  0.750000  0.847504  0.931845  1
  Pt  Pt8  1  0.750000  0.715111  0.602904  1
  Pt  Pt9  1  0.750000  0.226867  0.888462  1
  Pt  Pt10  1  0.250000  0.281664  0.386561  1
  Pt  Pt11  1  0.250000  0.781624  0.123533  1
