# generated using pymatgen
data_Ti7TcP4
_symmetry_space_group_name_H-M   'P 1'
_cell_length_a   6.49188073
_cell_length_b   3.39529800
_cell_length_c   7.91876448
_cell_angle_alpha   90.00000000
_cell_angle_beta   90.12234252
_cell_angle_gamma   90.00000000
_symmetry_Int_Tables_number   1
_chemical_formula_structural   Ti7TcP4
_chemical_formula_sum   'Ti7 Tc1 P4'
_cell_volume   174.54397654
_cell_formula_units_Z   1
loop_
 _symmetry_equiv_pos_site_id
 _symmetry_equiv_pos_as_xyz
  1  'x, y, z'
loop_
 _atom_site_type_symbol
 _atom_site_label
 _atom_site_symmetry_multiplicity
 _atom_site_fract_x
 _atom_site_fract_y
 _atom_site_fract_z
 _atom_site_occupancy
  Ti  Ti0  1  0.461725  0.749999  0.168821  1
  Ti  Ti1  1  0.962566  0.749999  0.329050  1
  Ti  Ti2  1  0.637637  0.250001  0.435287  1
  Ti  Ti3  1  0.358482  0.749999  0.562267  1
  Ti  Ti4  1  0.037779  0.250001  0.674807  1
  Ti  Ti5  1  0.535500  0.250001  0.833707  1
  Ti  Ti6  1  0.864185  0.749999  0.938388  1
  Tc  Tc7  1  0.140106  0.250001  0.060724  1
  P  P8  1  0.755054  0.250001  0.140807  1
  P  P9  1  0.253585  0.250001  0.358510  1
  P  P10  1  0.744912  0.749999  0.639425  1
  P  P11  1  0.248470  0.749999  0.858209  1
