# generated using pymatgen
data_LiLu8(B8Rh)3
_symmetry_space_group_name_H-M   'P 1'
_cell_length_a   3.59334000
_cell_length_b   9.05179988
_cell_length_c   11.38665785
_cell_angle_alpha   89.89404794
_cell_angle_beta   90.00000000
_cell_angle_gamma   90.00000000
_symmetry_Int_Tables_number   1
_chemical_formula_structural   LiLu8(B8Rh)3
_chemical_formula_sum   'Li1 Lu8 B24 Rh3'
_cell_volume   370.36401572
_cell_formula_units_Z   1
loop_
 _symmetry_equiv_pos_site_id
 _symmetry_equiv_pos_as_xyz
  1  'x, y, z'
loop_
 _atom_site_type_symbol
 _atom_site_label
 _atom_site_symmetry_multiplicity
 _atom_site_fract_x
 _atom_site_fract_y
 _atom_site_fract_z
 _atom_site_occupancy
  Li  Li0  1  0.500000  0.138511  0.177972  1
  Lu  Lu1  1  0.500000  0.320444  0.412260  1
  Lu  Lu2  1  0.500000  0.678114  0.585442  1
  Lu  Lu3  1  0.500000  0.176535  0.917716  1
  Lu  Lu4  1  0.500000  0.826314  0.086922  1
  Lu  Lu5  1  0.500000  0.440610  0.128147  1
  Lu  Lu6  1  0.500000  0.556245  0.873502  1
  Lu  Lu7  1  0.500000  0.056144  0.627603  1
  Lu  Lu8  1  0.500000  0.946678  0.370104  1
  B  B9  1  0.000000  0.107143  0.470219  1
  B  B10  1  0.000000  0.895261  0.528173  1
  B  B11  1  0.000000  0.391835  0.971375  1
  B  B12  1  0.000000  0.606344  0.029528  1
  B  B13  1  0.000000  0.134204  0.316822  1
  B  B14  1  0.000000  0.866584  0.682153  1
  B  B15  1  0.000000  0.366814  0.817198  1
  B  B16  1  0.000000  0.631926  0.184239  1
  B  B17  1  0.000000  0.052777  0.065797  1
  B  B18  1  0.000000  0.948035  0.936545  1
  B  B19  1  0.000000  0.446251  0.564887  1
  B  B20  1  0.000000  0.554118  0.433940  1
  B  B21  1  0.000000  0.479583  0.287345  1
  B  B22  1  0.000000  0.518354  0.712841  1
  B  B23  1  0.000000  0.017297  0.788166  1
  B  B24  1  0.000000  0.982071  0.211373  1
  B  B25  1  0.000000  0.248577  0.079678  1
  B  B26  1  0.000000  0.751078  0.921622  1
  B  B27  1  0.000000  0.250184  0.578851  1
  B  B28  1  0.000000  0.751938  0.419575  1
  B  B29  1  0.000000  0.294705  0.237593  1
  B  B30  1  0.000000  0.705068  0.762964  1
  B  B31  1  0.000000  0.204978  0.736745  1
  B  B32  1  0.000000  0.796572  0.263125  1
  Rh  Rh33  1  0.500000  0.858126  0.817954  1
  Rh  Rh34  1  0.500000  0.360801  0.679413  1
  Rh  Rh35  1  0.500000  0.639784  0.322211  1
