# generated using pymatgen
data_LaY9FeHg3
_symmetry_space_group_name_H-M   'P 1'
_cell_length_a   9.72108076
_cell_length_b   9.66400886
_cell_length_c   9.68343953
_cell_angle_alpha   89.99999883
_cell_angle_beta   89.19880568
_cell_angle_gamma   119.80597140
_symmetry_Int_Tables_number   1
_chemical_formula_structural   LaY9FeHg3
_chemical_formula_sum   'La2 Y18 Fe2 Hg6'
_cell_volume   789.26264545
_cell_formula_units_Z   2
loop_
 _symmetry_equiv_pos_site_id
 _symmetry_equiv_pos_as_xyz
  1  'x, y, z'
loop_
 _atom_site_type_symbol
 _atom_site_label
 _atom_site_symmetry_multiplicity
 _atom_site_fract_x
 _atom_site_fract_y
 _atom_site_fract_z
 _atom_site_occupancy
  La  La0  1  0.218367  0.789934  0.427518  1
  La  La1  1  0.218367  0.428434  0.427518  1
  Y  Y2  1  0.004749  0.002375  0.500237  1
  Y  Y3  1  0.995393  0.997696  0.000875  1
  Y  Y4  1  0.547051  0.456224  0.249299  1
  Y  Y5  1  0.547051  0.090827  0.249299  1
  Y  Y6  1  0.914098  0.457049  0.244339  1
  Y  Y7  1  0.463038  0.543061  0.752690  1
  Y  Y8  1  0.463038  0.919977  0.752690  1
  Y  Y9  1  0.081537  0.540769  0.752879  1
  Y  Y10  1  0.593166  0.796584  0.438364  1
  Y  Y11  1  0.788988  0.212416  0.564416  1
  Y  Y12  1  0.788988  0.576572  0.564416  1
  Y  Y13  1  0.426749  0.213374  0.567870  1
  Y  Y14  1  0.787144  0.210107  0.934482  1
  Y  Y15  1  0.787144  0.577036  0.934482  1
  Y  Y16  1  0.423955  0.211977  0.936800  1
  Y  Y17  1  0.207965  0.790961  0.059470  1
  Y  Y18  1  0.207965  0.417005  0.059470  1
  Y  Y19  1  0.567527  0.783764  0.068451  1
  Fe  Fe20  1  0.306984  0.653493  0.268064  1
  Fe  Fe21  1  0.665304  0.332652  0.749747  1
  Hg  Hg22  1  0.875936  0.113613  0.249628  1
  Hg  Hg23  1  0.875936  0.762324  0.249628  1
  Hg  Hg24  1  0.239609  0.119805  0.242628  1
  Hg  Hg25  1  0.120362  0.882506  0.751830  1
  Hg  Hg26  1  0.120362  0.237855  0.751830  1
  Hg  Hg27  1  0.763226  0.881613  0.751080  1
