# generated using pymatgen
data_Ag6PS5I
_symmetry_space_group_name_H-M   'P 1'
_cell_length_a   7.51905735
_cell_length_b   7.51905738
_cell_length_c   13.08358758
_cell_angle_alpha   73.07985622
_cell_angle_beta   73.07985687
_cell_angle_gamma   60.27714508
_symmetry_Int_Tables_number   1
_chemical_formula_structural   Ag6PS5I
_chemical_formula_sum   'Ag12 P2 S10 I2'
_cell_volume   604.90869144
_cell_formula_units_Z   2
loop_
 _symmetry_equiv_pos_site_id
 _symmetry_equiv_pos_as_xyz
  1  'x, y, z'
loop_
 _atom_site_type_symbol
 _atom_site_label
 _atom_site_symmetry_multiplicity
 _atom_site_fract_x
 _atom_site_fract_y
 _atom_site_fract_z
 _atom_site_occupancy
  Ag  Ag0  1  0.043812  0.970942  0.627748  1
  Ag  Ag1  1  0.970942  0.043812  0.127748  1
  Ag  Ag2  1  0.573839  0.433524  0.165975  1
  Ag  Ag3  1  0.433524  0.573839  0.665975  1
  Ag  Ag4  1  0.658874  0.721335  0.881090  1
  Ag  Ag5  1  0.721335  0.658874  0.381090  1
  Ag  Ag6  1  0.556353  0.065092  0.546450  1
  Ag  Ag7  1  0.065092  0.556353  0.046450  1
  Ag  Ag8  1  0.763390  0.270190  0.883930  1
  Ag  Ag9  1  0.270190  0.763390  0.383930  1
  Ag  Ag10  1  0.208567  0.216942  0.383846  1
  Ag  Ag11  1  0.216942  0.208567  0.883846  1
  P  P12  1  0.501803  0.999274  0.123284  1
  P  P13  1  0.999274  0.501803  0.623284  1
  S  S14  1  0.821516  0.783913  0.678700  1
  S  S15  1  0.783913  0.821516  0.178700  1
  S  S16  1  0.327244  0.282471  0.178439  1
  S  S17  1  0.282471  0.327244  0.678439  1
  S  S18  1  0.560376  0.055608  0.954415  1
  S  S19  1  0.055608  0.560376  0.454415  1
  S  S20  1  0.873741  0.391676  0.003750  1
  S  S21  1  0.391676  0.873741  0.503750  1
  S  S22  1  0.826995  0.332874  0.677887  1
  S  S23  1  0.332874  0.826995  0.177887  1
  I  I24  1  0.253147  0.766501  0.866887  1
  I  I25  1  0.766501  0.253147  0.366887  1
