# generated using pymatgen
data_Dy12InCo4Os
_symmetry_space_group_name_H-M   'P 1'
_cell_length_a   8.30985617
_cell_length_b   8.30985659
_cell_length_c   8.30985657
_cell_angle_alpha   111.41802809
_cell_angle_beta   110.54661582
_cell_angle_gamma   106.49077482
_symmetry_Int_Tables_number   1
_chemical_formula_structural   Dy12InCo4Os
_chemical_formula_sum   'Dy12 In1 Co4 Os1'
_cell_volume   440.81428313
_cell_formula_units_Z   1
loop_
 _symmetry_equiv_pos_site_id
 _symmetry_equiv_pos_as_xyz
  1  'x, y, z'
loop_
 _atom_site_type_symbol
 _atom_site_label
 _atom_site_symmetry_multiplicity
 _atom_site_fract_x
 _atom_site_fract_y
 _atom_site_fract_z
 _atom_site_occupancy
  Dy  Dy0  1  0.413133  0.219909  0.193225  1
  Dy  Dy1  1  0.586867  0.780091  0.806775  1
  Dy  Dy2  1  0.026685  0.219909  0.806775  1
  Dy  Dy3  1  0.973315  0.780091  0.193225  1
  Dy  Dy4  1  0.180948  0.280949  0.461896  1
  Dy  Dy5  1  0.819052  0.719051  0.538104  1
  Dy  Dy6  1  0.180948  0.719051  0.899999  1
  Dy  Dy7  1  0.819052  0.280949  0.100001  1
  Dy  Dy8  1  0.315650  0.622270  0.306620  1
  Dy  Dy9  1  0.684350  0.377730  0.693380  1
  Dy  Dy10  1  0.315650  0.009029  0.693380  1
  Dy  Dy11  1  0.684350  0.990971  0.306620  1
  In  In12  1  0.500000  0.500000  0.000000  1
  Co  Co13  1  0.376128  0.000000  0.376128  1
  Co  Co14  1  0.623872  0.000000  0.623872  1
  Co  Co15  1  0.111171  0.611171  0.500000  1
  Co  Co16  1  0.888829  0.388829  0.500000  1
  Os  Os17  1  0.000000  0.000000  0.000000  1
