# generated using pymatgen
data_Dy4ErP12Ru10Rh9
_symmetry_space_group_name_H-M   'P 1'
_cell_length_a   12.61496202
_cell_length_b   12.58376136
_cell_length_c   3.93279000
_cell_angle_alpha   90.00000000
_cell_angle_beta   90.00000000
_cell_angle_gamma   119.84380508
_symmetry_Int_Tables_number   1
_chemical_formula_structural   Dy4ErP12Ru10Rh9
_chemical_formula_sum   'Dy4 Er1 P12 Ru10 Rh9'
_cell_volume   541.51339830
_cell_formula_units_Z   1
loop_
 _symmetry_equiv_pos_site_id
 _symmetry_equiv_pos_as_xyz
  1  'x, y, z'
loop_
 _atom_site_type_symbol
 _atom_site_label
 _atom_site_symmetry_multiplicity
 _atom_site_fract_x
 _atom_site_fract_y
 _atom_site_fract_z
 _atom_site_occupancy
  Dy  Dy0  1  0.666745  0.332616  0.000000  1
  Dy  Dy1  1  0.333405  0.666834  0.000000  1
  Dy  Dy2  1  0.185767  0.187424  0.500000  1
  Dy  Dy3  1  0.999928  0.812909  0.500000  1
  Er  Er4  1  0.811971  0.000889  0.500000  1
  P  P5  1  0.631165  0.997704  0.000000  1
  P  P6  1  0.366322  0.371948  0.000000  1
  P  P7  1  0.005949  0.633457  0.000000  1
  P  P8  1  0.686995  0.519793  0.500000  1
  P  P9  1  0.831189  0.308412  0.500000  1
  P  P10  1  0.314726  0.832364  0.500000  1
  P  P11  1  0.517928  0.685873  0.500000  1
  P  P12  1  0.180305  0.001253  0.000000  1
  P  P13  1  0.819878  0.819722  0.000000  1
  P  P14  1  0.995929  0.179883  0.000000  1
  P  P15  1  0.479140  0.165483  0.500000  1
  P  P16  1  0.168060  0.482694  0.500000  1
  Ru  Ru17  1  0.126987  0.641279  0.500000  1
  Ru  Ru18  1  0.360357  0.487097  0.500000  1
  Ru  Ru19  1  0.512665  0.871737  0.500000  1
  Ru  Ru20  1  0.717081  0.715980  0.500000  1
  Ru  Ru21  1  0.001028  0.284704  0.500000  1
  Ru  Ru22  1  0.450455  0.002613  0.000000  1
  Ru  Ru23  1  0.553166  0.548106  0.000000  1
  Ru  Ru24  1  0.000267  0.449090  0.000000  1
  Ru  Ru25  1  0.817013  0.194764  0.000000  1
  Ru  Ru26  1  0.283723  0.001212  0.500000  1
  Rh  Rh27  1  0.624705  0.804217  0.000000  1
  Rh  Rh28  1  0.180824  0.375513  0.000000  1
  Rh  Rh29  1  0.375165  0.184052  0.000000  1
  Rh  Rh30  1  0.195882  0.821230  0.000000  1
  Rh  Rh31  1  0.808601  0.624088  0.000000  1
  Rh  Rh32  1  0.870024  0.507630  0.500000  1
  Rh  Rh33  1  0.490152  0.359717  0.500000  1
  Rh  Rh34  1  0.637140  0.127513  0.500000  1
  Rh  Rh35  1  0.999363  0.000197  0.000000  1
