# generated using pymatgen
data_Pr2NdCCl5
_symmetry_space_group_name_H-M   'P 1'
_cell_length_a   7.48434693
_cell_length_b   8.90857704
_cell_length_c   8.98049066
_cell_angle_alpha   108.66634834
_cell_angle_beta   97.17448041
_cell_angle_gamma   106.22387727
_symmetry_Int_Tables_number   1
_chemical_formula_structural   Pr2NdCCl5
_chemical_formula_sum   'Pr4 Nd2 C2 Cl10'
_cell_volume   529.35427968
_cell_formula_units_Z   2
loop_
 _symmetry_equiv_pos_site_id
 _symmetry_equiv_pos_as_xyz
  1  'x, y, z'
loop_
 _atom_site_type_symbol
 _atom_site_label
 _atom_site_symmetry_multiplicity
 _atom_site_fract_x
 _atom_site_fract_y
 _atom_site_fract_z
 _atom_site_occupancy
  Pr  Pr0  1  0.878672  0.950720  0.234438  1
  Pr  Pr1  1  0.121328  0.049280  0.765562  1
  Pr  Pr2  1  0.027291  0.710861  0.910146  1
  Pr  Pr3  1  0.972709  0.289139  0.089854  1
  Nd  Nd4  1  0.603280  0.839815  0.787597  1
  Nd  Nd5  1  0.396720  0.160185  0.212403  1
  C  C6  1  0.906114  0.964998  0.951184  1
  C  C7  1  0.093886  0.035002  0.048816  1
  Cl  Cl8  1  0.755267  0.914718  0.538579  1
  Cl  Cl9  1  0.244733  0.085282  0.461421  1
  Cl  Cl10  1  0.457146  0.827888  0.076909  1
  Cl  Cl11  1  0.542854  0.172112  0.923091  1
  Cl  Cl12  1  0.816827  0.262630  0.355238  1
  Cl  Cl13  1  0.183173  0.737370  0.644762  1
  Cl  Cl14  1  0.909141  0.626684  0.168649  1
  Cl  Cl15  1  0.090859  0.373316  0.831351  1
  Cl  Cl16  1  0.650941  0.533547  0.717422  1
  Cl  Cl17  1  0.349059  0.466453  0.282578  1
