# generated using pymatgen
data_SmY2UN4
_symmetry_space_group_name_H-M   'P 1'
_cell_length_a   6.01110682
_cell_length_b   6.01101255
_cell_length_c   4.94787700
_cell_angle_alpha   65.69784757
_cell_angle_beta   65.69856602
_cell_angle_gamma   48.60630137
_symmetry_Int_Tables_number   1
_chemical_formula_structural   SmY2UN4
_chemical_formula_sum   'Sm1 Y2 U1 N4'
_cell_volume   119.66599463
_cell_formula_units_Z   1
loop_
 _symmetry_equiv_pos_site_id
 _symmetry_equiv_pos_as_xyz
  1  'x, y, z'
loop_
 _atom_site_type_symbol
 _atom_site_label
 _atom_site_symmetry_multiplicity
 _atom_site_fract_x
 _atom_site_fract_y
 _atom_site_fract_z
 _atom_site_occupancy
  Sm  Sm0  1  0.497137  0.502862  0.502863  1
  Y  Y1  1  0.747077  0.752923  0.752909  1
  Y  Y2  1  0.247091  0.252909  0.252923  1
  U  U3  1  0.997282  0.002720  0.002718  1
  N  N4  1  0.997178  0.002822  0.504279  1
  N  N5  1  0.223152  0.228708  0.776848  1
  N  N6  1  0.495721  0.504279  0.002822  1
  N  N7  1  0.771297  0.776842  0.228703  1
