# generated using pymatgen
data_U3TaNi2(PRu)6
_symmetry_space_group_name_H-M   'P 1'
_cell_length_a   3.85294300
_cell_length_b   10.92881700
_cell_length_c   12.94544800
_cell_angle_alpha   90.00000000
_cell_angle_beta   90.00000000
_cell_angle_gamma   90.00000000
_symmetry_Int_Tables_number   1
_chemical_formula_structural   U3TaNi2(PRu)6
_chemical_formula_sum   'U6 Ta2 Ni4 P12 Ru12'
_cell_volume   545.10833490
_cell_formula_units_Z   2
loop_
 _symmetry_equiv_pos_site_id
 _symmetry_equiv_pos_as_xyz
  1  'x, y, z'
loop_
 _atom_site_type_symbol
 _atom_site_label
 _atom_site_symmetry_multiplicity
 _atom_site_fract_x
 _atom_site_fract_y
 _atom_site_fract_z
 _atom_site_occupancy
  U  U0  1  0.751770  0.000000  0.474134  1
  U  U1  1  0.251770  0.500000  0.525866  1
  U  U2  1  0.251873  0.679315  0.793379  1
  U  U3  1  0.251873  0.320685  0.793379  1
  U  U4  1  0.751873  0.820685  0.206621  1
  U  U5  1  0.751873  0.179315  0.206621  1
  Ta  Ta6  1  0.251871  0.000000  0.849780  1
  Ta  Ta7  1  0.751871  0.500000  0.150220  1
  Ni  Ni8  1  0.251979  0.169908  0.009901  1
  Ni  Ni9  1  0.251979  0.830092  0.009901  1
  Ni  Ni10  1  0.751979  0.330092  0.990099  1
  Ni  Ni11  1  0.751979  0.669908  0.990099  1
  P  P12  1  0.251746  0.190829  0.386808  1
  P  P13  1  0.251746  0.809171  0.386808  1
  P  P14  1  0.751746  0.309171  0.613192  1
  P  P15  1  0.751746  0.690829  0.613192  1
  P  P16  1  0.251914  0.000000  0.118676  1
  P  P17  1  0.751914  0.500000  0.881324  1
  P  P18  1  0.251967  0.660641  0.106323  1
  P  P19  1  0.251967  0.339359  0.106323  1
  P  P20  1  0.751967  0.839359  0.893677  1
  P  P21  1  0.751967  0.160641  0.893677  1
  P  P22  1  0.251667  0.000000  0.650326  1
  P  P23  1  0.751667  0.500000  0.349674  1
  Ru  Ru24  1  0.752017  0.000000  0.016948  1
  Ru  Ru25  1  0.252017  0.500000  0.983052  1
  Ru  Ru26  1  0.251721  0.198295  0.568726  1
  Ru  Ru27  1  0.251721  0.801705  0.568726  1
  Ru  Ru28  1  0.751721  0.301705  0.431274  1
  Ru  Ru29  1  0.751721  0.698295  0.431274  1
  Ru  Ru30  1  0.251644  0.626777  0.285883  1
  Ru  Ru31  1  0.251644  0.373223  0.285883  1
  Ru  Ru32  1  0.751644  0.873223  0.714117  1
  Ru  Ru33  1  0.751644  0.126777  0.714117  1
  Ru  Ru34  1  0.251704  0.000000  0.300560  1
  Ru  Ru35  1  0.751704  0.500000  0.699440  1
