# generated using pymatgen
data_LiPr2Nd3(P2Ru3)6
_symmetry_space_group_name_H-M   'P 1'
_cell_length_a   12.73270102
_cell_length_b   12.55426908
_cell_length_c   4.01333400
_cell_angle_alpha   90.00000000
_cell_angle_beta   90.00000000
_cell_angle_gamma   119.51805040
_symmetry_Int_Tables_number   1
_chemical_formula_structural   LiPr2Nd3(P2Ru3)6
_chemical_formula_sum   'Li1 Pr2 Nd3 P12 Ru18'
_cell_volume   558.26013617
_cell_formula_units_Z   1
loop_
 _symmetry_equiv_pos_site_id
 _symmetry_equiv_pos_as_xyz
  1  'x, y, z'
loop_
 _atom_site_type_symbol
 _atom_site_label
 _atom_site_symmetry_multiplicity
 _atom_site_fract_x
 _atom_site_fract_y
 _atom_site_fract_z
 _atom_site_occupancy
  Li  Li0  1  0.999991  0.562246  0.000000  1
  Pr  Pr1  1  0.000326  0.182806  0.500000  1
  Pr  Pr2  1  0.817583  0.814700  0.500000  1
  Nd  Nd3  1  0.182726  0.997621  0.500000  1
  Nd  Nd4  1  0.658793  0.328872  0.000000  1
  Nd  Nd5  1  0.340921  0.669914  0.000000  1
  P  P6  1  0.000233  0.803737  0.000000  1
  P  P7  1  0.184423  0.185934  0.000000  1
  P  P8  1  0.815465  0.001718  0.000000  1
  P  P9  1  0.692419  0.172003  0.500000  1
  P  P10  1  0.818636  0.519917  0.500000  1
  P  P11  1  0.471665  0.305000  0.500000  1
  P  P12  1  0.181390  0.701382  0.500000  1
  P  P13  1  0.528335  0.833471  0.500000  1
  P  P14  1  0.307455  0.479476  0.500000  1
  P  P15  1  0.000011  0.370683  0.000000  1
  P  P16  1  0.623001  0.623234  0.000000  1
  P  P17  1  0.376620  0.000249  0.000000  1
  Ru  Ru18  1  0.442889  0.444792  0.000000  1
  Ru  Ru19  1  0.556908  0.001986  0.000000  1
  Ru  Ru20  1  0.000197  0.707574  0.500000  1
  Ru  Ru21  1  0.282136  0.285026  0.500000  1
  Ru  Ru22  1  0.717905  0.003122  0.500000  1
  Ru  Ru23  1  0.804678  0.187004  0.000000  1
  Ru  Ru24  1  0.812699  0.616727  0.000000  1
  Ru  Ru25  1  0.373424  0.190662  0.000000  1
  Ru  Ru26  1  0.187705  0.804750  0.000000  1
  Ru  Ru27  1  0.625965  0.817434  0.000000  1
  Ru  Ru28  1  0.195371  0.382228  0.000000  1
  Ru  Ru29  1  0.877593  0.368919  0.500000  1
  Ru  Ru30  1  0.628946  0.508577  0.500000  1
  Ru  Ru31  1  0.490719  0.126593  0.500000  1
  Ru  Ru32  1  0.370756  0.879450  0.500000  1
  Ru  Ru33  1  0.509264  0.635638  0.500000  1
  Ru  Ru34  1  0.122333  0.491452  0.500000  1
  Ru  Ru35  1  0.000518  0.995108  0.000000  1
