# generated using pymatgen
data_Fe8Si15Ge
_symmetry_space_group_name_H-M   'P 1'
_cell_length_a   6.30960733
_cell_length_b   6.30761177
_cell_length_c   7.84539647
_cell_angle_alpha   89.99755922
_cell_angle_beta   89.91225721
_cell_angle_gamma   103.69957170
_symmetry_Int_Tables_number   1
_chemical_formula_structural   Fe8Si15Ge
_chemical_formula_sum   'Fe8 Si15 Ge1'
_cell_volume   303.35222879
_cell_formula_units_Z   1
loop_
 _symmetry_equiv_pos_site_id
 _symmetry_equiv_pos_as_xyz
  1  'x, y, z'
loop_
 _atom_site_type_symbol
 _atom_site_label
 _atom_site_symmetry_multiplicity
 _atom_site_fract_x
 _atom_site_fract_y
 _atom_site_fract_z
 _atom_site_occupancy
  Fe  Fe0  1  0.192604  0.192672  0.812034  1
  Fe  Fe1  1  0.306091  0.302014  0.313123  1
  Fe  Fe2  1  0.692369  0.692780  0.687743  1
  Fe  Fe3  1  0.811828  0.808349  0.187145  1
  Fe  Fe4  1  0.281796  0.717868  0.503594  1
  Fe  Fe5  1  0.214459  0.784411  0.997252  1
  Fe  Fe6  1  0.716898  0.283435  0.500170  1
  Fe  Fe7  1  0.782596  0.216136  0.999649  1
  Si  Si8  1  0.081365  0.828712  0.726858  1
  Si  Si9  1  0.169317  0.920952  0.273550  1
  Si  Si10  1  0.328385  0.581927  0.773406  1
  Si  Si11  1  0.581620  0.328993  0.772947  1
  Si  Si12  1  0.918352  0.171090  0.273100  1
  Si  Si13  1  0.829735  0.082576  0.726794  1
  Si  Si14  1  0.673725  0.415131  0.227052  1
  Si  Si15  1  0.142596  0.399299  0.046965  1
  Si  Si16  1  0.354132  0.097968  0.550168  1
  Si  Si17  1  0.901962  0.645889  0.450466  1
  Si  Si18  1  0.599685  0.855959  0.947777  1
  Si  Si19  1  0.854232  0.598471  0.950051  1
  Si  Si20  1  0.647974  0.904004  0.453753  1
  Si  Si21  1  0.098331  0.354523  0.550135  1
  Si  Si22  1  0.401103  0.145141  0.049163  1
  Ge  Ge23  1  0.418847  0.671701  0.227104  1
