# generated using pymatgen
data_TbHoNp3O10
_symmetry_space_group_name_H-M   'P 1'
_cell_length_a   6.54659659
_cell_length_b   6.54659775
_cell_length_c   6.57487379
_cell_angle_alpha   99.90047142
_cell_angle_beta   99.28727869
_cell_angle_gamma   131.70059816
_symmetry_Int_Tables_number   1
_chemical_formula_structural   TbHoNp3O10
_chemical_formula_sum   'Tb1 Ho1 Np3 O10'
_cell_volume   192.13818864
_cell_formula_units_Z   1
loop_
 _symmetry_equiv_pos_site_id
 _symmetry_equiv_pos_as_xyz
  1  'x, y, z'
loop_
 _atom_site_type_symbol
 _atom_site_label
 _atom_site_symmetry_multiplicity
 _atom_site_fract_x
 _atom_site_fract_y
 _atom_site_fract_z
 _atom_site_occupancy
  Tb  Tb0  1  0.501555  0.498871  0.000426  1
  Ho  Ho1  1  0.898670  0.700586  0.599255  1
  Np  Np2  1  0.102104  0.299631  0.401736  1
  Np  Np3  1  0.699591  0.099979  0.799570  1
  Np  Np4  1  0.298349  0.900825  0.199174  1
  O  O5  1  0.041524  0.153669  0.696301  1
  O  O6  1  0.542631  0.654775  0.696301  1
  O  O7  1  0.254139  0.750460  0.494669  1
  O  O8  1  0.439453  0.338358  0.300944  1
  O  O9  1  0.744210  0.240530  0.494669  1
  O  O10  1  0.355530  0.043096  0.901558  1
  O  O11  1  0.858463  0.546029  0.901558  1
  O  O12  1  0.962588  0.861492  0.300944  1
  O  O13  1  0.144900  0.450153  0.106447  1
  O  O14  1  0.656293  0.961547  0.106447  1
