# generated using pymatgen
data_Nd4In2Pd3Rh
_symmetry_space_group_name_H-M   'P 1'
_cell_length_a   7.82799450
_cell_length_b   7.82799450
_cell_length_c   3.89530900
_cell_angle_alpha   90.00000000
_cell_angle_beta   90.00000000
_cell_angle_gamma   90.18772660
_symmetry_Int_Tables_number   1
_chemical_formula_structural   Nd4In2Pd3Rh
_chemical_formula_sum   'Nd4 In2 Pd3 Rh1'
_cell_volume   238.69350809
_cell_formula_units_Z   1
loop_
 _symmetry_equiv_pos_site_id
 _symmetry_equiv_pos_as_xyz
  1  'x, y, z'
loop_
 _atom_site_type_symbol
 _atom_site_label
 _atom_site_symmetry_multiplicity
 _atom_site_fract_x
 _atom_site_fract_y
 _atom_site_fract_z
 _atom_site_occupancy
  Nd  Nd0  1  0.324540  0.835457  0.500000  1
  Nd  Nd1  1  0.828362  0.671638  0.500000  1
  Nd  Nd2  1  0.180873  0.319127  0.500000  1
  Nd  Nd3  1  0.664543  0.175460  0.500000  1
  In  In4  1  0.000253  0.000569  0.000000  1
  In  In5  1  0.499431  0.499747  0.000000  1
  Pd  Pd6  1  0.872754  0.370847  0.000000  1
  Pd  Pd7  1  0.129153  0.627246  0.000000  1
  Pd  Pd8  1  0.629076  0.870924  0.000000  1
  Rh  Rh9  1  0.371013  0.128987  0.000000  1
