# generated using pymatgen
data_La5Pr(Sn6Ru)2
_symmetry_space_group_name_H-M   'P 1'
_cell_length_a   8.79561408
_cell_length_b   8.79561401
_cell_length_c   13.58836500
_cell_angle_alpha   90.00000000
_cell_angle_beta   90.00000000
_cell_angle_gamma   148.36203883
_symmetry_Int_Tables_number   1
_chemical_formula_structural   La5Pr(Sn6Ru)2
_chemical_formula_sum   'La5 Pr1 Sn12 Ru2'
_cell_volume   551.42506980
_cell_formula_units_Z   1
loop_
 _symmetry_equiv_pos_site_id
 _symmetry_equiv_pos_as_xyz
  1  'x, y, z'
loop_
 _atom_site_type_symbol
 _atom_site_label
 _atom_site_symmetry_multiplicity
 _atom_site_fract_x
 _atom_site_fract_y
 _atom_site_fract_z
 _atom_site_occupancy
  La  La0  1  0.603498  0.396502  0.250000  1
  La  La1  1  0.399275  0.600725  0.404943  1
  La  La2  1  0.600477  0.399523  0.595098  1
  La  La3  1  0.399275  0.600725  0.095057  1
  La  La4  1  0.600477  0.399523  0.904902  1
  Pr  Pr5  1  0.397279  0.602721  0.750000  1
  Sn  Sn6  1  0.927682  0.072318  0.922271  1
  Sn  Sn7  1  0.071398  0.928602  0.076426  1
  Sn  Sn8  1  0.927682  0.072318  0.577729  1
  Sn  Sn9  1  0.071398  0.928602  0.423574  1
  Sn  Sn10  1  0.958769  0.041231  0.250000  1
  Sn  Sn11  1  0.040778  0.959222  0.750000  1
  Sn  Sn12  1  0.746885  0.253116  0.433345  1
  Sn  Sn13  1  0.253919  0.746081  0.567459  1
  Sn  Sn14  1  0.746885  0.253116  0.066655  1
  Sn  Sn15  1  0.253919  0.746081  0.932541  1
  Sn  Sn16  1  0.234811  0.765189  0.250000  1
  Sn  Sn17  1  0.765912  0.234088  0.750000  1
  Ru  Ru18  1  0.800511  0.199489  0.250000  1
  Ru  Ru19  1  0.199173  0.800827  0.750000  1
