# generated using pymatgen
data_TaCd6IO12
_symmetry_space_group_name_H-M   'P 1'
_cell_length_a   5.76286112
_cell_length_b   5.61698039
_cell_length_c   9.90158554
_cell_angle_alpha   55.81979545
_cell_angle_beta   89.72986722
_cell_angle_gamma   90.26953087
_symmetry_Int_Tables_number   1
_chemical_formula_structural   TaCd6IO12
_chemical_formula_sum   'Ta1 Cd6 I1 O12'
_cell_volume   265.13897758
_cell_formula_units_Z   1
loop_
 _symmetry_equiv_pos_site_id
 _symmetry_equiv_pos_as_xyz
  1  'x, y, z'
loop_
 _atom_site_type_symbol
 _atom_site_label
 _atom_site_symmetry_multiplicity
 _atom_site_fract_x
 _atom_site_fract_y
 _atom_site_fract_z
 _atom_site_occupancy
  Ta  Ta0  1  0.000000  0.000000  0.000000  1
  Cd  Cd1  1  0.959991  0.271472  0.228817  1
  Cd  Cd2  1  0.448593  0.773802  0.243456  1
  Cd  Cd3  1  0.040009  0.728528  0.771183  1
  Cd  Cd4  1  0.551407  0.226198  0.756544  1
  Cd  Cd5  1  0.000000  0.500000  0.500000  1
  Cd  Cd6  1  0.500000  0.500000  0.000000  1
  I  I7  1  0.500000  0.000000  0.500000  1
  O  O8  1  0.288181  0.906306  0.926288  1
  O  O9  1  0.771455  0.065739  0.587690  1
  O  O10  1  0.711819  0.093694  0.073712  1
  O  O11  1  0.228545  0.934261  0.412310  1
  O  O12  1  0.175031  0.259374  0.040872  1
  O  O13  1  0.671571  0.780298  0.441527  1
  O  O14  1  0.824969  0.740626  0.959128  1
  O  O15  1  0.328429  0.219702  0.558473  1
  O  O16  1  0.420232  0.658098  0.710973  1
  O  O17  1  0.930505  0.339164  0.765183  1
  O  O18  1  0.579768  0.341902  0.289027  1
  O  O19  1  0.069495  0.660836  0.234817  1
