# generated using pymatgen
data_Y12AlFe4Sn
_symmetry_space_group_name_H-M   'P 1'
_cell_length_a   8.42347793
_cell_length_b   8.42347814
_cell_length_c   8.42347800
_cell_angle_alpha   110.87639156
_cell_angle_beta   110.72769503
_cell_angle_gamma   106.84119741
_symmetry_Int_Tables_number   1
_chemical_formula_structural   Y12AlFe4Sn
_chemical_formula_sum   'Y12 Al1 Fe4 Sn1'
_cell_volume   459.37650843
_cell_formula_units_Z   1
loop_
 _symmetry_equiv_pos_site_id
 _symmetry_equiv_pos_as_xyz
  1  'x, y, z'
loop_
 _atom_site_type_symbol
 _atom_site_label
 _atom_site_symmetry_multiplicity
 _atom_site_fract_x
 _atom_site_fract_y
 _atom_site_fract_z
 _atom_site_occupancy
  Y  Y0  1  0.435324  0.227456  0.207868  1
  Y  Y1  1  0.564676  0.772544  0.792132  1
  Y  Y2  1  0.019591  0.227456  0.792132  1
  Y  Y3  1  0.980409  0.772544  0.207868  1
  Y  Y4  1  0.186872  0.284656  0.471527  1
  Y  Y5  1  0.813128  0.715344  0.528473  1
  Y  Y6  1  0.186872  0.715344  0.902217  1
  Y  Y7  1  0.813128  0.284656  0.097783  1
  Y  Y8  1  0.310648  0.610140  0.299493  1
  Y  Y9  1  0.689352  0.389860  0.700507  1
  Y  Y10  1  0.310648  0.011155  0.700507  1
  Y  Y11  1  0.689352  0.988845  0.299493  1
  Al  Al12  1  0.000000  0.000000  0.000000  1
  Fe  Fe13  1  0.385933  0.000000  0.385933  1
  Fe  Fe14  1  0.614067  0.000000  0.614067  1
  Fe  Fe15  1  0.106589  0.606589  0.500000  1
  Fe  Fe16  1  0.893411  0.393411  0.500000  1
  Sn  Sn17  1  0.500000  0.500000  0.000000  1
