# generated using pymatgen
data_Zr4Ti3NbP4
_symmetry_space_group_name_H-M   'P 1'
_cell_length_a   3.58171600
_cell_length_b   6.79827011
_cell_length_c   8.25344514
_cell_angle_alpha   89.97923836
_cell_angle_beta   90.00000000
_cell_angle_gamma   90.00000000
_symmetry_Int_Tables_number   1
_chemical_formula_structural   Zr4Ti3NbP4
_chemical_formula_sum   'Zr4 Ti3 Nb1 P4'
_cell_volume   200.96702489
_cell_formula_units_Z   1
loop_
 _symmetry_equiv_pos_site_id
 _symmetry_equiv_pos_as_xyz
  1  'x, y, z'
loop_
 _atom_site_type_symbol
 _atom_site_label
 _atom_site_symmetry_multiplicity
 _atom_site_fract_x
 _atom_site_fract_y
 _atom_site_fract_z
 _atom_site_occupancy
  Zr  Zr0  1  0.250000  0.536815  0.831444  1
  Zr  Zr1  1  0.750000  0.963427  0.329376  1
  Zr  Zr2  1  0.250000  0.037543  0.671357  1
  Zr  Zr3  1  0.750000  0.465227  0.167305  1
  Ti  Ti4  1  0.250000  0.134255  0.060301  1
  Ti  Ti5  1  0.750000  0.863906  0.941042  1
  Ti  Ti6  1  0.250000  0.635502  0.440975  1
  Nb  Nb7  1  0.750000  0.362515  0.558476  1
  P  P8  1  0.750000  0.739747  0.640242  1
  P  P9  1  0.250000  0.762555  0.138654  1
  P  P10  1  0.750000  0.236423  0.865882  1
  P  P11  1  0.250000  0.262086  0.354946  1
