# generated using pymatgen
data_NdGdTe2(ClO3)2
_symmetry_space_group_name_H-M   'P 1'
_cell_length_a   7.37904100
_cell_length_b   7.96122913
_cell_length_c   8.38808963
_cell_angle_alpha   73.86546618
_cell_angle_beta   90.00000000
_cell_angle_gamma   90.00000000
_symmetry_Int_Tables_number   1
_chemical_formula_structural   NdGdTe2(ClO3)2
_chemical_formula_sum   'Nd2 Gd2 Te4 Cl4 O12'
_cell_volume   473.35943935
_cell_formula_units_Z   2
loop_
 _symmetry_equiv_pos_site_id
 _symmetry_equiv_pos_as_xyz
  1  'x, y, z'
loop_
 _atom_site_type_symbol
 _atom_site_label
 _atom_site_symmetry_multiplicity
 _atom_site_fract_x
 _atom_site_fract_y
 _atom_site_fract_z
 _atom_site_occupancy
  Nd  Nd0  1  0.754054  0.285466  0.380052  1
  Nd  Nd1  1  0.254054  0.214534  0.619948  1
  Gd  Gd2  1  0.246783  0.706353  0.648282  1
  Gd  Gd3  1  0.746783  0.793647  0.351718  1
  Te  Te4  1  0.206210  0.574498  0.268181  1
  Te  Te5  1  0.706210  0.925502  0.731819  1
  Te  Te6  1  0.793132  0.431901  0.731812  1
  Te  Te7  1  0.293132  0.068099  0.268188  1
  Cl  Cl8  1  0.694341  0.607560  0.117470  1
  Cl  Cl9  1  0.194341  0.892440  0.882530  1
  Cl  Cl10  1  0.305863  0.382512  0.883182  1
  Cl  Cl11  1  0.805863  0.117488  0.116818  1
  O  O12  1  0.300745  0.516565  0.490614  1
  O  O13  1  0.800745  0.983435  0.509386  1
  O  O14  1  0.698964  0.510875  0.509309  1
  O  O15  1  0.198964  0.989125  0.490691  1
  O  O16  1  0.045882  0.740071  0.314213  1
  O  O17  1  0.545882  0.759929  0.685787  1
  O  O18  1  0.939539  0.266008  0.664784  1
  O  O19  1  0.439539  0.233992  0.335216  1
  O  O20  1  0.064094  0.366195  0.322592  1
  O  O21  1  0.564094  0.133805  0.677408  1
  O  O22  1  0.950393  0.626179  0.698598  1
  O  O23  1  0.450393  0.873821  0.301402  1
