# generated using pymatgen
data_Tb12Nd8Si13Pd3
_symmetry_space_group_name_H-M   'P 1'
_cell_length_a   7.84233704
_cell_length_b   7.84477180
_cell_length_c   14.31419435
_cell_angle_alpha   90.08062856
_cell_angle_beta   90.54689889
_cell_angle_gamma   90.05353991
_symmetry_Int_Tables_number   1
_chemical_formula_structural   Tb12Nd8Si13Pd3
_chemical_formula_sum   'Tb12 Nd8 Si13 Pd3'
_cell_volume   880.58709659
_cell_formula_units_Z   1
loop_
 _symmetry_equiv_pos_site_id
 _symmetry_equiv_pos_as_xyz
  1  'x, y, z'
loop_
 _atom_site_type_symbol
 _atom_site_label
 _atom_site_symmetry_multiplicity
 _atom_site_fract_x
 _atom_site_fract_y
 _atom_site_fract_z
 _atom_site_occupancy
  Tb  Tb0  1  0.496112  0.360660  0.120764  1
  Tb  Tb1  1  0.979537  0.144864  0.627344  1
  Tb  Tb2  1  0.866142  0.017779  0.876290  1
  Tb  Tb3  1  0.141346  0.978304  0.372514  1
  Tb  Tb4  1  0.504050  0.641113  0.621185  1
  Tb  Tb5  1  0.363713  0.502823  0.875964  1
  Tb  Tb6  1  0.637749  0.496502  0.378923  1
  Tb  Tb7  1  0.012891  0.856558  0.128871  1
  Tb  Tb8  1  0.308566  0.309756  0.502047  1
  Tb  Tb9  1  0.185062  0.831223  0.744757  1
  Tb  Tb10  1  0.821156  0.176912  0.248665  1
  Tb  Tb11  1  0.690608  0.690777  0.000450  1
  Nd  Nd12  1  0.635265  0.984451  0.463044  1
  Nd  Nd13  1  0.358672  0.008766  0.960744  1
  Nd  Nd14  1  0.981725  0.635655  0.537252  1
  Nd  Nd15  1  0.491670  0.849798  0.211625  1
  Nd  Nd16  1  0.512379  0.152705  0.718017  1
  Nd  Nd17  1  0.860068  0.502940  0.790615  1
  Nd  Nd18  1  0.149855  0.503587  0.286247  1
  Nd  Nd19  1  0.015648  0.366367  0.039345  1
  Si  Si20  1  0.437927  0.200856  0.309936  1
  Si  Si21  1  0.567042  0.796403  0.809987  1
  Si  Si22  1  0.204449  0.442074  0.689598  1
  Si  Si23  1  0.792878  0.560263  0.191195  1
  Si  Si24  1  0.067215  0.713891  0.937416  1
  Si  Si25  1  0.789709  0.852174  0.687429  1
  Si  Si26  1  0.213381  0.147289  0.186211  1
  Si  Si27  1  0.846877  0.783599  0.313826  1
  Si  Si28  1  0.345119  0.691187  0.435740  1
  Si  Si29  1  0.654499  0.305650  0.935737  1
  Si  Si30  1  0.692964  0.345214  0.565086  1
  Si  Si31  1  0.296791  0.653158  0.060691  1
  Si  Si32  1  0.151710  0.215758  0.812776  1
  Pd  Pd33  1  0.279760  0.935555  0.558490  1
  Pd  Pd34  1  0.715608  0.069456  0.061290  1
  Pd  Pd35  1  0.931858  0.275935  0.439930  1
