# generated using pymatgen
data_LiHo16In(HgRh2)2
_symmetry_space_group_name_H-M   'P 1'
_cell_length_a   9.60739332
_cell_length_b   9.56516101
_cell_length_c   9.57267400
_cell_angle_alpha   59.97401401
_cell_angle_beta   60.11947215
_cell_angle_gamma   60.09960104
_symmetry_Int_Tables_number   1
_chemical_formula_structural   LiHo16In(HgRh2)2
_chemical_formula_sum   'Li1 Ho16 In1 Hg2 Rh4'
_cell_volume   622.94185771
_cell_formula_units_Z   1
loop_
 _symmetry_equiv_pos_site_id
 _symmetry_equiv_pos_as_xyz
  1  'x, y, z'
loop_
 _atom_site_type_symbol
 _atom_site_label
 _atom_site_symmetry_multiplicity
 _atom_site_fract_x
 _atom_site_fract_y
 _atom_site_fract_z
 _atom_site_occupancy
  Li  Li0  1  0.543274  0.822083  0.817322  1
  Ho  Ho1  1  0.186402  0.187694  0.812952  1
  Ho  Ho2  1  0.601451  0.597212  0.203924  1
  Ho  Ho3  1  0.434821  0.062821  0.438642  1
  Ho  Ho4  1  0.438578  0.436837  0.062292  1
  Ho  Ho5  1  0.812861  0.183009  0.815820  1
  Ho  Ho6  1  0.186759  0.810965  0.189082  1
  Ho  Ho7  1  0.434821  0.062821  0.063715  1
  Ho  Ho8  1  0.186759  0.810965  0.813195  1
  Ho  Ho9  1  0.057492  0.440447  0.059557  1
  Ho  Ho10  1  0.812639  0.814455  0.186453  1
  Ho  Ho11  1  0.191861  0.603085  0.602527  1
  Ho  Ho12  1  0.057492  0.440447  0.442505  1
  Ho  Ho13  1  0.058309  0.060275  0.440708  1
  Ho  Ho14  1  0.812861  0.183009  0.188310  1
  Ho  Ho15  1  0.603031  0.202380  0.597295  1
  Ho  Ho16  1  0.601451  0.597212  0.597412  1
  In  In17  1  0.828087  0.505214  0.833349  1
  Hg  Hg18  1  0.829212  0.837609  0.837732  1
  Hg  Hg19  1  0.829212  0.837609  0.495449  1
  Rh  Rh20  1  0.390217  0.821770  0.394007  1
  Rh  Rh21  1  0.389141  0.394506  0.393588  1
  Rh  Rh22  1  0.824130  0.393068  0.391401  1
  Rh  Rh23  1  0.389141  0.394506  0.822766  1
