# generated using pymatgen
data_Ho3Ga24RePd8
_symmetry_space_group_name_H-M   'P 1'
_cell_length_a   8.45605511
_cell_length_b   8.45735224
_cell_length_c   8.45396498
_cell_angle_alpha   89.60719587
_cell_angle_beta   89.59347165
_cell_angle_gamma   89.61599095
_symmetry_Int_Tables_number   1
_chemical_formula_structural   Ho3Ga24RePd8
_chemical_formula_sum   'Ho3 Ga24 Re1 Pd8'
_cell_volume   604.54956858
_cell_formula_units_Z   1
loop_
 _symmetry_equiv_pos_site_id
 _symmetry_equiv_pos_as_xyz
  1  'x, y, z'
loop_
 _atom_site_type_symbol
 _atom_site_label
 _atom_site_symmetry_multiplicity
 _atom_site_fract_x
 _atom_site_fract_y
 _atom_site_fract_z
 _atom_site_occupancy
  Ho  Ho0  1  0.000000  0.500000  0.000000  1
  Ho  Ho1  1  0.500000  0.000000  0.000000  1
  Ho  Ho2  1  0.000000  0.000000  0.500000  1
  Ga  Ga3  1  0.990068  0.643015  0.643099  1
  Ga  Ga4  1  0.643089  0.643144  0.990021  1
  Ga  Ga5  1  0.643008  0.990044  0.643119  1
  Ga  Ga6  1  0.009932  0.356985  0.356901  1
  Ga  Ga7  1  0.356911  0.356856  0.009979  1
  Ga  Ga8  1  0.356992  0.009956  0.356881  1
  Ga  Ga9  1  0.736102  0.499994  0.263947  1
  Ga  Ga10  1  0.263898  0.500006  0.736053  1
  Ga  Ga11  1  0.500037  0.263866  0.736040  1
  Ga  Ga12  1  0.499963  0.736134  0.263960  1
  Ga  Ga13  1  0.264016  0.736030  0.499962  1
  Ga  Ga14  1  0.735984  0.263970  0.500038  1
  Ga  Ga15  1  0.839179  0.141264  0.839260  1
  Ga  Ga16  1  0.141346  0.839217  0.839306  1
  Ga  Ga17  1  0.839248  0.839249  0.141260  1
  Ga  Ga18  1  0.160821  0.858736  0.160740  1
  Ga  Ga19  1  0.858654  0.160783  0.160694  1
  Ga  Ga20  1  0.160752  0.160751  0.858740  1
  Ga  Ga21  1  0.729096  0.489076  0.729099  1
  Ga  Ga22  1  0.489118  0.729161  0.729138  1
  Ga  Ga23  1  0.729068  0.729116  0.489113  1
  Ga  Ga24  1  0.270904  0.510924  0.270901  1
  Ga  Ga25  1  0.510882  0.270839  0.270862  1
  Ga  Ga26  1  0.270932  0.270884  0.510887  1
  Re  Re27  1  0.500000  0.500000  0.500000  1
  Pd  Pd28  1  0.835758  0.835739  0.835726  1
  Pd  Pd29  1  0.164242  0.164261  0.164274  1
  Pd  Pd30  1  0.664592  0.335424  0.999997  1
  Pd  Pd31  1  0.999992  0.335382  0.664699  1
  Pd  Pd32  1  0.335350  0.999991  0.664741  1
  Pd  Pd33  1  0.335408  0.664576  0.000003  1
  Pd  Pd34  1  0.000008  0.664618  0.335301  1
  Pd  Pd35  1  0.664650  0.000009  0.335259  1
