# generated using pymatgen
data_Tb8MgAgPt2
_symmetry_space_group_name_H-M   'P 1'
_cell_length_a   9.71444037
_cell_length_b   9.71444025
_cell_length_c   9.69901700
_cell_angle_alpha   60.05250897
_cell_angle_beta   60.05250938
_cell_angle_gamma   60.20615866
_symmetry_Int_Tables_number   1
_chemical_formula_structural   Tb8MgAgPt2
_chemical_formula_sum   'Tb16 Mg2 Ag2 Pt4'
_cell_volume   648.73254386
_cell_formula_units_Z   2
loop_
 _symmetry_equiv_pos_site_id
 _symmetry_equiv_pos_as_xyz
  1  'x, y, z'
loop_
 _atom_site_type_symbol
 _atom_site_label
 _atom_site_symmetry_multiplicity
 _atom_site_fract_x
 _atom_site_fract_y
 _atom_site_fract_z
 _atom_site_occupancy
  Tb  Tb0  1  0.351011  0.351011  0.348990  1
  Tb  Tb1  1  0.351011  0.351011  0.948988  1
  Tb  Tb2  1  0.355264  0.940894  0.351921  1
  Tb  Tb3  1  0.940894  0.355264  0.351921  1
  Tb  Tb4  1  0.811535  0.188807  0.190227  1
  Tb  Tb5  1  0.188807  0.811535  0.809430  1
  Tb  Tb6  1  0.188807  0.811535  0.190227  1
  Tb  Tb7  1  0.811535  0.188807  0.809430  1
  Tb  Tb8  1  0.189134  0.189134  0.810866  1
  Tb  Tb9  1  0.809833  0.809833  0.190167  1
  Tb  Tb10  1  0.930738  0.564229  0.566657  1
  Tb  Tb11  1  0.564229  0.930738  0.938376  1
  Tb  Tb12  1  0.564229  0.930738  0.566657  1
  Tb  Tb13  1  0.930738  0.564229  0.938376  1
  Tb  Tb14  1  0.563793  0.563793  0.936207  1
  Tb  Tb15  1  0.934120  0.934120  0.565880  1
  Mg  Mg16  1  0.580263  0.267502  0.576118  1
  Mg  Mg17  1  0.267502  0.580263  0.576118  1
  Ag  Ag18  1  0.583213  0.583213  0.584797  1
  Ag  Ag19  1  0.583213  0.583213  0.248777  1
  Pt  Pt20  1  0.143593  0.143593  0.145179  1
  Pt  Pt21  1  0.143593  0.143593  0.567635  1
  Pt  Pt22  1  0.142220  0.570727  0.143527  1
  Pt  Pt23  1  0.570727  0.142220  0.143527  1
