# generated using pymatgen
data_Sr2AlZn4Si3
_symmetry_space_group_name_H-M   'P 1'
_cell_length_a   4.29349800
_cell_length_b   4.31427900
_cell_length_c   10.71051600
_cell_angle_alpha   90.00000000
_cell_angle_beta   90.00000000
_cell_angle_gamma   90.00000000
_symmetry_Int_Tables_number   1
_chemical_formula_structural   Sr2AlZn4Si3
_chemical_formula_sum   'Sr2 Al1 Zn4 Si3'
_cell_volume   198.39461789
_cell_formula_units_Z   1
loop_
 _symmetry_equiv_pos_site_id
 _symmetry_equiv_pos_as_xyz
  1  'x, y, z'
loop_
 _atom_site_type_symbol
 _atom_site_label
 _atom_site_symmetry_multiplicity
 _atom_site_fract_x
 _atom_site_fract_y
 _atom_site_fract_z
 _atom_site_occupancy
  Sr  Sr0  1  0.000000  0.000000  0.994511  1
  Sr  Sr1  1  0.500000  0.500000  0.505196  1
  Al  Al2  1  0.000000  0.500000  0.251692  1
  Zn  Zn3  1  0.500000  0.000000  0.748916  1
  Zn  Zn4  1  0.500000  0.000000  0.250506  1
  Zn  Zn5  1  0.000000  0.500000  0.747405  1
  Zn  Zn6  1  0.500000  0.500000  0.114658  1
  Si  Si7  1  0.000000  0.000000  0.616546  1
  Si  Si8  1  0.000000  0.000000  0.389780  1
  Si  Si9  1  0.500000  0.500000  0.880790  1
