# generated using pymatgen
data_Tm8Cd2RuPt
_symmetry_space_group_name_H-M   'P 1'
_cell_length_a   9.52125042
_cell_length_b   9.52125109
_cell_length_c   9.58354700
_cell_angle_alpha   59.78333143
_cell_angle_beta   59.78332906
_cell_angle_gamma   59.53987834
_symmetry_Int_Tables_number   1
_chemical_formula_structural   Tm8Cd2RuPt
_chemical_formula_sum   'Tm16 Cd4 Ru2 Pt2'
_cell_volume   610.16331364
_cell_formula_units_Z   2
loop_
 _symmetry_equiv_pos_site_id
 _symmetry_equiv_pos_as_xyz
  1  'x, y, z'
loop_
 _atom_site_type_symbol
 _atom_site_label
 _atom_site_symmetry_multiplicity
 _atom_site_fract_x
 _atom_site_fract_y
 _atom_site_fract_z
 _atom_site_occupancy
  Tm  Tm0  1  0.349537  0.349537  0.352460  1
  Tm  Tm1  1  0.349537  0.349537  0.948467  1
  Tm  Tm2  1  0.347632  0.952266  0.350051  1
  Tm  Tm3  1  0.952266  0.347632  0.350051  1
  Tm  Tm4  1  0.815263  0.188096  0.189192  1
  Tm  Tm5  1  0.188096  0.815263  0.807450  1
  Tm  Tm6  1  0.188096  0.815263  0.189192  1
  Tm  Tm7  1  0.815263  0.188096  0.807450  1
  Tm  Tm8  1  0.187472  0.187472  0.812528  1
  Tm  Tm9  1  0.809476  0.809476  0.190524  1
  Tm  Tm10  1  0.936989  0.560029  0.566663  1
  Tm  Tm11  1  0.560029  0.936989  0.936319  1
  Tm  Tm12  1  0.560029  0.936989  0.566663  1
  Tm  Tm13  1  0.936989  0.560029  0.936319  1
  Tm  Tm14  1  0.564317  0.564317  0.935683  1
  Tm  Tm15  1  0.938738  0.938738  0.561262  1
  Cd  Cd16  1  0.579870  0.579870  0.582000  1
  Cd  Cd17  1  0.579870  0.579870  0.258260  1
  Cd  Cd18  1  0.580918  0.254594  0.582244  1
  Cd  Cd19  1  0.254594  0.580918  0.582244  1
  Ru  Ru20  1  0.143871  0.143871  0.139777  1
  Ru  Ru21  1  0.143871  0.143871  0.572483  1
  Pt  Pt22  1  0.144323  0.572958  0.141360  1
  Pt  Pt23  1  0.572958  0.144323  0.141360  1
