# generated using pymatgen
data_TbAlCoNi2B
_symmetry_space_group_name_H-M   'P 1'
_cell_length_a   5.13354600
_cell_length_b   5.16866345
_cell_length_c   6.76086600
_cell_angle_alpha   90.00000000
_cell_angle_beta   90.00000000
_cell_angle_gamma   119.77551249
_symmetry_Int_Tables_number   1
_chemical_formula_structural   TbAlCoNi2B
_chemical_formula_sum   'Tb2 Al2 Co2 Ni4 B2'
_cell_volume   155.70646527
_cell_formula_units_Z   2
loop_
 _symmetry_equiv_pos_site_id
 _symmetry_equiv_pos_as_xyz
  1  'x, y, z'
loop_
 _atom_site_type_symbol
 _atom_site_label
 _atom_site_symmetry_multiplicity
 _atom_site_fract_x
 _atom_site_fract_y
 _atom_site_fract_z
 _atom_site_occupancy
  Tb  Tb0  1  0.999977  0.000000  0.000000  1
  Tb  Tb1  1  0.999985  0.000000  0.500000  1
  Al  Al2  1  0.335570  0.671178  0.000000  1
  Al  Al3  1  0.664392  0.328822  0.000000  1
  Co  Co4  1  0.499984  0.000000  0.298275  1
  Co  Co5  1  0.499984  0.000000  0.701725  1
  Ni  Ni6  1  0.499986  0.500001  0.293839  1
  Ni  Ni7  1  0.999984  0.499999  0.293839  1
  Ni  Ni8  1  0.499986  0.500001  0.706161  1
  Ni  Ni9  1  0.999984  0.499999  0.706161  1
  B  B10  1  0.337108  0.674248  0.500000  1
  B  B11  1  0.662860  0.325752  0.500000  1
