# generated using pymatgen
data_HoGa5Fe6Ge
_symmetry_space_group_name_H-M   'P 1'
_cell_length_a   5.02317789
_cell_length_b   6.54252490
_cell_length_c   6.54252630
_cell_angle_alpha   80.07345888
_cell_angle_beta   67.42536487
_cell_angle_gamma   67.42535509
_symmetry_Int_Tables_number   1
_chemical_formula_structural   HoGa5Fe6Ge
_chemical_formula_sum   'Ho1 Ga5 Fe6 Ge1'
_cell_volume   183.24981439
_cell_formula_units_Z   1
loop_
 _symmetry_equiv_pos_site_id
 _symmetry_equiv_pos_as_xyz
  1  'x, y, z'
loop_
 _atom_site_type_symbol
 _atom_site_label
 _atom_site_symmetry_multiplicity
 _atom_site_fract_x
 _atom_site_fract_y
 _atom_site_fract_z
 _atom_site_occupancy
  Ho  Ho0  1  0.000000  0.003019  0.996981  1
  Ga  Ga1  1  0.000000  0.346198  0.653802  1
  Ga  Ga2  1  0.342819  0.655382  0.658980  1
  Ga  Ga3  1  0.657181  0.341020  0.344618  1
  Ga  Ga4  1  0.320154  0.179198  0.180494  1
  Ga  Ga5  1  0.679846  0.819506  0.820802  1
  Fe  Fe6  1  0.500000  0.243700  0.756300  1
  Fe  Fe7  1  0.500000  0.754999  0.245001  1
  Fe  Fe8  1  0.998931  0.499950  0.001238  1
  Fe  Fe9  1  0.499880  0.499950  0.001238  1
  Fe  Fe10  1  0.001069  0.998762  0.500050  1
  Fe  Fe11  1  0.500120  0.998762  0.500050  1
  Ge  Ge12  1  0.000000  0.659556  0.340444  1
